0
                    3D
 Structure written by MMmdl.
152161  0  0  1  0            999 V2000
  -30.6696  -14.5839   20.4985 C   0  0  0  0  0  0
  -30.4217  -12.3596   19.4419 C   0  0  0  0  0  0
  -29.4961  -12.4965   18.2146 C   0  0  0  0  0  0
  -28.0179  -12.3518   18.6288 C   0  0  0  0  0  0
  -27.6509  -13.2164   19.8660 C   0  0  2  0  0  0
  -28.6990  -13.0541   20.9893 C   0  0  0  0  0  0
  -25.2551  -13.8180   20.5702 C   0  0  0  0  0  0
  -24.1818  -13.0443   20.9198 C   0  0  0  0  0  0
  -24.6386  -11.6913   20.8750 C   0  0  0  0  0  0
  -23.9059  -10.4294   21.0410 C   0  0  0  0  0  0
  -24.3613   -9.4209   21.9185 C   0  0  0  0  0  0
  -23.6292   -8.2243   22.0753 C   0  0  0  0  0  0
  -22.4274   -8.0281   21.3543 C   0  0  0  0  0  0
  -21.9908   -9.0254   20.4646 C   0  0  0  0  0  0
  -22.7234  -10.2135   20.3058 C   0  0  0  0  0  0
  -21.6852   -6.0736   22.5279 C   0  0  0  0  0  0
  -21.4013   -6.5640   23.8212 C   0  0  0  0  0  0
  -21.3660   -5.6793   24.9175 C   0  0  0  0  0  0
  -21.6045   -4.3055   24.7225 C   0  0  0  0  0  0
  -21.8819   -3.8147   23.4346 C   0  0  0  0  0  0
  -21.9192   -4.6964   22.3402 C   0  0  0  0  0  0
  -22.7841  -13.5235   21.1856 C   0  0  0  0  0  0
  -22.1661   -4.2150   21.0980 F   0  0  0  0  0  0
  -21.5629   -3.4539   25.7737 F   0  0  0  0  0  0
  -30.0064  -13.3897   20.4134 N   0  0  0  0  0  0
  -26.2979  -12.9360   20.3357 N   0  0  0  0  0  0
  -25.9315  -11.6514   20.5782 N   0  0  0  0  0  0
  -22.0482  -12.8228   22.0411 N   0  0  0  0  0  0
  -25.4268  -15.1898   20.4109 N   0  0  0  0  0  0
  -31.8551  -14.6603   20.1574 O   0  0  0  0  0  0
  -21.6638   -6.8878   21.4241 O   0  0  0  0  0  0
  -22.3527  -14.5541   20.6704 O   0  0  0  0  0  0
  -24.6203  -31.8632   23.2051 C   0  0  0  0  0  0
  -25.9074  -32.4795   23.8364 C   0  0  1  0  0  0
  -27.2287  -27.3688   20.1010 C   0  0  0  0  0  0
  -25.5910  -33.8595   24.2296 N   0  0  0  0  0  0
  -23.4105  -30.4865   21.5472 C   0  0  2  0  0  0
  -24.8546  -28.9434   20.1126 C   0  0  0  0  0  0
  -22.7437  -29.4639   22.4964 C   0  0  0  0  0  0
  -18.0278  -28.1379   22.8490 C   0  0  0  0  0  0
  -24.1489  -36.7304   23.2639 C   0  0  0  0  0  0
  -25.9454  -30.8084   21.3672 C   0  0  0  0  0  0
  -26.0185  -29.4382   20.7120 C   0  0  0  0  0  0
  -27.2045  -28.6588   20.7009 C   0  0  0  0  0  0
  -26.0373  -26.9010   19.5002 C   0  0  0  0  0  0
  -24.8623  -27.6776   19.5038 C   0  0  0  0  0  0
  -23.6209  -29.8189   20.1621 C   0  0  0  0  0  0
  -25.4112  -36.3096   24.0332 C   0  0  1  0  0  0
  -20.5872  -28.3674   23.1304 C   0  0  2  0  0  0
  -20.6767  -26.9405   22.5416 C   0  0  0  0  0  0
  -19.5746  -26.6384   21.5213 C   0  0  0  0  0  0
  -18.1925  -26.7925   22.1624 C   0  0  0  0  0  0
  -19.1528  -28.8843   23.2894 C   0  0  0  0  0  0
  -18.9454  -30.1448   23.8906 C   0  0  0  0  0  0
  -17.6456  -30.6585   24.0565 C   0  0  0  0  0  0
  -25.9044  -34.9462   23.5115 C   0  0  0  0  0  0
  -16.5347  -29.9086   23.6327 C   0  0  0  0  0  0
  -16.7266  -28.6503   23.0348 C   0  0  0  0  0  0
  -26.4481  -31.6592   25.0716 C   0  0  0  0  0  0
  -25.3733  -31.3713   26.1456 C   0  0  0  0  0  0
  -27.0318  -30.3027   24.6130 C   0  0  0  0  0  0
  -27.6049  -32.4320   25.7481 C   0  0  0  0  0  0
  -27.5581  -37.1807   24.8465 C   0  0  0  0  0  0
  -21.4159  -29.3035   22.3705 N   0  0  0  0  0  0
  -26.4295  -37.3785   23.9407 N   0  0  0  0  0  0
  -24.6774  -31.0686   22.0976 N   0  0  0  0  0  0
  -23.4186  -28.8185   23.3028 O   0  0  0  0  0  0
  -28.3982  -26.6138   20.1405 O   0  0  0  0  0  0
  -26.5612  -34.8923   22.4680 O   0  0  0  0  0  0
  -23.5382  -32.1411   23.7414 O   0  0  0  0  0  0
  -29.5305  -19.5219   19.9294 C   0  0  0  0  0  0
  -29.6358  -18.1086   20.2098 C   0  0  0  0  0  0
  -29.0331  -17.7359   21.3448 C   0  0  0  0  0  0
  -28.8246  -20.2095   20.9082 C   0  0  0  0  0  0
  -28.3195  -24.0873   20.5135 C   0  0  0  0  0  0
  -30.2447  -16.8835   19.5849 C   0  0  0  0  0  0
  -29.1255  -16.2706   21.6258 C   0  0  0  0  0  0
  -28.7482  -22.6481   20.0557 C   0  0  0  0  0  0
  -28.4938  -25.2878   19.5271 C   0  0  0  0  0  0
  -29.9051  -15.7256   20.4804 N   0  0  0  0  0  0
  -28.4913  -21.5808   21.0549 N   0  0  0  0  0  0
  -27.8473  -24.2560   21.6445 O   0  0  0  0  0  0
  -28.2920  -19.0830   22.1696 S   0  0  0  0  0  0
  -31.4651  -12.4594   19.1378 H   0  0  0  0  0  0
  -30.3361  -11.3646   19.8815 H   0  0  0  0  0  0
  -29.7492  -11.7452   17.4653 H   0  0  0  0  0  0
  -29.6516  -13.4666   17.7396 H   0  0  0  0  0  0
  -27.8418  -11.2985   18.8504 H   0  0  0  0  0  0
  -27.3650  -12.5971   17.7904 H   0  0  0  0  0  0
  -27.6728  -14.2547   19.5351 H   0  0  0  0  0  0
  -28.7053  -12.0271   21.3576 H   0  0  0  0  0  0
  -28.4641  -13.6688   21.8562 H   0  0  0  0  0  0
  -25.2757   -9.5687   22.4760 H   0  0  0  0  0  0
  -24.0003   -7.4633   22.7471 H   0  0  0  0  0  0
  -21.0840   -8.8773   19.8951 H   0  0  0  0  0  0
  -22.3691  -10.9676   19.6169 H   0  0  0  0  0  0
  -21.2004   -7.6148   23.9716 H   0  0  0  0  0  0
  -21.1483   -6.0523   25.9078 H   0  0  0  0  0  0
  -22.0598   -2.7609   23.2845 H   0  0  0  0  0  0
  -22.4095  -11.9889   22.4802 H   0  0  0  0  0  0
  -21.1100  -13.1256   22.2616 H   0  0  0  0  0  0
  -24.6611  -15.8455   20.5212 H   0  0  0  0  0  0
  -26.2800  -15.6292   20.0891 H   0  0  0  0  0  0
  -26.7140  -32.5480   23.1115 H   0  0  0  0  0  0
  -25.0060  -33.9748   25.0441 H   0  0  0  0  0  0
  -22.7020  -31.3054   21.4062 H   0  0  0  0  0  0
  -23.3749  -35.9639   23.3309 H   0  0  0  0  0  0
  -24.3581  -36.8914   22.2052 H   0  0  0  0  0  0
  -23.7244  -37.6510   23.6652 H   0  0  0  0  0  0
  -26.0682  -31.5729   20.5987 H   0  0  0  0  0  0
  -26.8296  -30.8587   21.9912 H   0  0  0  0  0  0
  -28.1023  -29.0380   21.1691 H   0  0  0  0  0  0
  -25.9770  -25.9282   19.0377 H   0  0  0  0  0  0
  -23.9646  -27.2888   19.0430 H   0  0  0  0  0  0
  -23.7354  -30.5940   19.4035 H   0  0  0  0  0  0
  -22.7420  -29.2444   19.8637 H   0  0  0  0  0  0
  -25.1292  -36.1956   25.0826 H   0  0  0  0  0  0
  -20.9963  -28.3243   24.1425 H   0  0  0  0  0  0
  -20.5670  -26.2282   23.3607 H   0  0  0  0  0  0
  -21.6638  -26.7444   22.1209 H   0  0  0  0  0  0
  -19.6909  -25.6298   21.1237 H   0  0  0  0  0  0
  -19.6685  -27.3200   20.6748 H   0  0  0  0  0  0
  -17.4196  -26.6673   21.4025 H   0  0  0  0  0  0
  -18.0326  -26.0064   22.9018 H   0  0  0  0  0  0
  -19.7931  -30.7260   24.2279 H   0  0  0  0  0  0
  -17.5012  -31.6266   24.5164 H   0  0  0  0  0  0
  -15.5348  -30.2992   23.7645 H   0  0  0  0  0  0
  -15.8665  -28.0826   22.7057 H   0  0  0  0  0  0
  -24.5903  -30.7066   25.7788 H   0  0  0  0  0  0
  -24.8928  -32.2873   26.4903 H   0  0  0  0  0  0
  -25.8073  -30.8877   27.0216 H   0  0  0  0  0  0
  -26.2876  -29.6783   24.1173 H   0  0  0  0  0  0
  -27.4060  -29.7273   25.4607 H   0  0  0  0  0  0
  -27.8724  -30.4332   23.9309 H   0  0  0  0  0  0
  -27.2664  -33.3611   26.2079 H   0  0  0  0  0  0
  -28.3847  -32.6895   25.0301 H   0  0  0  0  0  0
  -28.0732  -31.8433   26.5380 H   0  0  0  0  0  0
  -28.2604  -38.0099   24.7509 H   0  0  0  0  0  0
  -28.1071  -36.2631   24.6297 H   0  0  0  0  0  0
  -27.2299  -37.1464   25.8868 H   0  0  0  0  0  0
  -20.9326  -29.8756   21.6922 H   0  0  0  0  0  0
  -26.0181  -38.2864   24.1402 H   0  0  0  0  0  0
  -29.9694  -19.9672   19.0478 H   0  0  0  0  0  0
  -31.3228  -17.0127   19.4761 H   0  0  0  0  0  0
  -29.8360  -16.7041   18.5899 H   0  0  0  0  0  0
  -28.1266  -15.8378   21.6662 H   0  0  0  0  0  0
  -29.6293  -16.0809   22.5749 H   0  0  0  0  0  0
  -29.8115  -22.6698   19.8142 H   0  0  0  0  0  0
  -28.2193  -22.4120   19.1315 H   0  0  0  0  0  0
  -27.8298  -25.1708   18.6731 H   0  0  0  0  0  0
  -29.4993  -25.2067   19.1145 H   0  0  0  0  0  0
  -27.9796  -21.9111   21.8724 H   0  0  0  0  0  0
  1 25  1  0  0  0
  1 30  2  0  0  0
  1 80  1  0  0  0
  2  3  1  0  0  0
  2 25  1  0  0  0
  2 84  1  0  0  0
  2 85  1  0  0  0
  3  4  1  0  0  0
  3 86  1  0  0  0
  3 87  1  0  0  0
  4  5  1  0  0  0
  4 88  1  0  0  0
  4 89  1  0  0  0
  5  6  1  0  0  0
  5 26  1  0  0  0
  5 90  1  0  0  0
  6 25  1  0  0  0
  6 91  1  0  0  0
  6 92  1  0  0  0
  7  8  2  0  0  0
  7 26  1  0  0  0
  7 29  1  0  0  0
  8  9  1  0  0  0
  8 22  1  0  0  0
  9 10  1  0  0  0
  9 27  2  0  0  0
 10 11  2  0  0  0
 10 15  1  0  0  0
 11 12  1  0  0  0
 11 93  1  0  0  0
 12 13  2  0  0  0
 12 94  1  0  0  0
 13 14  1  0  0  0
 13 31  1  0  0  0
 14 15  2  0  0  0
 14 95  1  0  0  0
 15 96  1  0  0  0
 16 17  2  0  0  0
 16 21  1  0  0  0
 16 31  1  0  0  0
 17 18  1  0  0  0
 17 97  1  0  0  0
 18 19  2  0  0  0
 18 98  1  0  0  0
 19 20  1  0  0  0
 19 24  1  0  0  0
 20 21  2  0  0  0
 20 99  1  0  0  0
 21 23  1  0  0  0
 22 28  1  0  0  0
 22 32  2  0  0  0
 26 27  1  0  0  0
 28100  1  0  0  0
 28101  1  0  0  0
 29102  1  0  0  0
 29103  1  0  0  0
 33 34  1  0  0  0
 33 66  1  0  0  0
 33 70  2  0  0  0
 34 36  1  0  0  0
 34 59  1  0  0  0
 34104  1  0  0  0
 35 44  2  0  0  0
 35 45  1  0  0  0
 35 68  1  0  0  0
 36 56  1  0  0  0
 36105  1  0  0  0
 37 39  1  0  0  0
 37 47  1  0  0  0
 37 66  1  0  0  0
 37106  1  0  0  0
 38 43  2  0  0  0
 38 46  1  0  0  0
 38 47  1  0  0  0
 39 64  1  0  0  0
 39 67  2  0  0  0
 40 52  1  0  0  0
 40 53  2  0  0  0
 40 58  1  0  0  0
 41107  1  0  0  0
 41108  1  0  0  0
 41109  1  0  0  0
 41 48  1  0  0  0
 42 43  1  0  0  0
 42 66  1  0  0  0
 42110  1  0  0  0
 42111  1  0  0  0
 43 44  1  0  0  0
 44112  1  0  0  0
 45 46  2  0  0  0
 45113  1  0  0  0
 46114  1  0  0  0
 47115  1  0  0  0
 47116  1  0  0  0
 48 56  1  0  0  0
 48 65  1  0  0  0
 48117  1  0  0  0
 49 50  1  0  0  0
 49 53  1  0  0  0
 49 64  1  0  0  0
 49118  1  0  0  0
 50 51  1  0  0  0
 50119  1  0  0  0
 50120  1  0  0  0
 51 52  1  0  0  0
 51121  1  0  0  0
 51122  1  0  0  0
 52123  1  0  0  0
 52124  1  0  0  0
 53 54  1  0  0  0
 54 55  2  0  0  0
 54125  1  0  0  0
 55 57  1  0  0  0
 55126  1  0  0  0
 56 69  2  0  0  0
 57 58  2  0  0  0
 57127  1  0  0  0
 58128  1  0  0  0
 59 60  1  0  0  0
 59 61  1  0  0  0
 59 62  1  0  0  0
 60129  1  0  0  0
 60130  1  0  0  0
 60131  1  0  0  0
 61132  1  0  0  0
 61133  1  0  0  0
 61134  1  0  0  0
 62135  1  0  0  0
 62136  1  0  0  0
 62137  1  0  0  0
 63 65  1  0  0  0
 63138  1  0  0  0
 63139  1  0  0  0
 63140  1  0  0  0
 64141  1  0  0  0
 65142  1  0  0  0
 68 79  1  0  0  0
 71 72  1  0  0  0
 71 74  2  0  0  0
 71143  1  0  0  0
 72 73  2  0  0  0
 72 76  1  0  0  0
 73 77  1  0  0  0
 73 83  1  0  0  0
 74 81  1  0  0  0
 74 83  1  0  0  0
 75 78  1  0  0  0
 75 79  1  0  0  0
 75 82  2  0  0  0
 76 80  1  0  0  0
 76144  1  0  0  0
 76145  1  0  0  0
 77 80  1  0  0  0
 77146  1  0  0  0
 77147  1  0  0  0
 78 81  1  0  0  0
 78148  1  0  0  0
 78149  1  0  0  0
 79150  1  0  0  0
 79151  1  0  0  0
 81152  1  0  0  0
M  ISO  4   1 100  68 101  79 101  80 100
M  END
> <chiral flag>
0

> <version>
0

> <s_m_source_file>
/data/baiqing/PycharmProjects/Reinvent-master-3.2/result/LINK_invent/BTK/process_docking_weight1_custom_product_contain_oxygen_bond_distance_aromatic_linkinvent_7_9_3/rearranged_h_0151.sdf

> <i_m_source_file_index>
1

> <r_mmod_Potential_Energy-OPLS-2005>
169.71272277832

> <r_mmod_Stretch_Energy-OPLS-2005>
61.1086883544922

> <r_mmod_Bend_Energy-OPLS-2005>
200.522705078125

> <r_mmod_Torsional_Energy-OPLS-2005>
242.612243652344

> <r_mmod_Improper_Torsional_Energy-OPLS-2005>
17.3812789916992

> <r_mmod_Van_der_Waal_Energy-OPLS-2005>
117.193435668945

> <r_mmod_Electrostatic_Energy-OPLS-2005>
-263.803436279297

> <r_mmod_Solvation_Energy-OPLS-2005>
-236.370956420898

> <b_mmod_Minimization_Converged-OPLS-2005>
0

> <r_mmod_RMS_Derivative-OPLS-2005>
0.130121141672134

$$$$
1
                    3D
 Structure written by MMmdl.
152161  0  0  1  0            999 V2000
  -30.5099  -15.0381   20.4048 C   0  0  0  0  0  0
  -30.4417  -12.6498   19.5027 C   0  0  0  0  0  0
  -29.5250  -12.5379   18.2616 C   0  0  0  0  0  0
  -28.0616  -12.3076   18.6835 C   0  0  0  0  0  0
  -27.6237  -13.2540   19.8312 C   0  0  2  0  0  0
  -28.6652  -13.3240   20.9674 C   0  0  0  0  0  0
  -25.2440  -13.8219   20.5716 C   0  0  0  0  0  0
  -24.1769  -13.0436   20.9245 C   0  0  0  0  0  0
  -24.6392  -11.6925   20.8762 C   0  0  0  0  0  0
  -23.9080  -10.4293   21.0413 C   0  0  0  0  0  0
  -24.3630   -9.4205   21.9186 C   0  0  0  0  0  0
  -23.6302   -8.2242   22.0754 C   0  0  0  0  0  0
  -22.4282   -8.0283   21.3547 C   0  0  0  0  0  0
  -21.9921   -9.0258   20.4649 C   0  0  0  0  0  0
  -22.7254  -10.2136   20.3059 C   0  0  0  0  0  0
  -21.6854   -6.0739   22.5283 C   0  0  0  0  0  0
  -21.4015   -6.5642   23.8216 C   0  0  0  0  0  0
  -21.3658   -5.6794   24.9177 C   0  0  0  0  0  0
  -21.6042   -4.3057   24.7227 C   0  0  0  0  0  0
  -21.8818   -3.8150   23.4347 C   0  0  0  0  0  0
  -21.9193   -4.6967   22.3404 C   0  0  0  0  0  0
  -22.7789  -13.5202   21.1896 C   0  0  0  0  0  0
  -22.1661   -4.2154   21.0981 F   0  0  0  0  0  0
  -21.5627   -3.4538   25.7737 F   0  0  0  0  0  0
  -29.9268  -13.7639   20.3574 N   0  0  0  0  0  0
  -26.2859  -12.9460   20.3221 N   0  0  0  0  0  0
  -25.9323  -11.6586   20.5732 N   0  0  0  0  0  0
  -22.0438  -12.8189   22.0449 N   0  0  0  0  0  0
  -25.4084  -15.1951   20.4137 N   0  0  0  0  0  0
  -31.7244  -15.0769   20.1736 O   0  0  0  0  0  0
  -21.6643   -6.8882   21.4244 O   0  0  0  0  0  0
  -22.3474  -14.5505   20.6734 O   0  0  0  0  0  0
  -24.6499  -31.8384   23.1835 C   0  0  0  0  0  0
  -25.9246  -32.4663   23.8244 C   0  0  1  0  0  0
  -27.2125  -27.0683   20.1642 C   0  0  0  0  0  0
  -25.5971  -33.8472   24.2158 N   0  0  0  0  0  0
  -23.4564  -30.4565   21.5305 C   0  0  2  0  0  0
  -24.9058  -28.8711   20.1136 C   0  0  0  0  0  0
  -22.7598  -29.4521   22.4839 C   0  0  0  0  0  0
  -18.0310  -28.1401   22.8475 C   0  0  0  0  0  0
  -24.1491  -36.7238   23.2643 C   0  0  0  0  0  0
  -26.0174  -30.6907   21.3924 C   0  0  0  0  0  0
  -26.0866  -29.2947   20.7362 C   0  0  0  0  0  0
  -27.2409  -28.4123   20.7396 C   0  0  0  0  0  0
  -26.0051  -26.7665   19.4961 C   0  0  0  0  0  0
  -24.8820  -27.6227   19.4760 C   0  0  0  0  0  0
  -23.6870  -29.7828   20.1520 C   0  0  0  0  0  0
  -25.4126  -36.3013   24.0310 C   0  0  1  0  0  0
  -20.5927  -28.3734   23.1221 C   0  0  2  0  0  0
  -20.6790  -26.9430   22.5405 C   0  0  0  0  0  0
  -19.5765  -26.6382   21.5213 C   0  0  0  0  0  0
  -18.1948  -26.7938   22.1623 C   0  0  0  0  0  0
  -19.1569  -28.8886   23.2837 C   0  0  0  0  0  0
  -18.9482  -30.1481   23.8865 C   0  0  0  0  0  0
  -17.6477  -30.6593   24.0558 C   0  0  0  0  0  0
  -25.9083  -34.9391   23.5046 C   0  0  0  0  0  0
  -16.5368  -29.9084   23.6340 C   0  0  0  0  0  0
  -16.7295  -28.6504   23.0359 C   0  0  0  0  0  0
  -26.4542  -31.6555   25.0714 C   0  0  0  0  0  0
  -25.3709  -31.3785   26.1402 C   0  0  0  0  0  0
  -27.0401  -30.2932   24.6350 C   0  0  0  0  0  0
  -27.6063  -32.4332   25.7500 C   0  0  0  0  0  0
  -27.5573  -37.1776   24.8464 C   0  0  0  0  0  0
  -21.4283  -29.3049   22.3585 N   0  0  0  0  0  0
  -26.4283  -37.3733   23.9409 N   0  0  0  0  0  0
  -24.7283  -31.0181   22.0899 N   0  0  0  0  0  0
  -23.4209  -28.8073   23.3017 O   0  0  0  0  0  0
  -28.2526  -26.0461   20.2049 O   0  0  0  0  0  0
  -26.5666  -34.8900   22.4623 O   0  0  0  0  0  0
  -23.5603  -32.1288   23.7019 O   0  0  0  0  0  0
  -29.0259  -18.9343   20.3470 C   0  0  0  0  0  0
  -31.3126  -18.2423   20.6627 C   0  0  0  0  0  0
  -29.3510  -20.4034   20.3866 C   0  0  0  0  0  0
  -30.7232  -20.6814   20.6016 C   0  0  0  0  0  0
  -29.9857  -17.7837   20.4801 C   0  0  0  0  0  0
  -31.6631  -19.6194   20.7255 C   0  0  0  0  0  0
  -30.2826  -23.1536   20.9486 C   0  0  0  0  0  0
  -28.9659  -23.0970   20.1378 C   0  0  2  0  0  0
  -27.9600  -24.4885   20.3462 C   0  0  0  0  0  0
  -31.1941  -22.0151   20.6956 N   0  0  0  0  0  0
  -28.4701  -21.6066   20.2526 N   0  0  0  0  0  0
  -29.7132  -16.2417   20.4792 N   0  0  0  0  0  0
  -32.9673  -19.9381   20.9234 F   0  0  0  0  0  0
  -31.4706  -12.8246   19.1846 H   0  0  0  0  0  0
  -30.4594  -11.7116   20.0592 H   0  0  0  0  0  0
  -29.8611  -11.7274   17.6133 H   0  0  0  0  0  0
  -29.5965  -13.4528   17.6711 H   0  0  0  0  0  0
  -27.9747  -11.2710   19.0113 H   0  0  0  0  0  0
  -27.3963  -12.4128   17.8259 H   0  0  0  0  0  0
  -27.5728  -14.2459   19.3813 H   0  0  0  0  0  0
  -28.7771  -12.3586   21.4630 H   0  0  0  0  0  0
  -28.3489  -14.0331   21.7342 H   0  0  0  0  0  0
  -25.2773   -9.5680   22.4763 H   0  0  0  0  0  0
  -24.0012   -7.4629   22.7467 H   0  0  0  0  0  0
  -21.0854   -8.8782   19.8952 H   0  0  0  0  0  0
  -22.3714  -10.9677   19.6170 H   0  0  0  0  0  0
  -21.2007   -7.6151   23.9720 H   0  0  0  0  0  0
  -21.1479   -6.0524   25.9080 H   0  0  0  0  0  0
  -22.0596   -2.7613   23.2846 H   0  0  0  0  0  0
  -22.4065  -11.9860   22.4848 H   0  0  0  0  0  0
  -21.1050  -13.1203   22.2642 H   0  0  0  0  0  0
  -24.6347  -15.8418   20.5228 H   0  0  0  0  0  0
  -26.2408  -15.6365   20.0466 H   0  0  0  0  0  0
  -26.7312  -32.5247   23.0968 H   0  0  0  0  0  0
  -25.0106  -33.9575   25.0300 H   0  0  0  0  0  0
  -22.7626  -31.2847   21.3720 H   0  0  0  0  0  0
  -23.3759  -35.9563   23.3291 H   0  0  0  0  0  0
  -24.3578  -36.8885   22.2060 H   0  0  0  0  0  0
  -23.7239  -37.6426   23.6690 H   0  0  0  0  0  0
  -26.1809  -31.4408   20.6175 H   0  0  0  0  0  0
  -26.8845  -30.7428   22.0391 H   0  0  0  0  0  0
  -28.1403  -28.7359   21.2446 H   0  0  0  0  0  0
  -25.8946  -25.8241   18.9832 H   0  0  0  0  0  0
  -23.9845  -27.2958   18.9691 H   0  0  0  0  0  0
  -23.8315  -30.5555   19.3960 H   0  0  0  0  0  0
  -22.7995  -29.2305   19.8383 H   0  0  0  0  0  0
  -25.1318  -36.1829   25.0801 H   0  0  0  0  0  0
  -21.0018  -28.3327   24.1343 H   0  0  0  0  0  0
  -20.5678  -26.2350   23.3631 H   0  0  0  0  0  0
  -21.6657  -26.7424   22.1208 H   0  0  0  0  0  0
  -19.6924  -25.6285   21.1265 H   0  0  0  0  0  0
  -19.6703  -27.3175   20.6728 H   0  0  0  0  0  0
  -17.4218  -26.6687   21.4024 H   0  0  0  0  0  0
  -18.0340  -26.0087   22.9026 H   0  0  0  0  0  0
  -19.7958  -30.7307   24.2215 H   0  0  0  0  0  0
  -17.5032  -31.6270   24.5167 H   0  0  0  0  0  0
  -15.5367  -30.2975   23.7684 H   0  0  0  0  0  0
  -15.8696  -28.0814   22.7087 H   0  0  0  0  0  0
  -24.5889  -30.7127   25.7736 H   0  0  0  0  0  0
  -24.8899  -32.2983   26.4737 H   0  0  0  0  0  0
  -25.7978  -30.9023   27.0238 H   0  0  0  0  0  0
  -26.3029  -29.6648   24.1339 H   0  0  0  0  0  0
  -27.3955  -29.7249   25.4957 H   0  0  0  0  0  0
  -27.8971  -30.4133   23.9719 H   0  0  0  0  0  0
  -27.2650  -33.3663   26.1994 H   0  0  0  0  0  0
  -28.3917  -32.6839   25.0357 H   0  0  0  0  0  0
  -28.0682  -31.8510   26.5484 H   0  0  0  0  0  0
  -28.2583  -38.0077   24.7504 H   0  0  0  0  0  0
  -28.1074  -36.2606   24.6296 H   0  0  0  0  0  0
  -27.2295  -37.1432   25.8868 H   0  0  0  0  0  0
  -20.9506  -29.8755   21.6750 H   0  0  0  0  0  0
  -26.0142  -38.2797   24.1415 H   0  0  0  0  0  0
  -27.9859  -18.6782   20.2062 H   0  0  0  0  0  0
  -32.1119  -17.5270   20.7803 H   0  0  0  0  0  0
  -30.0531  -23.1852   22.0150 H   0  0  0  0  0  0
  -30.8069  -24.0843   20.7250 H   0  0  0  0  0  0
  -29.2700  -23.1694   19.0923 H   0  0  0  0  0  0
  -27.5435  -24.3971   21.3497 H   0  0  0  0  0  0
  -27.1171  -24.2811   19.6919 H   0  0  0  0  0  0
  -32.1701  -22.1194   20.9566 H   0  0  0  0  0  0
  -27.4798  -21.4507   20.0896 H   0  0  0  0  0  0
  -28.7321  -16.0151   20.5377 H   0  0  0  0  0  0
  1 25  1  0  0  0
  1 30  2  0  0  0
  1 82  1  0  0  0
  2  3  1  0  0  0
  2 25  1  0  0  0
  2 84  1  0  0  0
  2 85  1  0  0  0
  3  4  1  0  0  0
  3 86  1  0  0  0
  3 87  1  0  0  0
  4  5  1  0  0  0
  4 88  1  0  0  0
  4 89  1  0  0  0
  5  6  1  0  0  0
  5 26  1  0  0  0
  5 90  1  0  0  0
  6 25  1  0  0  0
  6 91  1  0  0  0
  6 92  1  0  0  0
  7  8  2  0  0  0
  7 26  1  0  0  0
  7 29  1  0  0  0
  8  9  1  0  0  0
  8 22  1  0  0  0
  9 10  1  0  0  0
  9 27  2  0  0  0
 10 11  2  0  0  0
 10 15  1  0  0  0
 11 12  1  0  0  0
 11 93  1  0  0  0
 12 13  2  0  0  0
 12 94  1  0  0  0
 13 14  1  0  0  0
 13 31  1  0  0  0
 14 15  2  0  0  0
 14 95  1  0  0  0
 15 96  1  0  0  0
 16 17  2  0  0  0
 16 21  1  0  0  0
 16 31  1  0  0  0
 17 18  1  0  0  0
 17 97  1  0  0  0
 18 19  2  0  0  0
 18 98  1  0  0  0
 19 20  1  0  0  0
 19 24  1  0  0  0
 20 21  2  0  0  0
 20 99  1  0  0  0
 21 23  1  0  0  0
 22 28  1  0  0  0
 22 32  2  0  0  0
 26 27  1  0  0  0
 28100  1  0  0  0
 28101  1  0  0  0
 29102  1  0  0  0
 29103  1  0  0  0
 33 34  1  0  0  0
 33 66  1  0  0  0
 33 70  2  0  0  0
 34 36  1  0  0  0
 34 59  1  0  0  0
 34104  1  0  0  0
 35 44  2  0  0  0
 35 45  1  0  0  0
 35 68  1  0  0  0
 36 56  1  0  0  0
 36105  1  0  0  0
 37 39  1  0  0  0
 37 47  1  0  0  0
 37 66  1  0  0  0
 37106  1  0  0  0
 38 43  2  0  0  0
 38 46  1  0  0  0
 38 47  1  0  0  0
 39 64  1  0  0  0
 39 67  2  0  0  0
 40 52  1  0  0  0
 40 53  2  0  0  0
 40 58  1  0  0  0
 41107  1  0  0  0
 41108  1  0  0  0
 41109  1  0  0  0
 41 48  1  0  0  0
 42 43  1  0  0  0
 42 66  1  0  0  0
 42110  1  0  0  0
 42111  1  0  0  0
 43 44  1  0  0  0
 44112  1  0  0  0
 45 46  2  0  0  0
 45113  1  0  0  0
 46114  1  0  0  0
 47115  1  0  0  0
 47116  1  0  0  0
 48 56  1  0  0  0
 48 65  1  0  0  0
 48117  1  0  0  0
 49 50  1  0  0  0
 49 53  1  0  0  0
 49 64  1  0  0  0
 49118  1  0  0  0
 50 51  1  0  0  0
 50119  1  0  0  0
 50120  1  0  0  0
 51 52  1  0  0  0
 51121  1  0  0  0
 51122  1  0  0  0
 52123  1  0  0  0
 52124  1  0  0  0
 53 54  1  0  0  0
 54 55  2  0  0  0
 54125  1  0  0  0
 55 57  1  0  0  0
 55126  1  0  0  0
 56 69  2  0  0  0
 57 58  2  0  0  0
 57127  1  0  0  0
 58128  1  0  0  0
 59 60  1  0  0  0
 59 61  1  0  0  0
 59 62  1  0  0  0
 60129  1  0  0  0
 60130  1  0  0  0
 60131  1  0  0  0
 61132  1  0  0  0
 61133  1  0  0  0
 61134  1  0  0  0
 62135  1  0  0  0
 62136  1  0  0  0
 62137  1  0  0  0
 63 65  1  0  0  0
 63138  1  0  0  0
 63139  1  0  0  0
 63140  1  0  0  0
 64141  1  0  0  0
 65142  1  0  0  0
 68 79  1  0  0  0
 71 73  2  0  0  0
 71 75  1  0  0  0
 71143  1  0  0  0
 72 75  2  0  0  0
 72 76  1  0  0  0
 72144  1  0  0  0
 73 74  1  0  0  0
 73 81  1  0  0  0
 74 76  2  0  0  0
 74 80  1  0  0  0
 75 82  1  0  0  0
 76 83  1  0  0  0
 77 78  1  0  0  0
 77 80  1  0  0  0
 77145  1  0  0  0
 77146  1  0  0  0
 78 79  1  0  0  0
 78 81  1  0  0  0
 78147  1  0  0  0
 79148  1  0  0  0
 79149  1  0  0  0
 80150  1  0  0  0
 81151  1  0  0  0
 82152  1  0  0  0
M  ISO  4   1 100  68 101  79 101  82 100
M  END
> <chiral flag>
0

> <version>
0

> <s_m_source_file>
/data/baiqing/PycharmProjects/Reinvent-master-3.2/result/LINK_invent/BTK/process_docking_weight1_custom_product_contain_oxygen_bond_distance_aromatic_linkinvent_7_9_3/rearranged_h_0151.sdf

> <i_m_source_file_index>
2

> <r_mmod_Potential_Energy-OPLS-2005>
770.929992675781

> <r_mmod_Stretch_Energy-OPLS-2005>
324.681976318359

> <r_mmod_Bend_Energy-OPLS-2005>
288.773223876953

> <r_mmod_Torsional_Energy-OPLS-2005>
222.174026489258

> <r_mmod_Improper_Torsional_Energy-OPLS-2005>
6.56352996826172

> <r_mmod_Van_der_Waal_Energy-OPLS-2005>
139.208984375

> <r_mmod_Electrostatic_Energy-OPLS-2005>
-224.8046875

> <r_mmod_Solvation_Energy-OPLS-2005>
-243.513671875

> <b_mmod_Minimization_Converged-OPLS-2005>
0

> <r_mmod_RMS_Derivative-OPLS-2005>
0.529426097869873

$$$$
2
                    3D
 Structure written by MMmdl.
156165  0  0  1  0            999 V2000
  -30.6881  -14.5098   20.5562 C   0  0  0  0  0  0
  -30.4272  -12.3245   19.4275 C   0  0  0  0  0  0
  -29.4978  -12.5019   18.2085 C   0  0  0  0  0  0
  -28.0194  -12.3577   18.6214 C   0  0  0  0  0  0
  -27.6595  -13.2080   19.8694 C   0  0  2  0  0  0
  -28.7027  -13.0100   20.9931 C   0  0  0  0  0  0
  -25.2586  -13.8155   20.5665 C   0  0  0  0  0  0
  -24.1846  -13.0438   20.9191 C   0  0  0  0  0  0
  -24.6400  -11.6906   20.8744 C   0  0  0  0  0  0
  -23.9067  -10.4291   21.0414 C   0  0  0  0  0  0
  -24.3618   -9.4206   21.9191 C   0  0  0  0  0  0
  -23.6293   -8.2242   22.0758 C   0  0  0  0  0  0
  -22.4274   -8.0282   21.3550 C   0  0  0  0  0  0
  -21.9912   -9.0256   20.4650 C   0  0  0  0  0  0
  -22.7242  -10.2135   20.3061 C   0  0  0  0  0  0
  -21.6850   -6.0740   22.5285 C   0  0  0  0  0  0
  -21.4012   -6.5643   23.8219 C   0  0  0  0  0  0
  -21.3658   -5.6795   24.9178 C   0  0  0  0  0  0
  -21.6041   -4.3059   24.7228 C   0  0  0  0  0  0
  -21.8819   -3.8151   23.4351 C   0  0  0  0  0  0
  -21.9192   -4.6968   22.3406 C   0  0  0  0  0  0
  -22.7870  -13.5244   21.1851 C   0  0  0  0  0  0
  -22.1661   -4.2154   21.0985 F   0  0  0  0  0  0
  -21.5626   -3.4540   25.7741 F   0  0  0  0  0  0
  -30.0312  -13.3204   20.4377 N   0  0  0  0  0  0
  -26.3017  -12.9328   20.3333 N   0  0  0  0  0  0
  -25.9326  -11.6491   20.5765 N   0  0  0  0  0  0
  -22.0496  -12.8236   22.0394 N   0  0  0  0  0  0
  -25.4304  -15.1869   20.4031 N   0  0  0  0  0  0
  -31.8301  -14.6759   20.1186 O   0  0  0  0  0  0
  -21.6640   -6.8880   21.4245 O   0  0  0  0  0  0
  -22.3564  -14.5557   20.6702 O   0  0  0  0  0  0
  -24.6202  -31.8661   23.2107 C   0  0  0  0  0  0
  -25.9085  -32.4813   23.8395 C   0  0  1  0  0  0
  -27.2217  -27.3971   20.0886 C   0  0  0  0  0  0
  -25.5920  -33.8608   24.2323 N   0  0  0  0  0  0
  -23.4077  -30.4951   21.5526 C   0  0  2  0  0  0
  -24.8497  -28.9671   20.1099 C   0  0  0  0  0  0
  -22.7431  -29.4666   22.4975 C   0  0  0  0  0  0
  -18.0276  -28.1376   22.8482 C   0  0  0  0  0  0
  -24.1492  -36.7307   23.2638 C   0  0  0  0  0  0
  -25.9445  -30.8182   21.3735 C   0  0  0  0  0  0
  -26.0161  -29.4542   20.7130 C   0  0  0  0  0  0
  -27.2039  -28.6776   20.7009 C   0  0  0  0  0  0
  -26.0327  -26.9531   19.4564 C   0  0  0  0  0  0
  -24.8555  -27.7168   19.4781 C   0  0  0  0  0  0
  -23.6151  -29.8379   20.1648 C   0  0  0  0  0  0
  -25.4110  -36.3104   24.0343 C   0  0  1  0  0  0
  -20.5874  -28.3665   23.1303 C   0  0  2  0  0  0
  -20.6777  -26.9400   22.5410 C   0  0  0  0  0  0
  -19.5762  -26.6380   21.5209 C   0  0  0  0  0  0
  -18.1932  -26.7925   22.1612 C   0  0  0  0  0  0
  -19.1526  -28.8834   23.2892 C   0  0  0  0  0  0
  -18.9456  -30.1439   23.8907 C   0  0  0  0  0  0
  -17.6459  -30.6580   24.0563 C   0  0  0  0  0  0
  -25.9037  -34.9469   23.5127 C   0  0  0  0  0  0
  -16.5347  -29.9082   23.6331 C   0  0  0  0  0  0
  -16.7265  -28.6498   23.0351 C   0  0  0  0  0  0
  -26.4485  -31.6599   25.0737 C   0  0  0  0  0  0
  -25.3735  -31.3722   26.1475 C   0  0  0  0  0  0
  -27.0322  -30.3037   24.6139 C   0  0  0  0  0  0
  -27.6058  -32.4317   25.7500 C   0  0  0  0  0  0
  -27.5584  -37.1809   24.8465 C   0  0  0  0  0  0
  -21.4151  -29.3041   22.3712 N   0  0  0  0  0  0
  -26.4295  -37.3791   23.9409 N   0  0  0  0  0  0
  -24.6759  -31.0734   22.1029 N   0  0  0  0  0  0
  -23.4190  -28.8198   23.3019 O   0  0  0  0  0  0
  -28.3597  -26.5970   20.1302 O   0  0  0  0  0  0
  -26.5594  -34.8929   22.4688 O   0  0  0  0  0  0
  -23.5382  -32.1432   23.7478 O   0  0  0  0  0  0
  -31.7426  -18.8901   21.2090 C   0  0  0  0  0  0
  -31.5174  -17.4883   21.1831 C   0  0  0  0  0  0
  -29.1146  -17.8480   20.8673 C   0  0  0  0  0  0
  -30.6367  -19.7484   21.0575 C   0  0  0  0  0  0
  -29.3600  -19.2422   20.8852 C   0  0  0  0  0  0
  -30.2092  -16.9467   21.0092 C   0  0  0  0  0  0
  -30.5360  -21.2039   21.1024 C   0  0  0  0  0  0
  -29.1775  -24.2193   20.4811 C   0  0  0  0  0  0
  -28.3871  -20.4003   20.7706 C   0  0  0  0  0  0
  -28.6230  -22.9502   21.1876 C   0  0  0  0  0  0
  -28.1286  -25.1835   19.8786 C   0  0  0  0  0  0
  -29.2548  -21.6082   20.9394 N   0  0  0  0  0  0
  -29.9409  -15.5341   21.0308 N   0  0  0  0  0  0
  -31.5482  -22.0341   21.3224 N   0  3  0  0  0  0
  -30.3918  -24.4431   20.4135 O   0  0  0  0  0  0
  -31.4707  -12.4277   19.1245 H   0  0  0  0  0  0
  -30.3347  -11.3172   19.8368 H   0  0  0  0  0  0
  -29.7428  -11.7683   17.4391 H   0  0  0  0  0  0
  -29.6606  -13.4826   17.7586 H   0  0  0  0  0  0
  -27.8362  -11.3025   18.8285 H   0  0  0  0  0  0
  -27.3687  -12.6186   17.7857 H   0  0  0  0  0  0
  -27.6967  -14.2519   19.5585 H   0  0  0  0  0  0
  -28.6846  -11.9788   21.3489 H   0  0  0  0  0  0
  -28.4614  -13.6213   21.8643 H   0  0  0  0  0  0
  -25.2762   -9.5681   22.4767 H   0  0  0  0  0  0
  -24.0004   -7.4631   22.7473 H   0  0  0  0  0  0
  -21.0845   -8.8778   19.8950 H   0  0  0  0  0  0
  -22.3707  -10.9677   19.6170 H   0  0  0  0  0  0
  -21.2002   -7.6150   23.9726 H   0  0  0  0  0  0
  -21.1477   -6.0524   25.9084 H   0  0  0  0  0  0
  -22.0596   -2.7614   23.2852 H   0  0  0  0  0  0
  -22.4096  -11.9895   22.4792 H   0  0  0  0  0  0
  -21.1114  -13.1272   22.2587 H   0  0  0  0  0  0
  -24.6540  -15.8345   20.4860 H   0  0  0  0  0  0
  -26.2614  -15.6134   20.0150 H   0  0  0  0  0  0
  -26.7154  -32.5494   23.1149 H   0  0  0  0  0  0
  -25.0110  -33.9763   25.0495 H   0  0  0  0  0  0
  -22.6991  -31.3144   21.4178 H   0  0  0  0  0  0
  -23.3758  -35.9638   23.3304 H   0  0  0  0  0  0
  -24.3588  -36.8909   22.2052 H   0  0  0  0  0  0
  -23.7245  -37.6517   23.6639 H   0  0  0  0  0  0
  -26.0708  -31.5860   20.6090 H   0  0  0  0  0  0
  -26.8278  -30.8602   21.9983 H   0  0  0  0  0  0
  -28.0986  -29.0476   21.1821 H   0  0  0  0  0  0
  -25.9768  -26.0101   18.9333 H   0  0  0  0  0  0
  -23.9630  -27.3397   18.9973 H   0  0  0  0  0  0
  -23.7260  -30.6169   19.4102 H   0  0  0  0  0  0
  -22.7370  -29.2623   19.8654 H   0  0  0  0  0  0
  -25.1291  -36.1970   25.0838 H   0  0  0  0  0  0
  -20.9952  -28.3221   24.1430 H   0  0  0  0  0  0
  -20.5694  -26.2260   23.3594 H   0  0  0  0  0  0
  -21.6647  -26.7458   22.1192 H   0  0  0  0  0  0
  -19.6935  -25.6293   21.1228 H   0  0  0  0  0  0
  -19.6713  -27.3195   20.6748 H   0  0  0  0  0  0
  -17.4208  -26.6663   21.4006 H   0  0  0  0  0  0
  -18.0337  -26.0058   22.9001 H   0  0  0  0  0  0
  -19.7934  -30.7245   24.2277 H   0  0  0  0  0  0
  -17.5023  -31.6269   24.5152 H   0  0  0  0  0  0
  -15.5352  -30.2998   23.7656 H   0  0  0  0  0  0
  -15.8659  -28.0827   22.7075 H   0  0  0  0  0  0
  -24.5914  -30.7058   25.7812 H   0  0  0  0  0  0
  -24.8922  -32.2885   26.4899 H   0  0  0  0  0  0
  -25.8078  -30.8906   27.0247 H   0  0  0  0  0  0
  -26.2879  -29.6795   24.1174 H   0  0  0  0  0  0
  -27.4071  -29.7269   25.4604 H   0  0  0  0  0  0
  -27.8724  -30.4355   23.9320 H   0  0  0  0  0  0
  -27.2683  -33.3615   26.2095 H   0  0  0  0  0  0
  -28.3864  -32.6877   25.0319 H   0  0  0  0  0  0
  -28.0736  -31.8428   26.5403 H   0  0  0  0  0  0
  -28.2605  -38.0105   24.7512 H   0  0  0  0  0  0
  -28.1081  -36.2634   24.6291 H   0  0  0  0  0  0
  -27.2298  -37.1461   25.8868 H   0  0  0  0  0  0
  -20.9305  -29.8760   21.6935 H   0  0  0  0  0  0
  -26.0187  -38.2873   24.1403 H   0  0  0  0  0  0
  -32.7368  -19.2852   21.3613 H   0  0  0  0  0  0
  -32.3656  -16.8339   21.3214 H   0  0  0  0  0  0
  -28.1042  -17.4818   20.7500 H   0  0  0  0  0  0
  -27.6281  -20.3382   21.5518 H   0  0  0  0  0  0
  -27.8916  -20.3964   19.7986 H   0  0  0  0  0  0
  -27.5629  -22.8703   20.9459 H   0  0  0  0  0  0
  -28.6625  -23.1470   22.2593 H   0  0  0  0  0  0
  -27.1689  -24.8825   20.2977 H   0  0  0  0  0  0
  -28.0826  -25.0133   18.8025 H   0  0  0  0  0  0
  -29.0006  -15.2723   21.2803 H   0  0  0  0  0  0
  -32.4779  -21.6737   21.4725 H   0  0  0  0  0  0
  -31.4236  -23.0281   21.1632 H   0  0  0  0  0  0
  1 25  1  0  0  0
  1 30  2  0  0  0
  1 83  1  0  0  0
  2  3  1  0  0  0
  2 25  1  0  0  0
  2 86  1  0  0  0
  2 87  1  0  0  0
  3  4  1  0  0  0
  3 88  1  0  0  0
  3 89  1  0  0  0
  4  5  1  0  0  0
  4 90  1  0  0  0
  4 91  1  0  0  0
  5  6  1  0  0  0
  5 26  1  0  0  0
  5 92  1  0  0  0
  6 25  1  0  0  0
  6 93  1  0  0  0
  6 94  1  0  0  0
  7  8  2  0  0  0
  7 26  1  0  0  0
  7 29  1  0  0  0
  8  9  1  0  0  0
  8 22  1  0  0  0
  9 10  1  0  0  0
  9 27  2  0  0  0
 10 11  2  0  0  0
 10 15  1  0  0  0
 11 12  1  0  0  0
 11 95  1  0  0  0
 12 13  2  0  0  0
 12 96  1  0  0  0
 13 14  1  0  0  0
 13 31  1  0  0  0
 14 15  2  0  0  0
 14 97  1  0  0  0
 15 98  1  0  0  0
 16 17  2  0  0  0
 16 21  1  0  0  0
 16 31  1  0  0  0
 17 18  1  0  0  0
 17 99  1  0  0  0
 18 19  2  0  0  0
 18100  1  0  0  0
 19 20  1  0  0  0
 19 24  1  0  0  0
 20 21  2  0  0  0
 20101  1  0  0  0
 21 23  1  0  0  0
 22 28  1  0  0  0
 22 32  2  0  0  0
 26 27  1  0  0  0
 28102  1  0  0  0
 28103  1  0  0  0
 29104  1  0  0  0
 29105  1  0  0  0
 33 34  1  0  0  0
 33 66  1  0  0  0
 33 70  2  0  0  0
 34 36  1  0  0  0
 34 59  1  0  0  0
 34106  1  0  0  0
 35 44  2  0  0  0
 35 45  1  0  0  0
 35 68  1  0  0  0
 36 56  1  0  0  0
 36107  1  0  0  0
 37 39  1  0  0  0
 37 47  1  0  0  0
 37 66  1  0  0  0
 37108  1  0  0  0
 38 43  2  0  0  0
 38 46  1  0  0  0
 38 47  1  0  0  0
 39 64  1  0  0  0
 39 67  2  0  0  0
 40 52  1  0  0  0
 40 53  2  0  0  0
 40 58  1  0  0  0
 41109  1  0  0  0
 41110  1  0  0  0
 41111  1  0  0  0
 41 48  1  0  0  0
 42 43  1  0  0  0
 42 66  1  0  0  0
 42112  1  0  0  0
 42113  1  0  0  0
 43 44  1  0  0  0
 44114  1  0  0  0
 45 46  2  0  0  0
 45115  1  0  0  0
 46116  1  0  0  0
 47117  1  0  0  0
 47118  1  0  0  0
 48 56  1  0  0  0
 48 65  1  0  0  0
 48119  1  0  0  0
 49 50  1  0  0  0
 49 53  1  0  0  0
 49 64  1  0  0  0
 49120  1  0  0  0
 50 51  1  0  0  0
 50121  1  0  0  0
 50122  1  0  0  0
 51 52  1  0  0  0
 51123  1  0  0  0
 51124  1  0  0  0
 52125  1  0  0  0
 52126  1  0  0  0
 53 54  1  0  0  0
 54 55  2  0  0  0
 54127  1  0  0  0
 55 57  1  0  0  0
 55128  1  0  0  0
 56 69  2  0  0  0
 57 58  2  0  0  0
 57129  1  0  0  0
 58130  1  0  0  0
 59 60  1  0  0  0
 59 61  1  0  0  0
 59 62  1  0  0  0
 60131  1  0  0  0
 60132  1  0  0  0
 60133  1  0  0  0
 61134  1  0  0  0
 61135  1  0  0  0
 61136  1  0  0  0
 62137  1  0  0  0
 62138  1  0  0  0
 62139  1  0  0  0
 63 65  1  0  0  0
 63140  1  0  0  0
 63141  1  0  0  0
 63142  1  0  0  0
 64143  1  0  0  0
 65144  1  0  0  0
 68 81  1  0  0  0
 71 72  2  0  0  0
 71 74  1  0  0  0
 71145  1  0  0  0
 72 76  1  0  0  0
 72146  1  0  0  0
 73 75  1  0  0  0
 73 76  2  0  0  0
 73147  1  0  0  0
 74 75  2  0  0  0
 74 77  1  0  0  0
 75 79  1  0  0  0
 76 83  1  0  0  0
 77 82  1  0  0  0
 77 84  2  0  0  0
 78 80  1  0  0  0
 78 81  1  0  0  0
 78 85  2  0  0  0
 79 82  1  0  0  0
 79148  1  0  0  0
 79149  1  0  0  0
 80 82  1  0  0  0
 80150  1  0  0  0
 80151  1  0  0  0
 81152  1  0  0  0
 81153  1  0  0  0
 83154  1  0  0  0
 84155  1  0  0  0
 84156  1  0  0  0
M  CHG  1  84   1
M  ISO  4   1 100  68 101  81 101  83 100
M  END
> <chiral flag>
0

> <version>
0

> <s_m_source_file>
/data/baiqing/PycharmProjects/Reinvent-master-3.2/result/LINK_invent/BTK/process_docking_weight1_custom_product_contain_oxygen_bond_distance_aromatic_linkinvent_7_9_3/rearranged_h_0151.sdf

> <i_m_source_file_index>
3

> <r_mmod_Potential_Energy-OPLS-2005>
-184.198501586914

> <r_mmod_Stretch_Energy-OPLS-2005>
48.9046936035156

> <r_mmod_Bend_Energy-OPLS-2005>
181.481567382812

> <r_mmod_Torsional_Energy-OPLS-2005>
223.457946777344

> <r_mmod_Improper_Torsional_Energy-OPLS-2005>
5.48324775695801

> <r_mmod_Van_der_Waal_Energy-OPLS-2005>
158.476501464844

> <r_mmod_Electrostatic_Energy-OPLS-2005>
-397.250427246094

> <r_mmod_Solvation_Energy-OPLS-2005>
-425.328521728516

> <b_mmod_Minimization_Converged-OPLS-2005>
0

> <r_mmod_RMS_Derivative-OPLS-2005>
1.19878566265106

$$$$
3
                    3D
 Structure written by MMmdl.
160168  0  0  1  0            999 V2000
  -30.4940  -15.0572   20.4107 C   0  0  0  0  0  0
  -30.4467  -12.6681   19.4800 C   0  0  0  0  0  0
  -29.5218  -12.5346   18.2474 C   0  0  0  0  0  0
  -28.0603  -12.3011   18.6784 C   0  0  0  0  0  0
  -27.6208  -13.2502   19.8232 C   0  0  2  0  0  0
  -28.6696  -13.3305   20.9498 C   0  0  0  0  0  0
  -25.2447  -13.8205   20.5729 C   0  0  0  0  0  0
  -24.1767  -13.0422   20.9239 C   0  0  0  0  0  0
  -24.6395  -11.6913   20.8759 C   0  0  0  0  0  0
  -23.9081  -10.4282   21.0406 C   0  0  0  0  0  0
  -24.3629   -9.4197   21.9186 C   0  0  0  0  0  0
  -23.6298   -8.2236   22.0757 C   0  0  0  0  0  0
  -22.4280   -8.0278   21.3545 C   0  0  0  0  0  0
  -21.9917   -9.0251   20.4647 C   0  0  0  0  0  0
  -22.7251  -10.2128   20.3053 C   0  0  0  0  0  0
  -21.6852   -6.0735   22.5277 C   0  0  0  0  0  0
  -21.4015   -6.5639   23.8210 C   0  0  0  0  0  0
  -21.3660   -5.6791   24.9173 C   0  0  0  0  0  0
  -21.6043   -4.3052   24.7224 C   0  0  0  0  0  0
  -21.8819   -3.8147   23.4344 C   0  0  0  0  0  0
  -21.9195   -4.6964   22.3401 C   0  0  0  0  0  0
  -22.7790  -13.5198   21.1885 C   0  0  0  0  0  0
  -22.1661   -4.2150   21.0978 F   0  0  0  0  0  0
  -21.5631   -3.4535   25.7737 F   0  0  0  0  0  0
  -29.9174  -13.7824   20.3209 N   0  0  0  0  0  0
  -26.2858  -12.9436   20.3216 N   0  0  0  0  0  0
  -25.9326  -11.6568   20.5729 N   0  0  0  0  0  0
  -22.0440  -12.8187   22.0441 N   0  0  0  0  0  0
  -25.4086  -15.1941   20.4179 N   0  0  0  0  0  0
  -31.7256  -15.0965   20.2849 O   0  0  0  0  0  0
  -21.6642   -6.8878   21.4239 O   0  0  0  0  0  0
  -22.3475  -14.5501   20.6729 O   0  0  0  0  0  0
  -24.6503  -31.8368   23.1805 C   0  0  0  0  0  0
  -25.9244  -32.4659   23.8225 C   0  0  1  0  0  0
  -27.2202  -27.0613   20.1815 C   0  0  0  0  0  0
  -25.5960  -33.8467   24.2142 N   0  0  0  0  0  0
  -23.4576  -30.4519   21.5284 C   0  0  2  0  0  0
  -24.9063  -28.8516   20.1269 C   0  0  0  0  0  0
  -22.7591  -29.4517   22.4845 C   0  0  0  0  0  0
  -18.0305  -28.1407   22.8471 C   0  0  0  0  0  0
  -24.1488  -36.7242   23.2646 C   0  0  0  0  0  0
  -26.0171  -30.6876   21.3879 C   0  0  0  0  0  0
  -26.0875  -29.2858   20.7432 C   0  0  0  0  0  0
  -27.2472  -28.4115   20.7415 C   0  0  0  0  0  0
  -26.0093  -26.7345   19.5385 C   0  0  0  0  0  0
  -24.8827  -27.5905   19.5087 C   0  0  0  0  0  0
  -23.6899  -29.7684   20.1544 C   0  0  0  0  0  0
  -25.4125  -36.3013   24.0309 C   0  0  1  0  0  0
  -20.5920  -28.3743   23.1218 C   0  0  2  0  0  0
  -20.6789  -26.9443   22.5401 C   0  0  0  0  0  0
  -19.5765  -26.6386   21.5210 C   0  0  0  0  0  0
  -18.1946  -26.7942   22.1621 C   0  0  0  0  0  0
  -19.1564  -28.8893   23.2832 C   0  0  0  0  0  0
  -18.9480  -30.1483   23.8866 C   0  0  0  0  0  0
  -17.6479  -30.6600   24.0567 C   0  0  0  0  0  0
  -25.9082  -34.9391   23.5040 C   0  0  0  0  0  0
  -16.5368  -29.9095   23.6344 C   0  0  0  0  0  0
  -16.7290  -28.6516   23.0359 C   0  0  0  0  0  0
  -26.4537  -31.6552   25.0699 C   0  0  0  0  0  0
  -25.3705  -31.3767   26.1384 C   0  0  0  0  0  0
  -27.0412  -30.2939   24.6328 C   0  0  0  0  0  0
  -27.6047  -32.4338   25.7496 C   0  0  0  0  0  0
  -27.5570  -37.1776   24.8467 C   0  0  0  0  0  0
  -21.4279  -29.3052   22.3581 N   0  0  0  0  0  0
  -26.4282  -37.3734   23.9412 N   0  0  0  0  0  0
  -24.7291  -31.0155   22.0874 N   0  0  0  0  0  0
  -23.4196  -28.8080   23.3038 O   0  0  0  0  0  0
  -28.2981  -26.0900   20.0875 O   0  0  0  0  0  0
  -26.5681  -34.8906   22.4627 O   0  0  0  0  0  0
  -23.5602  -32.1267   23.6982 O   0  0  0  0  0  0
  -28.9264  -20.2148   22.0681 C   0  0  0  0  0  0
  -29.4599  -17.7995   22.1592 C   0  0  0  0  0  0
  -29.1108  -19.0148   22.7891 C   0  0  0  0  0  0
  -29.1299  -20.2575   20.6805 C   0  0  0  0  0  0
  -29.6276  -17.7125   20.7676 C   0  0  0  0  0  0
  -28.9400  -19.0288   24.2374 C   0  0  0  0  0  0
  -28.2220  -23.1393   20.0768 C   0  0  0  0  0  0
  -30.6644  -22.3111   20.4340 C   0  0  0  0  0  0
  -29.3644  -21.5217   18.4705 C   0  0  0  0  0  0
  -28.4315  -24.6634   20.7736 C   0  0  0  0  0  0
  -29.2800  -21.7953   19.9906 C   0  0  0  0  0  0
  -29.4752  -18.9796   20.0826 N   0  0  0  0  0  0
  -29.8162  -18.3910   25.0158 N   0  0  0  0  0  0
  -29.6836  -16.2431   20.2553 N   0  0  0  0  0  0
  -27.9095  -19.6829   24.7762 N   0  3  0  0  0  0
  -27.1216  -22.9838   19.5354 O   0  0  0  0  0  0
  -31.4696  -12.8622   19.1545 H   0  0  0  0  0  0
  -30.4820  -11.7357   20.0455 H   0  0  0  0  0  0
  -29.8584  -11.7192   17.6056 H   0  0  0  0  0  0
  -29.5836  -13.4430   17.6462 H   0  0  0  0  0  0
  -27.9781  -11.2657   19.0105 H   0  0  0  0  0  0
  -27.3907  -12.3998   17.8231 H   0  0  0  0  0  0
  -27.5609  -14.2380   19.3667 H   0  0  0  0  0  0
  -28.7962  -12.3679   21.4477 H   0  0  0  0  0  0
  -28.3561  -14.0420   21.7157 H   0  0  0  0  0  0
  -25.2773   -9.5674   22.4763 H   0  0  0  0  0  0
  -24.0004   -7.4628   22.7477 H   0  0  0  0  0  0
  -21.0848   -8.8767   19.8955 H   0  0  0  0  0  0
  -22.3704  -10.9667   19.6163 H   0  0  0  0  0  0
  -21.2003   -7.6146   23.9712 H   0  0  0  0  0  0
  -21.1484   -6.0522   25.9075 H   0  0  0  0  0  0
  -22.0601   -2.7610   23.2842 H   0  0  0  0  0  0
  -22.4062  -11.9852   22.4830 H   0  0  0  0  0  0
  -21.1052  -13.1199   22.2636 H   0  0  0  0  0  0
  -24.6367  -15.8408   20.5383 H   0  0  0  0  0  0
  -26.2499  -15.6455   20.0863 H   0  0  0  0  0  0
  -26.7314  -32.5245   23.0951 H   0  0  0  0  0  0
  -25.0072  -33.9565   25.0267 H   0  0  0  0  0  0
  -22.7650  -31.2799   21.3639 H   0  0  0  0  0  0
  -23.3755  -35.9566   23.3291 H   0  0  0  0  0  0
  -24.3567  -36.8897   22.2064 H   0  0  0  0  0  0
  -23.7235  -37.6428   23.6700 H   0  0  0  0  0  0
  -26.1753  -31.4310   20.6054 H   0  0  0  0  0  0
  -26.8868  -30.7475   22.0308 H   0  0  0  0  0  0
  -28.1603  -28.7551   21.2070 H   0  0  0  0  0  0
  -25.9293  -25.7721   19.0520 H   0  0  0  0  0  0
  -23.9829  -27.2530   19.0134 H   0  0  0  0  0  0
  -23.8413  -30.5359   19.3943 H   0  0  0  0  0  0
  -22.8020  -29.2170   19.8404 H   0  0  0  0  0  0
  -25.1314  -36.1828   25.0798 H   0  0  0  0  0  0
  -21.0005  -28.3345   24.1343 H   0  0  0  0  0  0
  -20.5679  -26.2365   23.3627 H   0  0  0  0  0  0
  -21.6656  -26.7442   22.1207 H   0  0  0  0  0  0
  -19.6936  -25.6286   21.1265 H   0  0  0  0  0  0
  -19.6706  -27.3175   20.6725 H   0  0  0  0  0  0
  -17.4214  -26.6678   21.4027 H   0  0  0  0  0  0
  -18.0355  -26.0089   22.9025 H   0  0  0  0  0  0
  -19.7958  -30.7306   24.2220 H   0  0  0  0  0  0
  -17.5037  -31.6277   24.5176 H   0  0  0  0  0  0
  -15.5372  -30.2997   23.7679 H   0  0  0  0  0  0
  -15.8686  -28.0830   22.7092 H   0  0  0  0  0  0
  -24.5889  -30.7111   25.7705 H   0  0  0  0  0  0
  -24.8894  -32.2960   26.4734 H   0  0  0  0  0  0
  -25.7970  -30.8990   27.0212 H   0  0  0  0  0  0
  -26.3043  -29.6650   24.1322 H   0  0  0  0  0  0
  -27.3986  -29.7258   25.4925 H   0  0  0  0  0  0
  -27.8963  -30.4157   23.9678 H   0  0  0  0  0  0
  -27.2622  -33.3664   26.1992 H   0  0  0  0  0  0
  -28.3901  -32.6860   25.0361 H   0  0  0  0  0  0
  -28.0669  -31.8524   26.5484 H   0  0  0  0  0  0
  -28.2577  -38.0083   24.7511 H   0  0  0  0  0  0
  -28.1072  -36.2609   24.6288 H   0  0  0  0  0  0
  -27.2288  -37.1418   25.8870 H   0  0  0  0  0  0
  -20.9508  -29.8750   21.6735 H   0  0  0  0  0  0
  -26.0140  -38.2796   24.1418 H   0  0  0  0  0  0
  -28.7206  -21.1283   22.6075 H   0  0  0  0  0  0
  -29.5218  -16.9069   22.7649 H   0  0  0  0  0  0
  -30.7011  -22.4529   21.5141 H   0  0  0  0  0  0
  -30.9219  -23.2619   19.9665 H   0  0  0  0  0  0
  -31.4526  -21.6019   20.1790 H   0  0  0  0  0  0
  -29.4874  -22.4365   17.8895 H   0  0  0  0  0  0
  -28.4619  -21.0237   18.1145 H   0  0  0  0  0  0
  -30.2065  -20.8744   18.2242 H   0  0  0  0  0  0
  -29.4263  -24.6499   21.2158 H   0  0  0  0  0  0
  -27.7570  -24.6850   21.6292 H   0  0  0  0  0  0
  -30.6082  -17.9483   24.5763 H   0  0  0  0  0  0
  -29.7621  -18.3684   26.0196 H   0  0  0  0  0  0
  -28.7852  -15.9697   19.8945 H   0  0  0  0  0  0
  -27.2462  -20.1182   24.1534 H   0  0  0  0  0  0
  -27.7378  -19.7286   25.7658 H   0  0  0  0  0  0
  1 25  1  0  0  0
  1 30  2  0  0  0
  1 84  1  0  0  0
  2  3  1  0  0  0
  2 25  1  0  0  0
  2 87  1  0  0  0
  2 88  1  0  0  0
  3  4  1  0  0  0
  3 89  1  0  0  0
  3 90  1  0  0  0
  4  5  1  0  0  0
  4 91  1  0  0  0
  4 92  1  0  0  0
  5  6  1  0  0  0
  5 26  1  0  0  0
  5 93  1  0  0  0
  6 25  1  0  0  0
  6 94  1  0  0  0
  6 95  1  0  0  0
  7  8  2  0  0  0
  7 26  1  0  0  0
  7 29  1  0  0  0
  8  9  1  0  0  0
  8 22  1  0  0  0
  9 10  1  0  0  0
  9 27  2  0  0  0
 10 11  2  0  0  0
 10 15  1  0  0  0
 11 12  1  0  0  0
 11 96  1  0  0  0
 12 13  2  0  0  0
 12 97  1  0  0  0
 13 14  1  0  0  0
 13 31  1  0  0  0
 14 15  2  0  0  0
 14 98  1  0  0  0
 15 99  1  0  0  0
 16 17  2  0  0  0
 16 21  1  0  0  0
 16 31  1  0  0  0
 17 18  1  0  0  0
 17100  1  0  0  0
 18 19  2  0  0  0
 18101  1  0  0  0
 19 20  1  0  0  0
 19 24  1  0  0  0
 20 21  2  0  0  0
 20102  1  0  0  0
 21 23  1  0  0  0
 22 28  1  0  0  0
 22 32  2  0  0  0
 26 27  1  0  0  0
 28103  1  0  0  0
 28104  1  0  0  0
 29105  1  0  0  0
 29106  1  0  0  0
 33 34  1  0  0  0
 33 66  1  0  0  0
 33 70  2  0  0  0
 34 36  1  0  0  0
 34 59  1  0  0  0
 34107  1  0  0  0
 35 44  2  0  0  0
 35 45  1  0  0  0
 35 68  1  0  0  0
 36 56  1  0  0  0
 36108  1  0  0  0
 37 39  1  0  0  0
 37 47  1  0  0  0
 37 66  1  0  0  0
 37109  1  0  0  0
 38 43  2  0  0  0
 38 46  1  0  0  0
 38 47  1  0  0  0
 39 64  1  0  0  0
 39 67  2  0  0  0
 40 52  1  0  0  0
 40 53  2  0  0  0
 40 58  1  0  0  0
 41110  1  0  0  0
 41111  1  0  0  0
 41112  1  0  0  0
 41 48  1  0  0  0
 42 43  1  0  0  0
 42 66  1  0  0  0
 42113  1  0  0  0
 42114  1  0  0  0
 43 44  1  0  0  0
 44115  1  0  0  0
 45 46  2  0  0  0
 45116  1  0  0  0
 46117  1  0  0  0
 47118  1  0  0  0
 47119  1  0  0  0
 48 56  1  0  0  0
 48 65  1  0  0  0
 48120  1  0  0  0
 49 50  1  0  0  0
 49 53  1  0  0  0
 49 64  1  0  0  0
 49121  1  0  0  0
 50 51  1  0  0  0
 50122  1  0  0  0
 50123  1  0  0  0
 51 52  1  0  0  0
 51124  1  0  0  0
 51125  1  0  0  0
 52126  1  0  0  0
 52127  1  0  0  0
 53 54  1  0  0  0
 54 55  2  0  0  0
 54128  1  0  0  0
 55 57  1  0  0  0
 55129  1  0  0  0
 56 69  2  0  0  0
 57 58  2  0  0  0
 57130  1  0  0  0
 58131  1  0  0  0
 59 60  1  0  0  0
 59 61  1  0  0  0
 59 62  1  0  0  0
 60132  1  0  0  0
 60133  1  0  0  0
 60134  1  0  0  0
 61135  1  0  0  0
 61136  1  0  0  0
 61137  1  0  0  0
 62138  1  0  0  0
 62139  1  0  0  0
 62140  1  0  0  0
 63 65  1  0  0  0
 63141  1  0  0  0
 63142  1  0  0  0
 63143  1  0  0  0
 64144  1  0  0  0
 65145  1  0  0  0
 68 80  1  0  0  0
 71 73  2  0  0  0
 71 74  1  0  0  0
 71146  1  0  0  0
 72 73  1  0  0  0
 72 75  2  0  0  0
 72147  1  0  0  0
 73 76  1  0  0  0
 74 81  1  0  0  0
 74 82  2  0  0  0
 75 82  1  0  0  0
 75 84  1  0  0  0
 76 83  1  0  0  0
 76 85  2  0  0  0
 77 80  1  0  0  0
 77 81  1  0  0  0
 77 86  2  0  0  0
 78148  1  0  0  0
 78149  1  0  0  0
 78150  1  0  0  0
 78 81  1  0  0  0
 79 81  1  0  0  0
 79151  1  0  0  0
 79152  1  0  0  0
 79153  1  0  0  0
 80154  1  0  0  0
 80155  1  0  0  0
 83156  1  0  0  0
 83157  1  0  0  0
 84158  1  0  0  0
 85159  1  0  0  0
 85160  1  0  0  0
M  CHG  1  85   1
M  ISO  4   1 100  68 101  80 101  84 100
M  END
> <chiral flag>
0

> <version>
0

> <s_m_source_file>
/data/baiqing/PycharmProjects/Reinvent-master-3.2/result/LINK_invent/BTK/process_docking_weight1_custom_product_contain_oxygen_bond_distance_aromatic_linkinvent_7_9_3/rearranged_h_0151.sdf

> <i_m_source_file_index>
4

> <r_mmod_Potential_Energy-OPLS-2005>
288.419647216797

> <r_mmod_Stretch_Energy-OPLS-2005>
355.809295654297

> <r_mmod_Bend_Energy-OPLS-2005>
359.907592773438

> <r_mmod_Torsional_Energy-OPLS-2005>
304.307708740234

> <r_mmod_Improper_Torsional_Energy-OPLS-2005>
15.7067079544067

> <r_mmod_Van_der_Waal_Energy-OPLS-2005>
126.697967529297

> <r_mmod_Electrostatic_Energy-OPLS-2005>
-597.826049804688

> <r_mmod_Solvation_Energy-OPLS-2005>
-541.087097167969

> <b_mmod_Minimization_Converged-OPLS-2005>
0

> <r_mmod_RMS_Derivative-OPLS-2005>
0.745618999004364

$$$$
4
                    3D
 Structure written by MMmdl.
157166  0  0  1  0            999 V2000
  -30.6382  -14.5507   20.5391 C   0  0  0  0  0  0
  -30.4367  -12.3452   19.4274 C   0  0  0  0  0  0
  -29.4984  -12.5082   18.2109 C   0  0  0  0  0  0
  -28.0201  -12.3583   18.6240 C   0  0  0  0  0  0
  -27.6609  -13.2031   19.8749 C   0  0  2  0  0  0
  -28.7052  -12.9923   20.9943 C   0  0  0  0  0  0
  -25.2593  -13.8143   20.5670 C   0  0  0  0  0  0
  -24.1846  -13.0432   20.9195 C   0  0  0  0  0  0
  -24.6392  -11.6901   20.8755 C   0  0  0  0  0  0
  -23.9052  -10.4291   21.0424 C   0  0  0  0  0  0
  -24.3607   -9.4205   21.9198 C   0  0  0  0  0  0
  -23.6284   -8.2241   22.0758 C   0  0  0  0  0  0
  -22.4265   -8.0274   21.3548 C   0  0  0  0  0  0
  -21.9898   -9.0257   20.4660 C   0  0  0  0  0  0
  -22.7224  -10.2140   20.3073 C   0  0  0  0  0  0
  -21.6854   -6.0729   22.5284 C   0  0  0  0  0  0
  -21.4015   -6.5637   23.8215 C   0  0  0  0  0  0
  -21.3659   -5.6788   24.9180 C   0  0  0  0  0  0
  -21.6042   -4.3048   24.7233 C   0  0  0  0  0  0
  -21.8816   -3.8143   23.4353 C   0  0  0  0  0  0
  -21.9197   -4.6958   22.3408 C   0  0  0  0  0  0
  -22.7866  -13.5238   21.1856 C   0  0  0  0  0  0
  -22.1661   -4.2147   21.0983 F   0  0  0  0  0  0
  -21.5638   -3.4531   25.7745 F   0  0  0  0  0  0
  -30.0300  -13.3314   20.4441 N   0  0  0  0  0  0
  -26.3021  -12.9306   20.3367 N   0  0  0  0  0  0
  -25.9314  -11.6470   20.5775 N   0  0  0  0  0  0
  -22.0506  -12.8237   22.0412 N   0  0  0  0  0  0
  -25.4328  -15.1857   20.4007 N   0  0  0  0  0  0
  -31.7750  -14.7569   20.1028 O   0  0  0  0  0  0
  -21.6635   -6.8868   21.4240 O   0  0  0  0  0  0
  -22.3560  -14.5545   20.6696 O   0  0  0  0  0  0
  -24.6222  -31.8637   23.2067 C   0  0  0  0  0  0
  -25.9084  -32.4807   23.8385 C   0  0  1  0  0  0
  -27.2279  -27.3651   20.1062 C   0  0  0  0  0  0
  -25.5919  -33.8607   24.2316 N   0  0  0  0  0  0
  -23.4139  -30.4890   21.5477 C   0  0  2  0  0  0
  -24.8585  -28.9493   20.1140 C   0  0  0  0  0  0
  -22.7455  -29.4648   22.4949 C   0  0  0  0  0  0
  -18.0289  -28.1378   22.8483 C   0  0  0  0  0  0
  -24.1483  -36.7297   23.2642 C   0  0  0  0  0  0
  -25.9516  -30.8083   21.3711 C   0  0  0  0  0  0
  -26.0257  -29.4402   20.7115 C   0  0  0  0  0  0
  -27.2137  -28.6608   20.6947 C   0  0  0  0  0  0
  -26.0336  -26.9087   19.5000 C   0  0  0  0  0  0
  -24.8617  -27.6868   19.5017 C   0  0  0  0  0  0
  -23.6262  -29.8260   20.1618 C   0  0  0  0  0  0
  -25.4108  -36.3104   24.0341 C   0  0  1  0  0  0
  -20.5885  -28.3684   23.1284 C   0  0  2  0  0  0
  -20.6778  -26.9410   22.5407 C   0  0  0  0  0  0
  -19.5757  -26.6380   21.5208 C   0  0  0  0  0  0
  -18.1936  -26.7922   22.1618 C   0  0  0  0  0  0
  -19.1538  -28.8847   23.2881 C   0  0  0  0  0  0
  -18.9464  -30.1447   23.8902 C   0  0  0  0  0  0
  -17.6465  -30.6586   24.0560 C   0  0  0  0  0  0
  -25.9045  -34.9469   23.5128 C   0  0  0  0  0  0
  -16.5355  -29.9082   23.6324 C   0  0  0  0  0  0
  -16.7278  -28.6495   23.0349 C   0  0  0  0  0  0
  -26.4481  -31.6608   25.0743 C   0  0  0  0  0  0
  -25.3728  -31.3725   26.1484 C   0  0  0  0  0  0
  -27.0326  -30.3047   24.6160 C   0  0  0  0  0  0
  -27.6060  -32.4331   25.7494 C   0  0  0  0  0  0
  -27.5579  -37.1805   24.8465 C   0  0  0  0  0  0
  -21.4174  -29.3043   22.3681 N   0  0  0  0  0  0
  -26.4289  -37.3792   23.9415 N   0  0  0  0  0  0
  -24.6813  -31.0692   22.0992 N   0  0  0  0  0  0
  -23.4201  -28.8188   23.3013 O   0  0  0  0  0  0
  -28.3767  -26.5740   20.1276 O   0  0  0  0  0  0
  -26.5602  -34.8924   22.4688 O   0  0  0  0  0  0
  -23.5397  -32.1415   23.7421 O   0  0  0  0  0  0
  -28.7001  -17.6914   20.9628 C   0  0  0  0  0  0
  -29.8110  -16.8901   20.7885 C   0  0  0  0  0  0
  -30.0815  -19.3452   20.1813 C   0  0  0  0  0  0
  -29.4906  -22.7773   20.5767 C   0  0  0  0  0  0
  -30.4892  -21.7323   17.4019 C   0  0  0  0  0  0
  -30.9867  -20.5007   18.1422 C   0  0  0  0  0  0
  -29.2528  -22.1247   18.1969 C   0  0  0  0  0  0
  -30.5612  -20.6862   19.6152 C   0  0  1  0  0  0
  -29.5507  -24.3117   20.2419 C   0  0  0  0  0  0
  -28.2133  -25.1178   20.1276 C   0  0  0  0  0  0
  -28.8463  -19.0443   20.5952 N   0  0  0  0  0  0
  -29.5979  -21.8388   19.5905 N   0  0  0  0  0  0
  -29.8433  -15.5346   21.0330 N   0  0  0  0  0  0
  -29.5255  -22.4454   21.7647 O   0  0  0  0  0  0
  -31.1364  -17.9034   20.2203 S   0  0  0  0  0  0
  -31.4763  -12.4730   19.1195 H   0  0  0  0  0  0
  -30.3663  -11.3344   19.8337 H   0  0  0  0  0  0
  -29.7450  -11.7734   17.4436 H   0  0  0  0  0  0
  -29.6532  -13.4869   17.7538 H   0  0  0  0  0  0
  -27.8386  -11.3017   18.8268 H   0  0  0  0  0  0
  -27.3674  -12.6238   17.7916 H   0  0  0  0  0  0
  -27.6981  -14.2496   19.5704 H   0  0  0  0  0  0
  -28.7006  -11.9527   21.3251 H   0  0  0  0  0  0
  -28.4553  -13.5765   21.8809 H   0  0  0  0  0  0
  -25.2760   -9.5672   22.4767 H   0  0  0  0  0  0
  -24.0009   -7.4615   22.7453 H   0  0  0  0  0  0
  -21.0843   -8.8757   19.8954 H   0  0  0  0  0  0
  -22.3685  -10.9672   19.6176 H   0  0  0  0  0  0
  -21.1996   -7.6142   23.9711 H   0  0  0  0  0  0
  -21.1488   -6.0528   25.9081 H   0  0  0  0  0  0
  -22.0600   -2.7605   23.2858 H   0  0  0  0  0  0
  -22.4113  -11.9902   22.4813 H   0  0  0  0  0  0
  -21.1129  -13.1281   22.2616 H   0  0  0  0  0  0
  -24.6563  -15.8341   20.4718 H   0  0  0  0  0  0
  -26.2581  -15.6035   19.9915 H   0  0  0  0  0  0
  -26.7155  -32.5482   23.1140 H   0  0  0  0  0  0
  -25.0087  -33.9761   25.0475 H   0  0  0  0  0  0
  -22.7061  -31.3083   21.4077 H   0  0  0  0  0  0
  -23.3755  -35.9619   23.3309 H   0  0  0  0  0  0
  -24.3581  -36.8908   22.2056 H   0  0  0  0  0  0
  -23.7221  -37.6497   23.6652 H   0  0  0  0  0  0
  -26.0810  -31.5751   20.6063 H   0  0  0  0  0  0
  -26.8331  -30.8531   21.9990 H   0  0  0  0  0  0
  -28.1143  -29.0385   21.1585 H   0  0  0  0  0  0
  -25.9769  -25.9473   19.0144 H   0  0  0  0  0  0
  -23.9657  -27.3045   19.0329 H   0  0  0  0  0  0
  -23.7456  -30.6042   19.4066 H   0  0  0  0  0  0
  -22.7465  -29.2553   19.8598 H   0  0  0  0  0  0
  -25.1285  -36.1968   25.0833 H   0  0  0  0  0  0
  -20.9983  -28.3259   24.1401 H   0  0  0  0  0  0
  -20.5685  -26.2297   23.3606 H   0  0  0  0  0  0
  -21.6649  -26.7443   22.1201 H   0  0  0  0  0  0
  -19.6922  -25.6287   21.1246 H   0  0  0  0  0  0
  -19.6699  -27.3184   20.6732 H   0  0  0  0  0  0
  -17.4208  -26.6671   21.4017 H   0  0  0  0  0  0
  -18.0337  -26.0063   22.9015 H   0  0  0  0  0  0
  -19.7940  -30.7258   24.2279 H   0  0  0  0  0  0
  -17.5021  -31.6270   24.5152 H   0  0  0  0  0  0
  -15.5358  -30.2989   23.7640 H   0  0  0  0  0  0
  -15.8677  -28.0817   22.7063 H   0  0  0  0  0  0
  -24.5887  -30.7096   25.7804 H   0  0  0  0  0  0
  -24.8938  -32.2886   26.4951 H   0  0  0  0  0  0
  -25.8066  -30.8865   27.0235 H   0  0  0  0  0  0
  -26.2893  -29.6803   24.1192 H   0  0  0  0  0  0
  -27.4062  -29.7295   25.4642 H   0  0  0  0  0  0
  -27.8742  -30.4367   23.9357 H   0  0  0  0  0  0
  -27.2689  -33.3616   26.2113 H   0  0  0  0  0  0
  -28.3836  -32.6922   25.0295 H   0  0  0  0  0  0
  -28.0772  -31.8437   26.5370 H   0  0  0  0  0  0
  -28.2603  -38.0096   24.7521 H   0  0  0  0  0  0
  -28.1070  -36.2636   24.6280 H   0  0  0  0  0  0
  -27.2307  -37.1444   25.8868 H   0  0  0  0  0  0
  -20.9351  -29.8764   21.6890 H   0  0  0  0  0  0
  -26.0180  -38.2867   24.1424 H   0  0  0  0  0  0
  -27.7300  -17.3710   21.3167 H   0  0  0  0  0  0
  -30.2729  -21.5398   16.3503 H   0  0  0  0  0  0
  -31.2340  -22.5278   17.4546 H   0  0  0  0  0  0
  -32.0593  -20.3383   18.0303 H   0  0  0  0  0  0
  -30.4857  -19.6305   17.7128 H   0  0  0  0  0  0
  -28.4115  -21.4857   17.9233 H   0  0  0  0  0  0
  -28.9467  -23.1478   17.9849 H   0  0  0  0  0  0
  -31.4352  -20.9888   20.1953 H   0  0  0  0  0  0
  -30.1573  -24.4699   19.3509 H   0  0  0  0  0  0
  -30.1307  -24.7654   21.0458 H   0  0  0  0  0  0
  -27.5515  -24.8373   20.9477 H   0  0  0  0  0  0
  -27.7315  -24.7989   19.2044 H   0  0  0  0  0  0
  -28.9930  -15.1634   21.4292 H   0  0  0  0  0  0
  1 25  1  0  0  0
  1 30  2  0  0  0
  1 83  1  0  0  0
  2  3  1  0  0  0
  2 25  1  0  0  0
  2 86  1  0  0  0
  2 87  1  0  0  0
  3  4  1  0  0  0
  3 88  1  0  0  0
  3 89  1  0  0  0
  4  5  1  0  0  0
  4 90  1  0  0  0
  4 91  1  0  0  0
  5  6  1  0  0  0
  5 26  1  0  0  0
  5 92  1  0  0  0
  6 25  1  0  0  0
  6 93  1  0  0  0
  6 94  1  0  0  0
  7  8  2  0  0  0
  7 26  1  0  0  0
  7 29  1  0  0  0
  8  9  1  0  0  0
  8 22  1  0  0  0
  9 10  1  0  0  0
  9 27  2  0  0  0
 10 11  2  0  0  0
 10 15  1  0  0  0
 11 12  1  0  0  0
 11 95  1  0  0  0
 12 13  2  0  0  0
 12 96  1  0  0  0
 13 14  1  0  0  0
 13 31  1  0  0  0
 14 15  2  0  0  0
 14 97  1  0  0  0
 15 98  1  0  0  0
 16 17  2  0  0  0
 16 21  1  0  0  0
 16 31  1  0  0  0
 17 18  1  0  0  0
 17 99  1  0  0  0
 18 19  2  0  0  0
 18100  1  0  0  0
 19 20  1  0  0  0
 19 24  1  0  0  0
 20 21  2  0  0  0
 20101  1  0  0  0
 21 23  1  0  0  0
 22 28  1  0  0  0
 22 32  2  0  0  0
 26 27  1  0  0  0
 28102  1  0  0  0
 28103  1  0  0  0
 29104  1  0  0  0
 29105  1  0  0  0
 33 34  1  0  0  0
 33 66  1  0  0  0
 33 70  2  0  0  0
 34 36  1  0  0  0
 34 59  1  0  0  0
 34106  1  0  0  0
 35 44  2  0  0  0
 35 45  1  0  0  0
 35 68  1  0  0  0
 36 56  1  0  0  0
 36107  1  0  0  0
 37 39  1  0  0  0
 37 47  1  0  0  0
 37 66  1  0  0  0
 37108  1  0  0  0
 38 43  2  0  0  0
 38 46  1  0  0  0
 38 47  1  0  0  0
 39 64  1  0  0  0
 39 67  2  0  0  0
 40 52  1  0  0  0
 40 53  2  0  0  0
 40 58  1  0  0  0
 41109  1  0  0  0
 41110  1  0  0  0
 41111  1  0  0  0
 41 48  1  0  0  0
 42 43  1  0  0  0
 42 66  1  0  0  0
 42112  1  0  0  0
 42113  1  0  0  0
 43 44  1  0  0  0
 44114  1  0  0  0
 45 46  2  0  0  0
 45115  1  0  0  0
 46116  1  0  0  0
 47117  1  0  0  0
 47118  1  0  0  0
 48 56  1  0  0  0
 48 65  1  0  0  0
 48119  1  0  0  0
 49 50  1  0  0  0
 49 53  1  0  0  0
 49 64  1  0  0  0
 49120  1  0  0  0
 50 51  1  0  0  0
 50121  1  0  0  0
 50122  1  0  0  0
 51 52  1  0  0  0
 51123  1  0  0  0
 51124  1  0  0  0
 52125  1  0  0  0
 52126  1  0  0  0
 53 54  1  0  0  0
 54 55  2  0  0  0
 54127  1  0  0  0
 55 57  1  0  0  0
 55128  1  0  0  0
 56 69  2  0  0  0
 57 58  2  0  0  0
 57129  1  0  0  0
 58130  1  0  0  0
 59 60  1  0  0  0
 59 61  1  0  0  0
 59 62  1  0  0  0
 60131  1  0  0  0
 60132  1  0  0  0
 60133  1  0  0  0
 61134  1  0  0  0
 61135  1  0  0  0
 61136  1  0  0  0
 62137  1  0  0  0
 62138  1  0  0  0
 62139  1  0  0  0
 63 65  1  0  0  0
 63140  1  0  0  0
 63141  1  0  0  0
 63142  1  0  0  0
 64143  1  0  0  0
 65144  1  0  0  0
 68 80  1  0  0  0
 71 72  2  0  0  0
 71 81  1  0  0  0
 71145  1  0  0  0
 72 83  1  0  0  0
 72 85  1  0  0  0
 73 81  2  0  0  0
 73 85  1  0  0  0
 73 78  1  0  0  0
 74 79  1  0  0  0
 74 82  1  0  0  0
 74 84  2  0  0  0
 75 76  1  0  0  0
 75 77  1  0  0  0
 75146  1  0  0  0
 75147  1  0  0  0
 76 78  1  0  0  0
 76148  1  0  0  0
 76149  1  0  0  0
 77 82  1  0  0  0
 77150  1  0  0  0
 77151  1  0  0  0
 78 82  1  0  0  0
 78152  1  0  0  0
 79 80  1  0  0  0
 79153  1  0  0  0
 79154  1  0  0  0
 80155  1  0  0  0
 80156  1  0  0  0
 83157  1  0  0  0
M  ISO  4   1 100  68 101  80 101  83 100
M  END
> <chiral flag>
0

> <version>
0

> <s_m_source_file>
/data/baiqing/PycharmProjects/Reinvent-master-3.2/result/LINK_invent/BTK/process_docking_weight1_custom_product_contain_oxygen_bond_distance_aromatic_linkinvent_7_9_3/rearranged_h_0151.sdf

> <i_m_source_file_index>
5

> <r_mmod_Potential_Energy-OPLS-2005>
44.6403732299805

> <r_mmod_Stretch_Energy-OPLS-2005>
56.5627136230469

> <r_mmod_Bend_Energy-OPLS-2005>
154.984588623047

> <r_mmod_Torsional_Energy-OPLS-2005>
294.472412109375

> <r_mmod_Improper_Torsional_Energy-OPLS-2005>
9.19802665710449

> <r_mmod_Van_der_Waal_Energy-OPLS-2005>
124.01513671875

> <r_mmod_Electrostatic_Energy-OPLS-2005>
-376.1337890625

> <r_mmod_Solvation_Energy-OPLS-2005>
-244.67594909668

> <b_mmod_Minimization_Converged-OPLS-2005>
0

> <r_mmod_RMS_Derivative-OPLS-2005>
1.40898478031158

$$$$
5
                    3D
 Structure written by MMmdl.
164173  0  0  1  0            999 V2000
  -30.6909  -14.5635   20.5701 C   0  0  0  0  0  0
  -30.4229  -12.3673   19.4451 C   0  0  0  0  0  0
  -29.4931  -12.4803   18.2203 C   0  0  0  0  0  0
  -28.0225  -12.3038   18.6401 C   0  0  0  0  0  0
  -27.6452  -13.1952   19.8488 C   0  0  2  0  0  0
  -28.6840  -13.0771   20.9869 C   0  0  0  0  0  0
  -25.2520  -13.8108   20.5646 C   0  0  0  0  0  0
  -24.1798  -13.0407   20.9201 C   0  0  0  0  0  0
  -24.6347  -11.6878   20.8758 C   0  0  0  0  0  0
  -23.9009  -10.4277   21.0427 C   0  0  0  0  0  0
  -24.3584   -9.4201   21.9201 C   0  0  0  0  0  0
  -23.6281   -8.2231   22.0756 C   0  0  0  0  0  0
  -22.4260   -8.0258   21.3536 C   0  0  0  0  0  0
  -21.9891   -9.0228   20.4644 C   0  0  0  0  0  0
  -22.7201  -10.2125   20.3065 C   0  0  0  0  0  0
  -21.6842   -6.0722   22.5270 C   0  0  0  0  0  0
  -21.4016   -6.5629   23.8206 C   0  0  0  0  0  0
  -21.3656   -5.6789   24.9170 C   0  0  0  0  0  0
  -21.6042   -4.3048   24.7222 C   0  0  0  0  0  0
  -21.8826   -3.8142   23.4346 C   0  0  0  0  0  0
  -21.9199   -4.6958   22.3399 C   0  0  0  0  0  0
  -22.7825  -13.5216   21.1871 C   0  0  0  0  0  0
  -22.1662   -4.2135   21.0978 F   0  0  0  0  0  0
  -21.5632   -3.4540   25.7743 F   0  0  0  0  0  0
  -30.0075  -13.3886   20.4293 N   0  0  0  0  0  0
  -26.2922  -12.9261   20.3250 N   0  0  0  0  0  0
  -25.9259  -11.6442   20.5761 N   0  0  0  0  0  0
  -22.0459  -12.8217   22.0426 N   0  0  0  0  0  0
  -25.4221  -15.1808   20.3979 N   0  0  0  0  0  0
  -31.8368  -14.6897   20.1256 O   0  0  0  0  0  0
  -21.6632   -6.8854   21.4224 O   0  0  0  0  0  0
  -22.3532  -14.5526   20.6704 O   0  0  0  0  0  0
  -24.6222  -31.8635   23.2095 C   0  0  0  0  0  0
  -25.9096  -32.4786   23.8402 C   0  0  1  0  0  0
  -27.2229  -27.3666   20.1148 C   0  0  0  0  0  0
  -25.5947  -33.8589   24.2327 N   0  0  0  0  0  0
  -23.4128  -30.4834   21.5516 C   0  0  2  0  0  0
  -24.8558  -28.9413   20.1126 C   0  0  0  0  0  0
  -22.7462  -29.4617   22.5009 C   0  0  0  0  0  0
  -18.0280  -28.1384   22.8478 C   0  0  0  0  0  0
  -24.1515  -36.7321   23.2646 C   0  0  0  0  0  0
  -25.9440  -30.8056   21.3709 C   0  0  0  0  0  0
  -26.0162  -29.4356   20.7189 C   0  0  0  0  0  0
  -27.1969  -28.6535   20.7188 C   0  0  0  0  0  0
  -26.0449  -26.9016   19.4887 C   0  0  0  0  0  0
  -24.8680  -27.6791   19.4919 C   0  0  0  0  0  0
  -23.6257  -29.8228   20.1618 C   0  0  0  0  0  0
  -25.4125  -36.3086   24.0339 C   0  0  1  0  0  0
  -20.5866  -28.3678   23.1329 C   0  0  2  0  0  0
  -20.6789  -26.9421   22.5433 C   0  0  0  0  0  0
  -19.5763  -26.6398   21.5232 C   0  0  0  0  0  0
  -18.1934  -26.7932   22.1608 C   0  0  0  0  0  0
  -19.1527  -28.8844   23.2877 C   0  0  0  0  0  0
  -18.9455  -30.1445   23.8879 C   0  0  0  0  0  0
  -17.6458  -30.6573   24.0560 C   0  0  0  0  0  0
  -25.9048  -34.9445   23.5118 C   0  0  0  0  0  0
  -16.5340  -29.9080   23.6330 C   0  0  0  0  0  0
  -16.7275  -28.6506   23.0334 C   0  0  0  0  0  0
  -26.4482  -31.6548   25.0722 C   0  0  0  0  0  0
  -25.3733  -31.3645   26.1451 C   0  0  0  0  0  0
  -27.0331  -30.2998   24.6102 C   0  0  0  0  0  0
  -27.6048  -32.4269   25.7478 C   0  0  0  0  0  0
  -27.5577  -37.1808   24.8456 C   0  0  0  0  0  0
  -21.4185  -29.3033   22.3744 N   0  0  0  0  0  0
  -26.4309  -37.3757   23.9385 N   0  0  0  0  0  0
  -24.6780  -31.0691   22.1008 N   0  0  0  0  0  0
  -23.4191  -28.8158   23.3088 O   0  0  0  0  0  0
  -28.3924  -26.6227   20.2009 O   0  0  0  0  0  0
  -26.5591  -34.8920   22.4668 O   0  0  0  0  0  0
  -23.5416  -32.1396   23.7469 O   0  0  0  0  0  0
  -28.7616  -20.3603   20.8081 C   0  0  0  0  0  0
  -26.9655  -18.8308   20.2146 C   0  0  0  0  0  0
  -26.7080  -21.2324   19.8282 C   0  0  0  0  0  0
  -28.2541  -19.0223   20.7604 C   0  0  0  0  0  0
  -27.9972  -21.4848   20.3506 C   0  0  0  0  0  0
  -26.2017  -19.9207   19.7578 C   0  0  0  0  0  0
  -28.7526  -25.3557   18.1216 C   0  0  0  0  0  0
  -30.3943  -17.9434   21.8791 C   0  0  0  0  0  0
  -30.8425  -16.4875   22.1252 C   0  0  0  0  0  0
  -29.0502  -16.4689   20.5799 C   0  0  0  0  0  0
  -28.9642  -17.7907   21.3924 C   0  0  2  0  0  0
  -29.7360  -26.3909   17.5912 C   0  0  0  0  0  0
  -27.7379  -24.0597   20.2034 C   0  0  0  0  0  0
  -28.5799  -25.2812   19.6550 C   0  0  2  0  0  0
  -30.0785  -15.6059   21.2189 N   0  0  0  0  0  0
  -28.5233  -22.8066   20.4256 N   0  0  0  0  0  0
  -28.1303  -24.6332   17.3377 O   0  0  0  0  0  0
  -24.9578  -19.7098   19.2660 F   0  0  0  0  0  0
  -31.4619  -12.4824   19.1320 H   0  0  0  0  0  0
  -30.3595  -11.3742   19.8905 H   0  0  0  0  0  0
  -29.7605  -11.7268   17.4771 H   0  0  0  0  0  0
  -29.6269  -13.4494   17.7384 H   0  0  0  0  0  0
  -27.8769  -11.2532   18.8975 H   0  0  0  0  0  0
  -27.3610  -12.5043   17.7977 H   0  0  0  0  0  0
  -27.6548  -14.2106   19.4621 H   0  0  0  0  0  0
  -28.6882  -12.0705   21.4074 H   0  0  0  0  0  0
  -28.4217  -13.7426   21.8102 H   0  0  0  0  0  0
  -25.2728   -9.5690   22.4772 H   0  0  0  0  0  0
  -23.9991   -7.4621   22.7475 H   0  0  0  0  0  0
  -21.0823   -8.8742   19.8944 H   0  0  0  0  0  0
  -22.3652  -10.9664   19.6172 H   0  0  0  0  0  0
  -21.2002   -7.6135   23.9696 H   0  0  0  0  0  0
  -21.1467   -6.0523   25.9069 H   0  0  0  0  0  0
  -22.0612   -2.7601   23.2855 H   0  0  0  0  0  0
  -22.4074  -11.9884   22.4819 H   0  0  0  0  0  0
  -21.1070  -13.1239   22.2603 H   0  0  0  0  0  0
  -24.6479  -15.8296   20.4883 H   0  0  0  0  0  0
  -26.2575  -15.6026   20.0161 H   0  0  0  0  0  0
  -26.7155  -32.5449   23.1152 H   0  0  0  0  0  0
  -25.0128  -33.9760   25.0503 H   0  0  0  0  0  0
  -22.7037  -31.3002   21.4156 H   0  0  0  0  0  0
  -23.3748  -35.9675   23.3312 H   0  0  0  0  0  0
  -24.3618  -36.8946   22.2059 H   0  0  0  0  0  0
  -23.7320  -37.6555   23.6658 H   0  0  0  0  0  0
  -26.0664  -31.5631   20.5978 H   0  0  0  0  0  0
  -26.8299  -30.8590   21.9911 H   0  0  0  0  0  0
  -28.0875  -29.0189   21.2090 H   0  0  0  0  0  0
  -26.0101  -25.9342   19.0097 H   0  0  0  0  0  0
  -23.9735  -27.2961   19.0199 H   0  0  0  0  0  0
  -23.7586  -30.6052   19.4130 H   0  0  0  0  0  0
  -22.7422  -29.2616   19.8513 H   0  0  0  0  0  0
  -25.1294  -36.1939   25.0826 H   0  0  0  0  0  0
  -20.9871  -28.3250   24.1489 H   0  0  0  0  0  0
  -20.5778  -26.2262   23.3599 H   0  0  0  0  0  0
  -21.6649  -26.7546   22.1173 H   0  0  0  0  0  0
  -19.6934  -25.6326   21.1246 H   0  0  0  0  0  0
  -19.6711  -27.3207   20.6759 H   0  0  0  0  0  0
  -17.4222  -26.6705   21.3980 H   0  0  0  0  0  0
  -18.0306  -26.0063   22.8983 H   0  0  0  0  0  0
  -19.7933  -30.7264   24.2243 H   0  0  0  0  0  0
  -17.5019  -31.6244   24.5175 H   0  0  0  0  0  0
  -15.5335  -30.2957   23.7704 H   0  0  0  0  0  0
  -15.8678  -28.0828   22.7047 H   0  0  0  0  0  0
  -24.5963  -30.6913   25.7815 H   0  0  0  0  0  0
  -24.8825  -32.2764   26.4843 H   0  0  0  0  0  0
  -25.8072  -30.8883   27.0248 H   0  0  0  0  0  0
  -26.2875  -29.6722   24.1201 H   0  0  0  0  0  0
  -27.4172  -29.7261   25.4549 H   0  0  0  0  0  0
  -27.8671  -30.4356   23.9214 H   0  0  0  0  0  0
  -27.2692  -33.3610   26.2002 H   0  0  0  0  0  0
  -28.3870  -32.6752   25.0289 H   0  0  0  0  0  0
  -28.0670  -31.8400   26.5430 H   0  0  0  0  0  0
  -28.2567  -38.0125   24.7502 H   0  0  0  0  0  0
  -28.1102  -36.2653   24.6286 H   0  0  0  0  0  0
  -27.2301  -37.1471   25.8861 H   0  0  0  0  0  0
  -20.9397  -29.8706   21.6896 H   0  0  0  0  0  0
  -26.0195  -38.2839   24.1350 H   0  0  0  0  0  0
  -29.7436  -20.5272   21.2311 H   0  0  0  0  0  0
  -26.5302  -17.8437   20.1809 H   0  0  0  0  0  0
  -26.0646  -22.0223   19.4742 H   0  0  0  0  0  0
  -31.0112  -18.3906   21.0986 H   0  0  0  0  0  0
  -30.4678  -18.5673   22.7710 H   0  0  0  0  0  0
  -30.6078  -16.1954   23.1498 H   0  0  0  0  0  0
  -31.9251  -16.3948   22.0161 H   0  0  0  0  0  0
  -29.3438  -16.6685   19.5470 H   0  0  0  0  0  0
  -28.0802  -15.9817   20.5709 H   0  0  0  0  0  0
  -28.3630  -17.5588   22.2744 H   0  0  0  0  0  0
  -30.7191  -25.9340   17.4870 H   0  0  0  0  0  0
  -29.8207  -27.2319   18.2782 H   0  0  0  0  0  0
  -29.4201  -26.7684   16.6176 H   0  0  0  0  0  0
  -26.9003  -23.8919   19.5272 H   0  0  0  0  0  0
  -27.2944  -24.3402   21.1590 H   0  0  0  0  0  0
  -29.5880  -25.0655   20.0069 H   0  0  0  0  0  0
  -29.3901  -22.9224   20.9448 H   0  0  0  0  0  0
  1 25  1  0  0  0
  1 30  2  0  0  0
  1 85  1  0  0  0
  2  3  1  0  0  0
  2 25  1  0  0  0
  2 89  1  0  0  0
  2 90  1  0  0  0
  3  4  1  0  0  0
  3 91  1  0  0  0
  3 92  1  0  0  0
  4  5  1  0  0  0
  4 93  1  0  0  0
  4 94  1  0  0  0
  5  6  1  0  0  0
  5 26  1  0  0  0
  5 95  1  0  0  0
  6 25  1  0  0  0
  6 96  1  0  0  0
  6 97  1  0  0  0
  7  8  2  0  0  0
  7 26  1  0  0  0
  7 29  1  0  0  0
  8  9  1  0  0  0
  8 22  1  0  0  0
  9 10  1  0  0  0
  9 27  2  0  0  0
 10 11  2  0  0  0
 10 15  1  0  0  0
 11 12  1  0  0  0
 11 98  1  0  0  0
 12 13  2  0  0  0
 12 99  1  0  0  0
 13 14  1  0  0  0
 13 31  1  0  0  0
 14 15  2  0  0  0
 14100  1  0  0  0
 15101  1  0  0  0
 16 17  2  0  0  0
 16 21  1  0  0  0
 16 31  1  0  0  0
 17 18  1  0  0  0
 17102  1  0  0  0
 18 19  2  0  0  0
 18103  1  0  0  0
 19 20  1  0  0  0
 19 24  1  0  0  0
 20 21  2  0  0  0
 20104  1  0  0  0
 21 23  1  0  0  0
 22 28  1  0  0  0
 22 32  2  0  0  0
 26 27  1  0  0  0
 28105  1  0  0  0
 28106  1  0  0  0
 29107  1  0  0  0
 29108  1  0  0  0
 33 34  1  0  0  0
 33 66  1  0  0  0
 33 70  2  0  0  0
 34 36  1  0  0  0
 34 59  1  0  0  0
 34109  1  0  0  0
 35 44  2  0  0  0
 35 45  1  0  0  0
 35 68  1  0  0  0
 36 56  1  0  0  0
 36110  1  0  0  0
 37 39  1  0  0  0
 37 47  1  0  0  0
 37 66  1  0  0  0
 37111  1  0  0  0
 38 43  2  0  0  0
 38 46  1  0  0  0
 38 47  1  0  0  0
 39 64  1  0  0  0
 39 67  2  0  0  0
 40 52  1  0  0  0
 40 53  2  0  0  0
 40 58  1  0  0  0
 41112  1  0  0  0
 41113  1  0  0  0
 41114  1  0  0  0
 41 48  1  0  0  0
 42 43  1  0  0  0
 42 66  1  0  0  0
 42115  1  0  0  0
 42116  1  0  0  0
 43 44  1  0  0  0
 44117  1  0  0  0
 45 46  2  0  0  0
 45118  1  0  0  0
 46119  1  0  0  0
 47120  1  0  0  0
 47121  1  0  0  0
 48 56  1  0  0  0
 48 65  1  0  0  0
 48122  1  0  0  0
 49 50  1  0  0  0
 49 53  1  0  0  0
 49 64  1  0  0  0
 49123  1  0  0  0
 50 51  1  0  0  0
 50124  1  0  0  0
 50125  1  0  0  0
 51 52  1  0  0  0
 51126  1  0  0  0
 51127  1  0  0  0
 52128  1  0  0  0
 52129  1  0  0  0
 53 54  1  0  0  0
 54 55  2  0  0  0
 54130  1  0  0  0
 55 57  1  0  0  0
 55131  1  0  0  0
 56 69  2  0  0  0
 57 58  2  0  0  0
 57132  1  0  0  0
 58133  1  0  0  0
 59 60  1  0  0  0
 59 61  1  0  0  0
 59 62  1  0  0  0
 60134  1  0  0  0
 60135  1  0  0  0
 60136  1  0  0  0
 61137  1  0  0  0
 61138  1  0  0  0
 61139  1  0  0  0
 62140  1  0  0  0
 62141  1  0  0  0
 62142  1  0  0  0
 63 65  1  0  0  0
 63143  1  0  0  0
 63144  1  0  0  0
 63145  1  0  0  0
 64146  1  0  0  0
 65147  1  0  0  0
 68 84  1  0  0  0
 71 74  2  0  0  0
 71 75  1  0  0  0
 71148  1  0  0  0
 72 74  1  0  0  0
 72 76  2  0  0  0
 72149  1  0  0  0
 73 75  2  0  0  0
 73 76  1  0  0  0
 73150  1  0  0  0
 74 81  1  0  0  0
 75 86  1  0  0  0
 76 88  1  0  0  0
 77 82  1  0  0  0
 77 84  1  0  0  0
 77 87  2  0  0  0
 78 79  1  0  0  0
 78 81  1  0  0  0
 78151  1  0  0  0
 78152  1  0  0  0
 79 85  1  0  0  0
 79153  1  0  0  0
 79154  1  0  0  0
 80 81  1  0  0  0
 80 85  1  0  0  0
 80155  1  0  0  0
 80156  1  0  0  0
 81157  1  0  0  0
 82158  1  0  0  0
 82159  1  0  0  0
 82160  1  0  0  0
 83 86  1  0  0  0
 83161  1  0  0  0
 83162  1  0  0  0
 83 84  1  0  0  0
 84163  1  0  0  0
 86164  1  0  0  0
M  ISO  4   1 100  68 101  84 101  85 100
M  END
> <chiral flag>
0

> <version>
0

> <s_m_source_file>
/data/baiqing/PycharmProjects/Reinvent-master-3.2/result/LINK_invent/BTK/process_docking_weight1_custom_product_contain_oxygen_bond_distance_aromatic_linkinvent_7_9_3/rearranged_h_0151.sdf

> <i_m_source_file_index>
6

> <r_mmod_Potential_Energy-OPLS-2005>
279.819030761719

> <r_mmod_Stretch_Energy-OPLS-2005>
59.6757431030273

> <r_mmod_Bend_Energy-OPLS-2005>
183.276458740234

> <r_mmod_Torsional_Energy-OPLS-2005>
300.512329101562

> <r_mmod_Improper_Torsional_Energy-OPLS-2005>
6.72071266174316

> <r_mmod_Van_der_Waal_Energy-OPLS-2005>
138.232238769531

> <r_mmod_Electrostatic_Energy-OPLS-2005>
-224.07080078125

> <r_mmod_Solvation_Energy-OPLS-2005>
-215.293518066406

> <b_mmod_Minimization_Converged-OPLS-2005>
0

> <r_mmod_RMS_Derivative-OPLS-2005>
3.23007535934448

$$$$
6
                    3D
 Structure written by MMmdl.
157165  0  0  1  0            999 V2000
  -29.8114  -16.8965   20.2530 C   0  0  0  0  0  0
  -30.2677  -14.0418   19.5329 C   0  0  0  0  0  0
  -29.5785  -13.0791   18.4556 C   0  0  0  0  0  0
  -28.2784  -12.4474   18.9528 C   0  0  0  0  0  0
  -27.5731  -13.4864   19.8307 C   0  0  2  0  0  0
  -28.4795  -14.3008   20.8529 C   0  0  0  0  0  0
  -25.2099  -13.8583   20.6010 C   0  0  0  0  0  0
  -24.1667  -13.0488   20.9364 C   0  0  0  0  0  0
  -24.6619  -11.7081   20.8726 C   0  0  0  0  0  0
  -23.9337  -10.4340   21.0308 C   0  0  0  0  0  0
  -24.3792   -9.4244   21.9132 C   0  0  0  0  0  0
  -23.6399   -8.2305   22.0737 C   0  0  0  0  0  0
  -22.4370   -8.0343   21.3539 C   0  0  0  0  0  0
  -22.0062   -9.0329   20.4626 C   0  0  0  0  0  0
  -22.7459  -10.2176   20.2999 C   0  0  0  0  0  0
  -21.6891   -6.0781   22.5274 C   0  0  0  0  0  0
  -21.4049   -6.5667   23.8214 C   0  0  0  0  0  0
  -21.3665   -5.6807   24.9168 C   0  0  0  0  0  0
  -21.6042   -4.3068   24.7213 C   0  0  0  0  0  0
  -21.8813   -3.8170   23.4328 C   0  0  0  0  0  0
  -21.9204   -4.7000   22.3391 C   0  0  0  0  0  0
  -22.7616  -13.5045   21.1946 C   0  0  0  0  0  0
  -22.1662   -4.2185   21.0968 F   0  0  0  0  0  0
  -21.5621   -3.4540   25.7719 F   0  0  0  0  0  0
  -29.4336  -15.3046   20.1443 N   0  0  0  0  0  0
  -26.2848  -13.0318   20.3589 N   0  0  0  0  0  0
  -25.9662  -11.7169   20.5673 N   0  0  0  0  0  0
  -22.0356  -12.7975   22.0510 N   0  0  0  0  0  0
  -25.3327  -15.2355   20.4402 N   0  0  0  0  0  0
  -31.0633  -16.6294   20.1944 O   0  0  0  0  0  0
  -21.6688   -6.8957   21.4251 O   0  0  0  0  0  0
  -22.3214  -14.5321   20.6787 O   0  0  0  0  0  0
  -24.7674  -31.6907   23.0841 C   0  0  0  0  0  0
  -25.9811  -32.3959   23.7720 C   0  0  1  0  0  0
  -27.2941  -25.8284   20.2748 C   0  0  0  0  0  0
  -25.6008  -33.7839   24.1481 N   0  0  0  0  0  0
  -23.6358  -30.2490   21.4579 C   0  0  2  0  0  0
  -25.1147  -28.4099   20.1458 C   0  0  0  0  0  0
  -22.8155  -29.3707   22.4496 C   0  0  0  0  0  0
  -18.0392  -28.1462   22.8411 C   0  0  0  0  0  0
  -24.1499  -36.6939   23.2675 C   0  0  0  0  0  0
  -26.2399  -30.1236   21.4974 C   0  0  0  0  0  0
  -26.3026  -28.5897   20.8638 C   0  0  0  0  0  0
  -27.3230  -27.3560   20.8963 C   0  0  0  0  0  0
  -26.0924  -26.1072   19.4766 C   0  0  0  0  0  0
  -25.1003  -27.1931   19.4277 C   0  0  0  0  0  0
  -23.9436  -29.4635   20.1332 C   0  0  0  0  0  0
  -25.4180  -36.2612   24.0229 C   0  0  1  0  0  0
  -20.6070  -28.3849   23.0991 C   0  0  2  0  0  0
  -20.6810  -26.9429   22.5429 C   0  0  0  0  0  0
  -19.5805  -26.6333   21.5231 C   0  0  0  0  0  0
  -18.1985  -26.7972   22.1600 C   0  0  0  0  0  0
  -19.1681  -28.9001   23.2653 C   0  0  0  0  0  0
  -18.9569  -30.1562   23.8739 C   0  0  0  0  0  0
  -17.6549  -30.6622   24.0529 C   0  0  0  0  0  0
  -25.9204  -34.9018   23.4771 C   0  0  0  0  0  0
  -16.5434  -29.9091   23.6367 C   0  0  0  0  0  0
  -16.7365  -28.6515   23.0385 C   0  0  0  0  0  0
  -26.4721  -31.6387   25.0694 C   0  0  0  0  0  0
  -25.3562  -31.3924   26.1141 C   0  0  0  0  0  0
  -27.0808  -30.2654   24.7233 C   0  0  0  0  0  0
  -27.6010  -32.4472   25.7525 C   0  0  0  0  0  0
  -27.5545  -37.1622   24.8468 C   0  0  0  0  0  0
  -21.4729  -29.2905   22.3215 N   0  0  0  0  0  0
  -26.4240  -37.3466   23.9409 N   0  0  0  0  0  0
  -24.9160  -30.7435   22.0639 N   0  0  0  0  0  0
  -23.4167  -28.7464   23.3254 O   0  0  0  0  0  0
  -27.9929  -24.1222   20.2222 O   0  0  0  0  0  0
  -26.5978  -34.8758   22.4480 O   0  0  0  0  0  0
  -23.6512  -32.0403   23.5193 O   0  0  0  0  0  0
  -27.4896  -23.1845   22.0745 C   0  0  0  0  0  0
  -28.9473  -24.3452   22.0452 C   0  0  0  0  0  0
  -27.5252  -21.6821   21.0917 C   0  0  0  0  0  0
  -29.7122  -22.1418   19.8872 C   0  0  0  0  0  0
  -30.0428  -23.7352   20.6663 C   0  0  0  0  0  0
  -28.7889  -20.7229   20.3370 C   0  0  0  0  0  0
  -31.9918  -23.3007   21.7244 C   0  0  0  0  0  0
  -31.4793  -22.2562   23.9496 C   0  0  0  0  0  0
  -31.7310  -20.8168   21.9584 C   0  0  0  0  0  0
  -29.5158  -22.2192   22.2180 C   0  0  0  0  0  0
  -31.1510  -22.1762   22.4332 C   0  0  0  0  0  0
  -31.3746  -24.0493   20.8143 N   0  0  0  0  0  0
  -29.0450  -18.5968   20.2804 N   0  0  0  0  0  0
  -33.1857  -23.4675   21.9858 O   0  0  0  0  0  0
  -31.1366  -14.4618   19.0256 H   0  0  0  0  0  0
  -30.7184  -13.4469   20.3304 H   0  0  0  0  0  0
  -30.2731  -12.3019   18.1354 H   0  0  0  0  0  0
  -29.3585  -13.6698   17.5663 H   0  0  0  0  0  0
  -28.5106  -11.5657   19.5509 H   0  0  0  0  0  0
  -27.6502  -12.1177   18.1240 H   0  0  0  0  0  0
  -27.2894  -14.2381   19.0913 H   0  0  0  0  0  0
  -28.9797  -13.6379   21.5623 H   0  0  0  0  0  0
  -27.8345  -14.9137   21.4827 H   0  0  0  0  0  0
  -25.2931   -9.5689   22.4732 H   0  0  0  0  0  0
  -24.0072   -7.4702   22.7484 H   0  0  0  0  0  0
  -21.0984   -8.8886   19.8936 H   0  0  0  0  0  0
  -22.3926  -10.9712   19.6096 H   0  0  0  0  0  0
  -21.2057   -7.6175   23.9733 H   0  0  0  0  0  0
  -21.1485   -6.0530   25.9076 H   0  0  0  0  0  0
  -22.0585   -2.7632   23.2814 H   0  0  0  0  0  0
  -22.4080  -11.9688   22.4906 H   0  0  0  0  0  0
  -21.0931  -13.0864   22.2700 H   0  0  0  0  0  0
  -24.5428  -15.8632   20.5459 H   0  0  0  0  0  0
  -26.1703  -15.6996   20.1145 H   0  0  0  0  0  0
  -26.8023  -32.4304   23.0546 H   0  0  0  0  0  0
  -24.9922  -33.8743   24.9477 H   0  0  0  0  0  0
  -23.0140  -31.1063   21.1901 H   0  0  0  0  0  0
  -23.3812  -35.9213   23.3209 H   0  0  0  0  0  0
  -24.3541  -36.8778   22.2117 H   0  0  0  0  0  0
  -23.7214  -37.6029   23.6903 H   0  0  0  0  0  0
  -26.5354  -30.7854   20.6825 H   0  0  0  0  0  0
  -27.0618  -30.2169   22.1912 H   0  0  0  0  0  0
  -28.1793  -27.5342   21.5307 H   0  0  0  0  0  0
  -25.8082  -25.2661   18.8598 H   0  0  0  0  0  0
  -24.2440  -27.0209   18.7901 H   0  0  0  0  0  0
  -24.1849  -30.1877   19.3545 H   0  0  0  0  0  0
  -23.0359  -28.9677   19.7855 H   0  0  0  0  0  0
  -25.1429  -36.1273   25.0717 H   0  0  0  0  0  0
  -21.0110  -28.3543   24.1136 H   0  0  0  0  0  0
  -20.5594  -26.2504   23.3773 H   0  0  0  0  0  0
  -21.6668  -26.7238   22.1306 H   0  0  0  0  0  0
  -19.6952  -25.6202   21.1368 H   0  0  0  0  0  0
  -19.6782  -27.3061   20.6703 H   0  0  0  0  0  0
  -17.4272  -26.6731   21.3986 H   0  0  0  0  0  0
  -18.0323  -26.0149   22.9020 H   0  0  0  0  0  0
  -19.8047  -30.7406   24.2060 H   0  0  0  0  0  0
  -17.5097  -31.6287   24.5163 H   0  0  0  0  0  0
  -15.5431  -30.2947   23.7772 H   0  0  0  0  0  0
  -15.8763  -28.0774   22.7202 H   0  0  0  0  0  0
  -24.5835  -30.7193   25.7396 H   0  0  0  0  0  0
  -24.8663  -32.3205   26.4101 H   0  0  0  0  0  0
  -25.7538  -30.9378   27.0226 H   0  0  0  0  0  0
  -26.3669  -29.5957   24.2433 H   0  0  0  0  0  0
  -27.4079  -29.7497   25.6272 H   0  0  0  0  0  0
  -27.9704  -30.3612   24.1011 H   0  0  0  0  0  0
  -27.2459  -33.3971   26.1540 H   0  0  0  0  0  0
  -28.4071  -32.6718   25.0524 H   0  0  0  0  0  0
  -28.0403  -31.9001   26.5878 H   0  0  0  0  0  0
  -28.2478  -37.9990   24.7529 H   0  0  0  0  0  0
  -28.1123  -36.2505   24.6287 H   0  0  0  0  0  0
  -27.2257  -37.1225   25.8865 H   0  0  0  0  0  0
  -21.0261  -29.8413   21.6013 H   0  0  0  0  0  0
  -26.0003  -38.2481   24.1424 H   0  0  0  0  0  0
  -26.6296  -23.4084   22.6890 H   0  0  0  0  0  0
  -29.1022  -25.2137   22.6708 H   0  0  0  0  0  0
  -26.6473  -21.0874   21.3015 H   0  0  0  0  0  0
  -30.5498  -21.8551   19.2677 H   0  0  0  0  0  0
  -32.5514  -22.2125   24.1477 H   0  0  0  0  0  0
  -31.0297  -21.4262   24.4964 H   0  0  0  0  0  0
  -31.1118  -23.1837   24.3906 H   0  0  0  0  0  0
  -32.7784  -20.7077   22.2429 H   0  0  0  0  0  0
  -31.6952  -20.6990   20.8771 H   0  0  0  0  0  0
  -31.1952  -19.9727   22.3915 H   0  0  0  0  0  0
  -29.2781  -22.4483   23.2741 H   0  0  0  0  0  0
  -29.2340  -21.1967   22.5032 H   0  0  0  0  0  0
  -31.8102  -24.8119   20.3139 H   0  0  0  0  0  0
  -28.0893  -18.2699   20.3344 H   0  0  0  0  0  0
  1 25  1  0  0  0
  1 30  2  0  0  0
  1 83  1  0  0  0
  2  3  1  0  0  0
  2 25  1  0  0  0
  2 85  1  0  0  0
  2 86  1  0  0  0
  3  4  1  0  0  0
  3 87  1  0  0  0
  3 88  1  0  0  0
  4  5  1  0  0  0
  4 89  1  0  0  0
  4 90  1  0  0  0
  5  6  1  0  0  0
  5 26  1  0  0  0
  5 91  1  0  0  0
  6 25  1  0  0  0
  6 92  1  0  0  0
  6 93  1  0  0  0
  7  8  2  0  0  0
  7 26  1  0  0  0
  7 29  1  0  0  0
  8  9  1  0  0  0
  8 22  1  0  0  0
  9 10  1  0  0  0
  9 27  2  0  0  0
 10 11  2  0  0  0
 10 15  1  0  0  0
 11 12  1  0  0  0
 11 94  1  0  0  0
 12 13  2  0  0  0
 12 95  1  0  0  0
 13 14  1  0  0  0
 13 31  1  0  0  0
 14 15  2  0  0  0
 14 96  1  0  0  0
 15 97  1  0  0  0
 16 17  2  0  0  0
 16 21  1  0  0  0
 16 31  1  0  0  0
 17 18  1  0  0  0
 17 98  1  0  0  0
 18 19  2  0  0  0
 18 99  1  0  0  0
 19 20  1  0  0  0
 19 24  1  0  0  0
 20 21  2  0  0  0
 20100  1  0  0  0
 21 23  1  0  0  0
 22 28  1  0  0  0
 22 32  2  0  0  0
 26 27  1  0  0  0
 28101  1  0  0  0
 28102  1  0  0  0
 29103  1  0  0  0
 29104  1  0  0  0
 33 34  1  0  0  0
 33 66  1  0  0  0
 33 70  2  0  0  0
 34 36  1  0  0  0
 34 59  1  0  0  0
 34105  1  0  0  0
 35 44  2  0  0  0
 35 45  1  0  0  0
 35 68  1  0  0  0
 36 56  1  0  0  0
 36106  1  0  0  0
 37 39  1  0  0  0
 37 47  1  0  0  0
 37 66  1  0  0  0
 37107  1  0  0  0
 38 43  2  0  0  0
 38 46  1  0  0  0
 38 47  1  0  0  0
 39 64  1  0  0  0
 39 67  2  0  0  0
 40 52  1  0  0  0
 40 53  2  0  0  0
 40 58  1  0  0  0
 41108  1  0  0  0
 41109  1  0  0  0
 41110  1  0  0  0
 41 48  1  0  0  0
 42 43  1  0  0  0
 42 66  1  0  0  0
 42111  1  0  0  0
 42112  1  0  0  0
 43 44  1  0  0  0
 44113  1  0  0  0
 45 46  2  0  0  0
 45114  1  0  0  0
 46115  1  0  0  0
 47116  1  0  0  0
 47117  1  0  0  0
 48 56  1  0  0  0
 48 65  1  0  0  0
 48118  1  0  0  0
 49 50  1  0  0  0
 49 53  1  0  0  0
 49 64  1  0  0  0
 49119  1  0  0  0
 50 51  1  0  0  0
 50120  1  0  0  0
 50121  1  0  0  0
 51 52  1  0  0  0
 51122  1  0  0  0
 51123  1  0  0  0
 52124  1  0  0  0
 52125  1  0  0  0
 53 54  1  0  0  0
 54 55  2  0  0  0
 54126  1  0  0  0
 55 57  1  0  0  0
 55127  1  0  0  0
 56 69  2  0  0  0
 57 58  2  0  0  0
 57128  1  0  0  0
 58129  1  0  0  0
 59 60  1  0  0  0
 59 61  1  0  0  0
 59 62  1  0  0  0
 60130  1  0  0  0
 60131  1  0  0  0
 60132  1  0  0  0
 61133  1  0  0  0
 61134  1  0  0  0
 61135  1  0  0  0
 62136  1  0  0  0
 62137  1  0  0  0
 62138  1  0  0  0
 63 65  1  0  0  0
 63139  1  0  0  0
 63140  1  0  0  0
 63141  1  0  0  0
 64142  1  0  0  0
 65143  1  0  0  0
 68 80  1  0  0  0
 71 72  2  0  0  0
 71 73  1  0  0  0
 71144  1  0  0  0
 72 75  1  0  0  0
 72145  1  0  0  0
 73 76  2  0  0  0
 73146  1  0  0  0
 74 75  2  0  0  0
 74 76  1  0  0  0
 74147  1  0  0  0
 75 82  1  0  0  0
 76 83  1  0  0  0
 77 81  1  0  0  0
 77 82  1  0  0  0
 77 84  2  0  0  0
 78148  1  0  0  0
 78149  1  0  0  0
 78150  1  0  0  0
 78 81  1  0  0  0
 79 81  1  0  0  0
 79151  1  0  0  0
 79152  1  0  0  0
 79153  1  0  0  0
 80 81  1  0  0  0
 80154  1  0  0  0
 80155  1  0  0  0
 82156  1  0  0  0
 83157  1  0  0  0
M  ISO  4   1 100  68 101  80 101  83 100
M  END
> <chiral flag>
0

> <version>
0

> <s_m_source_file>
/data/baiqing/PycharmProjects/Reinvent-master-3.2/result/LINK_invent/BTK/process_docking_weight1_custom_product_contain_oxygen_bond_distance_aromatic_linkinvent_7_9_3/rearranged_h_0151.sdf

> <i_m_source_file_index>
7

> <r_mmod_Potential_Energy-OPLS-2005>
15340.49609375

> <r_mmod_Stretch_Energy-OPLS-2005>
8459.3388671875

> <r_mmod_Bend_Energy-OPLS-2005>
1145.12719726562

> <r_mmod_Torsional_Energy-OPLS-2005>
418.028900146484

> <r_mmod_Improper_Torsional_Energy-OPLS-2005>
18.8183708190918

> <r_mmod_Van_der_Waal_Energy-OPLS-2005>
2070.40502929688

> <r_mmod_Electrostatic_Energy-OPLS-2005>
-377.385528564453

> <r_mmod_Solvation_Energy-OPLS-2005>
-240.677597045898

> <b_mmod_Minimization_Converged-OPLS-2005>
0

> <r_mmod_RMS_Derivative-OPLS-2005>
2.19997715950012

$$$$
7
                    3D
 Structure written by MMmdl.
149157  0  0  1  0            999 V2000
  -30.5733  -14.7957   20.4439 C   0  0  0  0  0  0
  -30.4434  -12.4879   19.4653 C   0  0  0  0  0  0
  -29.5129  -12.5005   18.2314 C   0  0  0  0  0  0
  -28.0413  -12.3120   18.6530 C   0  0  0  0  0  0
  -27.6374  -13.2262   19.8400 C   0  0  2  0  0  0
  -28.6848  -13.1824   20.9729 C   0  0  0  0  0  0
  -25.2508  -13.8172   20.5685 C   0  0  0  0  0  0
  -24.1799  -13.0427   20.9212 C   0  0  0  0  0  0
  -24.6388  -11.6904   20.8757 C   0  0  0  0  0  0
  -23.9060  -10.4286   21.0414 C   0  0  0  0  0  0
  -24.3614   -9.4198   21.9187 C   0  0  0  0  0  0
  -23.6288   -8.2236   22.0761 C   0  0  0  0  0  0
  -22.4265   -8.0280   21.3553 C   0  0  0  0  0  0
  -21.9898   -9.0256   20.4655 C   0  0  0  0  0  0
  -22.7233  -10.2128   20.3063 C   0  0  0  0  0  0
  -21.6846   -6.0733   22.5283 C   0  0  0  0  0  0
  -21.4016   -6.5639   23.8215 C   0  0  0  0  0  0
  -21.3658   -5.6790   24.9180 C   0  0  0  0  0  0
  -21.6041   -4.3055   24.7224 C   0  0  0  0  0  0
  -21.8817   -3.8144   23.4348 C   0  0  0  0  0  0
  -21.9193   -4.6965   22.3403 C   0  0  0  0  0  0
  -22.7823  -13.5219   21.1868 C   0  0  0  0  0  0
  -22.1660   -4.2150   21.0981 F   0  0  0  0  0  0
  -21.5628   -3.4539   25.7738 F   0  0  0  0  0  0
  -29.9747  -13.5541   20.3793 N   0  0  0  0  0  0
  -26.2919  -12.9366   20.3240 N   0  0  0  0  0  0
  -25.9311  -11.6516   20.5726 N   0  0  0  0  0  0
  -22.0452  -12.8224   22.0420 N   0  0  0  0  0  0
  -25.4160  -15.1900   20.4087 N   0  0  0  0  0  0
  -31.7822  -14.8958   20.2091 O   0  0  0  0  0  0
  -21.6639   -6.8874   21.4239 O   0  0  0  0  0  0
  -22.3509  -14.5526   20.6711 O   0  0  0  0  0  0
  -24.6338  -31.8522   23.1936 C   0  0  0  0  0  0
  -25.9146  -32.4735   23.8304 C   0  0  1  0  0  0
  -27.2224  -27.2325   20.1532 C   0  0  0  0  0  0
  -25.5922  -33.8538   24.2228 N   0  0  0  0  0  0
  -23.4321  -30.4727   21.5376 C   0  0  2  0  0  0
  -24.8807  -28.9057   20.1175 C   0  0  0  0  0  0
  -22.7511  -29.4601   22.4902 C   0  0  0  0  0  0
  -18.0295  -28.1405   22.8496 C   0  0  0  0  0  0
  -24.1487  -36.7289   23.2641 C   0  0  0  0  0  0
  -25.9783  -30.7586   21.3737 C   0  0  0  0  0  0
  -26.0524  -29.3743   20.7250 C   0  0  0  0  0  0
  -27.2284  -28.5535   20.7238 C   0  0  0  0  0  0
  -26.0276  -26.8285   19.5229 C   0  0  0  0  0  0
  -24.8740  -27.6418   19.5041 C   0  0  0  0  0  0
  -23.6533  -29.7986   20.1575 C   0  0  0  0  0  0
  -25.4110  -36.3062   24.0324 C   0  0  1  0  0  0
  -20.5900  -28.3726   23.1269 C   0  0  2  0  0  0
  -20.6788  -26.9440   22.5414 C   0  0  0  0  0  0
  -19.5757  -26.6398   21.5227 C   0  0  0  0  0  0
  -18.1940  -26.7948   22.1640 C   0  0  0  0  0  0
  -19.1549  -28.8881   23.2880 C   0  0  0  0  0  0
  -18.9467  -30.1476   23.8904 C   0  0  0  0  0  0
  -17.6466  -30.6603   24.0572 C   0  0  0  0  0  0
  -25.9055  -34.9431   23.5087 C   0  0  0  0  0  0
  -16.5359  -29.9104   23.6326 C   0  0  0  0  0  0
  -16.7280  -28.6520   23.0353 C   0  0  0  0  0  0
  -26.4501  -31.6565   25.0703 C   0  0  0  0  0  0
  -25.3709  -31.3738   26.1413 C   0  0  0  0  0  0
  -27.0342  -30.2973   24.6206 C   0  0  0  0  0  0
  -27.6053  -32.4310   25.7478 C   0  0  0  0  0  0
  -27.5575  -37.1795   24.8463 C   0  0  0  0  0  0
  -21.4216  -29.3057   22.3642 N   0  0  0  0  0  0
  -26.4285  -37.3762   23.9410 N   0  0  0  0  0  0
  -24.7010  -31.0471   22.0918 N   0  0  0  0  0  0
  -23.4195  -28.8154   23.3025 O   0  0  0  0  0  0
  -28.3265  -26.3438   20.1475 O   0  0  0  0  0  0
  -26.5651  -34.8917   22.4668 O   0  0  0  0  0  0
  -23.5481  -32.1356   23.7213 O   0  0  0  0  0  0
  -30.7372  -19.6974   21.2679 C   0  0  0  0  0  0
  -29.5944  -19.7422   20.5023 C   0  0  0  0  0  0
  -29.9966  -17.3696   20.6193 C   0  0  0  0  0  0
  -29.0221  -22.1877   20.5280 C   0  0  0  0  0  0
  -28.2022  -24.9223   20.6741 C   0  0  0  0  0  0
  -28.6661  -23.6074   19.8182 C   0  0  1  0  0  0
  -29.1853  -18.3921   20.1593 N   0  0  0  0  0  0
  -28.9925  -20.9763   19.9853 N   0  0  0  0  0  0
  -29.7370  -15.9115   20.4718 N   0  0  0  0  0  0
  -29.8361  -23.9694   18.9933 N   0  3  0  0  0  0
  -31.3434  -18.0545   21.5325 S   0  0  0  0  0  0
  -31.4800  -12.6367   19.1573 H   0  0  0  0  0  0
  -30.4136  -11.5179   19.9635 H   0  0  0  0  0  0
  -29.8047  -11.7155   17.5318 H   0  0  0  0  0  0
  -29.6247  -13.4441   17.6951 H   0  0  0  0  0  0
  -27.9151  -11.2666   18.9373 H   0  0  0  0  0  0
  -27.3779  -12.4775   17.8033 H   0  0  0  0  0  0
  -27.6221  -14.2393   19.4394 H   0  0  0  0  0  0
  -28.7363  -12.1893   21.4220 H   0  0  0  0  0  0
  -28.4146  -13.8705   21.7762 H   0  0  0  0  0  0
  -25.2758   -9.5676   22.4761 H   0  0  0  0  0  0
  -24.0003   -7.4619   22.7474 H   0  0  0  0  0  0
  -21.0830   -8.8770   19.8957 H   0  0  0  0  0  0
  -22.3690  -10.9670   19.6179 H   0  0  0  0  0  0
  -21.2011   -7.6146   23.9719 H   0  0  0  0  0  0
  -21.1480   -6.0523   25.9079 H   0  0  0  0  0  0
  -22.0597   -2.7607   23.2848 H   0  0  0  0  0  0
  -22.4070  -11.9914   22.4851 H   0  0  0  0  0  0
  -21.1076  -13.1268   22.2615 H   0  0  0  0  0  0
  -24.6379  -15.8318   20.5143 H   0  0  0  0  0  0
  -26.2455  -15.6376   20.0421 H   0  0  0  0  0  0
  -26.7215  -32.5380   23.1049 H   0  0  0  0  0  0
  -25.0013  -33.9661   25.0338 H   0  0  0  0  0  0
  -22.7304  -31.2951   21.3859 H   0  0  0  0  0  0
  -23.3741  -35.9627   23.3293 H   0  0  0  0  0  0
  -24.3585  -36.8926   22.2059 H   0  0  0  0  0  0
  -23.7246  -37.6488   23.6677 H   0  0  0  0  0  0
  -26.1106  -31.5108   20.5951 H   0  0  0  0  0  0
  -26.8585  -30.8185   22.0023 H   0  0  0  0  0  0
  -28.1295  -28.9140   21.2002 H   0  0  0  0  0  0
  -25.9758  -25.8597   19.0466 H   0  0  0  0  0  0
  -23.9772  -27.2758   19.0231 H   0  0  0  0  0  0
  -23.7841  -30.5704   19.3981 H   0  0  0  0  0  0
  -22.7703  -29.2348   19.8517 H   0  0  0  0  0  0
  -25.1286  -36.1908   25.0816 H   0  0  0  0  0  0
  -21.0000  -28.3321   24.1385 H   0  0  0  0  0  0
  -20.5718  -26.2337   23.3625 H   0  0  0  0  0  0
  -21.6653  -26.7479   22.1188 H   0  0  0  0  0  0
  -19.6922  -25.6307   21.1261 H   0  0  0  0  0  0
  -19.6685  -27.3208   20.6757 H   0  0  0  0  0  0
  -17.4205  -26.6698   21.4043 H   0  0  0  0  0  0
  -18.0337  -26.0093   22.9039 H   0  0  0  0  0  0
  -19.7937  -30.7298   24.2278 H   0  0  0  0  0  0
  -17.5014  -31.6280   24.5183 H   0  0  0  0  0  0
  -15.5358  -30.3012   23.7638 H   0  0  0  0  0  0
  -15.8682  -28.0840   22.7065 H   0  0  0  0  0  0
  -24.5870  -30.7107   25.7735 H   0  0  0  0  0  0
  -24.8911  -32.2916   26.4821 H   0  0  0  0  0  0
  -25.7998  -30.8913   27.0203 H   0  0  0  0  0  0
  -26.2928  -29.6721   24.1215 H   0  0  0  0  0  0
  -27.3994  -29.7241   25.4741 H   0  0  0  0  0  0
  -27.8820  -30.4237   23.9469 H   0  0  0  0  0  0
  -27.2659  -33.3613   26.2047 H   0  0  0  0  0  0
  -28.3864  -32.6864   25.0304 H   0  0  0  0  0  0
  -28.0721  -31.8437   26.5399 H   0  0  0  0  0  0
  -28.2583  -38.0098   24.7501 H   0  0  0  0  0  0
  -28.1077  -36.2626   24.6289 H   0  0  0  0  0  0
  -27.2301  -37.1446   25.8870 H   0  0  0  0  0  0
  -20.9418  -29.8752   21.6814 H   0  0  0  0  0  0
  -26.0162  -38.2836   24.1403 H   0  0  0  0  0  0
  -31.3086  -20.5276   21.6625 H   0  0  0  0  0  0
  -29.3787  -22.3140   21.5539 H   0  0  0  0  0  0
  -28.7942  -24.9247   21.5900 H   0  0  0  0  0  0
  -27.1817  -24.7572   21.0207 H   0  0  0  0  0  0
  -27.8586  -23.4050   19.1140 H   0  0  0  0  0  0
  -28.7620  -15.6774   20.3924 H   0  0  0  0  0  0
  -30.6353  -24.1747   19.5679 H   0  0  0  0  0  0
  -29.6354  -24.7810   18.4352 H   0  0  0  0  0  0
  -30.0731  -23.2084   18.3809 H   0  0  0  0  0  0
  1 25  1  0  0  0
  1 30  2  0  0  0
  1 79  1  0  0  0
  2  3  1  0  0  0
  2 25  1  0  0  0
  2 82  1  0  0  0
  2 83  1  0  0  0
  3  4  1  0  0  0
  3 84  1  0  0  0
  3 85  1  0  0  0
  4  5  1  0  0  0
  4 86  1  0  0  0
  4 87  1  0  0  0
  5  6  1  0  0  0
  5 26  1  0  0  0
  5 88  1  0  0  0
  6 25  1  0  0  0
  6 89  1  0  0  0
  6 90  1  0  0  0
  7  8  2  0  0  0
  7 26  1  0  0  0
  7 29  1  0  0  0
  8  9  1  0  0  0
  8 22  1  0  0  0
  9 10  1  0  0  0
  9 27  2  0  0  0
 10 11  2  0  0  0
 10 15  1  0  0  0
 11 12  1  0  0  0
 11 91  1  0  0  0
 12 13  2  0  0  0
 12 92  1  0  0  0
 13 14  1  0  0  0
 13 31  1  0  0  0
 14 15  2  0  0  0
 14 93  1  0  0  0
 15 94  1  0  0  0
 16 17  2  0  0  0
 16 21  1  0  0  0
 16 31  1  0  0  0
 17 18  1  0  0  0
 17 95  1  0  0  0
 18 19  2  0  0  0
 18 96  1  0  0  0
 19 20  1  0  0  0
 19 24  1  0  0  0
 20 21  2  0  0  0
 20 97  1  0  0  0
 21 23  1  0  0  0
 22 28  1  0  0  0
 22 32  2  0  0  0
 26 27  1  0  0  0
 28 98  1  0  0  0
 28 99  1  0  0  0
 29100  1  0  0  0
 29101  1  0  0  0
 33 34  1  0  0  0
 33 66  1  0  0  0
 33 70  2  0  0  0
 34 36  1  0  0  0
 34 59  1  0  0  0
 34102  1  0  0  0
 35 44  2  0  0  0
 35 45  1  0  0  0
 35 68  1  0  0  0
 36 56  1  0  0  0
 36103  1  0  0  0
 37 39  1  0  0  0
 37 47  1  0  0  0
 37 66  1  0  0  0
 37104  1  0  0  0
 38 43  2  0  0  0
 38 46  1  0  0  0
 38 47  1  0  0  0
 39 64  1  0  0  0
 39 67  2  0  0  0
 40 52  1  0  0  0
 40 53  2  0  0  0
 40 58  1  0  0  0
 41105  1  0  0  0
 41106  1  0  0  0
 41107  1  0  0  0
 41 48  1  0  0  0
 42 43  1  0  0  0
 42 66  1  0  0  0
 42108  1  0  0  0
 42109  1  0  0  0
 43 44  1  0  0  0
 44110  1  0  0  0
 45 46  2  0  0  0
 45111  1  0  0  0
 46112  1  0  0  0
 47113  1  0  0  0
 47114  1  0  0  0
 48 56  1  0  0  0
 48 65  1  0  0  0
 48115  1  0  0  0
 49 50  1  0  0  0
 49 53  1  0  0  0
 49 64  1  0  0  0
 49116  1  0  0  0
 50 51  1  0  0  0
 50117  1  0  0  0
 50118  1  0  0  0
 51 52  1  0  0  0
 51119  1  0  0  0
 51120  1  0  0  0
 52121  1  0  0  0
 52122  1  0  0  0
 53 54  1  0  0  0
 54 55  2  0  0  0
 54123  1  0  0  0
 55 57  1  0  0  0
 55124  1  0  0  0
 56 69  2  0  0  0
 57 58  2  0  0  0
 57125  1  0  0  0
 58126  1  0  0  0
 59 60  1  0  0  0
 59 61  1  0  0  0
 59 62  1  0  0  0
 60127  1  0  0  0
 60128  1  0  0  0
 60129  1  0  0  0
 61130  1  0  0  0
 61131  1  0  0  0
 61132  1  0  0  0
 62133  1  0  0  0
 62134  1  0  0  0
 62135  1  0  0  0
 63 65  1  0  0  0
 63136  1  0  0  0
 63137  1  0  0  0
 63138  1  0  0  0
 64139  1  0  0  0
 65140  1  0  0  0
 68 75  1  0  0  0
 71 72  2  0  0  0
 71 81  1  0  0  0
 71141  1  0  0  0
 72 77  1  0  0  0
 72 78  1  0  0  0
 73 77  2  0  0  0
 73 79  1  0  0  0
 73 81  1  0  0  0
 74 76  1  0  0  0
 74 78  2  0  0  0
 74142  1  0  0  0
 75 76  1  0  0  0
 75143  1  0  0  0
 75144  1  0  0  0
 76 80  1  0  0  0
 76145  1  0  0  0
 79146  1  0  0  0
 80147  1  0  0  0
 80148  1  0  0  0
 80149  1  0  0  0
M  CHG  1  80   1
M  ISO  4   1 100  68 101  75 101  79 100
M  END
> <chiral flag>
0

> <version>
0

> <s_m_source_file>
/data/baiqing/PycharmProjects/Reinvent-master-3.2/result/LINK_invent/BTK/process_docking_weight1_custom_product_contain_oxygen_bond_distance_aromatic_linkinvent_7_9_3/rearranged_h_0151.sdf

> <i_m_source_file_index>
8

> <r_mmod_Potential_Energy-OPLS-2005>
-179.089782714844

> <r_mmod_Stretch_Energy-OPLS-2005>
140.301498413086

> <r_mmod_Bend_Energy-OPLS-2005>
176.980895996094

> <r_mmod_Torsional_Energy-OPLS-2005>
252.136688232422

> <r_mmod_Improper_Torsional_Energy-OPLS-2005>
8.63786792755127

> <r_mmod_Van_der_Waal_Energy-OPLS-2005>
110.994384765625

> <r_mmod_Electrostatic_Energy-OPLS-2005>
-456.789184570312

> <r_mmod_Solvation_Energy-OPLS-2005>
-517.121520996094

> <b_mmod_Minimization_Converged-OPLS-2005>
0

> <r_mmod_RMS_Derivative-OPLS-2005>
1.27791035175323

$$$$
8
                    3D
 Structure written by MMmdl.
155164  0  0  1  0            999 V2000
  -30.6267  -14.7534   20.4527 C   0  0  0  0  0  0
  -30.4279  -12.4555   19.4893 C   0  0  0  0  0  0
  -29.5105  -12.5048   18.2472 C   0  0  0  0  0  0
  -28.0374  -12.3311   18.6602 C   0  0  0  0  0  0
  -27.6436  -13.2358   19.8584 C   0  0  2  0  0  0
  -28.6882  -13.1845   20.9970 C   0  0  0  0  0  0
  -25.2515  -13.8212   20.5714 C   0  0  0  0  0  0
  -24.1808  -13.0447   20.9211 C   0  0  0  0  0  0
  -24.6407  -11.6928   20.8760 C   0  0  0  0  0  0
  -23.9083  -10.4301   21.0410 C   0  0  0  0  0  0
  -24.3627   -9.4214   21.9190 C   0  0  0  0  0  0
  -23.6297   -8.2254   22.0762 C   0  0  0  0  0  0
  -22.4280   -8.0290   21.3548 C   0  0  0  0  0  0
  -21.9920   -9.0265   20.4653 C   0  0  0  0  0  0
  -22.7254  -10.2141   20.3063 C   0  0  0  0  0  0
  -21.6853   -6.0739   22.5271 C   0  0  0  0  0  0
  -21.4021   -6.5640   23.8206 C   0  0  0  0  0  0
  -21.3660   -5.6794   24.9170 C   0  0  0  0  0  0
  -21.6038   -4.3055   24.7219 C   0  0  0  0  0  0
  -21.8820   -3.8150   23.4341 C   0  0  0  0  0  0
  -21.9195   -4.6968   22.3398 C   0  0  0  0  0  0
  -22.7830  -13.5231   21.1852 C   0  0  0  0  0  0
  -22.1660   -4.2152   21.0975 F   0  0  0  0  0  0
  -21.5628   -3.4539   25.7733 F   0  0  0  0  0  0
  -29.9905  -13.5303   20.4147 N   0  0  0  0  0  0
  -26.2957  -12.9431   20.3336 N   0  0  0  0  0  0
  -25.9345  -11.6570   20.5797 N   0  0  0  0  0  0
  -22.0474  -12.8222   22.0407 N   0  0  0  0  0  0
  -25.4190  -15.1937   20.4117 N   0  0  0  0  0  0
  -31.8066  -14.8288   20.1004 O   0  0  0  0  0  0
  -21.6640   -6.8885   21.4236 O   0  0  0  0  0  0
  -22.3513  -14.5528   20.6686 O   0  0  0  0  0  0
  -24.6340  -31.8528   23.1978 C   0  0  0  0  0  0
  -25.9153  -32.4732   23.8336 C   0  0  1  0  0  0
  -27.2197  -27.2338   20.1236 C   0  0  0  0  0  0
  -25.5923  -33.8537   24.2240 N   0  0  0  0  0  0
  -23.4326  -30.4757   21.5411 C   0  0  2  0  0  0
  -24.8805  -28.9244   20.1078 C   0  0  0  0  0  0
  -22.7530  -29.4580   22.4895 C   0  0  0  0  0  0
  -18.0294  -28.1400   22.8479 C   0  0  0  0  0  0
  -24.1485  -36.7281   23.2642 C   0  0  0  0  0  0
  -25.9829  -30.7554   21.3860 C   0  0  0  0  0  0
  -26.0523  -29.3780   20.7236 C   0  0  0  0  0  0
  -27.2208  -28.5453   20.7216 C   0  0  0  0  0  0
  -26.0188  -26.8606   19.4751 C   0  0  0  0  0  0
  -24.8717  -27.6763   19.4724 C   0  0  0  0  0  0
  -23.6532  -29.8139   20.1563 C   0  0  0  0  0  0
  -25.4113  -36.3051   24.0317 C   0  0  1  0  0  0
  -20.5898  -28.3711   23.1254 C   0  0  2  0  0  0
  -20.6774  -26.9427   22.5403 C   0  0  0  0  0  0
  -19.5747  -26.6396   21.5212 C   0  0  0  0  0  0
  -18.1929  -26.7936   22.1628 C   0  0  0  0  0  0
  -19.1550  -28.8875   23.2854 C   0  0  0  0  0  0
  -18.9465  -30.1471   23.8880 C   0  0  0  0  0  0
  -17.6464  -30.6595   24.0560 C   0  0  0  0  0  0
  -25.9064  -34.9421   23.5087 C   0  0  0  0  0  0
  -16.5354  -29.9095   23.6330 C   0  0  0  0  0  0
  -16.7282  -28.6514   23.0346 C   0  0  0  0  0  0
  -26.4510  -31.6582   25.0746 C   0  0  0  0  0  0
  -25.3725  -31.3715   26.1454 C   0  0  0  0  0  0
  -27.0383  -30.2988   24.6294 C   0  0  0  0  0  0
  -27.6046  -32.4360   25.7517 C   0  0  0  0  0  0
  -27.5575  -37.1792   24.8463 C   0  0  0  0  0  0
  -21.4232  -29.3040   22.3640 N   0  0  0  0  0  0
  -26.4284  -37.3754   23.9404 N   0  0  0  0  0  0
  -24.7018  -31.0481   22.0961 N   0  0  0  0  0  0
  -23.4219  -28.8116   23.2997 O   0  0  0  0  0  0
  -28.3216  -26.3394   20.2184 O   0  0  0  0  0  0
  -26.5656  -34.8902   22.4668 O   0  0  0  0  0  0
  -23.5481  -32.1361   23.7255 O   0  0  0  0  0  0
  -29.4716  -19.9301   19.8565 C   0  0  0  0  0  0
  -29.6960  -18.6992   20.6446 C   0  0  0  0  0  0
  -29.5002  -19.0003   21.9731 C   0  0  0  0  0  0
  -29.1403  -21.1234   20.5298 C   0  0  0  0  0  0
  -28.7003  -23.6733   20.5673 C   0  0  0  0  0  0
  -28.6103  -17.1440   23.5949 C   0  0  0  0  0  0
  -29.0320  -18.3005   24.4681 C   0  0  0  0  0  0
  -29.7058  -18.0767   23.1333 C   0  0  0  0  0  0
  -30.2273  -17.3059   20.0848 C   0  0  0  0  0  0
  -28.3406  -24.9383   19.6349 C   0  0  0  0  0  0
  -28.8966  -22.4116   20.0027 N   0  0  0  0  0  0
  -29.8851  -15.9153   20.6392 N   0  0  0  0  0  0
  -28.7987  -23.8553   21.7839 O   0  0  0  0  0  0
  -29.0567  -20.6985   22.2294 S   0  0  0  0  0  0
  -31.4713  -12.5617   19.1885 H   0  0  0  0  0  0
  -30.3598  -11.4834   19.9807 H   0  0  0  0  0  0
  -29.7924  -11.7262   17.5371 H   0  0  0  0  0  0
  -29.6378  -13.4566   17.7293 H   0  0  0  0  0  0
  -27.8947  -11.2830   18.9271 H   0  0  0  0  0  0
  -27.3789  -12.5198   17.8114 H   0  0  0  0  0  0
  -27.6357  -14.2550   19.4723 H   0  0  0  0  0  0
  -28.7254  -12.1934   21.4516 H   0  0  0  0  0  0
  -28.4251  -13.8783   21.7971 H   0  0  0  0  0  0
  -25.2767   -9.5685   22.4770 H   0  0  0  0  0  0
  -23.9994   -7.4651   22.7496 H   0  0  0  0  0  0
  -21.0848   -8.8792   19.8968 H   0  0  0  0  0  0
  -22.3708  -10.9684   19.6177 H   0  0  0  0  0  0
  -21.2018   -7.6149   23.9710 H   0  0  0  0  0  0
  -21.1478   -6.0523   25.9069 H   0  0  0  0  0  0
  -22.0599   -2.7611   23.2837 H   0  0  0  0  0  0
  -22.4102  -11.9879   22.4781 H   0  0  0  0  0  0
  -21.1101  -13.1250   22.2635 H   0  0  0  0  0  0
  -24.6483  -15.8432   20.5257 H   0  0  0  0  0  0
  -26.2608  -15.6359   20.0657 H   0  0  0  0  0  0
  -26.7223  -32.5362   23.1078 H   0  0  0  0  0  0
  -24.9999  -33.9673   25.0333 H   0  0  0  0  0  0
  -22.7274  -31.2964   21.3941 H   0  0  0  0  0  0
  -23.3737  -35.9624   23.3293 H   0  0  0  0  0  0
  -24.3564  -36.8936   22.2058 H   0  0  0  0  0  0
  -23.7266  -37.6481   23.6695 H   0  0  0  0  0  0
  -26.1353  -31.5170   20.6201 H   0  0  0  0  0  0
  -26.8549  -30.7953   22.0275 H   0  0  0  0  0  0
  -28.1165  -28.8878   21.2198 H   0  0  0  0  0  0
  -25.8991  -25.9152   18.9750 H   0  0  0  0  0  0
  -23.9758  -27.3253   18.9790 H   0  0  0  0  0  0
  -23.7823  -30.5908   19.4021 H   0  0  0  0  0  0
  -22.7709  -29.2505   19.8470 H   0  0  0  0  0  0
  -25.1297  -36.1880   25.0807 H   0  0  0  0  0  0
  -20.9981  -28.3300   24.1380 H   0  0  0  0  0  0
  -20.5679  -26.2326   23.3611 H   0  0  0  0  0  0
  -21.6639  -26.7443   22.1198 H   0  0  0  0  0  0
  -19.6901  -25.6307   21.1248 H   0  0  0  0  0  0
  -19.6679  -27.3193   20.6724 H   0  0  0  0  0  0
  -17.4196  -26.6673   21.4033 H   0  0  0  0  0  0
  -18.0324  -26.0088   22.9034 H   0  0  0  0  0  0
  -19.7938  -30.7285   24.2258 H   0  0  0  0  0  0
  -17.5016  -31.6268   24.5174 H   0  0  0  0  0  0
  -15.5354  -30.2987   23.7675 H   0  0  0  0  0  0
  -15.8676  -28.0840   22.7063 H   0  0  0  0  0  0
  -24.5910  -30.7059   25.7764 H   0  0  0  0  0  0
  -24.8899  -32.2867   26.4889 H   0  0  0  0  0  0
  -25.8034  -30.8884   27.0232 H   0  0  0  0  0  0
  -26.2994  -29.6700   24.1310 H   0  0  0  0  0  0
  -27.4012  -29.7288   25.4857 H   0  0  0  0  0  0
  -27.8889  -30.4232   23.9588 H   0  0  0  0  0  0
  -27.2644  -33.3679   26.2046 H   0  0  0  0  0  0
  -28.3868  -32.6909   25.0352 H   0  0  0  0  0  0
  -28.0703  -31.8532   26.5474 H   0  0  0  0  0  0
  -28.2578  -38.0103   24.7516 H   0  0  0  0  0  0
  -28.1097  -36.2630   24.6290 H   0  0  0  0  0  0
  -27.2293  -37.1444   25.8869 H   0  0  0  0  0  0
  -20.9437  -29.8784   21.6852 H   0  0  0  0  0  0
  -26.0151  -38.2824   24.1406 H   0  0  0  0  0  0
  -29.6019  -19.8945   18.7839 H   0  0  0  0  0  0
  -27.6430  -17.2092   23.0995 H   0  0  0  0  0  0
  -28.9067  -16.1438   23.9059 H   0  0  0  0  0  0
  -29.6142  -18.0760   25.3600 H   0  0  0  0  0  0
  -28.3343  -19.1294   24.5675 H   0  0  0  0  0  0
  -30.7253  -17.6967   23.1517 H   0  0  0  0  0  0
  -31.3161  -17.3725   20.0842 H   0  0  0  0  0  0
  -29.9722  -17.2558   19.0257 H   0  0  0  0  0  0
  -27.4280  -24.6581   19.1224 H   0  0  0  0  0  0
  -29.0947  -24.9584   18.8478 H   0  0  0  0  0  0
  -28.8496  -22.4336   18.9926 H   0  0  0  0  0  0
  -28.9352  -15.7877   20.9517 H   0  0  0  0  0  0
  1 25  1  0  0  0
  1 30  2  0  0  0
  1 82  1  0  0  0
  2  3  1  0  0  0
  2 25  1  0  0  0
  2 85  1  0  0  0
  2 86  1  0  0  0
  3  4  1  0  0  0
  3 87  1  0  0  0
  3 88  1  0  0  0
  4  5  1  0  0  0
  4 89  1  0  0  0
  4 90  1  0  0  0
  5  6  1  0  0  0
  5 26  1  0  0  0
  5 91  1  0  0  0
  6 25  1  0  0  0
  6 92  1  0  0  0
  6 93  1  0  0  0
  7  8  2  0  0  0
  7 26  1  0  0  0
  7 29  1  0  0  0
  8  9  1  0  0  0
  8 22  1  0  0  0
  9 10  1  0  0  0
  9 27  2  0  0  0
 10 11  2  0  0  0
 10 15  1  0  0  0
 11 12  1  0  0  0
 11 94  1  0  0  0
 12 13  2  0  0  0
 12 95  1  0  0  0
 13 14  1  0  0  0
 13 31  1  0  0  0
 14 15  2  0  0  0
 14 96  1  0  0  0
 15 97  1  0  0  0
 16 17  2  0  0  0
 16 21  1  0  0  0
 16 31  1  0  0  0
 17 18  1  0  0  0
 17 98  1  0  0  0
 18 19  2  0  0  0
 18 99  1  0  0  0
 19 20  1  0  0  0
 19 24  1  0  0  0
 20 21  2  0  0  0
 20100  1  0  0  0
 21 23  1  0  0  0
 22 28  1  0  0  0
 22 32  2  0  0  0
 26 27  1  0  0  0
 28101  1  0  0  0
 28102  1  0  0  0
 29103  1  0  0  0
 29104  1  0  0  0
 33 34  1  0  0  0
 33 66  1  0  0  0
 33 70  2  0  0  0
 34 36  1  0  0  0
 34 59  1  0  0  0
 34105  1  0  0  0
 35 44  2  0  0  0
 35 45  1  0  0  0
 35 68  1  0  0  0
 36 56  1  0  0  0
 36106  1  0  0  0
 37 39  1  0  0  0
 37 47  1  0  0  0
 37 66  1  0  0  0
 37107  1  0  0  0
 38 43  2  0  0  0
 38 46  1  0  0  0
 38 47  1  0  0  0
 39 64  1  0  0  0
 39 67  2  0  0  0
 40 52  1  0  0  0
 40 53  2  0  0  0
 40 58  1  0  0  0
 41108  1  0  0  0
 41109  1  0  0  0
 41110  1  0  0  0
 41 48  1  0  0  0
 42 43  1  0  0  0
 42 66  1  0  0  0
 42111  1  0  0  0
 42112  1  0  0  0
 43 44  1  0  0  0
 44113  1  0  0  0
 45 46  2  0  0  0
 45114  1  0  0  0
 46115  1  0  0  0
 47116  1  0  0  0
 47117  1  0  0  0
 48 56  1  0  0  0
 48 65  1  0  0  0
 48118  1  0  0  0
 49 50  1  0  0  0
 49 53  1  0  0  0
 49 64  1  0  0  0
 49119  1  0  0  0
 50 51  1  0  0  0
 50120  1  0  0  0
 50121  1  0  0  0
 51 52  1  0  0  0
 51122  1  0  0  0
 51123  1  0  0  0
 52124  1  0  0  0
 52125  1  0  0  0
 53 54  1  0  0  0
 54 55  2  0  0  0
 54126  1  0  0  0
 55 57  1  0  0  0
 55127  1  0  0  0
 56 69  2  0  0  0
 57 58  2  0  0  0
 57128  1  0  0  0
 58129  1  0  0  0
 59 60  1  0  0  0
 59 61  1  0  0  0
 59 62  1  0  0  0
 60130  1  0  0  0
 60131  1  0  0  0
 60132  1  0  0  0
 61133  1  0  0  0
 61134  1  0  0  0
 61135  1  0  0  0
 62136  1  0  0  0
 62137  1  0  0  0
 62138  1  0  0  0
 63 65  1  0  0  0
 63139  1  0  0  0
 63140  1  0  0  0
 63141  1  0  0  0
 64142  1  0  0  0
 65143  1  0  0  0
 68 80  1  0  0  0
 71 72  1  0  0  0
 71 74  2  0  0  0
 71144  1  0  0  0
 72 73  2  0  0  0
 72 79  1  0  0  0
 73 84  1  0  0  0
 73 78  1  0  0  0
 74 81  1  0  0  0
 74 84  1  0  0  0
 75 80  1  0  0  0
 75 81  1  0  0  0
 75 83  2  0  0  0
 76 77  1  0  0  0
 76 78  1  0  0  0
 76145  1  0  0  0
 76146  1  0  0  0
 77 78  1  0  0  0
 77147  1  0  0  0
 77148  1  0  0  0
 78149  1  0  0  0
 79 82  1  0  0  0
 79150  1  0  0  0
 79151  1  0  0  0
 80152  1  0  0  0
 80153  1  0  0  0
 81154  1  0  0  0
 82155  1  0  0  0
M  ISO  4   1 100  68 101  80 101  82 100
M  END
> <chiral flag>
0

> <version>
0

> <s_m_source_file>
/data/baiqing/PycharmProjects/Reinvent-master-3.2/result/LINK_invent/BTK/process_docking_weight1_custom_product_contain_oxygen_bond_distance_aromatic_linkinvent_7_9_3/rearranged_h_0151.sdf

> <i_m_source_file_index>
9

> <r_mmod_Potential_Energy-OPLS-2005>
77.5969009399414

> <r_mmod_Stretch_Energy-OPLS-2005>
128.187622070312

> <r_mmod_Bend_Energy-OPLS-2005>
191.875244140625

> <r_mmod_Torsional_Energy-OPLS-2005>
205.189392089844

> <r_mmod_Improper_Torsional_Energy-OPLS-2005>
7.1534743309021

> <r_mmod_Van_der_Waal_Energy-OPLS-2005>
114.002349853516

> <r_mmod_Electrostatic_Energy-OPLS-2005>
-413.565612792969

> <r_mmod_Solvation_Energy-OPLS-2005>
-249.513549804688

> <b_mmod_Minimization_Converged-OPLS-2005>
0

> <r_mmod_RMS_Derivative-OPLS-2005>
1.43177890777588

$$$$
9
                    3D
 Structure written by MMmdl.
163171  0  0  1  0            999 V2000
  -30.7782  -14.5994   20.4534 C   0  0  0  0  0  0
  -30.4323  -12.3672   19.4549 C   0  0  0  0  0  0
  -29.5229  -12.4530   18.2186 C   0  0  0  0  0  0
  -28.0460  -12.3175   18.6384 C   0  0  0  0  0  0
  -27.6517  -13.2278   19.8419 C   0  0  2  0  0  0
  -28.7139  -13.1866   20.9683 C   0  0  0  0  0  0
  -25.2519  -13.8123   20.5593 C   0  0  0  0  0  0
  -24.1817  -13.0401   20.9286 C   0  0  0  0  0  0
  -24.6461  -11.6890   20.8824 C   0  0  0  0  0  0
  -23.9185  -10.4229   21.0446 C   0  0  0  0  0  0
  -24.3690   -9.4085   21.9215 C   0  0  0  0  0  0
  -23.6276   -8.2158   22.0737 C   0  0  0  0  0  0
  -22.4228   -8.0261   21.3554 C   0  0  0  0  0  0
  -21.9991   -9.0249   20.4629 C   0  0  0  0  0  0
  -22.7388  -10.2091   20.3052 C   0  0  0  0  0  0
  -21.6749   -6.0751   22.5304 C   0  0  0  0  0  0
  -21.3935   -6.5631   23.8270 C   0  0  0  0  0  0
  -21.3708   -5.6785   24.9227 C   0  0  0  0  0  0
  -21.6062   -4.3047   24.7269 C   0  0  0  0  0  0
  -21.8793   -3.8135   23.4377 C   0  0  0  0  0  0
  -21.9145   -4.6973   22.3428 C   0  0  0  0  0  0
  -22.7804  -13.5139   21.1942 C   0  0  0  0  0  0
  -22.1612   -4.2141   21.1012 F   0  0  0  0  0  0
  -21.5675   -3.4531   25.7800 F   0  0  0  0  0  0
  -30.0258  -13.4563   20.3608 N   0  0  0  0  0  0
  -26.2997  -12.9382   20.3260 N   0  0  0  0  0  0
  -25.9403  -11.6516   20.5862 N   0  0  0  0  0  0
  -22.0344  -12.8062   22.0462 N   0  0  0  0  0  0
  -25.4262  -15.1792   20.3634 N   0  0  0  0  0  0
  -31.9722  -14.5890   20.1800 O   0  0  0  0  0  0
  -21.6525   -6.8892   21.4280 O   0  0  0  0  0  0
  -22.3568  -14.5534   20.6885 O   0  0  0  0  0  0
  -24.6238  -31.8708   23.2061 C   0  0  0  0  0  0
  -25.9123  -32.4829   23.8387 C   0  0  1  0  0  0
  -27.2460  -27.4053   20.0807 C   0  0  0  0  0  0
  -25.5948  -33.8610   24.2301 N   0  0  0  0  0  0
  -23.4125  -30.4937   21.5452 C   0  0  2  0  0  0
  -24.8599  -28.9570   20.1093 C   0  0  0  0  0  0
  -22.7489  -29.4685   22.4935 C   0  0  0  0  0  0
  -18.0412  -28.1381   22.8592 C   0  0  0  0  0  0
  -24.1463  -36.7328   23.2638 C   0  0  0  0  0  0
  -25.9448  -30.8208   21.3696 C   0  0  0  0  0  0
  -26.0240  -29.4539   20.7097 C   0  0  0  0  0  0
  -27.2234  -28.6893   20.6925 C   0  0  0  0  0  0
  -26.0613  -26.9452   19.4618 C   0  0  0  0  0  0
  -24.8736  -27.7006   19.4838 C   0  0  0  0  0  0
  -23.6223  -29.8314   20.1598 C   0  0  0  0  0  0
  -25.4102  -36.3091   24.0301 C   0  0  1  0  0  0
  -20.5980  -28.3809   23.1418 C   0  0  2  0  0  0
  -20.6981  -26.9583   22.5524 C   0  0  0  0  0  0
  -19.5984  -26.6507   21.5321 C   0  0  0  0  0  0
  -18.2152  -26.7921   22.1741 C   0  0  0  0  0  0
  -19.1632  -28.8894   23.2975 C   0  0  0  0  0  0
  -18.9547  -30.1512   23.8920 C   0  0  0  0  0  0
  -17.6536  -30.6597   24.0571 C   0  0  0  0  0  0
  -25.9046  -34.9471   23.5097 C   0  0  0  0  0  0
  -16.5431  -29.9076   23.6399 C   0  0  0  0  0  0
  -16.7381  -28.6507   23.0450 C   0  0  0  0  0  0
  -26.4512  -31.6614   25.0747 C   0  0  0  0  0  0
  -25.3753  -31.3826   26.1500 C   0  0  0  0  0  0
  -27.0354  -30.3022   24.6186 C   0  0  0  0  0  0
  -27.6068  -32.4330   25.7549 C   0  0  0  0  0  0
  -27.5556  -37.1811   24.8445 C   0  0  0  0  0  0
  -21.4184  -29.3206   22.3786 N   0  0  0  0  0  0
  -26.4285  -37.3777   23.9373 N   0  0  0  0  0  0
  -24.6766  -31.0779   22.0997 N   0  0  0  0  0  0
  -23.4240  -28.8234   23.3004 O   0  0  0  0  0  0
  -28.3813  -26.5934   20.0982 O   0  0  0  0  0  0
  -26.5608  -34.8964   22.4660 O   0  0  0  0  0  0
  -23.5411  -32.1491   23.7415 O   0  0  0  0  0  0
  -29.9634  -19.0352   20.4767 C   0  0  0  0  0  0
  -29.1841  -18.0474   21.2032 C   0  0  0  0  0  0
  -28.2774  -18.7997   21.9287 C   0  0  0  0  0  0
  -29.4191  -20.2672   20.7745 C   0  0  0  0  0  0
  -29.2041  -24.1450   20.2366 C   0  0  0  0  0  0
  -25.8169  -18.9632   22.2108 C   0  0  0  0  0  0
  -27.3588  -19.4100   24.1633 C   0  0  0  0  0  0
  -26.9583  -17.0976   23.3834 C   0  0  0  0  0  0
  -29.2475  -16.4986   21.2040 C   0  0  0  0  0  0
  -28.9513  -22.7255   20.8412 C   0  0  0  0  0  0
  -28.1174  -25.2272   20.5435 C   0  0  0  0  0  0
  -27.1330  -18.5553   22.8993 C   0  0  0  0  0  0
  -29.7583  -21.5717   20.3443 N   0  0  0  0  0  0
  -30.1962  -15.8154   20.3194 N   0  0  0  0  0  0
  -30.2118  -24.3885   19.5626 O   0  0  0  0  0  0
  -28.3926  -20.1294   21.6238 O   0  0  0  0  0  0
  -31.4772  -12.4259   19.1448 H   0  0  0  0  0  0
  -30.3205  -11.4062   19.9560 H   0  0  0  0  0  0
  -29.8025  -11.6894   17.4837 H   0  0  0  0  0  0
  -29.6837  -13.4070   17.7230 H   0  0  0  0  0  0
  -27.8791  -11.2684   18.8894 H   0  0  0  0  0  0
  -27.4106  -12.5182   17.7804 H   0  0  0  0  0  0
  -27.6515  -14.2485   19.4569 H   0  0  0  0  0  0
  -28.7143  -12.2287   21.4892 H   0  0  0  0  0  0
  -28.4827  -13.9255   21.7345 H   0  0  0  0  0  0
  -25.2815   -9.5428   22.4872 H   0  0  0  0  0  0
  -23.9886   -7.4512   22.7441 H   0  0  0  0  0  0
  -21.0928   -8.8816   19.8919 H   0  0  0  0  0  0
  -22.3905  -10.9634   19.6131 H   0  0  0  0  0  0
  -21.1853   -7.6101   23.9760 H   0  0  0  0  0  0
  -21.1605   -6.0510   25.9153 H   0  0  0  0  0  0
  -22.0534   -2.7569   23.2869 H   0  0  0  0  0  0
  -22.3769  -11.9721   22.4982 H   0  0  0  0  0  0
  -21.0979  -13.1156   22.2574 H   0  0  0  0  0  0
  -24.6928  -15.8617   20.5089 H   0  0  0  0  0  0
  -26.2440  -15.5736   19.9179 H   0  0  0  0  0  0
  -26.7189  -32.5512   23.1149 H   0  0  0  0  0  0
  -25.0059  -33.9747   25.0424 H   0  0  0  0  0  0
  -22.7099  -31.3186   21.4022 H   0  0  0  0  0  0
  -23.3699  -35.9673   23.3314 H   0  0  0  0  0  0
  -24.3592  -36.8956   22.2051 H   0  0  0  0  0  0
  -23.7255  -37.6548   23.6676 H   0  0  0  0  0  0
  -26.0735  -31.5877   20.6023 H   0  0  0  0  0  0
  -26.8291  -30.8726   21.9941 H   0  0  0  0  0  0
  -28.1242  -29.0665   21.1583 H   0  0  0  0  0  0
  -26.0335  -25.9969   18.9390 H   0  0  0  0  0  0
  -23.9879  -27.3160   19.0053 H   0  0  0  0  0  0
  -23.7374  -30.6080   19.4018 H   0  0  0  0  0  0
  -22.7418  -29.2539   19.8590 H   0  0  0  0  0  0
  -25.1265  -36.1958   25.0779 H   0  0  0  0  0  0
  -21.0116  -28.3472   24.1538 H   0  0  0  0  0  0
  -20.5953  -26.2432   23.3695 H   0  0  0  0  0  0
  -21.6908  -26.7647   22.1402 H   0  0  0  0  0  0
  -19.7336  -25.6514   21.1201 H   0  0  0  0  0  0
  -19.6945  -27.3393   20.6925 H   0  0  0  0  0  0
  -17.4427  -26.6548   21.4144 H   0  0  0  0  0  0
  -18.0787  -25.9998   22.9120 H   0  0  0  0  0  0
  -19.8001  -30.7405   24.2216 H   0  0  0  0  0  0
  -17.5074  -31.6305   24.5198 H   0  0  0  0  0  0
  -15.5451  -30.2964   23.7756 H   0  0  0  0  0  0
  -15.8799  -28.0744   22.7281 H   0  0  0  0  0  0
  -24.5892  -30.7194   25.7900 H   0  0  0  0  0  0
  -24.9012  -32.3030   26.4877 H   0  0  0  0  0  0
  -25.8102  -30.9079   27.0294 H   0  0  0  0  0  0
  -26.2944  -29.6802   24.1159 H   0  0  0  0  0  0
  -27.4000  -29.7269   25.4706 H   0  0  0  0  0  0
  -27.8812  -30.4304   23.9448 H   0  0  0  0  0  0
  -27.2642  -33.3590   26.2179 H   0  0  0  0  0  0
  -28.3883  -32.6961   25.0418 H   0  0  0  0  0  0
  -28.0712  -31.8438   26.5445 H   0  0  0  0  0  0
  -28.2571  -38.0103   24.7458 H   0  0  0  0  0  0
  -28.1052  -36.2642   24.6276 H   0  0  0  0  0  0
  -27.2307  -37.1465   25.8863 H   0  0  0  0  0  0
  -20.9345  -29.9064   21.7152 H   0  0  0  0  0  0
  -26.0165  -38.2839   24.1411 H   0  0  0  0  0  0
  -30.8003  -18.8680   19.8141 H   0  0  0  0  0  0
  -25.8062  -20.0217   21.9470 H   0  0  0  0  0  0
  -24.9441  -18.7773   22.8388 H   0  0  0  0  0  0
  -25.6940  -18.3953   21.2882 H   0  0  0  0  0  0
  -27.5195  -20.4616   23.9261 H   0  0  0  0  0  0
  -28.2390  -19.0903   24.7228 H   0  0  0  0  0  0
  -26.5114  -19.3577   24.8459 H   0  0  0  0  0  0
  -26.7743  -16.4105   22.5607 H   0  0  0  0  0  0
  -26.0873  -17.0244   24.0411 H   0  0  0  0  0  0
  -27.8198  -16.7382   23.9568 H   0  0  0  0  0  0
  -28.2648  -16.1659   20.8896 H   0  0  0  0  0  0
  -29.4003  -16.1479   22.2263 H   0  0  0  0  0  0
  -29.1249  -22.8203   21.9126 H   0  0  0  0  0  0
  -27.8904  -22.5072   20.7126 H   0  0  0  0  0  0
  -27.1896  -24.8301   20.1380 H   0  0  0  0  0  0
  -28.0019  -25.2642   21.6257 H   0  0  0  0  0  0
  -30.7079  -21.7979   20.0541 H   0  0  0  0  0  0
  -30.8620  -16.4563   19.9044 H   0  0  0  0  0  0
  1 25  1  0  0  0
  1 30  2  0  0  0
  1 84  1  0  0  0
  2  3  1  0  0  0
  2 25  1  0  0  0
  2 87  1  0  0  0
  2 88  1  0  0  0
  3  4  1  0  0  0
  3 89  1  0  0  0
  3 90  1  0  0  0
  4  5  1  0  0  0
  4 91  1  0  0  0
  4 92  1  0  0  0
  5  6  1  0  0  0
  5 26  1  0  0  0
  5 93  1  0  0  0
  6 25  1  0  0  0
  6 94  1  0  0  0
  6 95  1  0  0  0
  7  8  2  0  0  0
  7 26  1  0  0  0
  7 29  1  0  0  0
  8  9  1  0  0  0
  8 22  1  0  0  0
  9 10  1  0  0  0
  9 27  2  0  0  0
 10 11  2  0  0  0
 10 15  1  0  0  0
 11 12  1  0  0  0
 11 96  1  0  0  0
 12 13  2  0  0  0
 12 97  1  0  0  0
 13 14  1  0  0  0
 13 31  1  0  0  0
 14 15  2  0  0  0
 14 98  1  0  0  0
 15 99  1  0  0  0
 16 17  2  0  0  0
 16 21  1  0  0  0
 16 31  1  0  0  0
 17 18  1  0  0  0
 17100  1  0  0  0
 18 19  2  0  0  0
 18101  1  0  0  0
 19 20  1  0  0  0
 19 24  1  0  0  0
 20 21  2  0  0  0
 20102  1  0  0  0
 21 23  1  0  0  0
 22 28  1  0  0  0
 22 32  2  0  0  0
 26 27  1  0  0  0
 28103  1  0  0  0
 28104  1  0  0  0
 29105  1  0  0  0
 29106  1  0  0  0
 33 34  1  0  0  0
 33 66  1  0  0  0
 33 70  2  0  0  0
 34 36  1  0  0  0
 34 59  1  0  0  0
 34107  1  0  0  0
 35 44  2  0  0  0
 35 45  1  0  0  0
 35 68  1  0  0  0
 36 56  1  0  0  0
 36108  1  0  0  0
 37 39  1  0  0  0
 37 47  1  0  0  0
 37 66  1  0  0  0
 37109  1  0  0  0
 38 43  2  0  0  0
 38 46  1  0  0  0
 38 47  1  0  0  0
 39 64  1  0  0  0
 39 67  2  0  0  0
 40 52  1  0  0  0
 40 53  2  0  0  0
 40 58  1  0  0  0
 41110  1  0  0  0
 41111  1  0  0  0
 41112  1  0  0  0
 41 48  1  0  0  0
 42 43  1  0  0  0
 42 66  1  0  0  0
 42113  1  0  0  0
 42114  1  0  0  0
 43 44  1  0  0  0
 44115  1  0  0  0
 45 46  2  0  0  0
 45116  1  0  0  0
 46117  1  0  0  0
 47118  1  0  0  0
 47119  1  0  0  0
 48 56  1  0  0  0
 48 65  1  0  0  0
 48120  1  0  0  0
 49 50  1  0  0  0
 49 53  1  0  0  0
 49 64  1  0  0  0
 49121  1  0  0  0
 50 51  1  0  0  0
 50122  1  0  0  0
 50123  1  0  0  0
 51 52  1  0  0  0
 51124  1  0  0  0
 51125  1  0  0  0
 52126  1  0  0  0
 52127  1  0  0  0
 53 54  1  0  0  0
 54 55  2  0  0  0
 54128  1  0  0  0
 55 57  1  0  0  0
 55129  1  0  0  0
 56 69  2  0  0  0
 57 58  2  0  0  0
 57130  1  0  0  0
 58131  1  0  0  0
 59 60  1  0  0  0
 59 61  1  0  0  0
 59 62  1  0  0  0
 60132  1  0  0  0
 60133  1  0  0  0
 60134  1  0  0  0
 61135  1  0  0  0
 61136  1  0  0  0
 61137  1  0  0  0
 62138  1  0  0  0
 62139  1  0  0  0
 62140  1  0  0  0
 63 65  1  0  0  0
 63141  1  0  0  0
 63142  1  0  0  0
 63143  1  0  0  0
 64144  1  0  0  0
 65145  1  0  0  0
 68 81  1  0  0  0
 71 72  1  0  0  0
 71 74  2  0  0  0
 71146  1  0  0  0
 72 73  2  0  0  0
 72 79  1  0  0  0
 73 82  1  0  0  0
 73 86  1  0  0  0
 74 83  1  0  0  0
 74 86  1  0  0  0
 75 80  1  0  0  0
 75 81  1  0  0  0
 75 85  2  0  0  0
 76147  1  0  0  0
 76148  1  0  0  0
 76149  1  0  0  0
 76 82  1  0  0  0
 77 82  1  0  0  0
 77150  1  0  0  0
 77151  1  0  0  0
 77152  1  0  0  0
 78 82  1  0  0  0
 78153  1  0  0  0
 78154  1  0  0  0
 78155  1  0  0  0
 79 84  1  0  0  0
 79156  1  0  0  0
 79157  1  0  0  0
 80 83  1  0  0  0
 80158  1  0  0  0
 80159  1  0  0  0
 81160  1  0  0  0
 81161  1  0  0  0
 83162  1  0  0  0
 84163  1  0  0  0
M  ISO  4   1 100  68 101  81 101  84 100
M  END
> <chiral flag>
0

> <version>
0

> <s_m_source_file>
/data/baiqing/PycharmProjects/Reinvent-master-3.2/result/LINK_invent/BTK/process_docking_weight1_custom_product_contain_oxygen_bond_distance_aromatic_linkinvent_7_9_3/rearranged_h_0151.sdf

> <i_m_source_file_index>
10

> <r_mmod_Potential_Energy-OPLS-2005>
-17.7813816070557

> <r_mmod_Stretch_Energy-OPLS-2005>
57.2986450195312

> <r_mmod_Bend_Energy-OPLS-2005>
165.832061767578

> <r_mmod_Torsional_Energy-OPLS-2005>
257.537414550781

> <r_mmod_Improper_Torsional_Energy-OPLS-2005>
21.7903480529785

> <r_mmod_Van_der_Waal_Energy-OPLS-2005>
115.648857116699

> <r_mmod_Electrostatic_Energy-OPLS-2005>
-449.222930908203

> <r_mmod_Solvation_Energy-OPLS-2005>
-232.663604736328

> <b_mmod_Minimization_Converged-OPLS-2005>
0

> <r_mmod_RMS_Derivative-OPLS-2005>
10.2014274597168

$$$$
10
                    3D
 Structure written by MMmdl.
158167  0  0  1  0            999 V2000
  -30.5893  -14.7955   20.4602 C   0  0  0  0  0  0
  -30.4481  -12.4884   19.4666 C   0  0  0  0  0  0
  -29.5142  -12.4728   18.2361 C   0  0  0  0  0  0
  -28.0505  -12.2714   18.6743 C   0  0  0  0  0  0
  -27.6353  -13.2193   19.8302 C   0  0  2  0  0  0
  -28.6797  -13.2042   20.9665 C   0  0  0  0  0  0
  -25.2520  -13.8173   20.5733 C   0  0  0  0  0  0
  -24.1768  -13.0461   20.9208 C   0  0  0  0  0  0
  -24.6345  -11.6930   20.8745 C   0  0  0  0  0  0
  -23.9009  -10.4304   21.0422 C   0  0  0  0  0  0
  -24.3552   -9.4203   21.9182 C   0  0  0  0  0  0
  -23.6249   -8.2222   22.0746 C   0  0  0  0  0  0
  -22.4217   -8.0259   21.3566 C   0  0  0  0  0  0
  -21.9844   -9.0235   20.4680 C   0  0  0  0  0  0
  -22.7165  -10.2134   20.3087 C   0  0  0  0  0  0
  -21.6846   -6.0732   22.5285 C   0  0  0  0  0  0
  -21.4020   -6.5622   23.8226 C   0  0  0  0  0  0
  -21.3671   -5.6766   24.9180 C   0  0  0  0  0  0
  -21.6024   -4.3038   24.7228 C   0  0  0  0  0  0
  -21.8807   -3.8140   23.4363 C   0  0  0  0  0  0
  -21.9197   -4.6964   22.3417 C   0  0  0  0  0  0
  -22.7803  -13.5280   21.1887 C   0  0  0  0  0  0
  -22.1662   -4.2151   21.0992 F   0  0  0  0  0  0
  -21.5633   -3.4513   25.7746 F   0  0  0  0  0  0
  -29.9714  -13.5625   20.3679 N   0  0  0  0  0  0
  -26.2893  -12.9340   20.3195 N   0  0  0  0  0  0
  -25.9239  -11.6506   20.5665 N   0  0  0  0  0  0
  -22.0407  -12.8342   22.0465 N   0  0  0  0  0  0
  -25.4268  -15.1900   20.4291 N   0  0  0  0  0  0
  -31.8022  -14.8887   20.2584 O   0  0  0  0  0  0
  -21.6622   -6.8848   21.4232 O   0  0  0  0  0  0
  -22.3503  -14.5571   20.6707 O   0  0  0  0  0  0
  -24.6337  -31.8531   23.1854 C   0  0  0  0  0  0
  -25.9143  -32.4748   23.8241 C   0  0  1  0  0  0
  -27.2610  -27.2353   20.1459 C   0  0  0  0  0  0
  -25.5940  -33.8548   24.2199 N   0  0  0  0  0  0
  -23.4353  -30.4665   21.5291 C   0  0  2  0  0  0
  -24.8933  -28.8955   20.1117 C   0  0  0  0  0  0
  -22.7528  -29.4605   22.4861 C   0  0  0  0  0  0
  -18.0303  -28.1381   22.8487 C   0  0  0  0  0  0
  -24.1507  -36.7268   23.2629 C   0  0  0  0  0  0
  -25.9833  -30.7521   21.3736 C   0  0  0  0  0  0
  -26.0623  -29.3718   20.7175 C   0  0  0  0  0  0
  -27.2436  -28.5591   20.7126 C   0  0  0  0  0  0
  -26.0653  -26.8236   19.5157 C   0  0  0  0  0  0
  -24.9057  -27.6325   19.4926 C   0  0  0  0  0  0
  -23.6580  -29.7797   20.1535 C   0  0  0  0  0  0
  -25.4134  -36.3074   24.0319 C   0  0  1  0  0  0
  -20.5914  -28.3722   23.1247 C   0  0  2  0  0  0
  -20.6804  -26.9417   22.5450 C   0  0  0  0  0  0
  -19.5806  -26.6359   21.5233 C   0  0  0  0  0  0
  -18.1959  -26.7938   22.1594 C   0  0  0  0  0  0
  -19.1563  -28.8867   23.2875 C   0  0  0  0  0  0
  -18.9478  -30.1465   23.8892 C   0  0  0  0  0  0
  -17.6480  -30.6598   24.0547 C   0  0  0  0  0  0
  -25.9075  -34.9449   23.5074 C   0  0  0  0  0  0
  -16.5371  -29.9077   23.6324 C   0  0  0  0  0  0
  -16.7289  -28.6486   23.0363 C   0  0  0  0  0  0
  -26.4489  -31.6587   25.0652 C   0  0  0  0  0  0
  -25.3710  -31.3857   26.1398 C   0  0  0  0  0  0
  -27.0241  -30.2947   24.6197 C   0  0  0  0  0  0
  -27.6074  -32.4340   25.7364 C   0  0  0  0  0  0
  -27.5622  -37.1767   24.8442 C   0  0  0  0  0  0
  -21.4229  -29.3033   22.3597 N   0  0  0  0  0  0
  -26.4319  -37.3770   23.9429 N   0  0  0  0  0  0
  -24.7028  -31.0452   22.0835 N   0  0  0  0  0  0
  -23.4200  -28.8152   23.3002 O   0  0  0  0  0  0
  -28.3904  -26.3691   20.2165 O   0  0  0  0  0  0
  -26.5653  -34.8931   22.4649 O   0  0  0  0  0  0
  -23.5492  -32.1345   23.7140 O   0  0  0  0  0  0
  -29.4381  -18.4807   20.2740 C   0  0  0  0  0  0
  -30.1346  -19.3580   22.2725 C   0  0  0  0  0  0
  -29.5375  -19.7318   21.0771 C   0  0  0  0  0  0
  -29.9154  -17.2653   20.8250 C   0  0  0  0  0  0
  -30.8261  -24.5837   20.4403 C   0  0  0  0  0  0
  -29.6036  -24.0021   20.3993 C   0  0  0  0  0  0
  -32.0552  -23.8951   21.0466 C   0  0  0  0  0  0
  -31.7083  -22.9642   22.2516 C   0  0  0  0  0  0
  -30.1879  -22.7189   22.4090 C   0  0  0  0  0  0
  -28.9287  -21.2073   20.7227 C   0  0  0  0  0  0
  -28.2828  -24.8543   20.1100 C   0  0  0  0  0  0
  -29.7665  -15.9228   20.4098 N   0  0  0  0  0  0
  -29.6565  -22.5435   21.0455 N   0  3  1  0  0  0
  -30.6208  -17.6647   22.3639 S   0  0  0  0  0  0
  -31.4809  -12.6465   19.1569 H   0  0  0  0  0  0
  -30.4359  -11.5251   19.9743 H   0  0  0  0  0  0
  -29.8097  -11.6784   17.5476 H   0  0  0  0  0  0
  -29.6129  -13.4074   17.6833 H   0  0  0  0  0  0
  -27.9524  -11.2383   19.0099 H   0  0  0  0  0  0
  -27.3769  -12.3830   17.8222 H   0  0  0  0  0  0
  -27.6100  -14.2205   19.3976 H   0  0  0  0  0  0
  -28.7214  -12.2258   21.4458 H   0  0  0  0  0  0
  -28.4053  -13.9202   21.7405 H   0  0  0  0  0  0
  -25.2694   -9.5711   22.4748 H   0  0  0  0  0  0
  -24.0010   -7.4606   22.7433 H   0  0  0  0  0  0
  -21.0780   -8.8738   19.8982 H   0  0  0  0  0  0
  -22.3594  -10.9654   19.6207 H   0  0  0  0  0  0
  -21.2000   -7.6130   23.9724 H   0  0  0  0  0  0
  -21.1508   -6.0502   25.9073 H   0  0  0  0  0  0
  -22.0585   -2.7608   23.2844 H   0  0  0  0  0  0
  -22.3981  -12.0066   22.4998 H   0  0  0  0  0  0
  -21.1038  -13.1452   22.2656 H   0  0  0  0  0  0
  -24.6640  -15.8464   20.5631 H   0  0  0  0  0  0
  -26.2942  -15.6401   20.1749 H   0  0  0  0  0  0
  -26.7197  -32.5380   23.0953 H   0  0  0  0  0  0
  -25.0134  -33.9706   25.0381 H   0  0  0  0  0  0
  -22.7330  -31.2874   21.3723 H   0  0  0  0  0  0
  -23.3817  -35.9554   23.3257 H   0  0  0  0  0  0
  -24.3584  -36.8940   22.2050 H   0  0  0  0  0  0
  -23.7224  -37.6434   23.6692 H   0  0  0  0  0  0
  -26.1409  -31.5100   20.6054 H   0  0  0  0  0  0
  -26.8530  -30.7973   22.0173 H   0  0  0  0  0  0
  -28.1402  -28.9347   21.1851 H   0  0  0  0  0  0
  -26.0086  -25.8509   19.0490 H   0  0  0  0  0  0
  -24.0135  -27.2621   19.0084 H   0  0  0  0  0  0
  -23.7723  -30.5437   19.3845 H   0  0  0  0  0  0
  -22.7788  -29.1999   19.8651 H   0  0  0  0  0  0
  -25.1331  -36.1892   25.0813 H   0  0  0  0  0  0
  -21.0036  -28.3359   24.1359 H   0  0  0  0  0  0
  -20.5677  -26.2355   23.3691 H   0  0  0  0  0  0
  -21.6689  -26.7427   22.1290 H   0  0  0  0  0  0
  -19.6979  -25.6248   21.1331 H   0  0  0  0  0  0
  -19.6771  -27.3112   20.6724 H   0  0  0  0  0  0
  -17.4268  -26.6742   21.3942 H   0  0  0  0  0  0
  -18.0275  -26.0060   22.8959 H   0  0  0  0  0  0
  -19.7952  -30.7293   24.2261 H   0  0  0  0  0  0
  -17.5023  -31.6275   24.5153 H   0  0  0  0  0  0
  -15.5373  -30.2977   23.7645 H   0  0  0  0  0  0
  -15.8690  -28.0786   22.7108 H   0  0  0  0  0  0
  -24.5764  -30.7343   25.7737 H   0  0  0  0  0  0
  -24.9033  -32.3095   26.4825 H   0  0  0  0  0  0
  -25.7975  -30.8980   27.0172 H   0  0  0  0  0  0
  -26.2760  -29.6730   24.1251 H   0  0  0  0  0  0
  -27.3861  -29.7211   25.4738 H   0  0  0  0  0  0
  -27.8718  -30.4106   23.9436 H   0  0  0  0  0  0
  -27.2680  -33.3613   26.1991 H   0  0  0  0  0  0
  -28.3786  -32.6980   25.0117 H   0  0  0  0  0  0
  -28.0857  -31.8465   26.5206 H   0  0  0  0  0  0
  -28.2649  -38.0059   24.7541 H   0  0  0  0  0  0
  -28.1142  -36.2622   24.6208 H   0  0  0  0  0  0
  -27.2387  -37.1339   25.8854 H   0  0  0  0  0  0
  -20.9417  -29.8663   21.6714 H   0  0  0  0  0  0
  -26.0211  -38.2862   24.1439 H   0  0  0  0  0  0
  -28.9487  -18.5139   19.3074 H   0  0  0  0  0  0
  -30.3296  -19.9287   23.1721 H   0  0  0  0  0  0
  -30.9544  -25.6142   20.1395 H   0  0  0  0  0  0
  -32.7858  -24.6459   21.3568 H   0  0  0  0  0  0
  -32.5575  -23.3206   20.2651 H   0  0  0  0  0  0
  -32.1268  -23.3741   23.1734 H   0  0  0  0  0  0
  -32.2127  -22.0069   22.1109 H   0  0  0  0  0  0
  -29.7380  -23.6039   22.8627 H   0  0  0  0  0  0
  -29.9391  -21.9207   23.0975 H   0  0  0  0  0  0
  -27.9432  -21.2843   21.1865 H   0  0  0  0  0  0
  -28.7337  -21.2357   19.6510 H   0  0  0  0  0  0
  -27.4709  -24.4947   20.7390 H   0  0  0  0  0  0
  -28.0003  -24.6230   19.0821 H   0  0  0  0  0  0
  -28.8327  -15.6932   20.1119 H   0  0  0  0  0  0
  -30.5108  -22.2135   20.6246 H   0  0  0  0  0  0
  1 25  1  0  0  0
  1 30  2  0  0  0
  1 82  1  0  0  0
  2  3  1  0  0  0
  2 25  1  0  0  0
  2 85  1  0  0  0
  2 86  1  0  0  0
  3  4  1  0  0  0
  3 87  1  0  0  0
  3 88  1  0  0  0
  4  5  1  0  0  0
  4 89  1  0  0  0
  4 90  1  0  0  0
  5  6  1  0  0  0
  5 26  1  0  0  0
  5 91  1  0  0  0
  6 25  1  0  0  0
  6 92  1  0  0  0
  6 93  1  0  0  0
  7  8  2  0  0  0
  7 26  1  0  0  0
  7 29  1  0  0  0
  8  9  1  0  0  0
  8 22  1  0  0  0
  9 10  1  0  0  0
  9 27  2  0  0  0
 10 11  2  0  0  0
 10 15  1  0  0  0
 11 12  1  0  0  0
 11 94  1  0  0  0
 12 13  2  0  0  0
 12 95  1  0  0  0
 13 14  1  0  0  0
 13 31  1  0  0  0
 14 15  2  0  0  0
 14 96  1  0  0  0
 15 97  1  0  0  0
 16 17  2  0  0  0
 16 21  1  0  0  0
 16 31  1  0  0  0
 17 18  1  0  0  0
 17 98  1  0  0  0
 18 19  2  0  0  0
 18 99  1  0  0  0
 19 20  1  0  0  0
 19 24  1  0  0  0
 20 21  2  0  0  0
 20100  1  0  0  0
 21 23  1  0  0  0
 22 28  1  0  0  0
 22 32  2  0  0  0
 26 27  1  0  0  0
 28101  1  0  0  0
 28102  1  0  0  0
 29103  1  0  0  0
 29104  1  0  0  0
 33 34  1  0  0  0
 33 66  1  0  0  0
 33 70  2  0  0  0
 34 36  1  0  0  0
 34 59  1  0  0  0
 34105  1  0  0  0
 35 44  2  0  0  0
 35 45  1  0  0  0
 35 68  1  0  0  0
 36 56  1  0  0  0
 36106  1  0  0  0
 37 39  1  0  0  0
 37 47  1  0  0  0
 37 66  1  0  0  0
 37107  1  0  0  0
 38 43  2  0  0  0
 38 46  1  0  0  0
 38 47  1  0  0  0
 39 64  1  0  0  0
 39 67  2  0  0  0
 40 52  1  0  0  0
 40 53  2  0  0  0
 40 58  1  0  0  0
 41108  1  0  0  0
 41109  1  0  0  0
 41110  1  0  0  0
 41 48  1  0  0  0
 42 43  1  0  0  0
 42 66  1  0  0  0
 42111  1  0  0  0
 42112  1  0  0  0
 43 44  1  0  0  0
 44113  1  0  0  0
 45 46  2  0  0  0
 45114  1  0  0  0
 46115  1  0  0  0
 47116  1  0  0  0
 47117  1  0  0  0
 48 56  1  0  0  0
 48 65  1  0  0  0
 48118  1  0  0  0
 49 50  1  0  0  0
 49 53  1  0  0  0
 49 64  1  0  0  0
 49119  1  0  0  0
 50 51  1  0  0  0
 50120  1  0  0  0
 50121  1  0  0  0
 51 52  1  0  0  0
 51122  1  0  0  0
 51123  1  0  0  0
 52124  1  0  0  0
 52125  1  0  0  0
 53 54  1  0  0  0
 54 55  2  0  0  0
 54126  1  0  0  0
 55 57  1  0  0  0
 55127  1  0  0  0
 56 69  2  0  0  0
 57 58  2  0  0  0
 57128  1  0  0  0
 58129  1  0  0  0
 59 60  1  0  0  0
 59 61  1  0  0  0
 59 62  1  0  0  0
 60130  1  0  0  0
 60131  1  0  0  0
 60132  1  0  0  0
 61133  1  0  0  0
 61134  1  0  0  0
 61135  1  0  0  0
 62136  1  0  0  0
 62137  1  0  0  0
 62138  1  0  0  0
 63 65  1  0  0  0
 63139  1  0  0  0
 63140  1  0  0  0
 63141  1  0  0  0
 64142  1  0  0  0
 65143  1  0  0  0
 68 81  1  0  0  0
 71 73  1  0  0  0
 71 74  2  0  0  0
 71144  1  0  0  0
 72 73  2  0  0  0
 72 84  1  0  0  0
 72145  1  0  0  0
 73 80  1  0  0  0
 74 82  1  0  0  0
 74 84  1  0  0  0
 75 76  2  0  0  0
 75 77  1  0  0  0
 75146  1  0  0  0
 76 81  1  0  0  0
 76 83  1  0  0  0
 77 78  1  0  0  0
 77147  1  0  0  0
 77148  1  0  0  0
 78 79  1  0  0  0
 78149  1  0  0  0
 78150  1  0  0  0
 79 83  1  0  0  0
 79151  1  0  0  0
 79152  1  0  0  0
 80153  1  0  0  0
 80154  1  0  0  0
 80 83  1  0  0  0
 81155  1  0  0  0
 81156  1  0  0  0
 82157  1  0  0  0
 83158  1  0  0  0
M  CHG  1  83   1
M  ISO  4   1 100  68 101  81 101  82 100
M  END
> <chiral flag>
0

> <version>
0

> <s_m_source_file>
/data/baiqing/PycharmProjects/Reinvent-master-3.2/result/LINK_invent/BTK/process_docking_weight1_custom_product_contain_oxygen_bond_distance_aromatic_linkinvent_7_9_3/rearranged_h_0151.sdf

> <i_m_source_file_index>
11

> <r_mmod_Potential_Energy-OPLS-2005>
212.904983520508

> <r_mmod_Stretch_Energy-OPLS-2005>
161.1552734375

> <r_mmod_Bend_Energy-OPLS-2005>
275.301513671875

> <r_mmod_Torsional_Energy-OPLS-2005>
268.68212890625

> <r_mmod_Improper_Torsional_Energy-OPLS-2005>
11.4944257736206

> <r_mmod_Van_der_Waal_Energy-OPLS-2005>
124.375846862793

> <r_mmod_Electrostatic_Energy-OPLS-2005>
-276.586944580078

> <r_mmod_Solvation_Energy-OPLS-2005>
-462.259674072266

> <b_mmod_Minimization_Converged-OPLS-2005>
0

> <r_mmod_RMS_Derivative-OPLS-2005>
5.63391256332397

$$$$
11
                    3D
 Structure written by MMmdl.
154163  0  0  1  0            999 V2000
  -30.5012  -15.0672   20.4341 C   0  0  0  0  0  0
  -30.4417  -12.6723   19.5137 C   0  0  0  0  0  0
  -29.5255  -12.5595   18.2705 C   0  0  0  0  0  0
  -28.0616  -12.3223   18.6862 C   0  0  0  0  0  0
  -27.6263  -13.2569   19.8445 C   0  0  2  0  0  0
  -28.6690  -13.2945   20.9819 C   0  0  0  0  0  0
  -25.2446  -13.8230   20.5746 C   0  0  0  0  0  0
  -24.1761  -13.0444   20.9226 C   0  0  0  0  0  0
  -24.6391  -11.6930   20.8762 C   0  0  0  0  0  0
  -23.9081  -10.4295   21.0405 C   0  0  0  0  0  0
  -24.3628   -9.4212   21.9184 C   0  0  0  0  0  0
  -23.6299   -8.2250   22.0756 C   0  0  0  0  0  0
  -22.4282   -8.0287   21.3544 C   0  0  0  0  0  0
  -21.9921   -9.0257   20.4645 C   0  0  0  0  0  0
  -22.7251  -10.2134   20.3053 C   0  0  0  0  0  0
  -21.6852   -6.0733   22.5279 C   0  0  0  0  0  0
  -21.4015   -6.5638   23.8211 C   0  0  0  0  0  0
  -21.3662   -5.6790   24.9176 C   0  0  0  0  0  0
  -21.6048   -4.3054   24.7230 C   0  0  0  0  0  0
  -21.8817   -3.8146   23.4350 C   0  0  0  0  0  0
  -21.9197   -4.6963   22.3407 C   0  0  0  0  0  0
  -22.7782  -13.5208   21.1880 C   0  0  0  0  0  0
  -22.1659   -4.2149   21.0982 F   0  0  0  0  0  0
  -21.5636   -3.4539   25.7744 F   0  0  0  0  0  0
  -29.9239  -13.7798   20.3864 N   0  0  0  0  0  0
  -26.2872  -12.9471   20.3279 N   0  0  0  0  0  0
  -25.9327  -11.6595   20.5749 N   0  0  0  0  0  0
  -22.0437  -12.8191   22.0432 N   0  0  0  0  0  0
  -25.4136  -15.1958   20.4210 N   0  0  0  0  0  0
  -31.6836  -15.1115   20.0654 O   0  0  0  0  0  0
  -21.6649   -6.8877   21.4237 O   0  0  0  0  0  0
  -22.3470  -14.5510   20.6721 O   0  0  0  0  0  0
  -24.6525  -31.8354   23.1813 C   0  0  0  0  0  0
  -25.9257  -32.4645   23.8234 C   0  0  1  0  0  0
  -27.2170  -27.0484   20.1648 C   0  0  0  0  0  0
  -25.5976  -33.8459   24.2152 N   0  0  0  0  0  0
  -23.4602  -30.4516   21.5284 C   0  0  2  0  0  0
  -24.9118  -28.8638   20.1087 C   0  0  0  0  0  0
  -22.7605  -29.4502   22.4827 C   0  0  0  0  0  0
  -18.0310  -28.1393   22.8477 C   0  0  0  0  0  0
  -24.1493  -36.7220   23.2640 C   0  0  0  0  0  0
  -26.0223  -30.6786   21.3962 C   0  0  0  0  0  0
  -26.0909  -29.2823   20.7375 C   0  0  0  0  0  0
  -27.2397  -28.3915   20.7488 C   0  0  0  0  0  0
  -26.0164  -26.7594   19.4778 C   0  0  0  0  0  0
  -24.8932  -27.6193   19.4612 C   0  0  0  0  0  0
  -23.6910  -29.7745   20.1508 C   0  0  0  0  0  0
  -25.4129  -36.2998   24.0308 C   0  0  1  0  0  0
  -20.5926  -28.3728   23.1209 C   0  0  2  0  0  0
  -20.6790  -26.9421   22.5399 C   0  0  0  0  0  0
  -19.5766  -26.6377   21.5209 C   0  0  0  0  0  0
  -18.1948  -26.7932   22.1621 C   0  0  0  0  0  0
  -19.1571  -28.8883   23.2830 C   0  0  0  0  0  0
  -18.9486  -30.1477   23.8852 C   0  0  0  0  0  0
  -17.6481  -30.6586   24.0554 C   0  0  0  0  0  0
  -25.9093  -34.9378   23.5043 C   0  0  0  0  0  0
  -16.5369  -29.9073   23.6342 C   0  0  0  0  0  0
  -16.7295  -28.6493   23.0366 C   0  0  0  0  0  0
  -26.4556  -31.6542   25.0705 C   0  0  0  0  0  0
  -25.3719  -31.3756   26.1384 C   0  0  0  0  0  0
  -27.0442  -30.2923   24.6355 C   0  0  0  0  0  0
  -27.6074  -32.4328   25.7489 C   0  0  0  0  0  0
  -27.5579  -37.1755   24.8458 C   0  0  0  0  0  0
  -21.4288  -29.3036   22.3566 N   0  0  0  0  0  0
  -26.4278  -37.3728   23.9422 N   0  0  0  0  0  0
  -24.7318  -31.0126   22.0892 N   0  0  0  0  0  0
  -23.4200  -28.8058   23.3022 O   0  0  0  0  0  0
  -28.2378  -26.0054   20.2745 O   0  0  0  0  0  0
  -26.5681  -34.8889   22.4624 O   0  0  0  0  0  0
  -23.5623  -32.1285   23.6969 O   0  0  0  0  0  0
  -28.3392  -18.5012   23.3512 C   0  0  0  0  0  0
  -28.3346  -20.7716   22.4852 C   0  0  0  0  0  0
  -28.8472  -18.0528   22.1294 C   0  0  0  0  0  0
  -29.1650  -18.9257   21.0627 C   0  0  0  0  0  0
  -28.1053  -19.8638   23.5344 C   0  0  0  0  0  0
  -28.8474  -20.4411   21.1930 C   0  0  0  0  0  0
  -28.7927  -23.1571   20.6644 C   0  0  0  0  0  0
  -29.0592  -16.5462   21.9000 C   0  0  0  0  0  0
  -29.8164  -17.7969   20.0785 C   0  0  0  0  0  0
  -28.0235  -24.4637   19.9086 C   0  0  0  0  0  0
  -29.7395  -16.2956   20.6251 N   0  0  0  0  0  0
  -27.6089  -20.3145   24.7572 N   0  0  0  0  0  0
  -28.7863  -21.7384   20.3092 N   0  0  0  0  0  0
  -29.4720  -23.4832   21.6424 O   0  0  0  0  0  0
  -31.4697  -12.8472   19.1939 H   0  0  0  0  0  0
  -30.4702  -11.7286   20.0606 H   0  0  0  0  0  0
  -29.8652  -11.7533   17.6189 H   0  0  0  0  0  0
  -29.5932  -13.4773   17.6839 H   0  0  0  0  0  0
  -27.9731  -11.2813   19.0017 H   0  0  0  0  0  0
  -27.3978  -12.4381   17.8285 H   0  0  0  0  0  0
  -27.5826  -14.2576   19.4130 H   0  0  0  0  0  0
  -28.7946  -12.3054   21.4255 H   0  0  0  0  0  0
  -28.3398  -13.9331   21.7974 H   0  0  0  0  0  0
  -25.2769   -9.5690   22.4761 H   0  0  0  0  0  0
  -24.0009   -7.4645   22.7477 H   0  0  0  0  0  0
  -21.0854   -8.8774   19.8948 H   0  0  0  0  0  0
  -22.3709  -10.9673   19.6168 H   0  0  0  0  0  0
  -21.1995   -7.6145   23.9714 H   0  0  0  0  0  0
  -21.1486   -6.0523   25.9076 H   0  0  0  0  0  0
  -22.0594   -2.7607   23.2856 H   0  0  0  0  0  0
  -22.4064  -11.9849   22.4813 H   0  0  0  0  0  0
  -21.1052  -13.1201   22.2641 H   0  0  0  0  0  0
  -24.6480  -15.8501   20.5368 H   0  0  0  0  0  0
  -26.2676  -15.6369   20.1043 H   0  0  0  0  0  0
  -26.7308  -32.5218   23.0947 H   0  0  0  0  0  0
  -25.0128  -33.9569   25.0299 H   0  0  0  0  0  0
  -22.7673  -31.2801   21.3670 H   0  0  0  0  0  0
  -23.3781  -35.9524   23.3267 H   0  0  0  0  0  0
  -24.3577  -36.8895   22.2062 H   0  0  0  0  0  0
  -23.7223  -37.6389   23.6708 H   0  0  0  0  0  0
  -26.1917  -31.4263   20.6204 H   0  0  0  0  0  0
  -26.8878  -30.7287   22.0450 H   0  0  0  0  0  0
  -28.1316  -28.7059   21.2727 H   0  0  0  0  0  0
  -25.9054  -25.8141   18.9686 H   0  0  0  0  0  0
  -23.9964  -27.2951   18.9511 H   0  0  0  0  0  0
  -23.8291  -30.5472   19.3940 H   0  0  0  0  0  0
  -22.8050  -29.2177   19.8411 H   0  0  0  0  0  0
  -25.1314  -36.1814   25.0799 H   0  0  0  0  0  0
  -21.0021  -28.3331   24.1329 H   0  0  0  0  0  0
  -20.5684  -26.2339   23.3633 H   0  0  0  0  0  0
  -21.6655  -26.7412   22.1197 H   0  0  0  0  0  0
  -19.6928  -25.6283   21.1258 H   0  0  0  0  0  0
  -19.6709  -27.3173   20.6732 H   0  0  0  0  0  0
  -17.4219  -26.6685   21.4019 H   0  0  0  0  0  0
  -18.0336  -26.0066   22.9012 H   0  0  0  0  0  0
  -19.7960  -30.7309   24.2198 H   0  0  0  0  0  0
  -17.5028  -31.6265   24.5164 H   0  0  0  0  0  0
  -15.5366  -30.2964   23.7691 H   0  0  0  0  0  0
  -15.8697  -28.0800   22.7106 H   0  0  0  0  0  0
  -24.5911  -30.7088   25.7700 H   0  0  0  0  0  0
  -24.8897  -32.2946   26.4725 H   0  0  0  0  0  0
  -25.7983  -30.8986   27.0217 H   0  0  0  0  0  0
  -26.3088  -29.6616   24.1346 H   0  0  0  0  0  0
  -27.4006  -29.7254   25.4966 H   0  0  0  0  0  0
  -27.9014  -30.4139   23.9728 H   0  0  0  0  0  0
  -27.2667  -33.3670   26.1972 H   0  0  0  0  0  0
  -28.3932  -32.6830   25.0341 H   0  0  0  0  0  0
  -28.0690  -31.8515   26.5485 H   0  0  0  0  0  0
  -28.2551  -38.0097   24.7561 H   0  0  0  0  0  0
  -28.1127  -36.2630   24.6220 H   0  0  0  0  0  0
  -27.2299  -37.1308   25.8856 H   0  0  0  0  0  0
  -20.9517  -29.8725   21.6710 H   0  0  0  0  0  0
  -26.0137  -38.2780   24.1469 H   0  0  0  0  0  0
  -28.1262  -17.7914   24.1395 H   0  0  0  0  0  0
  -28.0467  -21.7859   22.7114 H   0  0  0  0  0  0
  -28.0762  -16.0768   21.8911 H   0  0  0  0  0  0
  -29.6279  -16.1202   22.7297 H   0  0  0  0  0  0
  -30.8619  -18.0511   19.8974 H   0  0  0  0  0  0
  -29.3117  -17.8405   19.1131 H   0  0  0  0  0  0
  -26.9657  -24.2448   20.0493 H   0  0  0  0  0  0
  -28.2019  -24.3600   18.8386 H   0  0  0  0  0  0
  -27.7122  -19.7192   25.5739 H   0  0  0  0  0  0
  -27.6782  -21.3033   24.9813 H   0  0  0  0  0  0
  -28.4869  -21.5699   19.3570 H   0  0  0  0  0  0
  1 25  1  0  0  0
  1 30  2  0  0  0
  1 81  1  0  0  0
  2  3  1  0  0  0
  2 25  1  0  0  0
  2 85  1  0  0  0
  2 86  1  0  0  0
  3  4  1  0  0  0
  3 87  1  0  0  0
  3 88  1  0  0  0
  4  5  1  0  0  0
  4 89  1  0  0  0
  4 90  1  0  0  0
  5  6  1  0  0  0
  5 26  1  0  0  0
  5 91  1  0  0  0
  6 25  1  0  0  0
  6 92  1  0  0  0
  6 93  1  0  0  0
  7  8  2  0  0  0
  7 26  1  0  0  0
  7 29  1  0  0  0
  8  9  1  0  0  0
  8 22  1  0  0  0
  9 10  1  0  0  0
  9 27  2  0  0  0
 10 11  2  0  0  0
 10 15  1  0  0  0
 11 12  1  0  0  0
 11 94  1  0  0  0
 12 13  2  0  0  0
 12 95  1  0  0  0
 13 14  1  0  0  0
 13 31  1  0  0  0
 14 15  2  0  0  0
 14 96  1  0  0  0
 15 97  1  0  0  0
 16 17  2  0  0  0
 16 21  1  0  0  0
 16 31  1  0  0  0
 17 18  1  0  0  0
 17 98  1  0  0  0
 18 19  2  0  0  0
 18 99  1  0  0  0
 19 20  1  0  0  0
 19 24  1  0  0  0
 20 21  2  0  0  0
 20100  1  0  0  0
 21 23  1  0  0  0
 22 28  1  0  0  0
 22 32  2  0  0  0
 26 27  1  0  0  0
 28101  1  0  0  0
 28102  1  0  0  0
 29103  1  0  0  0
 29104  1  0  0  0
 33 34  1  0  0  0
 33 66  1  0  0  0
 33 70  2  0  0  0
 34 36  1  0  0  0
 34 59  1  0  0  0
 34105  1  0  0  0
 35 44  2  0  0  0
 35 45  1  0  0  0
 35 68  1  0  0  0
 36 56  1  0  0  0
 36106  1  0  0  0
 37 39  1  0  0  0
 37 47  1  0  0  0
 37 66  1  0  0  0
 37107  1  0  0  0
 38 43  2  0  0  0
 38 46  1  0  0  0
 38 47  1  0  0  0
 39 64  1  0  0  0
 39 67  2  0  0  0
 40 52  1  0  0  0
 40 53  2  0  0  0
 40 58  1  0  0  0
 41108  1  0  0  0
 41109  1  0  0  0
 41110  1  0  0  0
 41 48  1  0  0  0
 42 43  1  0  0  0
 42 66  1  0  0  0
 42111  1  0  0  0
 42112  1  0  0  0
 43 44  1  0  0  0
 44113  1  0  0  0
 45 46  2  0  0  0
 45114  1  0  0  0
 46115  1  0  0  0
 47116  1  0  0  0
 47117  1  0  0  0
 48 56  1  0  0  0
 48 65  1  0  0  0
 48118  1  0  0  0
 49 50  1  0  0  0
 49 53  1  0  0  0
 49 64  1  0  0  0
 49119  1  0  0  0
 50 51  1  0  0  0
 50120  1  0  0  0
 50121  1  0  0  0
 51 52  1  0  0  0
 51122  1  0  0  0
 51123  1  0  0  0
 52124  1  0  0  0
 52125  1  0  0  0
 53 54  1  0  0  0
 54 55  2  0  0  0
 54126  1  0  0  0
 55 57  1  0  0  0
 55127  1  0  0  0
 56 69  2  0  0  0
 57 58  2  0  0  0
 57128  1  0  0  0
 58129  1  0  0  0
 59 60  1  0  0  0
 59 61  1  0  0  0
 59 62  1  0  0  0
 60130  1  0  0  0
 60131  1  0  0  0
 60132  1  0  0  0
 61133  1  0  0  0
 61134  1  0  0  0
 61135  1  0  0  0
 62136  1  0  0  0
 62137  1  0  0  0
 62138  1  0  0  0
 63 65  1  0  0  0
 63139  1  0  0  0
 63140  1  0  0  0
 63141  1  0  0  0
 64142  1  0  0  0
 65143  1  0  0  0
 68 80  1  0  0  0
 71 73  2  0  0  0
 71 75  1  0  0  0
 71144  1  0  0  0
 72 75  2  0  0  0
 72 76  1  0  0  0
 72145  1  0  0  0
 73 74  1  0  0  0
 73 78  1  0  0  0
 74 76  2  0  0  0
 74 79  1  0  0  0
 75 82  1  0  0  0
 76 83  1  0  0  0
 77 80  1  0  0  0
 77 83  1  0  0  0
 77 84  2  0  0  0
 78 81  1  0  0  0
 78146  1  0  0  0
 78147  1  0  0  0
 79 81  1  0  0  0
 79148  1  0  0  0
 79149  1  0  0  0
 80150  1  0  0  0
 80151  1  0  0  0
 82152  1  0  0  0
 82153  1  0  0  0
 83154  1  0  0  0
M  ISO  4   1 100  68 101  80 101  81 100
M  END
> <chiral flag>
0

> <version>
0

> <s_m_source_file>
/data/baiqing/PycharmProjects/Reinvent-master-3.2/result/LINK_invent/BTK/process_docking_weight1_custom_product_contain_oxygen_bond_distance_aromatic_linkinvent_7_9_3/rearranged_h_0151.sdf

> <i_m_source_file_index>
12

> <r_mmod_Potential_Energy-OPLS-2005>
918.354797363281

> <r_mmod_Stretch_Energy-OPLS-2005>
377.035552978516

> <r_mmod_Bend_Energy-OPLS-2005>
414.127105712891

> <r_mmod_Torsional_Energy-OPLS-2005>
284.281219482422

> <r_mmod_Improper_Torsional_Energy-OPLS-2005>
12.2341642379761

> <r_mmod_Van_der_Waal_Energy-OPLS-2005>
133.847991943359

> <r_mmod_Electrostatic_Energy-OPLS-2005>
-325.432739257812

> <r_mmod_Solvation_Energy-OPLS-2005>
-257.118621826172

> <b_mmod_Minimization_Converged-OPLS-2005>
0

> <r_mmod_RMS_Derivative-OPLS-2005>
1.4067006111145

$$$$
12
                    3D
 Structure written by MMmdl.
165174  0  0  1  0            999 V2000
  -30.1826  -15.9495   19.9289 C   0  0  0  0  0  0
  -30.4456  -13.2373   19.4171 C   0  0  0  0  0  0
  -29.5777  -12.5450   18.3274 C   0  0  0  0  0  0
  -28.1677  -12.2001   18.8468 C   0  0  0  0  0  0
  -27.6268  -13.2369   19.8560 C   0  0  2  0  0  0
  -28.6825  -13.8184   20.8294 C   0  0  0  0  0  0
  -25.2587  -13.8114   20.6042 C   0  0  0  0  0  0
  -24.1831  -13.0393   20.9379 C   0  0  0  0  0  0
  -24.6417  -11.6867   20.8899 C   0  0  0  0  0  0
  -23.9066  -10.4258   21.0461 C   0  0  0  0  0  0
  -24.3596   -9.4167   21.9232 C   0  0  0  0  0  0
  -23.6263   -8.2206   22.0762 C   0  0  0  0  0  0
  -22.4261   -8.0262   21.3527 C   0  0  0  0  0  0
  -21.9911   -9.0254   20.4639 C   0  0  0  0  0  0
  -22.7251  -10.2136   20.3089 C   0  0  0  0  0  0
  -21.6842   -6.0718   22.5267 C   0  0  0  0  0  0
  -21.4004   -6.5618   23.8207 C   0  0  0  0  0  0
  -21.3644   -5.6778   24.9178 C   0  0  0  0  0  0
  -21.6051   -4.3036   24.7234 C   0  0  0  0  0  0
  -21.8822   -3.8134   23.4352 C   0  0  0  0  0  0
  -21.9186   -4.6939   22.3414 C   0  0  0  0  0  0
  -22.7823  -13.5198   21.1889 C   0  0  0  0  0  0
  -22.1659   -4.2122   21.0986 F   0  0  0  0  0  0
  -21.5630   -3.4525   25.7748 F   0  0  0  0  0  0
  -29.7347  -14.4817   19.9699 N   0  0  0  0  0  0
  -26.3079  -12.9308   20.3901 N   0  0  0  0  0  0
  -25.9393  -11.6443   20.6075 N   0  0  0  0  0  0
  -22.0426  -12.8231   22.0414 N   0  0  0  0  0  0
  -25.4318  -15.1838   20.4284 N   0  0  0  0  0  0
  -31.1222  -15.6982   20.7489 O   0  0  0  0  0  0
  -21.6618   -6.8857   21.4229 O   0  0  0  0  0  0
  -22.3562  -14.5497   20.6677 O   0  0  0  0  0  0
  -24.6927  -31.7879   23.1421 C   0  0  0  0  0  0
  -25.9474  -32.4405   23.8017 C   0  0  1  0  0  0
  -27.2467  -26.6016   20.2308 C   0  0  0  0  0  0
  -25.6013  -33.8227   24.1907 N   0  0  0  0  0  0
  -23.5227  -30.3827   21.5000 C   0  0  2  0  0  0
  -24.9809  -28.6957   20.1307 C   0  0  0  0  0  0
  -22.7783  -29.4265   22.4712 C   0  0  0  0  0  0
  -18.0345  -28.1406   22.8446 C   0  0  0  0  0  0
  -24.1503  -36.7119   23.2652 C   0  0  0  0  0  0
  -26.1082  -30.4879   21.4202 C   0  0  0  0  0  0
  -26.1746  -29.0388   20.7777 C   0  0  0  0  0  0
  -27.2878  -28.0255   20.7844 C   0  0  0  0  0  0
  -26.0094  -26.4899   19.5375 C   0  0  0  0  0  0
  -24.9422  -27.4466   19.4886 C   0  0  0  0  0  0
  -23.7792  -29.6610   20.1456 C   0  0  0  0  0  0
  -25.4156  -36.2862   24.0282 C   0  0  1  0  0  0
  -20.5980  -28.3790   23.1117 C   0  0  2  0  0  0
  -20.6816  -26.9448   22.5395 C   0  0  0  0  0  0
  -19.5801  -26.6364   21.5200 C   0  0  0  0  0  0
  -18.1978  -26.7937   22.1602 C   0  0  0  0  0  0
  -19.1604  -28.8922   23.2757 C   0  0  0  0  0  0
  -18.9518  -30.1493   23.8807 C   0  0  0  0  0  0
  -17.6506  -30.6598   24.0544 C   0  0  0  0  0  0
  -25.9150  -34.9257   23.4933 C   0  0  0  0  0  0
  -16.5400  -29.9073   23.6352 C   0  0  0  0  0  0
  -16.7314  -28.6493   23.0379 C   0  0  0  0  0  0
  -26.4616  -31.6462   25.0660 C   0  0  0  0  0  0
  -25.3682  -31.3797   26.1276 C   0  0  0  0  0  0
  -27.0558  -30.2788   24.6620 C   0  0  0  0  0  0
  -27.6068  -32.4338   25.7487 C   0  0  0  0  0  0
  -27.5574  -37.1714   24.8472 C   0  0  0  0  0  0
  -21.4425  -29.3019   22.3427 N   0  0  0  0  0  0
  -26.4281  -37.3631   23.9412 N   0  0  0  0  0  0
  -24.7993  -30.9224   22.0741 N   0  0  0  0  0  0
  -23.4182  -28.7887   23.3119 O   0  0  0  0  0  0
  -28.2438  -25.3702   20.2055 O   0  0  0  0  0  0
  -26.5785  -34.8855   22.4561 O   0  0  0  0  0  0
  -23.5931  -32.0999   23.6339 O   0  0  0  0  0  0
  -32.0052  -16.6087   18.5826 C   0  0  0  0  0  0
  -31.4345  -18.0356   19.8457 C   0  0  0  0  0  0
  -28.2686  -17.3681   19.3745 C   0  0  0  0  0  0
  -30.5589  -15.6667   17.5868 C   0  0  0  0  0  0
  -28.6463  -15.9324   18.1163 C   0  0  0  0  0  0
  -29.5955  -18.5385   20.1118 C   0  0  0  0  0  0
  -31.5816  -17.6156   16.1404 C   0  0  0  0  0  0
  -31.0886  -18.5942   17.2963 C   0  0  0  0  0  0
  -29.5299  -17.5666   16.6306 C   0  0  0  0  0  0
  -30.5272  -16.4810   16.2516 C   0  0  2  0  0  0
  -27.4975  -15.3277   17.2753 C   0  0  0  0  0  0
  -26.8553  -23.3817   21.1295 C   0  0  0  0  0  0
  -28.9057  -21.7770   19.8986 C   0  0  0  0  0  0
  -28.2549  -23.5777   20.5244 C   0  0  2  0  0  0
  -30.0884  -17.6464   18.0857 N   0  0  0  0  0  0
  -29.2003  -20.1181   20.4933 N   0  0  0  0  0  0
  -31.4008  -13.5374   18.9848 H   0  0  0  0  0  0
  -30.7165  -12.5386   20.2097 H   0  0  0  0  0  0
  -30.0713  -11.6313   17.9958 H   0  0  0  0  0  0
  -29.5176  -13.1723   17.4415 H   0  0  0  0  0  0
  -28.2456  -11.2439   19.3668 H   0  0  0  0  0  0
  -27.4744  -12.0400   18.0199 H   0  0  0  0  0  0
  -27.3917  -14.0760   19.2533 H   0  0  0  0  0  0
  -29.0770  -13.0802   21.5289 H   0  0  0  0  0  0
  -28.2153  -14.5965   21.4383 H   0  0  0  0  0  0
  -25.2721   -9.5623   22.4847 H   0  0  0  0  0  0
  -23.9930   -7.4594   22.7495 H   0  0  0  0  0  0
  -21.0838   -8.8812   19.8946 H   0  0  0  0  0  0
  -22.3718  -10.9703   19.6224 H   0  0  0  0  0  0
  -21.1991   -7.6123   23.9704 H   0  0  0  0  0  0
  -21.1460   -6.0506   25.9072 H   0  0  0  0  0  0
  -22.0616   -2.7589   23.2883 H   0  0  0  0  0  0
  -22.3959  -11.9871   22.4820 H   0  0  0  0  0  0
  -21.1059  -13.1317   22.2606 H   0  0  0  0  0  0
  -24.6718  -15.8497   20.5049 H   0  0  0  0  0  0
  -26.2973  -15.5933   20.1049 H   0  0  0  0  0  0
  -26.7559  -32.4851   23.0730 H   0  0  0  0  0  0
  -25.0100  -33.9254   25.0016 H   0  0  0  0  0  0
  -22.8552  -31.2233   21.2968 H   0  0  0  0  0  0
  -23.3813  -35.9397   23.3225 H   0  0  0  0  0  0
  -24.3587  -36.8872   22.2085 H   0  0  0  0  0  0
  -23.7213  -37.6249   23.6790 H   0  0  0  0  0  0
  -26.3178  -31.1987   20.6226 H   0  0  0  0  0  0
  -26.9607  -30.5675   22.0824 H   0  0  0  0  0  0
  -28.1906  -28.3099   21.3045 H   0  0  0  0  0  0
  -25.8325  -25.5548   19.0303 H   0  0  0  0  0  0
  -24.0430  -27.1664   18.9533 H   0  0  0  0  0  0
  -23.9512  -30.4086   19.3717 H   0  0  0  0  0  0
  -22.8831  -29.1223   19.8320 H   0  0  0  0  0  0
  -25.1368  -36.1616   25.0770 H   0  0  0  0  0  0
  -21.0052  -28.3438   24.1244 H   0  0  0  0  0  0
  -20.5673  -26.2418   23.3660 H   0  0  0  0  0  0
  -21.6680  -26.7378   22.1224 H   0  0  0  0  0  0
  -19.6978  -25.6253   21.1274 H   0  0  0  0  0  0
  -19.6755  -27.3135   20.6697 H   0  0  0  0  0  0
  -17.4253  -26.6655   21.4008 H   0  0  0  0  0  0
  -18.0390  -26.0087   22.9003 H   0  0  0  0  0  0
  -19.7995  -30.7318   24.2149 H   0  0  0  0  0  0
  -17.5069  -31.6276   24.5150 H   0  0  0  0  0  0
  -15.5396  -30.2961   23.7718 H   0  0  0  0  0  0
  -15.8715  -28.0770   22.7169 H   0  0  0  0  0  0
  -24.5902  -30.7094   25.7590 H   0  0  0  0  0  0
  -24.8820  -32.3004   26.4499 H   0  0  0  0  0  0
  -25.7862  -30.9109   27.0184 H   0  0  0  0  0  0
  -26.3281  -29.6384   24.1605 H   0  0  0  0  0  0
  -27.3937  -29.7255   25.5389 H   0  0  0  0  0  0
  -27.9286  -30.3886   24.0187 H   0  0  0  0  0  0
  -27.2617  -33.3757   26.1757 H   0  0  0  0  0  0
  -28.4022  -32.6681   25.0405 H   0  0  0  0  0  0
  -28.0537  -31.8641   26.5632 H   0  0  0  0  0  0
  -28.2544  -38.0054   24.7552 H   0  0  0  0  0  0
  -28.1121  -36.2580   24.6270 H   0  0  0  0  0  0
  -27.2289  -37.1304   25.8872 H   0  0  0  0  0  0
  -20.9760  -29.8615   21.6429 H   0  0  0  0  0  0
  -26.0106  -38.2680   24.1430 H   0  0  0  0  0  0
  -33.0476  -16.4563   18.3415 H   0  0  0  0  0  0
  -32.2042  -18.6757   20.2523 H   0  0  0  0  0  0
  -27.2346  -17.6636   19.4753 H   0  0  0  0  0  0
  -32.6040  -17.2542   16.2385 H   0  0  0  0  0  0
  -31.5426  -18.1086   15.1648 H   0  0  0  0  0  0
  -30.6638  -19.5526   16.9710 H   0  0  0  0  0  0
  -31.9857  -18.9802   17.7775 H   0  0  0  0  0  0
  -28.4691  -17.4290   16.4680 H   0  0  0  0  0  0
  -29.4592  -18.4005   15.9046 H   0  0  0  0  0  0
  -30.3157  -15.9209   15.3382 H   0  0  0  0  0  0
  -27.6988  -14.2950   17.0061 H   0  0  0  0  0  0
  -27.2960  -15.8286   16.3322 H   0  0  0  0  0  0
  -26.5522  -15.3730   17.8159 H   0  0  0  0  0  0
  -26.0707  -23.4350   20.3779 H   0  0  0  0  0  0
  -26.6518  -24.1516   21.8772 H   0  0  0  0  0  0
  -26.7714  -22.4172   21.6289 H   0  0  0  0  0  0
  -29.8962  -22.0289   19.5214 H   0  0  0  0  0  0
  -28.3314  -21.6019   18.9883 H   0  0  0  0  0  0
  -28.9077  -23.6467   21.3947 H   0  0  0  0  0  0
  -29.5452  -20.2680   21.4400 H   0  0  0  0  0  0
  1 25  1  0  0  0
  1 30  2  0  0  0
  1 85  1  0  0  0
  2  3  1  0  0  0
  2 25  1  0  0  0
  2 87  1  0  0  0
  2 88  1  0  0  0
  3  4  1  0  0  0
  3 89  1  0  0  0
  3 90  1  0  0  0
  4  5  1  0  0  0
  4 91  1  0  0  0
  4 92  1  0  0  0
  5  6  1  0  0  0
  5 26  1  0  0  0
  5 93  1  0  0  0
  6 25  1  0  0  0
  6 94  1  0  0  0
  6 95  1  0  0  0
  7  8  2  0  0  0
  7 26  1  0  0  0
  7 29  1  0  0  0
  8  9  1  0  0  0
  8 22  1  0  0  0
  9 10  1  0  0  0
  9 27  2  0  0  0
 10 11  2  0  0  0
 10 15  1  0  0  0
 11 12  1  0  0  0
 11 96  1  0  0  0
 12 13  2  0  0  0
 12 97  1  0  0  0
 13 14  1  0  0  0
 13 31  1  0  0  0
 14 15  2  0  0  0
 14 98  1  0  0  0
 15 99  1  0  0  0
 16 17  2  0  0  0
 16 21  1  0  0  0
 16 31  1  0  0  0
 17 18  1  0  0  0
 17100  1  0  0  0
 18 19  2  0  0  0
 18101  1  0  0  0
 19 20  1  0  0  0
 19 24  1  0  0  0
 20 21  2  0  0  0
 20102  1  0  0  0
 21 23  1  0  0  0
 22 28  1  0  0  0
 22 32  2  0  0  0
 26 27  1  0  0  0
 28103  1  0  0  0
 28104  1  0  0  0
 29105  1  0  0  0
 29106  1  0  0  0
 33 34  1  0  0  0
 33 66  1  0  0  0
 33 70  2  0  0  0
 34 36  1  0  0  0
 34 59  1  0  0  0
 34107  1  0  0  0
 35 44  2  0  0  0
 35 45  1  0  0  0
 35 68  1  0  0  0
 36 56  1  0  0  0
 36108  1  0  0  0
 37 39  1  0  0  0
 37 47  1  0  0  0
 37 66  1  0  0  0
 37109  1  0  0  0
 38 43  2  0  0  0
 38 46  1  0  0  0
 38 47  1  0  0  0
 39 64  1  0  0  0
 39 67  2  0  0  0
 40 52  1  0  0  0
 40 53  2  0  0  0
 40 58  1  0  0  0
 41110  1  0  0  0
 41111  1  0  0  0
 41112  1  0  0  0
 41 48  1  0  0  0
 42 43  1  0  0  0
 42 66  1  0  0  0
 42113  1  0  0  0
 42114  1  0  0  0
 43 44  1  0  0  0
 44115  1  0  0  0
 45 46  2  0  0  0
 45116  1  0  0  0
 46117  1  0  0  0
 47118  1  0  0  0
 47119  1  0  0  0
 48 56  1  0  0  0
 48 65  1  0  0  0
 48120  1  0  0  0
 49 50  1  0  0  0
 49 53  1  0  0  0
 49 64  1  0  0  0
 49121  1  0  0  0
 50 51  1  0  0  0
 50122  1  0  0  0
 50123  1  0  0  0
 51 52  1  0  0  0
 51124  1  0  0  0
 51125  1  0  0  0
 52126  1  0  0  0
 52127  1  0  0  0
 53 54  1  0  0  0
 54 55  2  0  0  0
 54128  1  0  0  0
 55 57  1  0  0  0
 55129  1  0  0  0
 56 69  2  0  0  0
 57 58  2  0  0  0
 57130  1  0  0  0
 58131  1  0  0  0
 59 60  1  0  0  0
 59 61  1  0  0  0
 59 62  1  0  0  0
 60132  1  0  0  0
 60133  1  0  0  0
 60134  1  0  0  0
 61135  1  0  0  0
 61136  1  0  0  0
 61137  1  0  0  0
 62138  1  0  0  0
 62139  1  0  0  0
 62140  1  0  0  0
 63 65  1  0  0  0
 63141  1  0  0  0
 63142  1  0  0  0
 63143  1  0  0  0
 64144  1  0  0  0
 65145  1  0  0  0
 68 84  1  0  0  0
 71 72  2  0  0  0
 71 74  1  0  0  0
 71146  1  0  0  0
 72 76  1  0  0  0
 72147  1  0  0  0
 73 75  1  0  0  0
 73 76  2  0  0  0
 73148  1  0  0  0
 74 75  2  0  0  0
 74 80  1  0  0  0
 75 81  1  0  0  0
 76 86  1  0  0  0
 77 78  1  0  0  0
 77 80  1  0  0  0
 77149  1  0  0  0
 77150  1  0  0  0
 78 85  1  0  0  0
 78151  1  0  0  0
 78152  1  0  0  0
 79 80  1  0  0  0
 79 85  1  0  0  0
 79153  1  0  0  0
 79154  1  0  0  0
 80155  1  0  0  0
 81156  1  0  0  0
 81157  1  0  0  0
 81158  1  0  0  0
 82159  1  0  0  0
 82160  1  0  0  0
 82161  1  0  0  0
 82 84  1  0  0  0
 83 84  1  0  0  0
 83 86  1  0  0  0
 83162  1  0  0  0
 83163  1  0  0  0
 84164  1  0  0  0
 86165  1  0  0  0
M  ISO  4   1 100  68 101  84 101  85 100
M  END
> <chiral flag>
0

> <version>
0

> <s_m_source_file>
/data/baiqing/PycharmProjects/Reinvent-master-3.2/result/LINK_invent/BTK/process_docking_weight1_custom_product_contain_oxygen_bond_distance_aromatic_linkinvent_7_9_3/rearranged_h_0151.sdf

> <i_m_source_file_index>
13

> <r_mmod_Potential_Energy-OPLS-2005>
13316.3427734375

> <r_mmod_Stretch_Energy-OPLS-2005>
7736.052734375

> <r_mmod_Bend_Energy-OPLS-2005>
1115.46325683594

> <r_mmod_Torsional_Energy-OPLS-2005>
559.733215332031

> <r_mmod_Improper_Torsional_Energy-OPLS-2005>
83.0465393066406

> <r_mmod_Van_der_Waal_Energy-OPLS-2005>
2998.58154296875

> <r_mmod_Electrostatic_Energy-OPLS-2005>
-343.935729980469

> <r_mmod_Solvation_Energy-OPLS-2005>
-201.519989013672

> <b_mmod_Minimization_Converged-OPLS-2005>
0

> <r_mmod_RMS_Derivative-OPLS-2005>
7.73141574859619

$$$$
13
                    3D
 Structure written by MMmdl.
161170  0  0  1  0            999 V2000
  -30.6321  -14.6195   20.5049 C   0  0  0  0  0  0
  -30.4349  -12.3829   19.4489 C   0  0  0  0  0  0
  -29.5067  -12.5163   18.2220 C   0  0  0  0  0  0
  -28.0310  -12.3440   18.6335 C   0  0  0  0  0  0
  -27.6542  -13.2060   19.8653 C   0  0  2  0  0  0
  -28.6985  -13.0603   20.9953 C   0  0  0  0  0  0
  -25.2558  -13.8131   20.5676 C   0  0  0  0  0  0
  -24.1804  -13.0416   20.9167 C   0  0  0  0  0  0
  -24.6365  -11.6886   20.8709 C   0  0  0  0  0  0
  -23.9036  -10.4282   21.0399 C   0  0  0  0  0  0
  -24.3607   -9.4204   21.9171 C   0  0  0  0  0  0
  -23.6296   -8.2233   22.0728 C   0  0  0  0  0  0
  -22.4273   -8.0262   21.3526 C   0  0  0  0  0  0
  -21.9897   -9.0233   20.4630 C   0  0  0  0  0  0
  -22.7211  -10.2120   20.3049 C   0  0  0  0  0  0
  -21.6847   -6.0723   22.5276 C   0  0  0  0  0  0
  -21.4008   -6.5626   23.8209 C   0  0  0  0  0  0
  -21.3653   -5.6784   24.9168 C   0  0  0  0  0  0
  -21.6051   -4.3050   24.7223 C   0  0  0  0  0  0
  -21.8811   -3.8138   23.4341 C   0  0  0  0  0  0
  -21.9182   -4.6950   22.3394 C   0  0  0  0  0  0
  -22.7826  -13.5226   21.1845 C   0  0  0  0  0  0
  -22.1658   -4.2130   21.0980 F   0  0  0  0  0  0
  -21.5649   -3.4538   25.7737 F   0  0  0  0  0  0
  -30.0190  -13.3952   20.4394 N   0  0  0  0  0  0
  -26.2981  -12.9289   20.3304 N   0  0  0  0  0  0
  -25.9294  -11.6464   20.5720 N   0  0  0  0  0  0
  -22.0446  -12.8237   22.0408 N   0  0  0  0  0  0
  -25.4306  -15.1856   20.4136 N   0  0  0  0  0  0
  -31.7736  -14.7994   20.0678 O   0  0  0  0  0  0
  -21.6637   -6.8865   21.4238 O   0  0  0  0  0  0
  -22.3523  -14.5527   20.6679 O   0  0  0  0  0  0
  -24.6233  -31.8644   23.2035 C   0  0  0  0  0  0
  -25.9095  -32.4812   23.8356 C   0  0  1  0  0  0
  -27.2317  -27.3575   20.1095 C   0  0  0  0  0  0
  -25.5910  -33.8605   24.2285 N   0  0  0  0  0  0
  -23.4138  -30.4878   21.5463 C   0  0  2  0  0  0
  -24.8591  -28.9415   20.1148 C   0  0  0  0  0  0
  -22.7438  -29.4666   22.4947 C   0  0  0  0  0  0
  -18.0282  -28.1390   22.8491 C   0  0  0  0  0  0
  -24.1484  -36.7300   23.2641 C   0  0  0  0  0  0
  -25.9508  -30.8080   21.3644 C   0  0  0  0  0  0
  -26.0264  -29.4369   20.7091 C   0  0  0  0  0  0
  -27.2151  -28.6559   20.6963 C   0  0  0  0  0  0
  -26.0389  -26.8991   19.5039 C   0  0  0  0  0  0
  -24.8640  -27.6741   19.5092 C   0  0  0  0  0  0
  -23.6261  -29.8198   20.1624 C   0  0  0  0  0  0
  -25.4111  -36.3095   24.0329 C   0  0  1  0  0  0
  -20.5881  -28.3695   23.1296 C   0  0  2  0  0  0
  -20.6768  -26.9419   22.5424 C   0  0  0  0  0  0
  -19.5749  -26.6392   21.5216 C   0  0  0  0  0  0
  -18.1924  -26.7937   22.1619 C   0  0  0  0  0  0
  -19.1535  -28.8851   23.2892 C   0  0  0  0  0  0
  -18.9463  -30.1443   23.8923 C   0  0  0  0  0  0
  -17.6473  -30.6598   24.0571 C   0  0  0  0  0  0
  -25.9051  -34.9472   23.5110 C   0  0  0  0  0  0
  -16.5357  -29.9108   23.6321 C   0  0  0  0  0  0
  -16.7276  -28.6515   23.0353 C   0  0  0  0  0  0
  -26.4471  -31.6618   25.0724 C   0  0  0  0  0  0
  -25.3717  -31.3756   26.1466 C   0  0  0  0  0  0
  -27.0298  -30.3055   24.6129 C   0  0  0  0  0  0
  -27.6042  -32.4340   25.7486 C   0  0  0  0  0  0
  -27.5580  -37.1798   24.8458 C   0  0  0  0  0  0
  -21.4165  -29.3065   22.3695 N   0  0  0  0  0  0
  -26.4281  -37.3797   23.9416 N   0  0  0  0  0  0
  -24.6818  -31.0682   22.0968 N   0  0  0  0  0  0
  -23.4179  -28.8206   23.3012 O   0  0  0  0  0  0
  -28.3785  -26.5608   20.1442 O   0  0  0  0  0  0
  -26.5620  -34.8937   22.4674 O   0  0  0  0  0  0
  -23.5403  -32.1417   23.7387 O   0  0  0  0  0  0
  -28.4714  -18.3901   18.8030 C   0  0  0  0  0  0
  -29.1680  -19.5411   19.2238 C   0  0  0  0  0  0
  -28.7450  -17.1280   19.3647 C   0  0  0  0  0  0
  -30.3830  -18.1566   20.8277 C   0  0  0  0  0  0
  -30.1449  -19.4548   20.2394 C   0  0  0  0  0  0
  -29.7140  -16.9714   20.3792 C   0  0  0  0  0  0
  -30.4687  -24.8553   21.1144 C   0  0  0  0  0  0
  -29.4604  -24.2593   20.4582 C   0  0  0  0  0  0
  -31.0370  -20.6274   20.5523 C   0  0  0  0  0  0
  -31.7123  -24.1273   21.5358 C   0  0  0  0  0  0
  -29.4937  -22.7137   20.1502 C   0  0  0  0  0  0
  -31.9718  -22.9346   20.6159 C   0  0  0  0  0  0
  -28.2320  -25.1027   20.0150 C   0  0  0  0  0  0
  -30.7978  -22.0024   20.5057 N   0  0  0  0  0  0
  -29.8779  -15.6552   20.9744 N   0  0  0  0  0  0
  -32.2728  -20.2393   20.8832 N   0  3  0  0  0  0
  -31.4759  -12.5031   19.1464 H   0  0  0  0  0  0
  -30.3678  -11.3796   19.8746 H   0  0  0  0  0  0
  -29.7768  -11.7781   17.4669 H   0  0  0  0  0  0
  -29.6491  -13.4930   17.7558 H   0  0  0  0  0  0
  -27.8730  -11.2903   18.8623 H   0  0  0  0  0  0
  -27.3742  -12.5753   17.7938 H   0  0  0  0  0  0
  -27.6723  -14.2392   19.5286 H   0  0  0  0  0  0
  -28.7034  -12.0422   21.3872 H   0  0  0  0  0  0
  -28.4375  -13.6974   21.8416 H   0  0  0  0  0  0
  -25.2755   -9.5708   22.4741 H   0  0  0  0  0  0
  -24.0005   -7.4633   22.7452 H   0  0  0  0  0  0
  -21.0815   -8.8755   19.8946 H   0  0  0  0  0  0
  -22.3657  -10.9660   19.6166 H   0  0  0  0  0  0
  -21.2005   -7.6144   23.9711 H   0  0  0  0  0  0
  -21.1487   -6.0511   25.9072 H   0  0  0  0  0  0
  -22.0601   -2.7598   23.2839 H   0  0  0  0  0  0
  -22.4056  -11.9917   22.4862 H   0  0  0  0  0  0
  -21.1056  -13.1254   22.2571 H   0  0  0  0  0  0
  -24.6701  -15.8445   20.5374 H   0  0  0  0  0  0
  -26.2901  -15.6249   20.1175 H   0  0  0  0  0  0
  -26.7165  -32.5485   23.1111 H   0  0  0  0  0  0
  -25.0037  -33.9748   25.0411 H   0  0  0  0  0  0
  -22.7075  -31.3085   21.4041 H   0  0  0  0  0  0
  -23.3755  -35.9621   23.3285 H   0  0  0  0  0  0
  -24.3589  -36.8936   22.2059 H   0  0  0  0  0  0
  -23.7218  -37.6488   23.6671 H   0  0  0  0  0  0
  -26.0709  -31.5696   20.5922 H   0  0  0  0  0  0
  -26.8372  -30.8624   21.9859 H   0  0  0  0  0  0
  -28.1125  -29.0369   21.1641 H   0  0  0  0  0  0
  -25.9898  -25.9297   19.0314 H   0  0  0  0  0  0
  -23.9648  -27.2820   19.0548 H   0  0  0  0  0  0
  -23.7443  -30.5970   19.4059 H   0  0  0  0  0  0
  -22.7455  -29.2503   19.8603 H   0  0  0  0  0  0
  -25.1287  -36.1948   25.0820 H   0  0  0  0  0  0
  -20.9972  -28.3269   24.1416 H   0  0  0  0  0  0
  -20.5659  -26.2305   23.3623 H   0  0  0  0  0  0
  -21.6640  -26.7450   22.1232 H   0  0  0  0  0  0
  -19.6915  -25.6302   21.1249 H   0  0  0  0  0  0
  -19.6697  -27.3199   20.6740 H   0  0  0  0  0  0
  -17.4199  -26.6683   21.4013 H   0  0  0  0  0  0
  -18.0324  -26.0086   22.9020 H   0  0  0  0  0  0
  -19.7944  -30.7237   24.2316 H   0  0  0  0  0  0
  -17.5041  -31.6282   24.5162 H   0  0  0  0  0  0
  -15.5365  -30.3031   23.7628 H   0  0  0  0  0  0
  -15.8665  -28.0849   22.7064 H   0  0  0  0  0  0
  -24.5886  -30.7102   25.7808 H   0  0  0  0  0  0
  -24.8915  -32.2931   26.4891 H   0  0  0  0  0  0
  -25.8069  -30.8945   27.0241 H   0  0  0  0  0  0
  -26.2853  -29.6834   24.1156 H   0  0  0  0  0  0
  -27.4017  -29.7282   25.4602 H   0  0  0  0  0  0
  -27.8707  -30.4357   23.9315 H   0  0  0  0  0  0
  -27.2659  -33.3633   26.2081 H   0  0  0  0  0  0
  -28.3847  -32.6922   25.0316 H   0  0  0  0  0  0
  -28.0721  -31.8462   26.5393 H   0  0  0  0  0  0
  -28.2591  -38.0104   24.7529 H   0  0  0  0  0  0
  -28.1073  -36.2638   24.6240 H   0  0  0  0  0  0
  -27.2308  -37.1409   25.8863 H   0  0  0  0  0  0
  -20.9319  -29.8792   21.6928 H   0  0  0  0  0  0
  -26.0162  -38.2860   24.1447 H   0  0  0  0  0  0
  -27.7309  -18.4648   18.0187 H   0  0  0  0  0  0
  -28.9690  -20.4735   18.7173 H   0  0  0  0  0  0
  -28.1939  -16.2791   18.9958 H   0  0  0  0  0  0
  -31.1161  -18.0573   21.6154 H   0  0  0  0  0  0
  -30.4268  -25.9070   21.3587 H   0  0  0  0  0  0
  -31.6251  -23.8118   22.5764 H   0  0  0  0  0  0
  -32.5583  -24.8143   21.4791 H   0  0  0  0  0  0
  -29.3029  -22.5952   19.0822 H   0  0  0  0  0  0
  -28.6638  -22.2415   20.6801 H   0  0  0  0  0  0
  -32.9040  -22.4850   20.9540 H   0  0  0  0  0  0
  -32.1999  -23.3020   19.6133 H   0  0  0  0  0  0
  -27.3824  -24.7644   20.6127 H   0  0  0  0  0  0
  -28.0216  -24.8609   18.9717 H   0  0  0  0  0  0
  -29.0358  -15.3106   21.4079 H   0  0  0  0  0  0
  -32.5004  -19.2592   20.8529 H   0  0  0  0  0  0
  -32.9879  -20.8855   21.1644 H   0  0  0  0  0  0
  1 25  1  0  0  0
  1 30  2  0  0  0
  1 85  1  0  0  0
  2  3  1  0  0  0
  2 25  1  0  0  0
  2 87  1  0  0  0
  2 88  1  0  0  0
  3  4  1  0  0  0
  3 89  1  0  0  0
  3 90  1  0  0  0
  4  5  1  0  0  0
  4 91  1  0  0  0
  4 92  1  0  0  0
  5  6  1  0  0  0
  5 26  1  0  0  0
  5 93  1  0  0  0
  6 25  1  0  0  0
  6 94  1  0  0  0
  6 95  1  0  0  0
  7  8  2  0  0  0
  7 26  1  0  0  0
  7 29  1  0  0  0
  8  9  1  0  0  0
  8 22  1  0  0  0
  9 10  1  0  0  0
  9 27  2  0  0  0
 10 11  2  0  0  0
 10 15  1  0  0  0
 11 12  1  0  0  0
 11 96  1  0  0  0
 12 13  2  0  0  0
 12 97  1  0  0  0
 13 14  1  0  0  0
 13 31  1  0  0  0
 14 15  2  0  0  0
 14 98  1  0  0  0
 15 99  1  0  0  0
 16 17  2  0  0  0
 16 21  1  0  0  0
 16 31  1  0  0  0
 17 18  1  0  0  0
 17100  1  0  0  0
 18 19  2  0  0  0
 18101  1  0  0  0
 19 20  1  0  0  0
 19 24  1  0  0  0
 20 21  2  0  0  0
 20102  1  0  0  0
 21 23  1  0  0  0
 22 28  1  0  0  0
 22 32  2  0  0  0
 26 27  1  0  0  0
 28103  1  0  0  0
 28104  1  0  0  0
 29105  1  0  0  0
 29106  1  0  0  0
 33 34  1  0  0  0
 33 66  1  0  0  0
 33 70  2  0  0  0
 34 36  1  0  0  0
 34 59  1  0  0  0
 34107  1  0  0  0
 35 44  2  0  0  0
 35 45  1  0  0  0
 35 68  1  0  0  0
 36 56  1  0  0  0
 36108  1  0  0  0
 37 39  1  0  0  0
 37 47  1  0  0  0
 37 66  1  0  0  0
 37109  1  0  0  0
 38 43  2  0  0  0
 38 46  1  0  0  0
 38 47  1  0  0  0
 39 64  1  0  0  0
 39 67  2  0  0  0
 40 52  1  0  0  0
 40 53  2  0  0  0
 40 58  1  0  0  0
 41110  1  0  0  0
 41111  1  0  0  0
 41112  1  0  0  0
 41 48  1  0  0  0
 42 43  1  0  0  0
 42 66  1  0  0  0
 42113  1  0  0  0
 42114  1  0  0  0
 43 44  1  0  0  0
 44115  1  0  0  0
 45 46  2  0  0  0
 45116  1  0  0  0
 46117  1  0  0  0
 47118  1  0  0  0
 47119  1  0  0  0
 48 56  1  0  0  0
 48 65  1  0  0  0
 48120  1  0  0  0
 49 50  1  0  0  0
 49 53  1  0  0  0
 49 64  1  0  0  0
 49121  1  0  0  0
 50 51  1  0  0  0
 50122  1  0  0  0
 50123  1  0  0  0
 51 52  1  0  0  0
 51124  1  0  0  0
 51125  1  0  0  0
 52126  1  0  0  0
 52127  1  0  0  0
 53 54  1  0  0  0
 54 55  2  0  0  0
 54128  1  0  0  0
 55 57  1  0  0  0
 55129  1  0  0  0
 56 69  2  0  0  0
 57 58  2  0  0  0
 57130  1  0  0  0
 58131  1  0  0  0
 59 60  1  0  0  0
 59 61  1  0  0  0
 59 62  1  0  0  0
 60132  1  0  0  0
 60133  1  0  0  0
 60134  1  0  0  0
 61135  1  0  0  0
 61136  1  0  0  0
 61137  1  0  0  0
 62138  1  0  0  0
 62139  1  0  0  0
 62140  1  0  0  0
 63 65  1  0  0  0
 63141  1  0  0  0
 63142  1  0  0  0
 63143  1  0  0  0
 64144  1  0  0  0
 65145  1  0  0  0
 68 83  1  0  0  0
 71 72  2  0  0  0
 71 73  1  0  0  0
 71146  1  0  0  0
 72 75  1  0  0  0
 72147  1  0  0  0
 73 76  2  0  0  0
 73148  1  0  0  0
 74 75  2  0  0  0
 74 76  1  0  0  0
 74149  1  0  0  0
 75 79  1  0  0  0
 76 85  1  0  0  0
 77 78  2  0  0  0
 77 80  1  0  0  0
 77150  1  0  0  0
 78 81  1  0  0  0
 78 83  1  0  0  0
 79 84  1  0  0  0
 79 86  2  0  0  0
 80 82  1  0  0  0
 80151  1  0  0  0
 80152  1  0  0  0
 81 84  1  0  0  0
 81153  1  0  0  0
 81154  1  0  0  0
 82 84  1  0  0  0
 82155  1  0  0  0
 82156  1  0  0  0
 83157  1  0  0  0
 83158  1  0  0  0
 85159  1  0  0  0
 86160  1  0  0  0
 86161  1  0  0  0
M  CHG  1  86   1
M  ISO  4   1 100  68 101  83 101  85 100
M  END
> <chiral flag>
0

> <version>
0

> <s_m_source_file>
/data/baiqing/PycharmProjects/Reinvent-master-3.2/result/LINK_invent/BTK/process_docking_weight1_custom_product_contain_oxygen_bond_distance_aromatic_linkinvent_7_9_3/rearranged_h_0151.sdf

> <i_m_source_file_index>
14

> <r_mmod_Potential_Energy-OPLS-2005>
-88.2416915893555

> <r_mmod_Stretch_Energy-OPLS-2005>
79.7242813110352

> <r_mmod_Bend_Energy-OPLS-2005>
140.010101318359

> <r_mmod_Torsional_Energy-OPLS-2005>
254.610656738281

> <r_mmod_Improper_Torsional_Energy-OPLS-2005>
7.16945838928223

> <r_mmod_Van_der_Waal_Energy-OPLS-2005>
167.34342956543

> <r_mmod_Electrostatic_Energy-OPLS-2005>
-365.588409423828

> <r_mmod_Solvation_Energy-OPLS-2005>
-408.513061523438

> <b_mmod_Minimization_Converged-OPLS-2005>
0

> <r_mmod_RMS_Derivative-OPLS-2005>
3.24497890472412

$$$$
14
                    3D
 Structure written by MMmdl.
167176  0  0  1  0            999 V2000
  -30.7322  -14.5052   20.5548 C   0  0  0  0  0  0
  -30.4137  -12.3271   19.4339 C   0  0  0  0  0  0
  -29.4927  -12.5089   18.2105 C   0  0  0  0  0  0
  -28.0151  -12.3696   18.6225 C   0  0  0  0  0  0
  -27.6572  -13.2223   19.8705 C   0  0  2  0  0  0
  -28.7034  -13.0493   20.9970 C   0  0  0  0  0  0
  -25.2562  -13.8194   20.5701 C   0  0  0  0  0  0
  -24.1831  -13.0452   20.9203 C   0  0  0  0  0  0
  -24.6415  -11.6927   20.8780 C   0  0  0  0  0  0
  -23.9093  -10.4301   21.0435 C   0  0  0  0  0  0
  -24.3650   -9.4205   21.9210 C   0  0  0  0  0  0
  -23.6320   -8.2240   22.0759 C   0  0  0  0  0  0
  -22.4298   -8.0287   21.3552 C   0  0  0  0  0  0
  -21.9942   -9.0261   20.4648 C   0  0  0  0  0  0
  -22.7276  -10.2138   20.3071 C   0  0  0  0  0  0
  -21.6847   -6.0759   22.5290 C   0  0  0  0  0  0
  -21.4000   -6.5661   23.8226 C   0  0  0  0  0  0
  -21.3661   -5.6806   24.9182 C   0  0  0  0  0  0
  -21.6045   -4.3069   24.7230 C   0  0  0  0  0  0
  -21.8817   -3.8164   23.4347 C   0  0  0  0  0  0
  -21.9187   -4.6986   22.3409 C   0  0  0  0  0  0
  -22.7849  -13.5240   21.1863 C   0  0  0  0  0  0
  -22.1661   -4.2175   21.0987 F   0  0  0  0  0  0
  -21.5630   -3.4553   25.7740 F   0  0  0  0  0  0
  -30.0298  -13.3421   20.4322 N   0  0  0  0  0  0
  -26.3018  -12.9400   20.3386 N   0  0  0  0  0  0
  -25.9352  -11.6552   20.5815 N   0  0  0  0  0  0
  -22.0486  -12.8217   22.0414 N   0  0  0  0  0  0
  -25.4263  -15.1916   20.4068 N   0  0  0  0  0  0
  -31.8640  -14.6279   20.0825 O   0  0  0  0  0  0
  -21.6640   -6.8898   21.4249 O   0  0  0  0  0  0
  -22.3549  -14.5556   20.6722 O   0  0  0  0  0  0
  -24.6247  -31.8646   23.2152 C   0  0  0  0  0  0
  -25.9129  -32.4784   23.8438 C   0  0  1  0  0  0
  -27.2006  -27.3657   20.0801 C   0  0  0  0  0  0
  -25.5998  -33.8591   24.2365 N   0  0  0  0  0  0
  -23.4120  -30.5017   21.5561 C   0  0  2  0  0  0
  -24.8480  -28.9817   20.1087 C   0  0  0  0  0  0
  -22.7451  -29.4690   22.4951 C   0  0  0  0  0  0
  -18.0287  -28.1369   22.8487 C   0  0  0  0  0  0
  -24.1490  -36.7297   23.2636 C   0  0  0  0  0  0
  -25.9547  -30.8047   21.3862 C   0  0  0  0  0  0
  -26.0207  -29.4426   20.7197 C   0  0  0  0  0  0
  -27.1989  -28.6427   20.7096 C   0  0  0  0  0  0
  -26.0019  -26.9764   19.4209 C   0  0  0  0  0  0
  -24.8379  -27.7477   19.4570 C   0  0  0  0  0  0
  -23.6188  -29.8561   20.1647 C   0  0  0  0  0  0
  -25.4106  -36.3089   24.0340 C   0  0  1  0  0  0
  -20.5885  -28.3681   23.1263 C   0  0  2  0  0  0
  -20.6771  -26.9396   22.5398 C   0  0  0  0  0  0
  -19.5748  -26.6369   21.5197 C   0  0  0  0  0  0
  -18.1927  -26.7928   22.1599 C   0  0  0  0  0  0
  -19.1544  -28.8840   23.2875 C   0  0  0  0  0  0
  -18.9461  -30.1431   23.8901 C   0  0  0  0  0  0
  -17.6461  -30.6570   24.0565 C   0  0  0  0  0  0
  -25.9049  -34.9452   23.5134 C   0  0  0  0  0  0
  -16.5353  -29.9060   23.6336 C   0  0  0  0  0  0
  -16.7272  -28.6476   23.0374 C   0  0  0  0  0  0
  -26.4523  -31.6571   25.0784 C   0  0  0  0  0  0
  -25.3783  -31.3671   26.1521 C   0  0  0  0  0  0
  -27.0356  -30.2993   24.6235 C   0  0  0  0  0  0
  -27.6115  -32.4285   25.7522 C   0  0  0  0  0  0
  -27.5585  -37.1788   24.8453 C   0  0  0  0  0  0
  -21.4173  -29.3066   22.3679 N   0  0  0  0  0  0
  -26.4276  -37.3790   23.9426 N   0  0  0  0  0  0
  -24.6822  -31.0717   22.1086 N   0  0  0  0  0  0
  -23.4191  -28.8196   23.2997 O   0  0  0  0  0  0
  -28.3054  -26.4999   20.1334 O   0  0  0  0  0  0
  -26.5583  -34.8910   22.4675 O   0  0  0  0  0  0
  -23.5422  -32.1438   23.7495 O   0  0  0  0  0  0
  -32.4044  -18.4495   21.8366 C   0  0  0  0  0  0
  -31.5328  -19.5523   21.7536 C   0  0  0  0  0  0
  -31.9337  -17.1437   21.6011 C   0  0  0  0  0  0
  -29.7225  -18.0434   21.1345 C   0  0  0  0  0  0
  -30.1776  -19.3731   21.3997 C   0  0  0  0  0  0
  -30.5834  -16.9137   21.2454 C   0  0  0  0  0  0
  -29.2168  -20.5151   21.4285 C   0  0  0  0  0  0
  -30.3581  -23.8642   20.0945 C   0  0  0  0  0  0
  -30.7137  -22.4208   20.5643 C   0  0  0  0  0  0
  -28.4394  -22.9092   21.1247 C   0  0  2  0  0  0
  -28.8409  -23.8127   19.9222 C   0  0  1  0  0  0
  -28.4966  -23.6333   22.4862 C   0  0  0  0  0  0
  -27.4461  -22.4815   18.3823 C   0  0  0  0  0  0
  -28.0038  -25.1314   19.7088 C   0  0  0  0  0  0
  -29.4534  -21.8212   21.0789 N   0  0  0  0  0  0
  -30.0720  -15.5749   21.0641 N   0  0  0  0  0  0
  -27.9945  -20.2258   21.8746 N   0  3  0  0  0  0
  -28.7091  -23.0760   18.6885 O   0  0  0  0  0  0
  -31.4607  -12.4055   19.1358 H   0  0  0  0  0  0
  -30.3023  -11.3266   19.8540 H   0  0  0  0  0  0
  -29.7376  -11.7790   17.4370 H   0  0  0  0  0  0
  -29.6573  -13.4922   17.7673 H   0  0  0  0  0  0
  -27.8285  -11.3144   18.8277 H   0  0  0  0  0  0
  -27.3644  -12.6361   17.7879 H   0  0  0  0  0  0
  -27.6828  -14.2656   19.5530 H   0  0  0  0  0  0
  -28.6861  -12.0285   21.3836 H   0  0  0  0  0  0
  -28.4714  -13.6918   21.8479 H   0  0  0  0  0  0
  -25.2788   -9.5686   22.4793 H   0  0  0  0  0  0
  -24.0035   -7.4635   22.7475 H   0  0  0  0  0  0
  -21.0876   -8.8778   19.8956 H   0  0  0  0  0  0
  -22.3744  -10.9682   19.6183 H   0  0  0  0  0  0
  -21.1975   -7.6160   23.9743 H   0  0  0  0  0  0
  -21.1488   -6.0531   25.9093 H   0  0  0  0  0  0
  -22.0593   -2.7629   23.2835 H   0  0  0  0  0  0
  -22.4073  -11.9840   22.4755 H   0  0  0  0  0  0
  -21.1111  -13.1259   22.2630 H   0  0  0  0  0  0
  -24.6548  -15.8435   20.4948 H   0  0  0  0  0  0
  -26.2667  -15.6223   20.0428 H   0  0  0  0  0  0
  -26.7202  -32.5448   23.1192 H   0  0  0  0  0  0
  -25.0253  -33.9755   25.0587 H   0  0  0  0  0  0
  -22.7054  -31.3235   21.4246 H   0  0  0  0  0  0
  -23.3769  -35.9606   23.3243 H   0  0  0  0  0  0
  -24.3616  -36.8972   22.2066 H   0  0  0  0  0  0
  -23.7202  -37.6474   23.6673 H   0  0  0  0  0  0
  -26.0956  -31.5750   20.6265 H   0  0  0  0  0  0
  -26.8328  -30.8365   22.0181 H   0  0  0  0  0  0
  -28.0930  -28.9885   21.2088 H   0  0  0  0  0  0
  -25.8945  -26.0586   18.8642 H   0  0  0  0  0  0
  -23.9419  -27.3936   18.9658 H   0  0  0  0  0  0
  -23.7364  -30.6400   19.4148 H   0  0  0  0  0  0
  -22.7365  -29.2882   19.8595 H   0  0  0  0  0  0
  -25.1265  -36.1953   25.0829 H   0  0  0  0  0  0
  -20.9978  -28.3236   24.1381 H   0  0  0  0  0  0
  -20.5633  -26.2299   23.3610 H   0  0  0  0  0  0
  -21.6642  -26.7399   22.1206 H   0  0  0  0  0  0
  -19.6904  -25.6279   21.1230 H   0  0  0  0  0  0
  -19.6683  -27.3178   20.6730 H   0  0  0  0  0  0
  -17.4204  -26.6720   21.3986 H   0  0  0  0  0  0
  -18.0286  -26.0023   22.8940 H   0  0  0  0  0  0
  -19.7937  -30.7240   24.2262 H   0  0  0  0  0  0
  -17.5015  -31.6258   24.5154 H   0  0  0  0  0  0
  -15.5351  -30.2968   23.7632 H   0  0  0  0  0  0
  -15.8680  -28.0769   22.7112 H   0  0  0  0  0  0
  -24.6115  -30.6799   25.7933 H   0  0  0  0  0  0
  -24.8783  -32.2778   26.4814 H   0  0  0  0  0  0
  -25.8183  -30.9057   27.0368 H   0  0  0  0  0  0
  -26.2917  -29.6738   24.1280 H   0  0  0  0  0  0
  -27.4075  -29.7254   25.4738 H   0  0  0  0  0  0
  -27.8789  -30.4285   23.9446 H   0  0  0  0  0  0
  -27.2789  -33.3634   26.2032 H   0  0  0  0  0  0
  -28.3942  -32.6735   25.0332 H   0  0  0  0  0  0
  -28.0739  -31.8428   26.5476 H   0  0  0  0  0  0
  -28.2542  -38.0151   24.7578 H   0  0  0  0  0  0
  -28.1141  -36.2683   24.6148 H   0  0  0  0  0  0
  -27.2319  -37.1266   25.8861 H   0  0  0  0  0  0
  -20.9317  -29.8841   21.6959 H   0  0  0  0  0  0
  -26.0155  -38.2845   24.1509 H   0  0  0  0  0  0
  -33.4372  -18.5953   22.1203 H   0  0  0  0  0  0
  -31.9204  -20.5269   22.0052 H   0  0  0  0  0  0
  -32.6270  -16.3246   21.7245 H   0  0  0  0  0  0
  -28.6876  -17.8837   20.8658 H   0  0  0  0  0  0
  -30.8665  -24.1352   19.1699 H   0  0  0  0  0  0
  -30.6395  -24.5982   20.8509 H   0  0  0  0  0  0
  -31.4850  -22.4677   21.3318 H   0  0  0  0  0  0
  -31.0952  -21.8272   19.7310 H   0  0  0  0  0  0
  -27.4230  -22.5408   20.9799 H   0  0  0  0  0  0
  -29.4643  -23.5163   22.9752 H   0  0  0  0  0  0
  -27.7421  -23.2327   23.1632 H   0  0  0  0  0  0
  -28.3078  -24.7011   22.3936 H   0  0  0  0  0  0
  -27.4497  -22.1583   17.3404 H   0  0  0  0  0  0
  -26.6056  -23.1643   18.5061 H   0  0  0  0  0  0
  -27.2617  -21.5923   18.9859 H   0  0  0  0  0  0
  -27.0402  -24.8482   20.1344 H   0  0  0  0  0  0
  -27.8745  -25.2288   18.6296 H   0  0  0  0  0  0
  -29.1023  -15.4194   21.2921 H   0  0  0  0  0  0
  -27.8175  -19.2957   22.2196 H   0  0  0  0  0  0
  -27.2734  -20.9162   21.9792 H   0  0  0  0  0  0
  1 25  1  0  0  0
  1 30  2  0  0  0
  1 86  1  0  0  0
  2  3  1  0  0  0
  2 25  1  0  0  0
  2 89  1  0  0  0
  2 90  1  0  0  0
  3  4  1  0  0  0
  3 91  1  0  0  0
  3 92  1  0  0  0
  4  5  1  0  0  0
  4 93  1  0  0  0
  4 94  1  0  0  0
  5  6  1  0  0  0
  5 26  1  0  0  0
  5 95  1  0  0  0
  6 25  1  0  0  0
  6 96  1  0  0  0
  6 97  1  0  0  0
  7  8  2  0  0  0
  7 26  1  0  0  0
  7 29  1  0  0  0
  8  9  1  0  0  0
  8 22  1  0  0  0
  9 10  1  0  0  0
  9 27  2  0  0  0
 10 11  2  0  0  0
 10 15  1  0  0  0
 11 12  1  0  0  0
 11 98  1  0  0  0
 12 13  2  0  0  0
 12 99  1  0  0  0
 13 14  1  0  0  0
 13 31  1  0  0  0
 14 15  2  0  0  0
 14100  1  0  0  0
 15101  1  0  0  0
 16 17  2  0  0  0
 16 21  1  0  0  0
 16 31  1  0  0  0
 17 18  1  0  0  0
 17102  1  0  0  0
 18 19  2  0  0  0
 18103  1  0  0  0
 19 20  1  0  0  0
 19 24  1  0  0  0
 20 21  2  0  0  0
 20104  1  0  0  0
 21 23  1  0  0  0
 22 28  1  0  0  0
 22 32  2  0  0  0
 26 27  1  0  0  0
 28105  1  0  0  0
 28106  1  0  0  0
 29107  1  0  0  0
 29108  1  0  0  0
 33 34  1  0  0  0
 33 66  1  0  0  0
 33 70  2  0  0  0
 34 36  1  0  0  0
 34 59  1  0  0  0
 34109  1  0  0  0
 35 44  2  0  0  0
 35 45  1  0  0  0
 35 68  1  0  0  0
 36 56  1  0  0  0
 36110  1  0  0  0
 37 39  1  0  0  0
 37 47  1  0  0  0
 37 66  1  0  0  0
 37111  1  0  0  0
 38 43  2  0  0  0
 38 46  1  0  0  0
 38 47  1  0  0  0
 39 64  1  0  0  0
 39 67  2  0  0  0
 40 52  1  0  0  0
 40 53  2  0  0  0
 40 58  1  0  0  0
 41112  1  0  0  0
 41113  1  0  0  0
 41114  1  0  0  0
 41 48  1  0  0  0
 42 43  1  0  0  0
 42 66  1  0  0  0
 42115  1  0  0  0
 42116  1  0  0  0
 43 44  1  0  0  0
 44117  1  0  0  0
 45 46  2  0  0  0
 45118  1  0  0  0
 46119  1  0  0  0
 47120  1  0  0  0
 47121  1  0  0  0
 48 56  1  0  0  0
 48 65  1  0  0  0
 48122  1  0  0  0
 49 50  1  0  0  0
 49 53  1  0  0  0
 49 64  1  0  0  0
 49123  1  0  0  0
 50 51  1  0  0  0
 50124  1  0  0  0
 50125  1  0  0  0
 51 52  1  0  0  0
 51126  1  0  0  0
 51127  1  0  0  0
 52128  1  0  0  0
 52129  1  0  0  0
 53 54  1  0  0  0
 54 55  2  0  0  0
 54130  1  0  0  0
 55 57  1  0  0  0
 55131  1  0  0  0
 56 69  2  0  0  0
 57 58  2  0  0  0
 57132  1  0  0  0
 58133  1  0  0  0
 59 60  1  0  0  0
 59 61  1  0  0  0
 59 62  1  0  0  0
 60134  1  0  0  0
 60135  1  0  0  0
 60136  1  0  0  0
 61137  1  0  0  0
 61138  1  0  0  0
 61139  1  0  0  0
 62140  1  0  0  0
 62141  1  0  0  0
 62142  1  0  0  0
 63 65  1  0  0  0
 63143  1  0  0  0
 63144  1  0  0  0
 63145  1  0  0  0
 64146  1  0  0  0
 65147  1  0  0  0
 68 84  1  0  0  0
 71 72  2  0  0  0
 71 73  1  0  0  0
 71148  1  0  0  0
 72 75  1  0  0  0
 72149  1  0  0  0
 73 76  2  0  0  0
 73150  1  0  0  0
 74 75  2  0  0  0
 74 76  1  0  0  0
 74151  1  0  0  0
 75 77  1  0  0  0
 76 86  1  0  0  0
 77 85  1  0  0  0
 77 87  2  0  0  0
 78 79  1  0  0  0
 78 81  1  0  0  0
 78152  1  0  0  0
 78153  1  0  0  0
 79 85  1  0  0  0
 79154  1  0  0  0
 79155  1  0  0  0
 80 81  1  0  0  0
 80 82  1  0  0  0
 80 85  1  0  0  0
 80156  1  0  0  0
 81 84  1  0  0  0
 81 88  1  0  0  0
 82157  1  0  0  0
 82158  1  0  0  0
 82159  1  0  0  0
 83 88  1  0  0  0
 83160  1  0  0  0
 83161  1  0  0  0
 83162  1  0  0  0
 84163  1  0  0  0
 84164  1  0  0  0
 86165  1  0  0  0
 87166  1  0  0  0
 87167  1  0  0  0
M  CHG  1  87   1
M  ISO  4   1 100  68 101  84 101  86 100
M  END
> <chiral flag>
0

> <version>
0

> <s_m_source_file>
/data/baiqing/PycharmProjects/Reinvent-master-3.2/result/LINK_invent/BTK/process_docking_weight1_custom_product_contain_oxygen_bond_distance_aromatic_linkinvent_7_9_3/rearranged_h_0151.sdf

> <i_m_source_file_index>
15

> <r_mmod_Potential_Energy-OPLS-2005>
-17.0894813537598

> <r_mmod_Stretch_Energy-OPLS-2005>
59.3373260498047

> <r_mmod_Bend_Energy-OPLS-2005>
194.235900878906

> <r_mmod_Torsional_Energy-OPLS-2005>
295.980712890625

> <r_mmod_Improper_Torsional_Energy-OPLS-2005>
4.45006465911865

> <r_mmod_Van_der_Waal_Energy-OPLS-2005>
186.176086425781

> <r_mmod_Electrostatic_Energy-OPLS-2005>
-390.173645019531

> <r_mmod_Solvation_Energy-OPLS-2005>
-397.167541503906

> <b_mmod_Minimization_Converged-OPLS-2005>
0

> <r_mmod_RMS_Derivative-OPLS-2005>
2.45772886276245

$$$$
15
                    3D
 Structure written by MMmdl.
151159  0  0  1  0            999 V2000
  -30.6449  -14.7152   20.5117 C   0  0  0  0  0  0
  -30.4390  -12.4471   19.4824 C   0  0  0  0  0  0
  -29.5112  -12.4916   18.2471 C   0  0  0  0  0  0
  -28.0434  -12.3044   18.6715 C   0  0  0  0  0  0
  -27.6474  -13.2218   19.8570 C   0  0  2  0  0  0
  -28.6901  -13.1611   20.9963 C   0  0  0  0  0  0
  -25.2541  -13.8192   20.5694 C   0  0  0  0  0  0
  -24.1818  -13.0451   20.9195 C   0  0  0  0  0  0
  -24.6383  -11.6920   20.8737 C   0  0  0  0  0  0
  -23.9068  -10.4299   21.0421 C   0  0  0  0  0  0
  -24.3626   -9.4211   21.9191 C   0  0  0  0  0  0
  -23.6291   -8.2257   22.0760 C   0  0  0  0  0  0
  -22.4275   -8.0279   21.3546 C   0  0  0  0  0  0
  -21.9920   -9.0265   20.4655 C   0  0  0  0  0  0
  -22.7253  -10.2138   20.3060 C   0  0  0  0  0  0
  -21.6842   -6.0731   22.5273 C   0  0  0  0  0  0
  -21.4020   -6.5635   23.8211 C   0  0  0  0  0  0
  -21.3649   -5.6787   24.9169 C   0  0  0  0  0  0
  -21.6053   -4.3052   24.7222 C   0  0  0  0  0  0
  -21.8816   -3.8139   23.4339 C   0  0  0  0  0  0
  -21.9204   -4.6961   22.3392 C   0  0  0  0  0  0
  -22.7843  -13.5235   21.1849 C   0  0  0  0  0  0
  -22.1663   -4.2135   21.0973 F   0  0  0  0  0  0
  -21.5629   -3.4540   25.7743 F   0  0  0  0  0  0
  -29.9974  -13.5025   20.4230 N   0  0  0  0  0  0
  -26.2970  -12.9375   20.3316 N   0  0  0  0  0  0
  -25.9320  -11.6523   20.5801 N   0  0  0  0  0  0
  -22.0493  -12.8223   22.0399 N   0  0  0  0  0  0
  -25.4275  -15.1905   20.4042 N   0  0  0  0  0  0
  -31.8180  -14.8042   20.1442 O   0  0  0  0  0  0
  -21.6635   -6.8871   21.4231 O   0  0  0  0  0  0
  -22.3539  -14.5545   20.6694 O   0  0  0  0  0  0
  -24.6331  -31.8504   23.1940 C   0  0  0  0  0  0
  -25.9164  -32.4702   23.8304 C   0  0  1  0  0  0
  -27.2085  -27.2371   20.1711 C   0  0  0  0  0  0
  -25.5957  -33.8508   24.2209 N   0  0  0  0  0  0
  -23.4346  -30.4696   21.5325 C   0  0  2  0  0  0
  -24.8870  -28.9160   20.1037 C   0  0  0  0  0  0
  -22.7531  -29.4559   22.4820 C   0  0  0  0  0  0
  -18.0301  -28.1404   22.8448 C   0  0  0  0  0  0
  -24.1504  -36.7266   23.2637 C   0  0  0  0  0  0
  -25.9821  -30.7522   21.3885 C   0  0  0  0  0  0
  -26.0514  -29.3753   20.7320 C   0  0  0  0  0  0
  -27.2189  -28.5470   20.7536 C   0  0  0  0  0  0
  -26.0335  -26.8537   19.4903 C   0  0  0  0  0  0
  -24.8882  -27.6707   19.4529 C   0  0  0  0  0  0
  -23.6606  -29.8032   20.1454 C   0  0  0  0  0  0
  -25.4117  -36.3040   24.0324 C   0  0  1  0  0  0
  -20.5919  -28.3719   23.1211 C   0  0  2  0  0  0
  -20.6781  -26.9424   22.5371 C   0  0  0  0  0  0
  -19.5755  -26.6398   21.5166 C   0  0  0  0  0  0
  -18.1929  -26.7940   22.1590 C   0  0  0  0  0  0
  -19.1565  -28.8868   23.2818 C   0  0  0  0  0  0
  -18.9481  -30.1451   23.8858 C   0  0  0  0  0  0
  -17.6480  -30.6584   24.0562 C   0  0  0  0  0  0
  -25.9060  -34.9404   23.5058 C   0  0  0  0  0  0
  -16.5375  -29.9069   23.6365 C   0  0  0  0  0  0
  -16.7278  -28.6510   23.0342 C   0  0  0  0  0  0
  -26.4541  -31.6565   25.0724 C   0  0  0  0  0  0
  -25.3774  -31.3759   26.1461 C   0  0  0  0  0  0
  -27.0418  -30.2967   24.6295 C   0  0  0  0  0  0
  -27.6084  -32.4349   25.7477 C   0  0  0  0  0  0
  -27.5576  -37.1761   24.8453 C   0  0  0  0  0  0
  -21.4232  -29.3038   22.3600 N   0  0  0  0  0  0
  -26.4286  -37.3729   23.9416 N   0  0  0  0  0  0
  -24.7008  -31.0446   22.0925 N   0  0  0  0  0  0
  -23.4218  -28.8089   23.2921 O   0  0  0  0  0  0
  -28.2679  -26.3064   20.2407 O   0  0  0  0  0  0
  -26.5636  -34.8908   22.4631 O   0  0  0  0  0  0
  -23.5480  -32.1309   23.7226 O   0  0  0  0  0  0
  -29.3254  -18.3790   20.6528 C   0  0  0  0  0  0
  -31.6067  -17.6729   21.0837 C   0  0  0  0  0  0
  -31.0550  -20.0689   20.9141 C   0  0  0  0  0  0
  -30.2672  -17.2859   20.8383 C   0  0  0  0  0  0
  -29.6925  -19.7906   20.6739 C   0  0  0  0  0  0
  -31.9913  -19.0312   21.1137 C   0  0  0  0  0  0
  -28.6102  -23.6306   20.1998 C   0  0  0  0  0  0
  -28.8122  -22.2730   21.0456 C   0  0  0  0  0  0
  -27.9593  -24.9547   20.8452 C   0  0  0  0  0  0
  -29.8952  -15.8425   20.8152 N   0  0  0  0  0  0
  -28.7888  -20.8907   20.3961 N   0  0  0  0  0  0
  -28.9672  -23.6460   19.0179 O   0  0  0  0  0  0
  -33.2910  -19.3472   21.3267 F   0  0  0  0  0  0
  -31.4764  -12.5720   19.1710 H   0  0  0  0  0  0
  -30.3930  -11.4698   19.9674 H   0  0  0  0  0  0
  -29.7981  -11.7133   17.5370 H   0  0  0  0  0  0
  -29.6285  -13.4434   17.7240 H   0  0  0  0  0  0
  -27.9262  -11.2609   18.9668 H   0  0  0  0  0  0
  -27.3764  -12.4574   17.8234 H   0  0  0  0  0  0
  -27.6483  -14.2397   19.4653 H   0  0  0  0  0  0
  -28.7211  -12.1689   21.4479 H   0  0  0  0  0  0
  -28.4194  -13.8473   21.8004 H   0  0  0  0  0  0
  -25.2770   -9.5674   22.4767 H   0  0  0  0  0  0
  -23.9987   -7.4642   22.7478 H   0  0  0  0  0  0
  -21.0853   -8.8793   19.8953 H   0  0  0  0  0  0
  -22.3723  -10.9682   19.6165 H   0  0  0  0  0  0
  -21.2007   -7.6143   23.9699 H   0  0  0  0  0  0
  -21.1473   -6.0524   25.9068 H   0  0  0  0  0  0
  -22.0608   -2.7605   23.2852 H   0  0  0  0  0  0
  -22.4111  -11.9861   22.4766 H   0  0  0  0  0  0
  -21.1102  -13.1240   22.2613 H   0  0  0  0  0  0
  -24.6610  -15.8470   20.5004 H   0  0  0  0  0  0
  -26.2694  -15.6201   20.0454 H   0  0  0  0  0  0
  -26.7225  -32.5368   23.1039 H   0  0  0  0  0  0
  -25.0172  -33.9627   25.0411 H   0  0  0  0  0  0
  -22.7331  -31.2916   21.3776 H   0  0  0  0  0  0
  -23.3762  -35.9605   23.3290 H   0  0  0  0  0  0
  -24.3587  -36.8907   22.2052 H   0  0  0  0  0  0
  -23.7269  -37.6463   23.6680 H   0  0  0  0  0  0
  -26.1417  -31.5098   20.6220 H   0  0  0  0  0  0
  -26.8524  -30.7885   22.0305 H   0  0  0  0  0  0
  -28.1029  -28.8762   21.2783 H   0  0  0  0  0  0
  -25.9942  -25.8916   18.9998 H   0  0  0  0  0  0
  -24.0085  -27.3311   18.9186 H   0  0  0  0  0  0
  -23.7918  -30.5735   19.3844 H   0  0  0  0  0  0
  -22.7848  -29.2268   19.8390 H   0  0  0  0  0  0
  -25.1290  -36.1858   25.0809 H   0  0  0  0  0  0
  -20.9980  -28.3328   24.1329 H   0  0  0  0  0  0
  -20.5659  -26.2320   23.3577 H   0  0  0  0  0  0
  -21.6634  -26.7427   22.1145 H   0  0  0  0  0  0
  -19.6931  -25.6303   21.1185 H   0  0  0  0  0  0
  -19.6716  -27.3235   20.6715 H   0  0  0  0  0  0
  -17.4187  -26.6687   21.3993 H   0  0  0  0  0  0
  -18.0336  -26.0078   22.8993 H   0  0  0  0  0  0
  -19.7979  -30.7249   24.2220 H   0  0  0  0  0  0
  -17.5065  -31.6265   24.5170 H   0  0  0  0  0  0
  -15.5372  -30.2961   23.7707 H   0  0  0  0  0  0
  -15.8687  -28.0818   22.7058 H   0  0  0  0  0  0
  -24.5958  -30.7071   25.7836 H   0  0  0  0  0  0
  -24.8959  -32.2934   26.4843 H   0  0  0  0  0  0
  -25.8105  -30.8998   27.0268 H   0  0  0  0  0  0
  -26.3033  -29.6640   24.1359 H   0  0  0  0  0  0
  -27.4097  -29.7304   25.4866 H   0  0  0  0  0  0
  -27.8917  -30.4193   23.9576 H   0  0  0  0  0  0
  -27.2689  -33.3677   26.1989 H   0  0  0  0  0  0
  -28.3909  -32.6874   25.0306 H   0  0  0  0  0  0
  -28.0753  -31.8541   26.5433 H   0  0  0  0  0  0
  -28.2551  -38.0096   24.7514 H   0  0  0  0  0  0
  -28.1114  -36.2620   24.6256 H   0  0  0  0  0  0
  -27.2301  -37.1363   25.8857 H   0  0  0  0  0  0
  -20.9432  -29.8812   21.6846 H   0  0  0  0  0  0
  -26.0168  -38.2794   24.1469 H   0  0  0  0  0  0
  -28.2906  -18.1204   20.4836 H   0  0  0  0  0  0
  -32.3735  -16.9341   21.2615 H   0  0  0  0  0  0
  -31.4160  -21.0870   20.9233 H   0  0  0  0  0  0
  -28.0319  -22.2630   21.8058 H   0  0  0  0  0  0
  -29.7456  -22.3838   21.5957 H   0  0  0  0  0  0
  -28.2272  -24.9810   21.9025 H   0  0  0  0  0  0
  -26.8806  -24.7947   20.8312 H   0  0  0  0  0  0
  -28.9258  -15.6432   21.0087 H   0  0  0  0  0  0
  -27.8779  -20.6217   20.0317 H   0  0  0  0  0  0
  1 25  1  0  0  0
  1 30  2  0  0  0
  1 80  1  0  0  0
  2  3  1  0  0  0
  2 25  1  0  0  0
  2 84  1  0  0  0
  2 85  1  0  0  0
  3  4  1  0  0  0
  3 86  1  0  0  0
  3 87  1  0  0  0
  4  5  1  0  0  0
  4 88  1  0  0  0
  4 89  1  0  0  0
  5  6  1  0  0  0
  5 26  1  0  0  0
  5 90  1  0  0  0
  6 25  1  0  0  0
  6 91  1  0  0  0
  6 92  1  0  0  0
  7  8  2  0  0  0
  7 26  1  0  0  0
  7 29  1  0  0  0
  8  9  1  0  0  0
  8 22  1  0  0  0
  9 10  1  0  0  0
  9 27  2  0  0  0
 10 11  2  0  0  0
 10 15  1  0  0  0
 11 12  1  0  0  0
 11 93  1  0  0  0
 12 13  2  0  0  0
 12 94  1  0  0  0
 13 14  1  0  0  0
 13 31  1  0  0  0
 14 15  2  0  0  0
 14 95  1  0  0  0
 15 96  1  0  0  0
 16 17  2  0  0  0
 16 21  1  0  0  0
 16 31  1  0  0  0
 17 18  1  0  0  0
 17 97  1  0  0  0
 18 19  2  0  0  0
 18 98  1  0  0  0
 19 20  1  0  0  0
 19 24  1  0  0  0
 20 21  2  0  0  0
 20 99  1  0  0  0
 21 23  1  0  0  0
 22 28  1  0  0  0
 22 32  2  0  0  0
 26 27  1  0  0  0
 28100  1  0  0  0
 28101  1  0  0  0
 29102  1  0  0  0
 29103  1  0  0  0
 33 34  1  0  0  0
 33 66  1  0  0  0
 33 70  2  0  0  0
 34 36  1  0  0  0
 34 59  1  0  0  0
 34104  1  0  0  0
 35 44  2  0  0  0
 35 45  1  0  0  0
 35 68  1  0  0  0
 36 56  1  0  0  0
 36105  1  0  0  0
 37 39  1  0  0  0
 37 47  1  0  0  0
 37 66  1  0  0  0
 37106  1  0  0  0
 38 43  2  0  0  0
 38 46  1  0  0  0
 38 47  1  0  0  0
 39 64  1  0  0  0
 39 67  2  0  0  0
 40 52  1  0  0  0
 40 53  2  0  0  0
 40 58  1  0  0  0
 41107  1  0  0  0
 41108  1  0  0  0
 41109  1  0  0  0
 41 48  1  0  0  0
 42 43  1  0  0  0
 42 66  1  0  0  0
 42110  1  0  0  0
 42111  1  0  0  0
 43 44  1  0  0  0
 44112  1  0  0  0
 45 46  2  0  0  0
 45113  1  0  0  0
 46114  1  0  0  0
 47115  1  0  0  0
 47116  1  0  0  0
 48 56  1  0  0  0
 48 65  1  0  0  0
 48117  1  0  0  0
 49 50  1  0  0  0
 49 53  1  0  0  0
 49 64  1  0  0  0
 49118  1  0  0  0
 50 51  1  0  0  0
 50119  1  0  0  0
 50120  1  0  0  0
 51 52  1  0  0  0
 51121  1  0  0  0
 51122  1  0  0  0
 52123  1  0  0  0
 52124  1  0  0  0
 53 54  1  0  0  0
 54 55  2  0  0  0
 54125  1  0  0  0
 55 57  1  0  0  0
 55126  1  0  0  0
 56 69  2  0  0  0
 57 58  2  0  0  0
 57127  1  0  0  0
 58128  1  0  0  0
 59 60  1  0  0  0
 59 61  1  0  0  0
 59 62  1  0  0  0
 60129  1  0  0  0
 60130  1  0  0  0
 60131  1  0  0  0
 61132  1  0  0  0
 61133  1  0  0  0
 61134  1  0  0  0
 62135  1  0  0  0
 62136  1  0  0  0
 62137  1  0  0  0
 63 65  1  0  0  0
 63138  1  0  0  0
 63139  1  0  0  0
 63140  1  0  0  0
 64141  1  0  0  0
 65142  1  0  0  0
 68 79  1  0  0  0
 71 74  2  0  0  0
 71 75  1  0  0  0
 71143  1  0  0  0
 72 74  1  0  0  0
 72 76  2  0  0  0
 72144  1  0  0  0
 73 75  2  0  0  0
 73 76  1  0  0  0
 73145  1  0  0  0
 74 80  1  0  0  0
 75 81  1  0  0  0
 76 83  1  0  0  0
 77 78  1  0  0  0
 77 79  1  0  0  0
 77 82  2  0  0  0
 78 81  1  0  0  0
 78146  1  0  0  0
 78147  1  0  0  0
 79148  1  0  0  0
 79149  1  0  0  0
 80150  1  0  0  0
 81151  1  0  0  0
M  ISO  4   1 100  68 101  79 101  80 100
M  END
> <chiral flag>
0

> <version>
0

> <s_m_source_file>
/data/baiqing/PycharmProjects/Reinvent-master-3.2/result/LINK_invent/BTK/process_docking_weight1_custom_product_contain_oxygen_bond_distance_aromatic_linkinvent_7_9_3/rearranged_h_0151.sdf

> <i_m_source_file_index>
16

> <r_mmod_Potential_Energy-OPLS-2005>
244.780563354492

> <r_mmod_Stretch_Energy-OPLS-2005>
124.814971923828

> <r_mmod_Bend_Energy-OPLS-2005>
159.32389831543

> <r_mmod_Torsional_Energy-OPLS-2005>
231.834518432617

> <r_mmod_Improper_Torsional_Energy-OPLS-2005>
6.15762519836426

> <r_mmod_Van_der_Waal_Energy-OPLS-2005>
136.766235351562

> <r_mmod_Electrostatic_Energy-OPLS-2005>
-255.602157592773

> <r_mmod_Solvation_Energy-OPLS-2005>
-250.169021606445

> <b_mmod_Minimization_Converged-OPLS-2005>
0

> <r_mmod_RMS_Derivative-OPLS-2005>
5.09817028045654

$$$$
16
                    3D
 Structure written by MMmdl.
158167  0  0  1  0            999 V2000
  -30.7114  -14.4983   20.5702 C   0  0  0  0  0  0
  -30.4209  -12.3241   19.4303 C   0  0  0  0  0  0
  -29.4955  -12.5101   18.2097 C   0  0  0  0  0  0
  -28.0155  -12.3708   18.6192 C   0  0  0  0  0  0
  -27.6603  -13.2105   19.8761 C   0  0  2  0  0  0
  -28.7038  -12.9906   20.9932 C   0  0  0  0  0  0
  -25.2586  -13.8171   20.5691 C   0  0  0  0  0  0
  -24.1835  -13.0441   20.9170 C   0  0  0  0  0  0
  -24.6393  -11.6909   20.8728 C   0  0  0  0  0  0
  -23.9060  -10.4295   21.0399 C   0  0  0  0  0  0
  -24.3614   -9.4211   21.9179 C   0  0  0  0  0  0
  -23.6292   -8.2245   22.0754 C   0  0  0  0  0  0
  -22.4274   -8.0280   21.3546 C   0  0  0  0  0  0
  -21.9905   -9.0253   20.4649 C   0  0  0  0  0  0
  -22.7230  -10.2132   20.3054 C   0  0  0  0  0  0
  -21.6854   -6.0734   22.5277 C   0  0  0  0  0  0
  -21.4012   -6.5638   23.8210 C   0  0  0  0  0  0
  -21.3662   -5.6792   24.9174 C   0  0  0  0  0  0
  -21.6047   -4.3054   24.7225 C   0  0  0  0  0  0
  -21.8819   -3.8146   23.4345 C   0  0  0  0  0  0
  -21.9192   -4.6962   22.3401 C   0  0  0  0  0  0
  -22.7859  -13.5239   21.1838 C   0  0  0  0  0  0
  -22.1661   -4.2146   21.0979 F   0  0  0  0  0  0
  -21.5634   -3.4538   25.7738 F   0  0  0  0  0  0
  -30.0262  -13.3226   20.4411 N   0  0  0  0  0  0
  -26.3021  -12.9343   20.3380 N   0  0  0  0  0  0
  -25.9322  -11.6498   20.5765 N   0  0  0  0  0  0
  -22.0502  -12.8237   22.0399 N   0  0  0  0  0  0
  -25.4328  -15.1887   20.4121 N   0  0  0  0  0  0
  -31.8472  -14.6285   20.1004 O   0  0  0  0  0  0
  -21.6641   -6.8876   21.4239 O   0  0  0  0  0  0
  -22.3542  -14.5544   20.6687 O   0  0  0  0  0  0
  -24.6181  -31.8679   23.2113 C   0  0  0  0  0  0
  -25.9066  -32.4819   23.8408 C   0  0  1  0  0  0
  -27.2231  -27.4052   20.0929 C   0  0  0  0  0  0
  -25.5915  -33.8618   24.2337 N   0  0  0  0  0  0
  -23.4058  -30.4952   21.5529 C   0  0  2  0  0  0
  -24.8488  -28.9658   20.1119 C   0  0  0  0  0  0
  -22.7424  -29.4669   22.4982 C   0  0  0  0  0  0
  -18.0275  -28.1377   22.8494 C   0  0  0  0  0  0
  -24.1486  -36.7315   23.2636 C   0  0  0  0  0  0
  -25.9402  -30.8237   21.3705 C   0  0  0  0  0  0
  -26.0140  -29.4590   20.7118 C   0  0  0  0  0  0
  -27.2035  -28.6873   20.6993 C   0  0  0  0  0  0
  -26.0343  -26.9468   19.4725 C   0  0  0  0  0  0
  -24.8558  -27.7102   19.4884 C   0  0  0  0  0  0
  -23.6138  -29.8360   20.1654 C   0  0  0  0  0  0
  -25.4106  -36.3111   24.0340 C   0  0  1  0  0  0
  -20.5869  -28.3671   23.1309 C   0  0  2  0  0  0
  -20.6767  -26.9406   22.5411 C   0  0  0  0  0  0
  -19.5743  -26.6386   21.5212 C   0  0  0  0  0  0
  -18.1924  -26.7923   22.1628 C   0  0  0  0  0  0
  -19.1525  -28.8841   23.2899 C   0  0  0  0  0  0
  -18.9450  -30.1445   23.8908 C   0  0  0  0  0  0
  -17.6452  -30.6584   24.0563 C   0  0  0  0  0  0
  -25.9038  -34.9475   23.5135 C   0  0  0  0  0  0
  -16.5344  -29.9085   23.6324 C   0  0  0  0  0  0
  -16.7264  -28.6500   23.0350 C   0  0  0  0  0  0
  -26.4482  -31.6599   25.0741 C   0  0  0  0  0  0
  -25.3742  -31.3712   26.1487 C   0  0  0  0  0  0
  -27.0309  -30.3033   24.6140 C   0  0  0  0  0  0
  -27.6064  -32.4314   25.7497 C   0  0  0  0  0  0
  -27.5586  -37.1808   24.8461 C   0  0  0  0  0  0
  -21.4149  -29.3041   22.3716 N   0  0  0  0  0  0
  -26.4292  -37.3798   23.9414 N   0  0  0  0  0  0
  -24.6732  -31.0762   22.1027 N   0  0  0  0  0  0
  -23.4188  -28.8200   23.3022 O   0  0  0  0  0  0
  -28.3718  -26.6246   20.1311 O   0  0  0  0  0  0
  -26.5596  -34.8926   22.4695 O   0  0  0  0  0  0
  -23.5366  -32.1446   23.7489 O   0  0  0  0  0  0
  -32.2103  -20.8843   21.0725 C   0  0  0  0  0  0
  -31.6343  -19.6045   21.1711 C   0  0  0  0  0  0
  -31.4116  -22.0104   20.7973 C   0  0  0  0  0  0
  -29.4481  -20.5711   20.7101 C   0  0  0  0  0  0
  -30.2469  -19.4266   20.9854 C   0  0  0  0  0  0
  -30.0138  -21.8749   20.6211 C   0  0  0  0  0  0
  -29.3665  -24.3257   20.3644 C   0  0  0  0  0  0
  -29.7253  -17.3988   22.5014 C   0  0  0  0  0  0
  -29.5068  -15.8981   22.2515 C   0  0  0  0  0  0
  -30.2452  -16.9133   20.2314 C   0  0  0  0  0  0
  -29.6276  -18.0203   21.1128 C   0  0  2  0  0  0
  -28.1886  -25.2055   19.8893 C   0  0  0  0  0  0
  -29.9910  -15.6117   20.8937 N   0  0  0  0  0  0
  -29.1521  -22.9857   20.3221 N   0  0  0  0  0  0
  -30.4081  -24.8544   20.7645 O   0  0  0  0  0  0
  -31.4659  -12.4144   19.1286 H   0  0  0  0  0  0
  -30.3223  -11.3160   19.8365 H   0  0  0  0  0  0
  -29.7397  -11.7811   17.4358 H   0  0  0  0  0  0
  -29.6624  -13.4936   17.7671 H   0  0  0  0  0  0
  -27.8253  -11.3149   18.8146 H   0  0  0  0  0  0
  -27.3666  -12.6459   17.7870 H   0  0  0  0  0  0
  -27.7030  -14.2594   19.5812 H   0  0  0  0  0  0
  -28.6927  -11.9484   21.3156 H   0  0  0  0  0  0
  -28.4577  -13.5580   21.8859 H   0  0  0  0  0  0
  -25.2763   -9.5690   22.4747 H   0  0  0  0  0  0
  -24.0006   -7.4638   22.7474 H   0  0  0  0  0  0
  -21.0836   -8.8772   19.8957 H   0  0  0  0  0  0
  -22.3691  -10.9670   19.6160 H   0  0  0  0  0  0
  -21.1999   -7.6145   23.9711 H   0  0  0  0  0  0
  -21.1487   -6.0523   25.9077 H   0  0  0  0  0  0
  -22.0595   -2.7608   23.2845 H   0  0  0  0  0  0
  -22.4114  -11.9893   22.4783 H   0  0  0  0  0  0
  -21.1123  -13.1266   22.2610 H   0  0  0  0  0  0
  -24.6724  -15.8500   20.5268 H   0  0  0  0  0  0
  -26.2981  -15.6256   20.1202 H   0  0  0  0  0  0
  -26.7134  -32.5519   23.1166 H   0  0  0  0  0  0
  -25.0064  -33.9775   25.0483 H   0  0  0  0  0  0
  -22.6956  -31.3140   21.4179 H   0  0  0  0  0  0
  -23.3748  -35.9648   23.3297 H   0  0  0  0  0  0
  -24.3586  -36.8930   22.2052 H   0  0  0  0  0  0
  -23.7236  -37.6521   23.6646 H   0  0  0  0  0  0
  -26.0608  -31.5916   20.6053 H   0  0  0  0  0  0
  -26.8252  -30.8703   21.9933 H   0  0  0  0  0  0
  -28.0991  -29.0618   21.1750 H   0  0  0  0  0  0
  -25.9826  -25.9940   18.9671 H   0  0  0  0  0  0
  -23.9623  -27.3278   19.0143 H   0  0  0  0  0  0
  -23.7241  -30.6151   19.4102 H   0  0  0  0  0  0
  -22.7356  -29.2606   19.8664 H   0  0  0  0  0  0
  -25.1277  -36.1980   25.0832 H   0  0  0  0  0  0
  -20.9963  -28.3235   24.1430 H   0  0  0  0  0  0
  -20.5682  -26.2277   23.3598 H   0  0  0  0  0  0
  -21.6636  -26.7452   22.1198 H   0  0  0  0  0  0
  -19.6905  -25.6301   21.1234 H   0  0  0  0  0  0
  -19.6683  -27.3203   20.6746 H   0  0  0  0  0  0
  -17.4194  -26.6671   21.4030 H   0  0  0  0  0  0
  -18.0328  -26.0062   22.9022 H   0  0  0  0  0  0
  -19.7927  -30.7257   24.2288 H   0  0  0  0  0  0
  -17.5007  -31.6268   24.5160 H   0  0  0  0  0  0
  -15.5344  -30.2990   23.7644 H   0  0  0  0  0  0
  -15.8663  -28.0822   22.7060 H   0  0  0  0  0  0
  -24.5899  -30.7082   25.7816 H   0  0  0  0  0  0
  -24.8953  -32.2870   26.4961 H   0  0  0  0  0  0
  -25.8088  -30.8851   27.0231 H   0  0  0  0  0  0
  -26.2860  -29.6796   24.1182 H   0  0  0  0  0  0
  -27.4049  -29.7271   25.4613 H   0  0  0  0  0  0
  -27.8713  -30.4334   23.9317 H   0  0  0  0  0  0
  -27.2692  -33.3601   26.2111 H   0  0  0  0  0  0
  -28.3853  -32.6894   25.0309 H   0  0  0  0  0  0
  -28.0758  -31.8415   26.5381 H   0  0  0  0  0  0
  -28.2594  -38.0115   24.7526 H   0  0  0  0  0  0
  -28.1092  -36.2650   24.6258 H   0  0  0  0  0  0
  -27.2310  -37.1419   25.8865 H   0  0  0  0  0  0
  -20.9310  -29.8771   21.6946 H   0  0  0  0  0  0
  -26.0184  -38.2878   24.1420 H   0  0  0  0  0  0
  -33.2761  -21.0049   21.2095 H   0  0  0  0  0  0
  -32.2690  -18.7579   21.3938 H   0  0  0  0  0  0
  -31.9032  -22.9681   20.7196 H   0  0  0  0  0  0
  -28.3832  -20.4443   20.5726 H   0  0  0  0  0  0
  -30.7234  -17.5491   22.9155 H   0  0  0  0  0  0
  -29.0110  -17.8246   23.2071 H   0  0  0  0  0  0
  -28.4375  -15.6901   22.2971 H   0  0  0  0  0  0
  -30.0023  -15.2891   23.0104 H   0  0  0  0  0  0
  -31.3208  -17.0676   20.1369 H   0  0  0  0  0  0
  -29.8316  -16.9302   19.2224 H   0  0  0  0  0  0
  -28.5683  -18.0910   20.8577 H   0  0  0  0  0  0
  -27.3035  -24.8415   20.4149 H   0  0  0  0  0  0
  -28.0451  -25.0320   18.8218 H   0  0  0  0  0  0
  -28.2169  -22.7333   20.0333 H   0  0  0  0  0  0
  1 25  1  0  0  0
  1 30  2  0  0  0
  1 83  1  0  0  0
  2  3  1  0  0  0
  2 25  1  0  0  0
  2 86  1  0  0  0
  2 87  1  0  0  0
  3  4  1  0  0  0
  3 88  1  0  0  0
  3 89  1  0  0  0
  4  5  1  0  0  0
  4 90  1  0  0  0
  4 91  1  0  0  0
  5  6  1  0  0  0
  5 26  1  0  0  0
  5 92  1  0  0  0
  6 25  1  0  0  0
  6 93  1  0  0  0
  6 94  1  0  0  0
  7  8  2  0  0  0
  7 26  1  0  0  0
  7 29  1  0  0  0
  8  9  1  0  0  0
  8 22  1  0  0  0
  9 10  1  0  0  0
  9 27  2  0  0  0
 10 11  2  0  0  0
 10 15  1  0  0  0
 11 12  1  0  0  0
 11 95  1  0  0  0
 12 13  2  0  0  0
 12 96  1  0  0  0
 13 14  1  0  0  0
 13 31  1  0  0  0
 14 15  2  0  0  0
 14 97  1  0  0  0
 15 98  1  0  0  0
 16 17  2  0  0  0
 16 21  1  0  0  0
 16 31  1  0  0  0
 17 18  1  0  0  0
 17 99  1  0  0  0
 18 19  2  0  0  0
 18100  1  0  0  0
 19 20  1  0  0  0
 19 24  1  0  0  0
 20 21  2  0  0  0
 20101  1  0  0  0
 21 23  1  0  0  0
 22 28  1  0  0  0
 22 32  2  0  0  0
 26 27  1  0  0  0
 28102  1  0  0  0
 28103  1  0  0  0
 29104  1  0  0  0
 29105  1  0  0  0
 33 34  1  0  0  0
 33 66  1  0  0  0
 33 70  2  0  0  0
 34 36  1  0  0  0
 34 59  1  0  0  0
 34106  1  0  0  0
 35 44  2  0  0  0
 35 45  1  0  0  0
 35 68  1  0  0  0
 36 56  1  0  0  0
 36107  1  0  0  0
 37 39  1  0  0  0
 37 47  1  0  0  0
 37 66  1  0  0  0
 37108  1  0  0  0
 38 43  2  0  0  0
 38 46  1  0  0  0
 38 47  1  0  0  0
 39 64  1  0  0  0
 39 67  2  0  0  0
 40 52  1  0  0  0
 40 53  2  0  0  0
 40 58  1  0  0  0
 41109  1  0  0  0
 41110  1  0  0  0
 41111  1  0  0  0
 41 48  1  0  0  0
 42 43  1  0  0  0
 42 66  1  0  0  0
 42112  1  0  0  0
 42113  1  0  0  0
 43 44  1  0  0  0
 44114  1  0  0  0
 45 46  2  0  0  0
 45115  1  0  0  0
 46116  1  0  0  0
 47117  1  0  0  0
 47118  1  0  0  0
 48 56  1  0  0  0
 48 65  1  0  0  0
 48119  1  0  0  0
 49 50  1  0  0  0
 49 53  1  0  0  0
 49 64  1  0  0  0
 49120  1  0  0  0
 50 51  1  0  0  0
 50121  1  0  0  0
 50122  1  0  0  0
 51 52  1  0  0  0
 51123  1  0  0  0
 51124  1  0  0  0
 52125  1  0  0  0
 52126  1  0  0  0
 53 54  1  0  0  0
 54 55  2  0  0  0
 54127  1  0  0  0
 55 57  1  0  0  0
 55128  1  0  0  0
 56 69  2  0  0  0
 57 58  2  0  0  0
 57129  1  0  0  0
 58130  1  0  0  0
 59 60  1  0  0  0
 59 61  1  0  0  0
 59 62  1  0  0  0
 60131  1  0  0  0
 60132  1  0  0  0
 60133  1  0  0  0
 61134  1  0  0  0
 61135  1  0  0  0
 61136  1  0  0  0
 62137  1  0  0  0
 62138  1  0  0  0
 62139  1  0  0  0
 63 65  1  0  0  0
 63140  1  0  0  0
 63141  1  0  0  0
 63142  1  0  0  0
 64143  1  0  0  0
 65144  1  0  0  0
 68 82  1  0  0  0
 71 72  2  0  0  0
 71 73  1  0  0  0
 71145  1  0  0  0
 72 75  1  0  0  0
 72146  1  0  0  0
 73 76  2  0  0  0
 73147  1  0  0  0
 74 75  2  0  0  0
 74 76  1  0  0  0
 74148  1  0  0  0
 75 81  1  0  0  0
 76 84  1  0  0  0
 77 82  1  0  0  0
 77 84  1  0  0  0
 77 85  2  0  0  0
 78 79  1  0  0  0
 78 81  1  0  0  0
 78149  1  0  0  0
 78150  1  0  0  0
 79 83  1  0  0  0
 79151  1  0  0  0
 79152  1  0  0  0
 80 81  1  0  0  0
 80 83  1  0  0  0
 80153  1  0  0  0
 80154  1  0  0  0
 81155  1  0  0  0
 82156  1  0  0  0
 82157  1  0  0  0
 84158  1  0  0  0
M  ISO  4   1 100  68 101  82 101  83 100
M  END
> <chiral flag>
0

> <version>
0

> <s_m_source_file>
/data/baiqing/PycharmProjects/Reinvent-master-3.2/result/LINK_invent/BTK/process_docking_weight1_custom_product_contain_oxygen_bond_distance_aromatic_linkinvent_7_9_3/rearranged_h_0151.sdf

> <i_m_source_file_index>
17

> <r_mmod_Potential_Energy-OPLS-2005>
154.261459350586

> <r_mmod_Stretch_Energy-OPLS-2005>
46.6003303527832

> <r_mmod_Bend_Energy-OPLS-2005>
131.962020874023

> <r_mmod_Torsional_Energy-OPLS-2005>
318.247528076172

> <r_mmod_Improper_Torsional_Energy-OPLS-2005>
12.1555166244507

> <r_mmod_Van_der_Waal_Energy-OPLS-2005>
158.77116394043

> <r_mmod_Electrostatic_Energy-OPLS-2005>
-299.708679199219

> <r_mmod_Solvation_Energy-OPLS-2005>
-231.785995483398

> <b_mmod_Minimization_Converged-OPLS-2005>
0

> <r_mmod_RMS_Derivative-OPLS-2005>
0.510715425014496

$$$$
17
                    3D
 Structure written by MMmdl.
160169  0  0  1  0            999 V2000
  -30.5744  -14.8413   20.4374 C   0  0  0  0  0  0
  -30.4379  -12.5257   19.4647 C   0  0  0  0  0  0
  -29.5175  -12.5232   18.2266 C   0  0  0  0  0  0
  -28.0444  -12.3204   18.6411 C   0  0  0  0  0  0
  -27.6326  -13.2309   19.8295 C   0  0  2  0  0  0
  -28.6801  -13.2139   20.9605 C   0  0  0  0  0  0
  -25.2481  -13.8172   20.5631 C   0  0  0  0  0  0
  -24.1782  -13.0423   20.9150 C   0  0  0  0  0  0
  -24.6382  -11.6897   20.8701 C   0  0  0  0  0  0
  -23.9057  -10.4281   21.0350 C   0  0  0  0  0  0
  -24.3630   -9.4211   21.9138 C   0  0  0  0  0  0
  -23.6306   -8.2242   22.0738 C   0  0  0  0  0  0
  -22.4287   -8.0277   21.3519 C   0  0  0  0  0  0
  -21.9902   -9.0235   20.4630 C   0  0  0  0  0  0
  -22.7217  -10.2114   20.3011 C   0  0  0  0  0  0
  -21.6873   -6.0715   22.5245 C   0  0  0  0  0  0
  -21.4033   -6.5618   23.8179 C   0  0  0  0  0  0
  -21.3666   -5.6776   24.9146 C   0  0  0  0  0  0
  -21.6062   -4.3029   24.7185 C   0  0  0  0  0  0
  -21.8835   -3.8117   23.4296 C   0  0  0  0  0  0
  -21.9198   -4.6939   22.3360 C   0  0  0  0  0  0
  -22.7810  -13.5222   21.1775 C   0  0  0  0  0  0
  -22.1660   -4.2127   21.0937 F   0  0  0  0  0  0
  -21.5632   -3.4522   25.7692 F   0  0  0  0  0  0
  -29.9576  -13.6060   20.3537 N   0  0  0  0  0  0
  -26.2902  -12.9378   20.3172 N   0  0  0  0  0  0
  -25.9318  -11.6519   20.5688 N   0  0  0  0  0  0
  -22.0460  -12.8263   22.0366 N   0  0  0  0  0  0
  -25.4106  -15.1916   20.4052 N   0  0  0  0  0  0
  -31.7923  -14.9055   20.2459 O   0  0  0  0  0  0
  -21.6662   -6.8862   21.4218 O   0  0  0  0  0  0
  -22.3461  -14.5474   20.6530 O   0  0  0  0  0  0
  -24.6401  -31.8483   23.1908 C   0  0  0  0  0  0
  -25.9179  -32.4711   23.8313 C   0  0  1  0  0  0
  -27.2406  -27.2102   20.1348 C   0  0  0  0  0  0
  -25.5929  -33.8501   24.2245 N   0  0  0  0  0  0
  -23.4453  -30.4678   21.5308 C   0  0  2  0  0  0
  -24.9012  -28.9032   20.1141 C   0  0  0  0  0  0
  -22.7555  -29.4583   22.4827 C   0  0  0  0  0  0
  -18.0295  -28.1389   22.8501 C   0  0  0  0  0  0
  -24.1478  -36.7275   23.2653 C   0  0  0  0  0  0
  -25.9951  -30.7491   21.3775 C   0  0  0  0  0  0
  -26.0730  -29.3641   20.7246 C   0  0  0  0  0  0
  -27.2450  -28.5297   20.7248 C   0  0  0  0  0  0
  -26.0397  -26.8337   19.4943 C   0  0  0  0  0  0
  -24.8903  -27.6460   19.4917 C   0  0  0  0  0  0
  -23.6741  -29.7917   20.1528 C   0  0  0  0  0  0
  -25.4084  -36.3029   24.0347 C   0  0  1  0  0  0
  -20.5919  -28.3716   23.1223 C   0  0  2  0  0  0
  -20.6763  -26.9401   22.5407 C   0  0  0  0  0  0
  -19.5735  -26.6375   21.5214 C   0  0  0  0  0  0
  -18.1925  -26.7930   22.1635 C   0  0  0  0  0  0
  -19.1558  -28.8858   23.2878 C   0  0  0  0  0  0
  -18.9473  -30.1442   23.8919 C   0  0  0  0  0  0
  -17.6473  -30.6591   24.0543 C   0  0  0  0  0  0
  -25.9037  -34.9407   23.5105 C   0  0  0  0  0  0
  -16.5362  -29.9100   23.6297 C   0  0  0  0  0  0
  -16.7284  -28.6502   23.0366 C   0  0  0  0  0  0
  -26.4488  -31.6559   25.0747 C   0  0  0  0  0  0
  -25.3679  -31.3763   26.1467 C   0  0  0  0  0  0
  -27.0348  -30.2971   24.6272 C   0  0  0  0  0  0
  -27.6037  -32.4293   25.7530 C   0  0  0  0  0  0
  -27.5556  -37.1774   24.8455 C   0  0  0  0  0  0
  -21.4247  -29.3071   22.3603 N   0  0  0  0  0  0
  -26.4257  -37.3736   23.9424 N   0  0  0  0  0  0
  -24.7133  -31.0406   22.0901 N   0  0  0  0  0  0
  -23.4220  -28.8103   23.2942 O   0  0  0  0  0  0
  -28.3210  -26.2763   20.1953 O   0  0  0  0  0  0
  -26.5616  -34.8894   22.4682 O   0  0  0  0  0  0
  -23.5514  -32.1347   23.7120 O   0  0  0  0  0  0
  -30.8153  -17.6632   21.8683 C   0  0  0  0  0  0
  -30.7647  -19.0822   22.0831 C   0  0  0  0  0  0
  -29.9888  -19.6565   21.0776 C   0  0  0  0  0  0
  -30.0568  -17.3436   20.7808 C   0  0  0  0  0  0
  -29.6776  -23.4753   21.6318 C   0  0  0  0  0  0
  -30.4209  -22.1258   21.7510 C   0  0  0  0  0  0
  -28.7814  -21.9517   20.0854 C   0  0  0  0  0  0
  -29.1558  -23.5471   20.2006 C   0  0  1  0  0  0
  -31.4726  -19.6884   23.2749 C   0  0  0  0  0  0
  -30.9946  -24.8411   19.2283 C   0  0  0  0  0  0
  -28.0814  -24.7855   19.9384 C   0  0  0  0  0  0
  -29.7509  -21.1224   20.9101 N   0  0  0  0  0  0
  -29.7861  -16.0054   20.4072 N   0  0  0  0  0  0
  -29.5010  -18.5730   20.2816 O   0  0  0  0  0  0
  -30.2216  -23.6465   19.2464 O   0  0  0  0  0  0
  -31.4760  -12.6785   19.1632 H   0  0  0  0  0  0
  -30.4125  -11.5621   19.9750 H   0  0  0  0  0  0
  -29.8346  -11.7398   17.5369 H   0  0  0  0  0  0
  -29.6159  -13.4719   17.6916 H   0  0  0  0  0  0
  -27.9190  -11.2732   18.9126 H   0  0  0  0  0  0
  -27.3941  -12.4933   17.7852 H   0  0  0  0  0  0
  -27.6101  -14.2413   19.4215 H   0  0  0  0  0  0
  -28.7513  -12.2270   21.4236 H   0  0  0  0  0  0
  -28.4013  -13.9118   21.7516 H   0  0  0  0  0  0
  -25.2798   -9.5702   22.4680 H   0  0  0  0  0  0
  -24.0019   -7.4655   22.7472 H   0  0  0  0  0  0
  -21.0825   -8.8737   19.8949 H   0  0  0  0  0  0
  -22.3680  -10.9627   19.6089 H   0  0  0  0  0  0
  -21.2051   -7.6128   23.9671 H   0  0  0  0  0  0
  -21.1480   -6.0497   25.9051 H   0  0  0  0  0  0
  -22.0620   -2.7571   23.2785 H   0  0  0  0  0  0
  -22.4179  -12.0054   22.4915 H   0  0  0  0  0  0
  -21.1022  -13.1189   22.2456 H   0  0  0  0  0  0
  -24.6269  -15.8271   20.5029 H   0  0  0  0  0  0
  -26.2445  -15.6414   20.0538 H   0  0  0  0  0  0
  -26.7280  -32.5365   23.1079 H   0  0  0  0  0  0
  -24.9938  -33.9583   25.0299 H   0  0  0  0  0  0
  -22.7466  -31.2912   21.3672 H   0  0  0  0  0  0
  -23.3737  -35.9617   23.3275 H   0  0  0  0  0  0
  -24.3595  -36.8935   22.2082 H   0  0  0  0  0  0
  -23.7237  -37.6471   23.6695 H   0  0  0  0  0  0
  -26.1276  -31.4995   20.5971 H   0  0  0  0  0  0
  -26.8791  -30.8133   22.0021 H   0  0  0  0  0  0
  -28.1380  -28.8758   21.2285 H   0  0  0  0  0  0
  -25.9506  -25.8756   19.0033 H   0  0  0  0  0  0
  -23.9917  -27.2824   19.0134 H   0  0  0  0  0  0
  -23.8007  -30.5613   19.3899 H   0  0  0  0  0  0
  -22.8000  -29.2143   19.8483 H   0  0  0  0  0  0
  -25.1253  -36.1864   25.0842 H   0  0  0  0  0  0
  -21.0020  -28.3304   24.1342 H   0  0  0  0  0  0
  -20.5604  -26.2310   23.3633 H   0  0  0  0  0  0
  -21.6622  -26.7366   22.1209 H   0  0  0  0  0  0
  -19.6858  -25.6286   21.1242 H   0  0  0  0  0  0
  -19.6667  -27.3176   20.6744 H   0  0  0  0  0  0
  -17.4169  -26.6681   21.4068 H   0  0  0  0  0  0
  -18.0338  -26.0084   22.9043 H   0  0  0  0  0  0
  -19.7942  -30.7245   24.2341 H   0  0  0  0  0  0
  -17.5021  -31.6282   24.5134 H   0  0  0  0  0  0
  -15.5358  -30.3005   23.7608 H   0  0  0  0  0  0
  -15.8684  -28.0809   22.7096 H   0  0  0  0  0  0
  -24.5848  -30.7100   25.7831 H   0  0  0  0  0  0
  -24.8864  -32.2951   26.4833 H   0  0  0  0  0  0
  -25.7978  -30.9003   27.0293 H   0  0  0  0  0  0
  -26.2979  -29.6713   24.1234 H   0  0  0  0  0  0
  -27.3964  -29.7226   25.4811 H   0  0  0  0  0  0
  -27.8859  -30.4263   23.9582 H   0  0  0  0  0  0
  -27.2657  -33.3593   26.2105 H   0  0  0  0  0  0
  -28.3854  -32.6851   25.0369 H   0  0  0  0  0  0
  -28.0700  -31.8423   26.5451 H   0  0  0  0  0  0
  -28.2532  -38.0098   24.7485 H   0  0  0  0  0  0
  -28.1070  -36.2624   24.6253 H   0  0  0  0  0  0
  -27.2283  -37.1394   25.8857 H   0  0  0  0  0  0
  -20.9428  -29.8846   21.6849 H   0  0  0  0  0  0
  -26.0124  -38.2809   24.1433 H   0  0  0  0  0  0
  -31.3197  -16.9401   22.4941 H   0  0  0  0  0  0
  -30.2762  -24.3334   21.9356 H   0  0  0  0  0  0
  -28.8203  -23.4482   22.3058 H   0  0  0  0  0  0
  -30.4059  -21.8620   22.8031 H   0  0  0  0  0  0
  -31.4616  -22.2408   21.4375 H   0  0  0  0  0  0
  -28.7473  -21.6156   19.0475 H   0  0  0  0  0  0
  -27.7898  -21.7817   20.5040 H   0  0  0  0  0  0
  -32.0030  -18.9107   23.8255 H   0  0  0  0  0  0
  -30.7566  -20.1235   23.9726 H   0  0  0  0  0  0
  -32.2078  -20.4360   22.9753 H   0  0  0  0  0  0
  -31.7975  -24.7342   18.5000 H   0  0  0  0  0  0
  -31.4600  -25.0438   20.1923 H   0  0  0  0  0  0
  -30.4098  -25.7063   18.9197 H   0  0  0  0  0  0
  -27.1853  -24.5172   20.4952 H   0  0  0  0  0  0
  -27.7985  -24.7123   18.8885 H   0  0  0  0  0  0
  -28.8281  -15.8342   20.1423 H   0  0  0  0  0  0
  1 25  1  0  0  0
  1 30  2  0  0  0
  1 83  1  0  0  0
  2  3  1  0  0  0
  2 25  1  0  0  0
  2 86  1  0  0  0
  2 87  1  0  0  0
  3  4  1  0  0  0
  3 88  1  0  0  0
  3 89  1  0  0  0
  4  5  1  0  0  0
  4 90  1  0  0  0
  4 91  1  0  0  0
  5  6  1  0  0  0
  5 26  1  0  0  0
  5 92  1  0  0  0
  6 25  1  0  0  0
  6 93  1  0  0  0
  6 94  1  0  0  0
  7  8  2  0  0  0
  7 26  1  0  0  0
  7 29  1  0  0  0
  8  9  1  0  0  0
  8 22  1  0  0  0
  9 10  1  0  0  0
  9 27  2  0  0  0
 10 11  2  0  0  0
 10 15  1  0  0  0
 11 12  1  0  0  0
 11 95  1  0  0  0
 12 13  2  0  0  0
 12 96  1  0  0  0
 13 14  1  0  0  0
 13 31  1  0  0  0
 14 15  2  0  0  0
 14 97  1  0  0  0
 15 98  1  0  0  0
 16 17  2  0  0  0
 16 21  1  0  0  0
 16 31  1  0  0  0
 17 18  1  0  0  0
 17 99  1  0  0  0
 18 19  2  0  0  0
 18100  1  0  0  0
 19 20  1  0  0  0
 19 24  1  0  0  0
 20 21  2  0  0  0
 20101  1  0  0  0
 21 23  1  0  0  0
 22 28  1  0  0  0
 22 32  2  0  0  0
 26 27  1  0  0  0
 28102  1  0  0  0
 28103  1  0  0  0
 29104  1  0  0  0
 29105  1  0  0  0
 33 34  1  0  0  0
 33 66  1  0  0  0
 33 70  2  0  0  0
 34 36  1  0  0  0
 34 59  1  0  0  0
 34106  1  0  0  0
 35 44  2  0  0  0
 35 45  1  0  0  0
 35 68  1  0  0  0
 36 56  1  0  0  0
 36107  1  0  0  0
 37 39  1  0  0  0
 37 47  1  0  0  0
 37 66  1  0  0  0
 37108  1  0  0  0
 38 43  2  0  0  0
 38 46  1  0  0  0
 38 47  1  0  0  0
 39 64  1  0  0  0
 39 67  2  0  0  0
 40 52  1  0  0  0
 40 53  2  0  0  0
 40 58  1  0  0  0
 41109  1  0  0  0
 41110  1  0  0  0
 41111  1  0  0  0
 41 48  1  0  0  0
 42 43  1  0  0  0
 42 66  1  0  0  0
 42112  1  0  0  0
 42113  1  0  0  0
 43 44  1  0  0  0
 44114  1  0  0  0
 45 46  2  0  0  0
 45115  1  0  0  0
 46116  1  0  0  0
 47117  1  0  0  0
 47118  1  0  0  0
 48 56  1  0  0  0
 48 65  1  0  0  0
 48119  1  0  0  0
 49 50  1  0  0  0
 49 53  1  0  0  0
 49 64  1  0  0  0
 49120  1  0  0  0
 50 51  1  0  0  0
 50121  1  0  0  0
 50122  1  0  0  0
 51 52  1  0  0  0
 51123  1  0  0  0
 51124  1  0  0  0
 52125  1  0  0  0
 52126  1  0  0  0
 53 54  1  0  0  0
 54 55  2  0  0  0
 54127  1  0  0  0
 55 57  1  0  0  0
 55128  1  0  0  0
 56 69  2  0  0  0
 57 58  2  0  0  0
 57129  1  0  0  0
 58130  1  0  0  0
 59 60  1  0  0  0
 59 61  1  0  0  0
 59 62  1  0  0  0
 60131  1  0  0  0
 60132  1  0  0  0
 60133  1  0  0  0
 61134  1  0  0  0
 61135  1  0  0  0
 61136  1  0  0  0
 62137  1  0  0  0
 62138  1  0  0  0
 62139  1  0  0  0
 63 65  1  0  0  0
 63140  1  0  0  0
 63141  1  0  0  0
 63142  1  0  0  0
 64143  1  0  0  0
 65144  1  0  0  0
 68 81  1  0  0  0
 71 72  1  0  0  0
 71 74  2  0  0  0
 71145  1  0  0  0
 72 73  2  0  0  0
 72 79  1  0  0  0
 73 82  1  0  0  0
 73 84  1  0  0  0
 74 83  1  0  0  0
 74 84  1  0  0  0
 75 76  1  0  0  0
 75 78  1  0  0  0
 75146  1  0  0  0
 75147  1  0  0  0
 76 82  1  0  0  0
 76148  1  0  0  0
 76149  1  0  0  0
 77 78  1  0  0  0
 77 82  1  0  0  0
 77150  1  0  0  0
 77151  1  0  0  0
 78 81  1  0  0  0
 78 85  1  0  0  0
 79152  1  0  0  0
 79153  1  0  0  0
 79154  1  0  0  0
 80 85  1  0  0  0
 80155  1  0  0  0
 80156  1  0  0  0
 80157  1  0  0  0
 81158  1  0  0  0
 81159  1  0  0  0
 83160  1  0  0  0
M  ISO  4   1 100  68 101  81 101  83 100
M  END
> <chiral flag>
0

> <version>
0

> <s_m_source_file>
/data/baiqing/PycharmProjects/Reinvent-master-3.2/result/LINK_invent/BTK/process_docking_weight1_custom_product_contain_oxygen_bond_distance_aromatic_linkinvent_7_9_3/rearranged_h_0151.sdf

> <i_m_source_file_index>
18

> <r_mmod_Potential_Energy-OPLS-2005>
399.786285400391

> <r_mmod_Stretch_Energy-OPLS-2005>
173.054000854492

> <r_mmod_Bend_Energy-OPLS-2005>
285.665496826172

> <r_mmod_Torsional_Energy-OPLS-2005>
285.384124755859

> <r_mmod_Improper_Torsional_Energy-OPLS-2005>
9.15017604827881

> <r_mmod_Van_der_Waal_Energy-OPLS-2005>
125.311584472656

> <r_mmod_Electrostatic_Energy-OPLS-2005>
-371.79443359375

> <r_mmod_Solvation_Energy-OPLS-2005>
-238.83935546875

> <b_mmod_Minimization_Converged-OPLS-2005>
0

> <r_mmod_RMS_Derivative-OPLS-2005>
4.8703179359436

$$$$
18
                    3D
 Structure written by MMmdl.
162171  0  0  1  0            999 V2000
  -30.6612  -14.5033   20.5774 C   0  0  0  0  0  0
  -30.4404  -12.3305   19.4163 C   0  0  0  0  0  0
  -29.4969  -12.5105   18.2062 C   0  0  0  0  0  0
  -28.0192  -12.3627   18.6219 C   0  0  0  0  0  0
  -27.6650  -13.1984   19.8798 C   0  0  2  0  0  0
  -28.7081  -12.9614   20.9949 C   0  0  0  0  0  0
  -25.2594  -13.8110   20.5670 C   0  0  0  0  0  0
  -24.1833  -13.0412   20.9179 C   0  0  0  0  0  0
  -24.6386  -11.6881   20.8762 C   0  0  0  0  0  0
  -23.9039  -10.4273   21.0409 C   0  0  0  0  0  0
  -24.3595   -9.4184   21.9177 C   0  0  0  0  0  0
  -23.6283   -8.2215   22.0727 C   0  0  0  0  0  0
  -22.4262   -8.0268   21.3520 C   0  0  0  0  0  0
  -21.9901   -9.0240   20.4620 C   0  0  0  0  0  0
  -22.7223  -10.2120   20.3041 C   0  0  0  0  0  0
  -21.6835   -6.0738   22.5284 C   0  0  0  0  0  0
  -21.3999   -6.5641   23.8222 C   0  0  0  0  0  0
  -21.3639   -5.6787   24.9180 C   0  0  0  0  0  0
  -21.6038   -4.3051   24.7226 C   0  0  0  0  0  0
  -21.8826   -3.8151   23.4344 C   0  0  0  0  0  0
  -21.9184   -4.6970   22.3405 C   0  0  0  0  0  0
  -22.7866  -13.5229   21.1843 C   0  0  0  0  0  0
  -22.1651   -4.2160   21.0980 F   0  0  0  0  0  0
  -21.5625   -3.4522   25.7728 F   0  0  0  0  0  0
  -30.0386  -13.2969   20.4504 N   0  0  0  0  0  0
  -26.3037  -12.9277   20.3386 N   0  0  0  0  0  0
  -25.9316  -11.6453   20.5802 N   0  0  0  0  0  0
  -22.0490  -12.8220   22.0388 N   0  0  0  0  0  0
  -25.4310  -15.1816   20.4063 N   0  0  0  0  0  0
  -31.7764  -14.7409   20.1024 O   0  0  0  0  0  0
  -21.6611   -6.8878   21.4244 O   0  0  0  0  0  0
  -22.3569  -14.5553   20.6718 O   0  0  0  0  0  0
  -24.6175  -31.8658   23.2100 C   0  0  0  0  0  0
  -25.9064  -32.4799   23.8405 C   0  0  1  0  0  0
  -27.2378  -27.4229   20.1020 C   0  0  0  0  0  0
  -25.5930  -33.8600   24.2347 N   0  0  0  0  0  0
  -23.4078  -30.4888   21.5475 C   0  0  2  0  0  0
  -24.8582  -28.9519   20.1119 C   0  0  0  0  0  0
  -22.7420  -29.4650   22.4956 C   0  0  0  0  0  0
  -18.0268  -28.1379   22.8482 C   0  0  0  0  0  0
  -24.1487  -36.7289   23.2644 C   0  0  0  0  0  0
  -25.9389  -30.8242   21.3692 C   0  0  0  0  0  0
  -26.0175  -29.4589   20.7144 C   0  0  0  0  0  0
  -27.2143  -28.7017   20.7071 C   0  0  0  0  0  0
  -26.0667  -26.9340   19.4893 C   0  0  0  0  0  0
  -24.8776  -27.6890   19.4941 C   0  0  0  0  0  0
  -23.6210  -29.8218   20.1612 C   0  0  0  0  0  0
  -25.4101  -36.3094   24.0356 C   0  0  1  0  0  0
  -20.5865  -28.3675   23.1289 C   0  0  2  0  0  0
  -20.6754  -26.9409   22.5393 C   0  0  0  0  0  0
  -19.5734  -26.6385   21.5193 C   0  0  0  0  0  0
  -18.1917  -26.7922   22.1604 C   0  0  0  0  0  0
  -19.1522  -28.8839   23.2877 C   0  0  0  0  0  0
  -18.9458  -30.1440   23.8890 C   0  0  0  0  0  0
  -17.6465  -30.6583   24.0566 C   0  0  0  0  0  0
  -25.9038  -34.9466   23.5141 C   0  0  0  0  0  0
  -16.5350  -29.9086   23.6334 C   0  0  0  0  0  0
  -16.7261  -28.6503   23.0354 C   0  0  0  0  0  0
  -26.4503  -31.6571   25.0726 C   0  0  0  0  0  0
  -25.3793  -31.3640   26.1487 C   0  0  0  0  0  0
  -27.0352  -30.3021   24.6101 C   0  0  0  0  0  0
  -27.6081  -32.4294   25.7476 C   0  0  0  0  0  0
  -27.5585  -37.1776   24.8457 C   0  0  0  0  0  0
  -21.4146  -29.3038   22.3691 N   0  0  0  0  0  0
  -26.4268  -37.3798   23.9451 N   0  0  0  0  0  0
  -24.6721  -31.0751   22.1002 N   0  0  0  0  0  0
  -23.4176  -28.8212   23.3023 O   0  0  0  0  0  0
  -28.3635  -26.6257   20.1159 O   0  0  0  0  0  0
  -26.5582  -34.8926   22.4689 O   0  0  0  0  0  0
  -23.5359  -32.1419   23.7482 O   0  0  0  0  0  0
  -30.5825  -19.1614   21.3190 C   0  0  0  0  0  0
  -30.8138  -17.7636   21.3987 C   0  0  0  0  0  0
  -28.6783  -17.3705   20.3244 C   0  0  0  0  0  0
  -29.3814  -19.6905   20.7727 C   0  0  0  0  0  0
  -29.8452  -16.8493   20.9263 C   0  0  0  0  0  0
  -28.4438  -18.7629   20.2426 C   0  0  0  0  0  0
  -29.0959  -21.9986   19.5277 C   0  0  0  0  0  0
  -29.8229  -22.0202   21.9061 C   0  0  0  0  0  0
  -28.4529  -23.4080   19.6801 C   0  0  0  0  0  0
  -29.1987  -23.4225   22.1034 C   0  0  0  0  0  0
  -29.0370  -21.2059   20.8563 C   0  0  2  0  0  0
  -29.0880  -24.2694   20.8060 C   0  0  2  0  0  0
  -28.2960  -25.5824   21.1079 C   0  0  0  0  0  0
  -27.2438  -19.1932   19.6722 N   0  0  0  0  0  0
  -29.9123  -15.4436   21.1897 N   0  0  0  0  0  0
  -31.4792  -12.4638   19.1076 H   0  0  0  0  0  0
  -30.3744  -11.3150   19.8091 H   0  0  0  0  0  0
  -29.7383  -11.7823   17.4303 H   0  0  0  0  0  0
  -29.6527  -13.4944   17.7619 H   0  0  0  0  0  0
  -27.8330  -11.3062   18.8188 H   0  0  0  0  0  0
  -27.3646  -12.6340   17.7926 H   0  0  0  0  0  0
  -27.7137  -14.2466   19.5878 H   0  0  0  0  0  0
  -28.6940  -11.9164   21.3090 H   0  0  0  0  0  0
  -28.4559  -13.5266   21.8932 H   0  0  0  0  0  0
  -25.2725   -9.5663   22.4774 H   0  0  0  0  0  0
  -23.9979   -7.4600   22.7441 H   0  0  0  0  0  0
  -21.0824   -8.8772   19.8934 H   0  0  0  0  0  0
  -22.3682  -10.9666   19.6165 H   0  0  0  0  0  0
  -21.1992   -7.6147   23.9735 H   0  0  0  0  0  0
  -21.1445   -6.0503   25.9086 H   0  0  0  0  0  0
  -22.0629   -2.7620   23.2835 H   0  0  0  0  0  0
  -22.4089  -11.9863   22.4744 H   0  0  0  0  0  0
  -21.1114  -13.1260   22.2605 H   0  0  0  0  0  0
  -24.6637  -15.8367   20.5082 H   0  0  0  0  0  0
  -26.2836  -15.6187   20.0852 H   0  0  0  0  0  0
  -26.7128  -32.5520   23.1163 H   0  0  0  0  0  0
  -25.0156  -33.9753   25.0546 H   0  0  0  0  0  0
  -22.6984  -31.3073   21.4056 H   0  0  0  0  0  0
  -23.3775  -35.9584   23.3247 H   0  0  0  0  0  0
  -24.3608  -36.8950   22.2067 H   0  0  0  0  0  0
  -23.7186  -37.6462   23.6683 H   0  0  0  0  0  0
  -26.0613  -31.5914   20.6037 H   0  0  0  0  0  0
  -26.8225  -30.8717   21.9934 H   0  0  0  0  0  0
  -28.1069  -29.0831   21.1826 H   0  0  0  0  0  0
  -26.0765  -25.9609   19.0187 H   0  0  0  0  0  0
  -23.9893  -27.2922   19.0220 H   0  0  0  0  0  0
  -23.7382  -30.5988   19.4046 H   0  0  0  0  0  0
  -22.7446  -29.2460   19.8588 H   0  0  0  0  0  0
  -25.1261  -36.1945   25.0845 H   0  0  0  0  0  0
  -20.9957  -28.3242   24.1410 H   0  0  0  0  0  0
  -20.5643  -26.2294   23.3589 H   0  0  0  0  0  0
  -21.6630  -26.7438   22.1206 H   0  0  0  0  0  0
  -19.6905  -25.6298   21.1221 H   0  0  0  0  0  0
  -19.6680  -27.3193   20.6722 H   0  0  0  0  0  0
  -17.4194  -26.6672   21.4003 H   0  0  0  0  0  0
  -18.0326  -26.0053   22.8991 H   0  0  0  0  0  0
  -19.7945  -30.7240   24.2263 H   0  0  0  0  0  0
  -17.5037  -31.6267   24.5164 H   0  0  0  0  0  0
  -15.5354  -30.2996   23.7662 H   0  0  0  0  0  0
  -15.8658  -28.0823   22.7075 H   0  0  0  0  0  0
  -24.5980  -30.6965   25.7832 H   0  0  0  0  0  0
  -24.8972  -32.2769   26.4989 H   0  0  0  0  0  0
  -25.8192  -30.8790   27.0210 H   0  0  0  0  0  0
  -26.2883  -29.6728   24.1245 H   0  0  0  0  0  0
  -27.4225  -29.7303   25.4543 H   0  0  0  0  0  0
  -27.8678  -30.4339   23.9187 H   0  0  0  0  0  0
  -27.2713  -33.3594   26.2065 H   0  0  0  0  0  0
  -28.3882  -32.6842   25.0292 H   0  0  0  0  0  0
  -28.0765  -31.8413   26.5376 H   0  0  0  0  0  0
  -28.2538  -38.0144   24.7631 H   0  0  0  0  0  0
  -28.1148  -36.2684   24.6115 H   0  0  0  0  0  0
  -27.2337  -37.1223   25.8864 H   0  0  0  0  0  0
  -20.9321  -29.8753   21.6898 H   0  0  0  0  0  0
  -26.0148  -38.2853   24.1528 H   0  0  0  0  0  0
  -31.3238  -19.8234   21.7414 H   0  0  0  0  0  0
  -31.7097  -17.4007   21.8832 H   0  0  0  0  0  0
  -27.9290  -16.6870   19.9543 H   0  0  0  0  0  0
  -30.1293  -22.0920   19.1923 H   0  0  0  0  0  0
  -28.5753  -21.4564   18.7388 H   0  0  0  0  0  0
  -29.8161  -21.4979   22.8631 H   0  0  0  0  0  0
  -30.8685  -22.1159   21.6096 H   0  0  0  0  0  0
  -27.3883  -23.2851   19.8835 H   0  0  0  0  0  0
  -28.5139  -23.9455   18.7324 H   0  0  0  0  0  0
  -29.7768  -23.9706   22.8491 H   0  0  0  0  0  0
  -28.2035  -23.2979   22.5330 H   0  0  0  0  0  0
  -27.9974  -21.2235   21.1913 H   0  0  0  0  0  0
  -30.0988  -24.5421   20.5005 H   0  0  0  0  0  0
  -28.6832  -26.0224   22.0284 H   0  0  0  0  0  0
  -27.2600  -25.3146   21.3303 H   0  0  0  0  0  0
  -26.7342  -18.5675   19.0570 H   0  0  0  0  0  0
  -27.1477  -20.1695   19.4170 H   0  0  0  0  0  0
  -29.0544  -15.0468   21.5402 H   0  0  0  0  0  0
  1 25  1  0  0  0
  1 30  2  0  0  0
  1 85  1  0  0  0
  2  3  1  0  0  0
  2 25  1  0  0  0
  2 86  1  0  0  0
  2 87  1  0  0  0
  3  4  1  0  0  0
  3 88  1  0  0  0
  3 89  1  0  0  0
  4  5  1  0  0  0
  4 90  1  0  0  0
  4 91  1  0  0  0
  5  6  1  0  0  0
  5 26  1  0  0  0
  5 92  1  0  0  0
  6 25  1  0  0  0
  6 93  1  0  0  0
  6 94  1  0  0  0
  7  8  2  0  0  0
  7 26  1  0  0  0
  7 29  1  0  0  0
  8  9  1  0  0  0
  8 22  1  0  0  0
  9 10  1  0  0  0
  9 27  2  0  0  0
 10 11  2  0  0  0
 10 15  1  0  0  0
 11 12  1  0  0  0
 11 95  1  0  0  0
 12 13  2  0  0  0
 12 96  1  0  0  0
 13 14  1  0  0  0
 13 31  1  0  0  0
 14 15  2  0  0  0
 14 97  1  0  0  0
 15 98  1  0  0  0
 16 17  2  0  0  0
 16 21  1  0  0  0
 16 31  1  0  0  0
 17 18  1  0  0  0
 17 99  1  0  0  0
 18 19  2  0  0  0
 18100  1  0  0  0
 19 20  1  0  0  0
 19 24  1  0  0  0
 20 21  2  0  0  0
 20101  1  0  0  0
 21 23  1  0  0  0
 22 28  1  0  0  0
 22 32  2  0  0  0
 26 27  1  0  0  0
 28102  1  0  0  0
 28103  1  0  0  0
 29104  1  0  0  0
 29105  1  0  0  0
 33 34  1  0  0  0
 33 66  1  0  0  0
 33 70  2  0  0  0
 34 36  1  0  0  0
 34 59  1  0  0  0
 34106  1  0  0  0
 35 44  2  0  0  0
 35 45  1  0  0  0
 35 68  1  0  0  0
 36 56  1  0  0  0
 36107  1  0  0  0
 37 39  1  0  0  0
 37 47  1  0  0  0
 37 66  1  0  0  0
 37108  1  0  0  0
 38 43  2  0  0  0
 38 46  1  0  0  0
 38 47  1  0  0  0
 39 64  1  0  0  0
 39 67  2  0  0  0
 40 52  1  0  0  0
 40 53  2  0  0  0
 40 58  1  0  0  0
 41109  1  0  0  0
 41110  1  0  0  0
 41111  1  0  0  0
 41 48  1  0  0  0
 42 43  1  0  0  0
 42 66  1  0  0  0
 42112  1  0  0  0
 42113  1  0  0  0
 43 44  1  0  0  0
 44114  1  0  0  0
 45 46  2  0  0  0
 45115  1  0  0  0
 46116  1  0  0  0
 47117  1  0  0  0
 47118  1  0  0  0
 48 56  1  0  0  0
 48 65  1  0  0  0
 48119  1  0  0  0
 49 50  1  0  0  0
 49 53  1  0  0  0
 49 64  1  0  0  0
 49120  1  0  0  0
 50 51  1  0  0  0
 50121  1  0  0  0
 50122  1  0  0  0
 51 52  1  0  0  0
 51123  1  0  0  0
 51124  1  0  0  0
 52125  1  0  0  0
 52126  1  0  0  0
 53 54  1  0  0  0
 54 55  2  0  0  0
 54127  1  0  0  0
 55 57  1  0  0  0
 55128  1  0  0  0
 56 69  2  0  0  0
 57 58  2  0  0  0
 57129  1  0  0  0
 58130  1  0  0  0
 59 60  1  0  0  0
 59 61  1  0  0  0
 59 62  1  0  0  0
 60131  1  0  0  0
 60132  1  0  0  0
 60133  1  0  0  0
 61134  1  0  0  0
 61135  1  0  0  0
 61136  1  0  0  0
 62137  1  0  0  0
 62138  1  0  0  0
 62139  1  0  0  0
 63 65  1  0  0  0
 63140  1  0  0  0
 63141  1  0  0  0
 63142  1  0  0  0
 64143  1  0  0  0
 65144  1  0  0  0
 68 83  1  0  0  0
 71 72  2  0  0  0
 71 74  1  0  0  0
 71145  1  0  0  0
 72 75  1  0  0  0
 72146  1  0  0  0
 73 75  2  0  0  0
 73 76  1  0  0  0
 73147  1  0  0  0
 74 76  2  0  0  0
 74 81  1  0  0  0
 75 85  1  0  0  0
 76 84  1  0  0  0
 77 79  1  0  0  0
 77 81  1  0  0  0
 77148  1  0  0  0
 77149  1  0  0  0
 78 80  1  0  0  0
 78 81  1  0  0  0
 78150  1  0  0  0
 78151  1  0  0  0
 79 82  1  0  0  0
 79152  1  0  0  0
 79153  1  0  0  0
 80 82  1  0  0  0
 80154  1  0  0  0
 80155  1  0  0  0
 81156  1  0  0  0
 82 83  1  0  0  0
 82157  1  0  0  0
 83158  1  0  0  0
 83159  1  0  0  0
 84160  1  0  0  0
 84161  1  0  0  0
 85162  1  0  0  0
M  ISO  4   1 100  68 101  83 101  85 100
M  END
> <chiral flag>
0

> <version>
0

> <s_m_source_file>
/data/baiqing/PycharmProjects/Reinvent-master-3.2/result/LINK_invent/BTK/process_docking_weight1_custom_product_contain_oxygen_bond_distance_aromatic_linkinvent_7_9_3/rearranged_h_0151.sdf

> <i_m_source_file_index>
19

> <r_mmod_Potential_Energy-OPLS-2005>
53.3319702148438

> <r_mmod_Stretch_Energy-OPLS-2005>
44.4559135437012

> <r_mmod_Bend_Energy-OPLS-2005>
110.154258728027

> <r_mmod_Torsional_Energy-OPLS-2005>
286.432739257812

> <r_mmod_Improper_Torsional_Energy-OPLS-2005>
8.50100135803223

> <r_mmod_Van_der_Waal_Energy-OPLS-2005>
146.813934326172

> <r_mmod_Electrostatic_Energy-OPLS-2005>
-354.018707275391

> <r_mmod_Solvation_Energy-OPLS-2005>
-205.50830078125

> <b_mmod_Minimization_Converged-OPLS-2005>
0

> <r_mmod_RMS_Derivative-OPLS-2005>
1.8278820514679

$$$$
19
                    3D
 Structure written by MMmdl.
157165  0  0  1  0            999 V2000
  -30.2873  -14.0540   21.1781 C   0  0  0  0  0  0
  -30.5145  -12.4543   19.2114 C   0  0  0  0  0  0
  -29.5878  -12.6616   17.9677 C   0  0  0  0  0  0
  -28.0607  -12.4798   18.2224 C   0  0  0  0  0  0
  -27.6376  -13.2185   19.5586 C   0  0  2  0  0  0
  -28.6000  -12.4739   20.5628 C   0  0  0  0  0  0
  -24.9072  -14.6562   21.0960 C   0  0  0  0  0  0
  -24.3416  -14.1404   21.2489 C   0  0  0  0  0  0
  -25.3259  -12.3052   20.4120 C   0  0  0  0  0  0
  -24.5475  -10.6048   20.5745 C   0  0  0  0  0  0
  -24.7452   -9.5878   21.6184 C   0  0  0  0  0  0
  -23.8788   -8.4594   21.9824 C   0  0  0  0  0  0
  -22.6656   -8.1728   21.3020 C   0  0  0  0  0  0
  -22.4029   -9.0731   20.2574 C   0  0  0  0  0  0
  -23.3238  -10.1239   19.8988 C   0  0  0  0  0  0
  -21.7850   -6.1806   22.5109 C   0  0  0  0  0  0
  -21.4828   -6.6350   23.8137 C   0  0  0  0  0  0
  -21.4000   -5.7259   24.8944 C   0  0  0  0  0  0
  -21.6134   -4.3494   24.6860 C   0  0  0  0  0  0
  -21.8795   -3.8793   23.3885 C   0  0  0  0  0  0
  -21.9514   -4.7833   22.3063 C   0  0  0  0  0  0
  -22.7874  -14.4909   21.7785 C   0  0  0  0  0  0
  -22.1716   -4.2908   21.0651 F   0  0  0  0  0  0
  -21.5503   -3.4824   25.7294 F   0  0  0  0  0  0
  -29.9093  -13.0110   20.4357 N   0  0  0  0  0  0
  -26.0974  -13.3047   20.1008 N   0  0  0  0  0  0
  -26.1813  -12.0817   19.8224 N   0  0  0  0  0  0
  -22.1145  -13.5696   22.4992 N   0  0  0  0  0  0
  -24.8253  -16.0415   21.5439 N   0  0  0  0  0  0
  -31.2600  -14.7413   20.7583 O   0  0  0  0  0  0
  -21.8176   -7.0539   21.4327 O   0  0  0  0  0  0
  -22.1052  -15.2478   21.1004 O   0  0  0  0  0  0
  -24.7119  -31.7685   23.1424 C   0  0  0  0  0  0
  -25.9615  -32.4282   23.7998 C   0  0  1  0  0  0
  -26.8203  -26.3179   20.1269 C   0  0  0  0  0  0
  -25.6105  -33.8162   24.1799 N   0  0  0  0  0  0
  -23.5200  -30.3967   21.5098 C   0  0  2  0  0  0
  -24.8880  -28.7129   20.0673 C   0  0  0  0  0  0
  -22.7782  -29.4158   22.4595 C   0  0  0  0  0  0
  -18.0327  -28.1429   22.8446 C   0  0  0  0  0  0
  -24.1471  -36.7061   23.2645 C   0  0  0  0  0  0
  -26.1070  -30.3440   21.4565 C   0  0  0  0  0  0
  -26.0827  -28.8970   20.7666 C   0  0  0  0  0  0
  -27.0525  -27.7235   20.7698 C   0  0  0  0  0  0
  -25.6686  -26.4582   19.3435 C   0  0  0  0  0  0
  -24.7525  -27.5384   19.3182 C   0  0  0  0  0  0
  -23.7589  -29.7531   20.1205 C   0  0  0  0  0  0
  -25.4145  -36.2789   24.0244 C   0  0  1  0  0  0
  -20.5946  -28.3768   23.1094 C   0  0  2  0  0  0
  -20.6770  -26.9417   22.5391 C   0  0  0  0  0  0
  -19.5767  -26.6349   21.5199 C   0  0  0  0  0  0
  -18.1951  -26.7955   22.1606 C   0  0  0  0  0  0
  -19.1596  -28.8927   23.2750 C   0  0  0  0  0  0
  -18.9517  -30.1494   23.8819 C   0  0  0  0  0  0
  -17.6519  -30.6612   24.0556 C   0  0  0  0  0  0
  -25.9195  -34.9207   23.4864 C   0  0  0  0  0  0
  -16.5397  -29.9099   23.6363 C   0  0  0  0  0  0
  -16.7307  -28.6515   23.0377 C   0  0  0  0  0  0
  -26.4684  -31.6489   25.0773 C   0  0  0  0  0  0
  -25.3672  -31.3945   26.1332 C   0  0  0  0  0  0
  -27.0650  -30.2784   24.6928 C   0  0  0  0  0  0
  -27.6032  -32.4463   25.7635 C   0  0  0  0  0  0
  -27.5551  -37.1665   24.8441 C   0  0  0  0  0  0
  -21.4395  -29.3015   22.3413 N   0  0  0  0  0  0
  -26.4204  -37.3612   23.9459 N   0  0  0  0  0  0
  -24.8141  -30.8783   22.0869 N   0  0  0  0  0  0
  -23.4160  -28.7720   23.2975 O   0  0  0  0  0  0
  -27.4039  -24.8137   20.1182 O   0  0  0  0  0  0
  -26.5858  -34.8842   22.4500 O   0  0  0  0  0  0
  -23.6117  -32.1046   23.6177 O   0  0  0  0  0  0
  -23.2158  -12.7251   20.1115 C   0  0  0  0  0  0
  -24.3052  -14.2893   18.9168 C   0  0  0  0  0  0
  -27.0834  -15.0363   21.2133 C   0  0  0  0  0  0
  -24.4367  -12.3384   22.3905 C   0  0  0  0  0  0
  -26.0602  -15.5985   19.4537 C   0  0  0  0  0  0
  -26.3441  -13.5029   22.4621 C   0  0  0  0  0  0
  -26.1514  -19.0315   19.6435 C   0  0  0  0  0  0
  -23.9905  -11.5441   23.5997 C   0  0  0  0  0  0
  -26.9775  -20.9007   19.6874 C   0  0  0  0  0  0
  -26.7354  -23.0437   19.7643 C   0  0  0  0  0  0
  -26.4411  -17.4363   19.2742 N   0  0  0  0  0  0
  -29.5015  -14.2886   22.4384 N   0  0  0  0  0  0
  -24.9946  -19.1616   20.0548 O   0  0  0  0  0  0
  -28.3728  -12.1575   23.8077 O   0  0  0  0  0  0
  -27.8149  -14.4949   24.5390 O   0  0  0  0  0  0
  -28.0170  -13.5451   23.4365 S   0  0  0  0  0  0
  -31.4877  -12.8971   19.0060 H   0  0  0  0  0  0
  -30.7124  -11.3905   19.3431 H   0  0  0  0  0  0
  -29.8968  -11.9769   17.1727 H   0  0  0  0  0  0
  -29.7695  -13.6653   17.5654 H   0  0  0  0  0  0
  -27.8845  -11.3981   18.2143 H   0  0  0  0  0  0
  -27.4669  -12.8536   17.3893 H   0  0  0  0  0  0
  -28.0129  -14.1927   19.2550 H   0  0  0  0  0  0
  -28.7077  -11.4362   20.2291 H   0  0  0  0  0  0
  -28.2354  -12.1495   21.5024 H   0  0  0  0  0  0
  -25.6166   -9.7232   22.2441 H   0  0  0  0  0  0
  -24.1760   -7.8277   22.8092 H   0  0  0  0  0  0
  -21.5448   -8.8917   19.6184 H   0  0  0  0  0  0
  -23.0560  -10.6224   18.9791 H   0  0  0  0  0  0
  -21.3120   -7.6867   23.9982 H   0  0  0  0  0  0
  -21.1812   -6.0784   25.8893 H   0  0  0  0  0  0
  -22.0193   -2.8249   23.2113 H   0  0  0  0  0  0
  -22.7037  -12.7891   22.7533 H   0  0  0  0  0  0
  -21.1620  -13.6293   22.8318 H   0  0  0  0  0  0
  -23.9825  -16.4584   21.9373 H   0  0  0  0  0  0
  -25.4644  -16.7486   21.2107 H   0  0  0  0  0  0
  -26.7714  -32.4571   23.0703 H   0  0  0  0  0  0
  -25.0130  -33.9202   24.9868 H   0  0  0  0  0  0
  -22.8636  -31.2534   21.3536 H   0  0  0  0  0  0
  -23.3797  -35.9306   23.3138 H   0  0  0  0  0  0
  -24.3545  -36.8933   22.2095 H   0  0  0  0  0  0
  -23.7155  -37.6137   23.6883 H   0  0  0  0  0  0
  -26.3862  -31.0526   20.6757 H   0  0  0  0  0  0
  -26.9451  -30.3503   22.1382 H   0  0  0  0  0  0
  -27.9341  -27.8310   21.3836 H   0  0  0  0  0  0
  -25.3692  -25.5866   18.7811 H   0  0  0  0  0  0
  -23.8682  -27.4239   18.7018 H   0  0  0  0  0  0
  -24.0034  -30.5482   19.4148 H   0  0  0  0  0  0
  -22.8362  -29.3058   19.7487 H   0  0  0  0  0  0
  -25.1342  -36.1466   25.0718 H   0  0  0  0  0  0
  -21.0038  -28.3416   24.1205 H   0  0  0  0  0  0
  -20.5590  -26.2418   23.3669 H   0  0  0  0  0  0
  -21.6637  -26.7323   22.1247 H   0  0  0  0  0  0
  -19.6929  -25.6226   21.1315 H   0  0  0  0  0  0
  -19.6736  -27.3085   20.6676 H   0  0  0  0  0  0
  -17.4209  -26.6658   21.4021 H   0  0  0  0  0  0
  -18.0349  -26.0114   22.9022 H   0  0  0  0  0  0
  -19.7992  -30.7306   24.2161 H   0  0  0  0  0  0
  -17.5081  -31.6294   24.5164 H   0  0  0  0  0  0
  -15.5397  -30.3006   23.7724 H   0  0  0  0  0  0
  -15.8684  -28.0825   22.7152 H   0  0  0  0  0  0
  -24.5912  -30.7207   25.7691 H   0  0  0  0  0  0
  -24.8816  -32.3211   26.4392 H   0  0  0  0  0  0
  -25.7789  -30.9416   27.0352 H   0  0  0  0  0  0
  -26.3330  -29.6239   24.2171 H   0  0  0  0  0  0
  -27.4165  -29.7445   25.5765 H   0  0  0  0  0  0
  -27.9325  -30.3837   24.0412 H   0  0  0  0  0  0
  -27.2469  -33.3854   26.1885 H   0  0  0  0  0  0
  -28.4020  -32.6878   25.0620 H   0  0  0  0  0  0
  -28.0499  -31.8855   26.5853 H   0  0  0  0  0  0
  -28.2389  -38.0121   24.7662 H   0  0  0  0  0  0
  -28.1215  -36.2665   24.6020 H   0  0  0  0  0  0
  -27.2326  -37.0991   25.8840 H   0  0  0  0  0  0
  -20.9658  -29.8819   21.6616 H   0  0  0  0  0  0
  -25.9972  -38.2584   24.1633 H   0  0  0  0  0  0
  -22.2355  -12.3557   19.8683 H   0  0  0  0  0  0
  -23.7563  -14.6230   18.0498 H   0  0  0  0  0  0
  -27.8631  -15.7048   21.5216 H   0  0  0  0  0  0
  -23.1480  -10.8962   23.3743 H   0  0  0  0  0  0
  -23.7311  -12.2390   24.4086 H   0  0  0  0  0  0
  -24.8338  -10.9265   23.9141 H   0  0  0  0  0  0
  -27.8232  -20.7553   19.0072 H   0  0  0  0  0  0
  -27.4176  -20.7595   20.6735 H   0  0  0  0  0  0
  -25.7526  -23.1646   20.2222 H   0  0  0  0  0  0
  -26.5475  -23.2450   18.7062 H   0  0  0  0  0  0
  -27.3608  -17.4935   18.8589 H   0  0  0  0  0  0
  -29.8670  -15.0505   23.0157 H   0  0  0  0  0  0
  1 25  1  0  0  0
  1 30  2  0  0  0
  1 82  1  0  0  0
  2  3  1  0  0  0
  2 25  1  0  0  0
  2 87  1  0  0  0
  2 88  1  0  0  0
  3  4  1  0  0  0
  3 89  1  0  0  0
  3 90  1  0  0  0
  4  5  1  0  0  0
  4 91  1  0  0  0
  4 92  1  0  0  0
  5  6  1  0  0  0
  5 26  1  0  0  0
  5 93  1  0  0  0
  6 25  1  0  0  0
  6 94  1  0  0  0
  6 95  1  0  0  0
  7  8  2  0  0  0
  7 26  1  0  0  0
  7 29  1  0  0  0
  8  9  1  0  0  0
  8 22  1  0  0  0
  9 10  1  0  0  0
  9 27  2  0  0  0
 10 11  2  0  0  0
 10 15  1  0  0  0
 11 12  1  0  0  0
 11 96  1  0  0  0
 12 13  2  0  0  0
 12 97  1  0  0  0
 13 14  1  0  0  0
 13 31  1  0  0  0
 14 15  2  0  0  0
 14 98  1  0  0  0
 15 99  1  0  0  0
 16 17  2  0  0  0
 16 21  1  0  0  0
 16 31  1  0  0  0
 17 18  1  0  0  0
 17100  1  0  0  0
 18 19  2  0  0  0
 18101  1  0  0  0
 19 20  1  0  0  0
 19 24  1  0  0  0
 20 21  2  0  0  0
 20102  1  0  0  0
 21 23  1  0  0  0
 22 28  1  0  0  0
 22 32  2  0  0  0
 26 27  1  0  0  0
 28103  1  0  0  0
 28104  1  0  0  0
 29105  1  0  0  0
 29106  1  0  0  0
 33 34  1  0  0  0
 33 66  1  0  0  0
 33 70  2  0  0  0
 34 36  1  0  0  0
 34 59  1  0  0  0
 34107  1  0  0  0
 35 44  2  0  0  0
 35 45  1  0  0  0
 35 68  1  0  0  0
 36 56  1  0  0  0
 36108  1  0  0  0
 37 39  1  0  0  0
 37 47  1  0  0  0
 37 66  1  0  0  0
 37109  1  0  0  0
 38 43  2  0  0  0
 38 46  1  0  0  0
 38 47  1  0  0  0
 39 64  1  0  0  0
 39 67  2  0  0  0
 40 52  1  0  0  0
 40 53  2  0  0  0
 40 58  1  0  0  0
 41110  1  0  0  0
 41111  1  0  0  0
 41112  1  0  0  0
 41 48  1  0  0  0
 42 43  1  0  0  0
 42 66  1  0  0  0
 42113  1  0  0  0
 42114  1  0  0  0
 43 44  1  0  0  0
 44115  1  0  0  0
 45 46  2  0  0  0
 45116  1  0  0  0
 46117  1  0  0  0
 47118  1  0  0  0
 47119  1  0  0  0
 48 56  1  0  0  0
 48 65  1  0  0  0
 48120  1  0  0  0
 49 50  1  0  0  0
 49 53  1  0  0  0
 49 64  1  0  0  0
 49121  1  0  0  0
 50 51  1  0  0  0
 50122  1  0  0  0
 50123  1  0  0  0
 51 52  1  0  0  0
 51124  1  0  0  0
 51125  1  0  0  0
 52126  1  0  0  0
 52127  1  0  0  0
 53 54  1  0  0  0
 54 55  2  0  0  0
 54128  1  0  0  0
 55 57  1  0  0  0
 55129  1  0  0  0
 56 69  2  0  0  0
 57 58  2  0  0  0
 57130  1  0  0  0
 58131  1  0  0  0
 59 60  1  0  0  0
 59 61  1  0  0  0
 59 62  1  0  0  0
 60132  1  0  0  0
 60133  1  0  0  0
 60134  1  0  0  0
 61135  1  0  0  0
 61136  1  0  0  0
 61137  1  0  0  0
 62138  1  0  0  0
 62139  1  0  0  0
 62140  1  0  0  0
 63 65  1  0  0  0
 63141  1  0  0  0
 63142  1  0  0  0
 63143  1  0  0  0
 64144  1  0  0  0
 65145  1  0  0  0
 68 80  1  0  0  0
 71 72  2  0  0  0
 71 74  1  0  0  0
 71146  1  0  0  0
 72 75  1  0  0  0
 72147  1  0  0  0
 73 75  2  0  0  0
 73 76  1  0  0  0
 73148  1  0  0  0
 74 76  2  0  0  0
 74 78  1  0  0  0
 75 81  1  0  0  0
 76 86  1  0  0  0
 77 79  1  0  0  0
 77 81  1  0  0  0
 77 83  2  0  0  0
 78149  1  0  0  0
 78150  1  0  0  0
 78151  1  0  0  0
 79 80  1  0  0  0
 79152  1  0  0  0
 79153  1  0  0  0
 80154  1  0  0  0
 80155  1  0  0  0
 81156  1  0  0  0
 82157  1  0  0  0
 82 86  1  0  0  0
 84 86  2  0  0  0
 85 86  2  0  0  0
M  ISO  4   1 100  68 101  80 101  82 100
M  END
> <chiral flag>
0

> <version>
0

> <s_m_source_file>
/data/baiqing/PycharmProjects/Reinvent-master-3.2/result/LINK_invent/BTK/process_docking_weight1_custom_product_contain_oxygen_bond_distance_aromatic_linkinvent_7_9_3/rearranged_h_0151.sdf

> <i_m_source_file_index>
20

> <r_mmod_Potential_Energy-OPLS-2005>
23007.64453125

> <r_mmod_Stretch_Energy-OPLS-2005>
14653.1552734375

> <r_mmod_Bend_Energy-OPLS-2005>
1692.70373535156

> <r_mmod_Torsional_Energy-OPLS-2005>
373.067016601562

> <r_mmod_Improper_Torsional_Energy-OPLS-2005>
42.2960166931152

> <r_mmod_Van_der_Waal_Energy-OPLS-2005>
4714.12255859375

> <r_mmod_Electrostatic_Energy-OPLS-2005>
-513.576904296875

> <r_mmod_Solvation_Energy-OPLS-2005>
-261.557708740234

> <b_mmod_Minimization_Converged-OPLS-2005>
0

> <r_mmod_RMS_Derivative-OPLS-2005>
23.7683887481689

$$$$
20
                    3D
 Structure written by MMmdl.
158167  0  0  1  0            999 V2000
  -30.6104  -14.6547   20.4948 C   0  0  0  0  0  0
  -30.4396  -12.3994   19.4568 C   0  0  0  0  0  0
  -29.5100  -12.5128   18.2275 C   0  0  0  0  0  0
  -28.0323  -12.3472   18.6369 C   0  0  0  0  0  0
  -27.6534  -13.2166   19.8654 C   0  0  2  0  0  0
  -28.6979  -13.0718   20.9956 C   0  0  0  0  0  0
  -25.2563  -13.8173   20.5686 C   0  0  0  0  0  0
  -24.1829  -13.0437   20.9189 C   0  0  0  0  0  0
  -24.6397  -11.6907   20.8739 C   0  0  0  0  0  0
  -23.9063  -10.4291   21.0405 C   0  0  0  0  0  0
  -24.3616   -9.4207   21.9182 C   0  0  0  0  0  0
  -23.6291   -8.2242   22.0755 C   0  0  0  0  0  0
  -22.4274   -8.0280   21.3544 C   0  0  0  0  0  0
  -21.9908   -9.0252   20.4645 C   0  0  0  0  0  0
  -22.7236  -10.2132   20.3053 C   0  0  0  0  0  0
  -21.6852   -6.0735   22.5279 C   0  0  0  0  0  0
  -21.4013   -6.5640   23.8212 C   0  0  0  0  0  0
  -21.3661   -5.6792   24.9175 C   0  0  0  0  0  0
  -21.6044   -4.3055   24.7224 C   0  0  0  0  0  0
  -21.8821   -3.8147   23.4346 C   0  0  0  0  0  0
  -21.9192   -4.6963   22.3402 C   0  0  0  0  0  0
  -22.7851  -13.5227   21.1852 C   0  0  0  0  0  0
  -22.1661   -4.2149   21.0978 F   0  0  0  0  0  0
  -21.5630   -3.4540   25.7738 F   0  0  0  0  0  0
  -30.0128  -13.4211   20.4341 N   0  0  0  0  0  0
  -26.2990  -12.9350   20.3327 N   0  0  0  0  0  0
  -25.9326  -11.6505   20.5760 N   0  0  0  0  0  0
  -22.0493  -12.8219   22.0409 N   0  0  0  0  0  0
  -25.4274  -15.1895   20.4097 N   0  0  0  0  0  0
  -31.7723  -14.8175   20.1096 O   0  0  0  0  0  0
  -21.6637   -6.8879   21.4242 O   0  0  0  0  0  0
  -22.3537  -14.5535   20.6705 O   0  0  0  0  0  0
  -24.6261  -31.8594   23.2021 C   0  0  0  0  0  0
  -25.9108  -32.4776   23.8357 C   0  0  1  0  0  0
  -27.2266  -27.3226   20.1259 C   0  0  0  0  0  0
  -25.5924  -33.8577   24.2282 N   0  0  0  0  0  0
  -23.4207  -30.4813   21.5439 C   0  0  2  0  0  0
  -24.8701  -28.9344   20.1120 C   0  0  0  0  0  0
  -22.7475  -29.4620   22.4934 C   0  0  0  0  0  0
  -18.0286  -28.1387   22.8489 C   0  0  0  0  0  0
  -24.1489  -36.7289   23.2641 C   0  0  0  0  0  0
  -25.9609  -30.7919   21.3728 C   0  0  0  0  0  0
  -26.0383  -29.4188   20.7163 C   0  0  0  0  0  0
  -27.2236  -28.6249   20.7116 C   0  0  0  0  0  0
  -26.0419  -26.8887   19.4954 C   0  0  0  0  0  0
  -24.8731  -27.6743   19.4919 C   0  0  0  0  0  0
  -23.6368  -29.8136   20.1601 C   0  0  0  0  0  0
  -25.4115  -36.3080   24.0331 C   0  0  1  0  0  0
  -20.5887  -28.3694   23.1279 C   0  0  2  0  0  0
  -20.6775  -26.9416   22.5412 C   0  0  0  0  0  0
  -19.5749  -26.6386   21.5214 C   0  0  0  0  0  0
  -18.1929  -26.7932   22.1623 C   0  0  0  0  0  0
  -19.1540  -28.8858   23.2880 C   0  0  0  0  0  0
  -18.9462  -30.1459   23.8899 C   0  0  0  0  0  0
  -17.6462  -30.6591   24.0565 C   0  0  0  0  0  0
  -25.9048  -34.9449   23.5105 C   0  0  0  0  0  0
  -16.5353  -29.9089   23.6332 C   0  0  0  0  0  0
  -16.7274  -28.6504   23.0358 C   0  0  0  0  0  0
  -26.4499  -31.6587   25.0726 C   0  0  0  0  0  0
  -25.3737  -31.3711   26.1451 C   0  0  0  0  0  0
  -27.0351  -30.3014   24.6179 C   0  0  0  0  0  0
  -27.6058  -32.4324   25.7495 C   0  0  0  0  0  0
  -27.5581  -37.1798   24.8465 C   0  0  0  0  0  0
  -21.4190  -29.3042   22.3671 N   0  0  0  0  0  0
  -26.4292  -37.3776   23.9409 N   0  0  0  0  0  0
  -24.6878  -31.0607   22.0967 N   0  0  0  0  0  0
  -23.4193  -28.8167   23.3025 O   0  0  0  0  0  0
  -28.3246  -26.4536   20.1486 O   0  0  0  0  0  0
  -26.5615  -34.8916   22.4672 O   0  0  0  0  0  0
  -23.5423  -32.1390   23.7346 O   0  0  0  0  0  0
  -30.8506  -19.2837   19.8686 C   0  0  0  0  0  0
  -28.6834  -19.3654   20.8929 C   0  0  0  0  0  0
  -30.9077  -17.8678   20.0523 C   0  0  0  0  0  0
  -28.7390  -17.9483   21.0793 C   0  0  0  0  0  0
  -29.7427  -20.0804   20.2782 C   0  0  0  0  0  0
  -29.8444  -17.1510   20.6623 C   0  0  0  0  0  0
  -28.7099  -23.8329   20.2674 C   0  0  0  0  0  0
  -29.1671  -22.7274   20.9251 C   0  0  0  0  0  0
  -28.7601  -23.5872   18.7763 C   0  0  0  0  0  0
  -29.1328  -22.0779   18.6317 C   0  0  0  0  0  0
  -29.7307  -21.6365   19.9859 C   0  0  2  0  0  0
  -29.2575  -22.5353   22.4262 C   0  0  0  0  0  0
  -28.1113  -25.1669   20.8509 C   0  0  0  0  0  0
  -29.7924  -15.6959   20.8606 N   0  0  0  0  0  0
  -31.4814  -12.5260   19.1567 H   0  0  0  0  0  0
  -30.3749  -11.4040   19.8988 H   0  0  0  0  0  0
  -29.7771  -11.7638   17.4810 H   0  0  0  0  0  0
  -29.6508  -13.4837   17.7495 H   0  0  0  0  0  0
  -27.8687  -11.2935   18.8662 H   0  0  0  0  0  0
  -27.3789  -12.5787   17.7950 H   0  0  0  0  0  0
  -27.6707  -14.2519   19.5252 H   0  0  0  0  0  0
  -28.7119  -12.0492   21.3757 H   0  0  0  0  0  0
  -28.4407  -13.7006   21.8496 H   0  0  0  0  0  0
  -25.2762   -9.5683   22.4753 H   0  0  0  0  0  0
  -24.0003   -7.4633   22.7474 H   0  0  0  0  0  0
  -21.0841   -8.8769   19.8947 H   0  0  0  0  0  0
  -22.3696  -10.9670   19.6160 H   0  0  0  0  0  0
  -21.2006   -7.6148   23.9716 H   0  0  0  0  0  0
  -21.1482   -6.0522   25.9076 H   0  0  0  0  0  0
  -22.0599   -2.7608   23.2847 H   0  0  0  0  0  0
  -22.4110  -11.9878   22.4792 H   0  0  0  0  0  0
  -21.1113  -13.1246   22.2619 H   0  0  0  0  0  0
  -24.6561  -15.8409   20.5070 H   0  0  0  0  0  0
  -26.2708  -15.6264   20.0609 H   0  0  0  0  0  0
  -26.7177  -32.5450   23.1108 H   0  0  0  0  0  0
  -25.0082  -33.9727   25.0433 H   0  0  0  0  0  0
  -22.7143  -31.3013   21.3992 H   0  0  0  0  0  0
  -23.3753  -35.9619   23.3302 H   0  0  0  0  0  0
  -24.3579  -36.8914   22.2055 H   0  0  0  0  0  0
  -23.7235  -37.6490   23.6664 H   0  0  0  0  0  0
  -26.0910  -31.5561   20.6053 H   0  0  0  0  0  0
  -26.8409  -30.8413   22.0026 H   0  0  0  0  0  0
  -28.1214  -28.9905   21.1902 H   0  0  0  0  0  0
  -26.0152  -25.9190   19.0178 H   0  0  0  0  0  0
  -23.9781  -27.2973   19.0159 H   0  0  0  0  0  0
  -23.7548  -30.5893   19.4025 H   0  0  0  0  0  0
  -22.7575  -29.2416   19.8591 H   0  0  0  0  0  0
  -25.1296  -36.1935   25.0824 H   0  0  0  0  0  0
  -20.9979  -28.3275   24.1399 H   0  0  0  0  0  0
  -20.5677  -26.2307   23.3613 H   0  0  0  0  0  0
  -21.6644  -26.7445   22.1203 H   0  0  0  0  0  0
  -19.6911  -25.6295   21.1246 H   0  0  0  0  0  0
  -19.6689  -27.3195   20.6740 H   0  0  0  0  0  0
  -17.4201  -26.6689   21.4022 H   0  0  0  0  0  0
  -18.0323  -26.0073   22.9015 H   0  0  0  0  0  0
  -19.7937  -30.7274   24.2271 H   0  0  0  0  0  0
  -17.5016  -31.6270   24.5166 H   0  0  0  0  0  0
  -15.5352  -30.2991   23.7654 H   0  0  0  0  0  0
  -15.8674  -28.0819   22.7079 H   0  0  0  0  0  0
  -24.5922  -30.7049   25.7777 H   0  0  0  0  0  0
  -24.8915  -32.2868   26.4881 H   0  0  0  0  0  0
  -25.8069  -30.8889   27.0223 H   0  0  0  0  0  0
  -26.2927  -29.6748   24.1218 H   0  0  0  0  0  0
  -27.4072  -29.7282   25.4683 H   0  0  0  0  0  0
  -27.8785  -30.4307   23.9391 H   0  0  0  0  0  0
  -27.2673  -33.3628   26.2068 H   0  0  0  0  0  0
  -28.3870  -32.6879   25.0323 H   0  0  0  0  0  0
  -28.0725  -31.8453   26.5415 H   0  0  0  0  0  0
  -28.2592  -38.0101   24.7521 H   0  0  0  0  0  0
  -28.1084  -36.2631   24.6283 H   0  0  0  0  0  0
  -27.2298  -37.1438   25.8868 H   0  0  0  0  0  0
  -20.9370  -29.8754   21.6871 H   0  0  0  0  0  0
  -26.0175  -38.2850   24.1417 H   0  0  0  0  0  0
  -31.6873  -19.7655   19.3820 H   0  0  0  0  0  0
  -27.8031  -19.9016   21.2185 H   0  0  0  0  0  0
  -31.7836  -17.3416   19.7009 H   0  0  0  0  0  0
  -27.8917  -17.4683   21.5492 H   0  0  0  0  0  0
  -29.5159  -24.2354   18.3315 H   0  0  0  0  0  0
  -27.7996  -23.8097   18.3101 H   0  0  0  0  0  0
  -29.8059  -21.8858   17.7953 H   0  0  0  0  0  0
  -28.2201  -21.5096   18.4471 H   0  0  0  0  0  0
  -30.7907  -21.8951   19.9531 H   0  0  0  0  0  0
  -28.7955  -23.3548   22.9746 H   0  0  0  0  0  0
  -30.3023  -22.4677   22.7304 H   0  0  0  0  0  0
  -28.7577  -21.6142   22.7240 H   0  0  0  0  0  0
  -28.4992  -25.3006   21.8601 H   0  0  0  0  0  0
  -27.0459  -24.9768   20.9851 H   0  0  0  0  0  0
  -28.9119  -15.3647   21.2232 H   0  0  0  0  0  0
  1 25  1  0  0  0
  1 30  2  0  0  0
  1 84  1  0  0  0
  2  3  1  0  0  0
  2 25  1  0  0  0
  2 85  1  0  0  0
  2 86  1  0  0  0
  3  4  1  0  0  0
  3 87  1  0  0  0
  3 88  1  0  0  0
  4  5  1  0  0  0
  4 89  1  0  0  0
  4 90  1  0  0  0
  5  6  1  0  0  0
  5 26  1  0  0  0
  5 91  1  0  0  0
  6 25  1  0  0  0
  6 92  1  0  0  0
  6 93  1  0  0  0
  7  8  2  0  0  0
  7 26  1  0  0  0
  7 29  1  0  0  0
  8  9  1  0  0  0
  8 22  1  0  0  0
  9 10  1  0  0  0
  9 27  2  0  0  0
 10 11  2  0  0  0
 10 15  1  0  0  0
 11 12  1  0  0  0
 11 94  1  0  0  0
 12 13  2  0  0  0
 12 95  1  0  0  0
 13 14  1  0  0  0
 13 31  1  0  0  0
 14 15  2  0  0  0
 14 96  1  0  0  0
 15 97  1  0  0  0
 16 17  2  0  0  0
 16 21  1  0  0  0
 16 31  1  0  0  0
 17 18  1  0  0  0
 17 98  1  0  0  0
 18 19  2  0  0  0
 18 99  1  0  0  0
 19 20  1  0  0  0
 19 24  1  0  0  0
 20 21  2  0  0  0
 20100  1  0  0  0
 21 23  1  0  0  0
 22 28  1  0  0  0
 22 32  2  0  0  0
 26 27  1  0  0  0
 28101  1  0  0  0
 28102  1  0  0  0
 29103  1  0  0  0
 29104  1  0  0  0
 33 34  1  0  0  0
 33 66  1  0  0  0
 33 70  2  0  0  0
 34 36  1  0  0  0
 34 59  1  0  0  0
 34105  1  0  0  0
 35 44  2  0  0  0
 35 45  1  0  0  0
 35 68  1  0  0  0
 36 56  1  0  0  0
 36106  1  0  0  0
 37 39  1  0  0  0
 37 47  1  0  0  0
 37 66  1  0  0  0
 37107  1  0  0  0
 38 43  2  0  0  0
 38 46  1  0  0  0
 38 47  1  0  0  0
 39 64  1  0  0  0
 39 67  2  0  0  0
 40 52  1  0  0  0
 40 53  2  0  0  0
 40 58  1  0  0  0
 41108  1  0  0  0
 41109  1  0  0  0
 41110  1  0  0  0
 41 48  1  0  0  0
 42 43  1  0  0  0
 42 66  1  0  0  0
 42111  1  0  0  0
 42112  1  0  0  0
 43 44  1  0  0  0
 44113  1  0  0  0
 45 46  2  0  0  0
 45114  1  0  0  0
 46115  1  0  0  0
 47116  1  0  0  0
 47117  1  0  0  0
 48 56  1  0  0  0
 48 65  1  0  0  0
 48118  1  0  0  0
 49 50  1  0  0  0
 49 53  1  0  0  0
 49 64  1  0  0  0
 49119  1  0  0  0
 50 51  1  0  0  0
 50120  1  0  0  0
 50121  1  0  0  0
 51 52  1  0  0  0
 51122  1  0  0  0
 51123  1  0  0  0
 52124  1  0  0  0
 52125  1  0  0  0
 53 54  1  0  0  0
 54 55  2  0  0  0
 54126  1  0  0  0
 55 57  1  0  0  0
 55127  1  0  0  0
 56 69  2  0  0  0
 57 58  2  0  0  0
 57128  1  0  0  0
 58129  1  0  0  0
 59 60  1  0  0  0
 59 61  1  0  0  0
 59 62  1  0  0  0
 60130  1  0  0  0
 60131  1  0  0  0
 60132  1  0  0  0
 61133  1  0  0  0
 61134  1  0  0  0
 61135  1  0  0  0
 62136  1  0  0  0
 62137  1  0  0  0
 62138  1  0  0  0
 63 65  1  0  0  0
 63139  1  0  0  0
 63140  1  0  0  0
 63141  1  0  0  0
 64142  1  0  0  0
 65143  1  0  0  0
 68 83  1  0  0  0
 71 73  2  0  0  0
 71 75  1  0  0  0
 71144  1  0  0  0
 72 74  1  0  0  0
 72 75  2  0  0  0
 72145  1  0  0  0
 73 76  1  0  0  0
 73146  1  0  0  0
 74 76  2  0  0  0
 74147  1  0  0  0
 75 81  1  0  0  0
 76 84  1  0  0  0
 77 78  2  0  0  0
 77 79  1  0  0  0
 77 83  1  0  0  0
 78 81  1  0  0  0
 78 82  1  0  0  0
 79 80  1  0  0  0
 79148  1  0  0  0
 79149  1  0  0  0
 80 81  1  0  0  0
 80150  1  0  0  0
 80151  1  0  0  0
 81152  1  0  0  0
 82153  1  0  0  0
 82154  1  0  0  0
 82155  1  0  0  0
 83156  1  0  0  0
 83157  1  0  0  0
 84158  1  0  0  0
M  ISO  4   1 100  68 101  83 101  84 100
M  END
> <chiral flag>
0

> <version>
0

> <s_m_source_file>
/data/baiqing/PycharmProjects/Reinvent-master-3.2/result/LINK_invent/BTK/process_docking_weight1_custom_product_contain_oxygen_bond_distance_aromatic_linkinvent_7_9_3/rearranged_h_0151.sdf

> <i_m_source_file_index>
21

> <r_mmod_Potential_Energy-OPLS-2005>
149.7705078125

> <r_mmod_Stretch_Energy-OPLS-2005>
77.8709945678711

> <r_mmod_Bend_Energy-OPLS-2005>
195.575103759766

> <r_mmod_Torsional_Energy-OPLS-2005>
245.311264038086

> <r_mmod_Improper_Torsional_Energy-OPLS-2005>
4.02527523040771

> <r_mmod_Van_der_Waal_Energy-OPLS-2005>
132.267822265625

> <r_mmod_Electrostatic_Energy-OPLS-2005>
-361.582702636719

> <r_mmod_Solvation_Energy-OPLS-2005>
-194.891906738281

> <b_mmod_Minimization_Converged-OPLS-2005>
0

> <r_mmod_RMS_Derivative-OPLS-2005>
0.560765981674194

$$$$
21
                    3D
 Structure written by MMmdl.
163172  0  0  1  0            999 V2000
  -30.5209  -14.8085   20.4432 C   0  0  0  0  0  0
  -30.4556  -12.4934   19.4651 C   0  0  0  0  0  0
  -29.5179  -12.5084   18.2350 C   0  0  0  0  0  0
  -28.0450  -12.3113   18.6535 C   0  0  0  0  0  0
  -27.6397  -13.2166   19.8455 C   0  0  2  0  0  0
  -28.6872  -13.1479   20.9774 C   0  0  0  0  0  0
  -25.2515  -13.8162   20.5686 C   0  0  0  0  0  0
  -24.1796  -13.0422   20.9213 C   0  0  0  0  0  0
  -24.6364  -11.6893   20.8758 C   0  0  0  0  0  0
  -23.9024  -10.4283   21.0418 C   0  0  0  0  0  0
  -24.3586   -9.4200   21.9197 C   0  0  0  0  0  0
  -23.6271   -8.2227   22.0757 C   0  0  0  0  0  0
  -22.4259   -8.0264   21.3537 C   0  0  0  0  0  0
  -21.9883   -9.0233   20.4646 C   0  0  0  0  0  0
  -22.7202  -10.2119   20.3056 C   0  0  0  0  0  0
  -21.6845   -6.0718   22.5277 C   0  0  0  0  0  0
  -21.4014   -6.5628   23.8208 C   0  0  0  0  0  0
  -21.3657   -5.6780   24.9178 C   0  0  0  0  0  0
  -21.6042   -4.3042   24.7226 C   0  0  0  0  0  0
  -21.8824   -3.8130   23.4348 C   0  0  0  0  0  0
  -21.9194   -4.6943   22.3406 C   0  0  0  0  0  0
  -22.7819  -13.5216   21.1875 C   0  0  0  0  0  0
  -22.1664   -4.2126   21.0982 F   0  0  0  0  0  0
  -21.5627   -3.4526   25.7737 F   0  0  0  0  0  0
  -29.9775  -13.5409   20.3939 N   0  0  0  0  0  0
  -26.2914  -12.9328   20.3241 N   0  0  0  0  0  0
  -25.9284  -11.6496   20.5739 N   0  0  0  0  0  0
  -22.0447  -12.8216   22.0429 N   0  0  0  0  0  0
  -25.4197  -15.1888   20.4098 N   0  0  0  0  0  0
  -31.7198  -14.9773   20.1952 O   0  0  0  0  0  0
  -21.6630   -6.8856   21.4238 O   0  0  0  0  0  0
  -22.3508  -14.5519   20.6711 O   0  0  0  0  0  0
  -24.6336  -31.8525   23.1937 C   0  0  0  0  0  0
  -25.9137  -32.4747   23.8305 C   0  0  1  0  0  0
  -27.2223  -27.2334   20.1385 C   0  0  0  0  0  0
  -25.5932  -33.8556   24.2228 N   0  0  0  0  0  0
  -23.4356  -30.4713   21.5368 C   0  0  2  0  0  0
  -24.8847  -28.9111   20.1104 C   0  0  0  0  0  0
  -22.7537  -29.4567   22.4874 C   0  0  0  0  0  0
  -18.0305  -28.1409   22.8505 C   0  0  0  0  0  0
  -24.1478  -36.7262   23.2639 C   0  0  0  0  0  0
  -25.9812  -30.7545   21.3773 C   0  0  0  0  0  0
  -26.0560  -29.3734   20.7231 C   0  0  0  0  0  0
  -27.2314  -28.5494   20.7228 C   0  0  0  0  0  0
  -26.0312  -26.8469   19.4907 C   0  0  0  0  0  0
  -24.8768  -27.6571   19.4813 C   0  0  0  0  0  0
  -23.6595  -29.8049   20.1535 C   0  0  0  0  0  0
  -25.4103  -36.3063   24.0333 C   0  0  1  0  0  0
  -20.5918  -28.3703   23.1278 C   0  0  2  0  0  0
  -20.6798  -26.9421   22.5415 C   0  0  0  0  0  0
  -19.5764  -26.6401   21.5233 C   0  0  0  0  0  0
  -18.1943  -26.7954   22.1640 C   0  0  0  0  0  0
  -19.1565  -28.8874   23.2889 C   0  0  0  0  0  0
  -18.9474  -30.1473   23.8904 C   0  0  0  0  0  0
  -17.6463  -30.6607   24.0565 C   0  0  0  0  0  0
  -25.9053  -34.9439   23.5077 C   0  0  0  0  0  0
  -16.5360  -29.9104   23.6340 C   0  0  0  0  0  0
  -16.7294  -28.6526   23.0368 C   0  0  0  0  0  0
  -26.4505  -31.6595   25.0706 C   0  0  0  0  0  0
  -25.3724  -31.3770   26.1427 C   0  0  0  0  0  0
  -27.0338  -30.3013   24.6175 C   0  0  0  0  0  0
  -27.6045  -32.4354   25.7489 C   0  0  0  0  0  0
  -27.5569  -37.1783   24.8465 C   0  0  0  0  0  0
  -21.4235  -29.3046   22.3653 N   0  0  0  0  0  0
  -26.4266  -37.3776   23.9431 N   0  0  0  0  0  0
  -24.7028  -31.0445   22.0927 N   0  0  0  0  0  0
  -23.4219  -28.8105   23.2992 O   0  0  0  0  0  0
  -28.3070  -26.3182   20.1571 O   0  0  0  0  0  0
  -26.5620  -34.8921   22.4641 O   0  0  0  0  0  0
  -23.5472  -32.1359   23.7205 O   0  0  0  0  0  0
  -29.7196  -18.4632   20.1767 C   0  0  0  0  0  0
  -29.1098  -19.6617   20.8241 C   0  0  0  0  0  0
  -28.4743  -19.2920   21.9961 C   0  0  0  0  0  0
  -29.4980  -17.2090   20.8076 C   0  0  0  0  0  0
  -28.2116  -22.0965   20.3379 C   0  0  0  0  0  0
  -30.2007  -23.2773   20.0594 C   0  0  0  0  0  0
  -30.4206  -21.7347   19.9434 C   0  0  0  0  0  0
  -28.6934  -23.5414   19.8582 C   0  0  1  0  0  0
  -28.3564  -23.6640   18.3591 C   0  0  0  0  0  0
  -28.0724  -24.8782   20.5890 C   0  0  0  0  0  0
  -27.7722  -20.1516   23.0232 C   0  0  2  0  0  0
  -29.1776  -21.1018   20.3746 N   0  0  0  0  0  0
  -27.9778  -19.6725   24.3846 N   0  0  0  0  0  0
  -29.5871  -15.8469   20.4362 N   0  0  0  0  0  0
  -26.3345  -20.2675   22.7235 N   0  3  0  0  0  0
  -27.0275  -21.8999   20.6256 O   0  0  0  0  0  0
  -28.5674  -17.5471   22.2515 S   0  0  0  0  0  0
  -31.4869  -12.6714   19.1545 H   0  0  0  0  0  0
  -30.4481  -11.5167   19.9517 H   0  0  0  0  0  0
  -29.8154  -11.7356   17.5250 H   0  0  0  0  0  0
  -29.6201  -13.4596   17.7099 H   0  0  0  0  0  0
  -27.9198  -11.2646   18.9335 H   0  0  0  0  0  0
  -27.3809  -12.4810   17.8052 H   0  0  0  0  0  0
  -27.6269  -14.2326   19.4529 H   0  0  0  0  0  0
  -28.7434  -12.1402   21.3910 H   0  0  0  0  0  0
  -28.4100  -13.8034   21.8057 H   0  0  0  0  0  0
  -25.2738   -9.5681   22.4761 H   0  0  0  0  0  0
  -23.9988   -7.4616   22.7467 H   0  0  0  0  0  0
  -21.0812   -8.8739   19.8948 H   0  0  0  0  0  0
  -22.3663  -10.9648   19.6146 H   0  0  0  0  0  0
  -21.2010   -7.6138   23.9706 H   0  0  0  0  0  0
  -21.1475   -6.0513   25.9077 H   0  0  0  0  0  0
  -22.0606   -2.7588   23.2850 H   0  0  0  0  0  0
  -22.4033  -11.9861   22.4818 H   0  0  0  0  0  0
  -21.1056  -13.1244   22.2620 H   0  0  0  0  0  0
  -24.6388  -15.8291   20.5054 H   0  0  0  0  0  0
  -26.2431  -15.6298   20.0227 H   0  0  0  0  0  0
  -26.7188  -32.5378   23.1032 H   0  0  0  0  0  0
  -25.0157  -33.9697   25.0426 H   0  0  0  0  0  0
  -22.7343  -31.2940   21.3855 H   0  0  0  0  0  0
  -23.3770  -35.9564   23.3290 H   0  0  0  0  0  0
  -24.3577  -36.8894   22.2055 H   0  0  0  0  0  0
  -23.7191  -37.6442   23.6671 H   0  0  0  0  0  0
  -26.1140  -31.5087   20.6016 H   0  0  0  0  0  0
  -26.8614  -30.8113   22.0064 H   0  0  0  0  0  0
  -28.1280  -28.8999   21.2143 H   0  0  0  0  0  0
  -25.9827  -25.8902   18.9922 H   0  0  0  0  0  0
  -23.9834  -27.3008   18.9861 H   0  0  0  0  0  0
  -23.7939  -30.5800   19.3987 H   0  0  0  0  0  0
  -22.7773  -29.2421   19.8448 H   0  0  0  0  0  0
  -25.1287  -36.1901   25.0830 H   0  0  0  0  0  0
  -21.0020  -28.3264   24.1395 H   0  0  0  0  0  0
  -20.5712  -26.2310   23.3622 H   0  0  0  0  0  0
  -21.6654  -26.7458   22.1180 H   0  0  0  0  0  0
  -19.6915  -25.6314   21.1260 H   0  0  0  0  0  0
  -19.6699  -27.3216   20.6770 H   0  0  0  0  0  0
  -17.4226  -26.6732   21.4032 H   0  0  0  0  0  0
  -18.0299  -26.0093   22.9029 H   0  0  0  0  0  0
  -19.7939  -30.7299   24.2271 H   0  0  0  0  0  0
  -17.5019  -31.6286   24.5169 H   0  0  0  0  0  0
  -15.5351  -30.3005   23.7664 H   0  0  0  0  0  0
  -15.8702  -28.0846   22.7071 H   0  0  0  0  0  0
  -24.5904  -30.7106   25.7773 H   0  0  0  0  0  0
  -24.8910  -32.2949   26.4810 H   0  0  0  0  0  0
  -25.8041  -30.8997   27.0231 H   0  0  0  0  0  0
  -26.2902  -29.6779   24.1186 H   0  0  0  0  0  0
  -27.4022  -29.7263   25.4678 H   0  0  0  0  0  0
  -27.8797  -30.4314   23.9419 H   0  0  0  0  0  0
  -27.2657  -33.3701   26.1979 H   0  0  0  0  0  0
  -28.3910  -32.6838   25.0352 H   0  0  0  0  0  0
  -28.0642  -31.8527   26.5482 H   0  0  0  0  0  0
  -28.2568  -38.0099   24.7553 H   0  0  0  0  0  0
  -28.1086  -36.2632   24.6251 H   0  0  0  0  0  0
  -27.2304  -37.1377   25.8871 H   0  0  0  0  0  0
  -20.9411  -29.8786   21.6879 H   0  0  0  0  0  0
  -26.0143  -38.2843   24.1483 H   0  0  0  0  0  0
  -30.2360  -18.5669   19.2332 H   0  0  0  0  0  0
  -30.8272  -23.8288   19.3576 H   0  0  0  0  0  0
  -30.4904  -23.5983   21.0616 H   0  0  0  0  0  0
  -31.2646  -21.4012   20.5501 H   0  0  0  0  0  0
  -30.6197  -21.4504   18.9087 H   0  0  0  0  0  0
  -28.7478  -22.8296   17.7755 H   0  0  0  0  0  0
  -28.7753  -24.5787   17.9370 H   0  0  0  0  0  0
  -27.2768  -23.6978   18.2060 H   0  0  0  0  0  0
  -28.4049  -24.8449   21.6268 H   0  0  0  0  0  0
  -26.9973  -24.7155   20.6690 H   0  0  0  0  0  0
  -28.1949  -21.1566   22.9918 H   0  0  0  0  0  0
  -27.1057  -19.5937   24.8926 H   0  0  0  0  0  0
  -28.4835  -20.3909   24.8910 H   0  0  0  0  0  0
  -28.6808  -15.4093   20.4821 H   0  0  0  0  0  0
  -25.8861  -19.3733   22.6352 H   0  0  0  0  0  0
  -26.2572  -20.7482   21.8333 H   0  0  0  0  0  0
  -25.8438  -20.8335   23.3925 H   0  0  0  0  0  0
  1 25  1  0  0  0
  1 30  2  0  0  0
  1 84  1  0  0  0
  2  3  1  0  0  0
  2 25  1  0  0  0
  2 88  1  0  0  0
  2 89  1  0  0  0
  3  4  1  0  0  0
  3 90  1  0  0  0
  3 91  1  0  0  0
  4  5  1  0  0  0
  4 92  1  0  0  0
  4 93  1  0  0  0
  5  6  1  0  0  0
  5 26  1  0  0  0
  5 94  1  0  0  0
  6 25  1  0  0  0
  6 95  1  0  0  0
  6 96  1  0  0  0
  7  8  2  0  0  0
  7 26  1  0  0  0
  7 29  1  0  0  0
  8  9  1  0  0  0
  8 22  1  0  0  0
  9 10  1  0  0  0
  9 27  2  0  0  0
 10 11  2  0  0  0
 10 15  1  0  0  0
 11 12  1  0  0  0
 11 97  1  0  0  0
 12 13  2  0  0  0
 12 98  1  0  0  0
 13 14  1  0  0  0
 13 31  1  0  0  0
 14 15  2  0  0  0
 14 99  1  0  0  0
 15100  1  0  0  0
 16 17  2  0  0  0
 16 21  1  0  0  0
 16 31  1  0  0  0
 17 18  1  0  0  0
 17101  1  0  0  0
 18 19  2  0  0  0
 18102  1  0  0  0
 19 20  1  0  0  0
 19 24  1  0  0  0
 20 21  2  0  0  0
 20103  1  0  0  0
 21 23  1  0  0  0
 22 28  1  0  0  0
 22 32  2  0  0  0
 26 27  1  0  0  0
 28104  1  0  0  0
 28105  1  0  0  0
 29106  1  0  0  0
 29107  1  0  0  0
 33 34  1  0  0  0
 33 66  1  0  0  0
 33 70  2  0  0  0
 34 36  1  0  0  0
 34 59  1  0  0  0
 34108  1  0  0  0
 35 44  2  0  0  0
 35 45  1  0  0  0
 35 68  1  0  0  0
 36 56  1  0  0  0
 36109  1  0  0  0
 37 39  1  0  0  0
 37 47  1  0  0  0
 37 66  1  0  0  0
 37110  1  0  0  0
 38 43  2  0  0  0
 38 46  1  0  0  0
 38 47  1  0  0  0
 39 64  1  0  0  0
 39 67  2  0  0  0
 40 52  1  0  0  0
 40 53  2  0  0  0
 40 58  1  0  0  0
 41111  1  0  0  0
 41112  1  0  0  0
 41113  1  0  0  0
 41 48  1  0  0  0
 42 43  1  0  0  0
 42 66  1  0  0  0
 42114  1  0  0  0
 42115  1  0  0  0
 43 44  1  0  0  0
 44116  1  0  0  0
 45 46  2  0  0  0
 45117  1  0  0  0
 46118  1  0  0  0
 47119  1  0  0  0
 47120  1  0  0  0
 48 56  1  0  0  0
 48 65  1  0  0  0
 48121  1  0  0  0
 49 50  1  0  0  0
 49 53  1  0  0  0
 49 64  1  0  0  0
 49122  1  0  0  0
 50 51  1  0  0  0
 50123  1  0  0  0
 50124  1  0  0  0
 51 52  1  0  0  0
 51125  1  0  0  0
 51126  1  0  0  0
 52127  1  0  0  0
 52128  1  0  0  0
 53 54  1  0  0  0
 54 55  2  0  0  0
 54129  1  0  0  0
 55 57  1  0  0  0
 55130  1  0  0  0
 56 69  2  0  0  0
 57 58  2  0  0  0
 57131  1  0  0  0
 58132  1  0  0  0
 59 60  1  0  0  0
 59 61  1  0  0  0
 59 62  1  0  0  0
 60133  1  0  0  0
 60134  1  0  0  0
 60135  1  0  0  0
 61136  1  0  0  0
 61137  1  0  0  0
 61138  1  0  0  0
 62139  1  0  0  0
 62140  1  0  0  0
 62141  1  0  0  0
 63 65  1  0  0  0
 63142  1  0  0  0
 63143  1  0  0  0
 63144  1  0  0  0
 64145  1  0  0  0
 65146  1  0  0  0
 68 80  1  0  0  0
 71 72  1  0  0  0
 71 74  2  0  0  0
 71147  1  0  0  0
 72 73  2  0  0  0
 72 82  1  0  0  0
 73 81  1  0  0  0
 73 87  1  0  0  0
 74 84  1  0  0  0
 74 87  1  0  0  0
 75 78  1  0  0  0
 75 82  1  0  0  0
 75 86  2  0  0  0
 76 77  1  0  0  0
 76 78  1  0  0  0
 76148  1  0  0  0
 76149  1  0  0  0
 77 82  1  0  0  0
 77150  1  0  0  0
 77151  1  0  0  0
 78 79  1  0  0  0
 78 80  1  0  0  0
 79152  1  0  0  0
 79153  1  0  0  0
 79154  1  0  0  0
 80155  1  0  0  0
 80156  1  0  0  0
 81 83  1  0  0  0
 81 85  1  0  0  0
 81157  1  0  0  0
 83158  1  0  0  0
 83159  1  0  0  0
 84160  1  0  0  0
 85161  1  0  0  0
 85162  1  0  0  0
 85163  1  0  0  0
M  CHG  1  85   1
M  ISO  4   1 100  68 101  80 101  84 100
M  END
> <chiral flag>
0

> <version>
0

> <s_m_source_file>
/data/baiqing/PycharmProjects/Reinvent-master-3.2/result/LINK_invent/BTK/process_docking_weight1_custom_product_contain_oxygen_bond_distance_aromatic_linkinvent_7_9_3/rearranged_h_0151.sdf

> <i_m_source_file_index>
22

> <r_mmod_Potential_Energy-OPLS-2005>
111.201850891113

> <r_mmod_Stretch_Energy-OPLS-2005>
141.877243041992

> <r_mmod_Bend_Energy-OPLS-2005>
240.831237792969

> <r_mmod_Torsional_Energy-OPLS-2005>
322.487518310547

> <r_mmod_Improper_Torsional_Energy-OPLS-2005>
12.5809211730957

> <r_mmod_Van_der_Waal_Energy-OPLS-2005>
111.96955871582

> <r_mmod_Electrostatic_Energy-OPLS-2005>
-340.414764404297

> <r_mmod_Solvation_Energy-OPLS-2005>
-492.154357910156

> <b_mmod_Minimization_Converged-OPLS-2005>
0

> <r_mmod_RMS_Derivative-OPLS-2005>
2.35211849212646

$$$$
22
                    3D
 Structure written by MMmdl.
154163  0  0  1  0            999 V2000
  -30.6180  -14.8006   20.4264 C   0  0  0  0  0  0
  -30.4301  -12.4864   19.4889 C   0  0  0  0  0  0
  -29.5171  -12.5149   18.2438 C   0  0  0  0  0  0
  -28.0422  -12.3364   18.6534 C   0  0  0  0  0  0
  -27.6398  -13.2445   19.8466 C   0  0  2  0  0  0
  -28.6844  -13.2176   20.9844 C   0  0  0  0  0  0
  -25.2503  -13.8213   20.5707 C   0  0  0  0  0  0
  -24.1802  -13.0448   20.9216 C   0  0  0  0  0  0
  -24.6402  -11.6932   20.8746 C   0  0  0  0  0  0
  -23.9076  -10.4308   21.0399 C   0  0  0  0  0  0
  -24.3624   -9.4220   21.9173 C   0  0  0  0  0  0
  -23.6300   -8.2253   22.0744 C   0  0  0  0  0  0
  -22.4281   -8.0288   21.3539 C   0  0  0  0  0  0
  -21.9922   -9.0260   20.4642 C   0  0  0  0  0  0
  -22.7250  -10.2143   20.3050 C   0  0  0  0  0  0
  -21.6854   -6.0740   22.5274 C   0  0  0  0  0  0
  -21.4015   -6.5637   23.8211 C   0  0  0  0  0  0
  -21.3663   -5.6789   24.9170 C   0  0  0  0  0  0
  -21.6045   -4.3049   24.7219 C   0  0  0  0  0  0
  -21.8819   -3.8143   23.4341 C   0  0  0  0  0  0
  -21.9195   -4.6963   22.3400 C   0  0  0  0  0  0
  -22.7825  -13.5227   21.1861 C   0  0  0  0  0  0
  -22.1664   -4.2148   21.0978 F   0  0  0  0  0  0
  -21.5635   -3.4534   25.7735 F   0  0  0  0  0  0
  -29.9816  -13.5732   20.3969 N   0  0  0  0  0  0
  -26.2940  -12.9443   20.3276 N   0  0  0  0  0  0
  -25.9340  -11.6571   20.5739 N   0  0  0  0  0  0
  -22.0463  -12.8226   22.0412 N   0  0  0  0  0  0
  -25.4188  -15.1940   20.4134 N   0  0  0  0  0  0
  -31.8188  -14.8351   20.1463 O   0  0  0  0  0  0
  -21.6642   -6.8886   21.4239 O   0  0  0  0  0  0
  -22.3520  -14.5527   20.6695 O   0  0  0  0  0  0
  -24.6350  -31.8513   23.1939 C   0  0  0  0  0  0
  -25.9163  -32.4725   23.8310 C   0  0  1  0  0  0
  -27.2274  -27.2287   20.1237 C   0  0  0  0  0  0
  -25.5949  -33.8531   24.2239 N   0  0  0  0  0  0
  -23.4350  -30.4723   21.5368 C   0  0  2  0  0  0
  -24.8837  -28.9137   20.1059 C   0  0  0  0  0  0
  -22.7533  -29.4584   22.4880 C   0  0  0  0  0  0
  -18.0300  -28.1388   22.8478 C   0  0  0  0  0  0
  -24.1497  -36.7270   23.2641 C   0  0  0  0  0  0
  -25.9830  -30.7529   21.3794 C   0  0  0  0  0  0
  -26.0562  -29.3729   20.7188 C   0  0  0  0  0  0
  -27.2269  -28.5418   20.7188 C   0  0  0  0  0  0
  -26.0260  -26.8439   19.4856 C   0  0  0  0  0  0
  -24.8760  -27.6585   19.4786 C   0  0  0  0  0  0
  -23.6559  -29.8033   20.1540 C   0  0  0  0  0  0
  -25.4120  -36.3049   24.0328 C   0  0  1  0  0  0
  -20.5906  -28.3707   23.1249 C   0  0  2  0  0  0
  -20.6780  -26.9419   22.5399 C   0  0  0  0  0  0
  -19.5757  -26.6380   21.5205 C   0  0  0  0  0  0
  -18.1940  -26.7932   22.1619 C   0  0  0  0  0  0
  -19.1551  -28.8864   23.2861 C   0  0  0  0  0  0
  -18.9474  -30.1458   23.8884 C   0  0  0  0  0  0
  -17.6472  -30.6587   24.0557 C   0  0  0  0  0  0
  -25.9063  -34.9424   23.5084 C   0  0  0  0  0  0
  -16.5363  -29.9081   23.6329 C   0  0  0  0  0  0
  -16.7284  -28.6499   23.0351 C   0  0  0  0  0  0
  -26.4519  -31.6559   25.0716 C   0  0  0  0  0  0
  -25.3738  -31.3719   26.1435 C   0  0  0  0  0  0
  -27.0369  -30.2964   24.6237 C   0  0  0  0  0  0
  -27.6072  -32.4306   25.7494 C   0  0  0  0  0  0
  -27.5578  -37.1792   24.8463 C   0  0  0  0  0  0
  -21.4231  -29.3048   22.3631 N   0  0  0  0  0  0
  -26.4284  -37.3756   23.9412 N   0  0  0  0  0  0
  -24.7035  -31.0451   22.0926 N   0  0  0  0  0  0
  -23.4212  -28.8129   23.2997 O   0  0  0  0  0  0
  -28.3106  -26.3096   20.2209 O   0  0  0  0  0  0
  -26.5640  -34.8907   22.4657 O   0  0  0  0  0  0
  -23.5491  -32.1349   23.7208 O   0  0  0  0  0  0
  -29.4043  -18.6123   20.5757 C   0  0  0  0  0  0
  -30.7928  -20.0910   19.2327 C   0  0  0  0  0  0
  -31.2385  -17.6721   19.2972 C   0  0  0  0  0  0
  -29.6920  -19.9789   20.1083 C   0  0  0  0  0  0
  -30.1655  -17.4126   20.1850 C   0  0  0  0  0  0
  -31.5466  -18.9689   18.8404 C   0  0  0  0  0  0
  -28.6523  -23.7450   20.2129 C   0  0  0  0  0  0
  -28.2686  -24.9802   19.6780 C   0  0  0  0  0  0
  -29.1529  -23.4444   21.6063 C   0  0  0  0  0  0
  -28.6547  -22.3304   19.5247 C   0  0  0  0  0  0
  -29.5969  -21.9410   21.6265 C   0  0  0  0  0  0
  -29.0058  -21.2191   20.4887 N   0  0  0  0  0  0
  -29.8769  -15.9828   20.5915 N   0  0  0  0  0  0
  -32.5972  -19.1414   18.0013 F   0  0  0  0  0  0
  -31.4736  -12.5989   19.1885 H   0  0  0  0  0  0
  -30.3712  -11.5201   19.9918 H   0  0  0  0  0  0
  -29.8088  -11.7323   17.5418 H   0  0  0  0  0  0
  -29.6411  -13.4616   17.7160 H   0  0  0  0  0  0
  -27.9012  -11.2884   18.9203 H   0  0  0  0  0  0
  -27.3880  -12.5224   17.8006 H   0  0  0  0  0  0
  -27.6218  -14.2598   19.4486 H   0  0  0  0  0  0
  -28.7330  -12.2326   21.4523 H   0  0  0  0  0  0
  -28.4112  -13.9218   21.7721 H   0  0  0  0  0  0
  -25.2763   -9.5696   22.4750 H   0  0  0  0  0  0
  -24.0004   -7.4650   22.7466 H   0  0  0  0  0  0
  -21.0850   -8.8783   19.8962 H   0  0  0  0  0  0
  -22.3698  -10.9678   19.6162 H   0  0  0  0  0  0
  -21.2004   -7.6146   23.9714 H   0  0  0  0  0  0
  -21.1488   -6.0516   25.9077 H   0  0  0  0  0  0
  -22.0596   -2.7605   23.2833 H   0  0  0  0  0  0
  -22.4079  -11.9896   22.4818 H   0  0  0  0  0  0
  -21.1074  -13.1252   22.2591 H   0  0  0  0  0  0
  -24.6470  -15.8439   20.5171 H   0  0  0  0  0  0
  -26.2609  -15.6345   20.0651 H   0  0  0  0  0  0
  -26.7237  -32.5370   23.1055 H   0  0  0  0  0  0
  -25.0097  -33.9663   25.0386 H   0  0  0  0  0  0
  -22.7329  -31.2946   21.3861 H   0  0  0  0  0  0
  -23.3758  -35.9601   23.3289 H   0  0  0  0  0  0
  -24.3589  -36.8904   22.2054 H   0  0  0  0  0  0
  -23.7248  -37.6469   23.6673 H   0  0  0  0  0  0
  -26.1300  -31.5129   20.6104 H   0  0  0  0  0  0
  -26.8570  -30.8001   22.0179 H   0  0  0  0  0  0
  -28.1219  -28.8837   21.2198 H   0  0  0  0  0  0
  -25.9373  -25.8755   19.0164 H   0  0  0  0  0  0
  -23.9765  -27.2990   18.9979 H   0  0  0  0  0  0
  -23.7842  -30.5765   19.3957 H   0  0  0  0  0  0
  -22.7741  -29.2371   19.8490 H   0  0  0  0  0  0
  -25.1303  -36.1887   25.0821 H   0  0  0  0  0  0
  -21.0007  -28.3295   24.1367 H   0  0  0  0  0  0
  -20.5662  -26.2331   23.3617 H   0  0  0  0  0  0
  -21.6653  -26.7431   22.1206 H   0  0  0  0  0  0
  -19.6919  -25.6287   21.1244 H   0  0  0  0  0  0
  -19.6687  -27.3182   20.6728 H   0  0  0  0  0  0
  -17.4210  -26.6678   21.4019 H   0  0  0  0  0  0
  -18.0341  -26.0070   22.9013 H   0  0  0  0  0  0
  -19.7950  -30.7274   24.2254 H   0  0  0  0  0  0
  -17.5027  -31.6265   24.5160 H   0  0  0  0  0  0
  -15.5361  -30.2978   23.7653 H   0  0  0  0  0  0
  -15.8690  -28.0808   22.7074 H   0  0  0  0  0  0
  -24.5924  -30.7052   25.7768 H   0  0  0  0  0  0
  -24.8914  -32.2883   26.4843 H   0  0  0  0  0  0
  -25.8054  -30.8915   27.0225 H   0  0  0  0  0  0
  -26.2958  -29.6695   24.1259 H   0  0  0  0  0  0
  -27.4024  -29.7249   25.4781 H   0  0  0  0  0  0
  -27.8856  -30.4213   23.9506 H   0  0  0  0  0  0
  -27.2683  -33.3617   26.2049 H   0  0  0  0  0  0
  -28.3895  -32.6843   25.0329 H   0  0  0  0  0  0
  -28.0728  -31.8443   26.5426 H   0  0  0  0  0  0
  -28.2587  -38.0098   24.7516 H   0  0  0  0  0  0
  -28.1085  -36.2631   24.6279 H   0  0  0  0  0  0
  -27.2306  -37.1426   25.8868 H   0  0  0  0  0  0
  -20.9427  -29.8779   21.6837 H   0  0  0  0  0  0
  -26.0159  -38.2830   24.1401 H   0  0  0  0  0  0
  -28.5717  -18.4851   21.2534 H   0  0  0  0  0  0
  -31.0973  -21.0562   18.8569 H   0  0  0  0  0  0
  -31.8607  -16.8762   18.9213 H   0  0  0  0  0  0
  -27.9428  -25.0171   18.6479 H   0  0  0  0  0  0
  -28.3291  -23.6025   22.3025 H   0  0  0  0  0  0
  -29.9629  -24.1161   21.8919 H   0  0  0  0  0  0
  -29.3497  -22.3568   18.6854 H   0  0  0  0  0  0
  -27.6668  -22.1422   19.1023 H   0  0  0  0  0  0
  -29.3213  -21.4675   22.5706 H   0  0  0  0  0  0
  -30.6856  -21.8884   21.5559 H   0  0  0  0  0  0
  -28.9469  -15.8254   20.9477 H   0  0  0  0  0  0
  1 25  1  0  0  0
  1 30  2  0  0  0
  1 83  1  0  0  0
  2  3  1  0  0  0
  2 25  1  0  0  0
  2 85  1  0  0  0
  2 86  1  0  0  0
  3  4  1  0  0  0
  3 87  1  0  0  0
  3 88  1  0  0  0
  4  5  1  0  0  0
  4 89  1  0  0  0
  4 90  1  0  0  0
  5  6  1  0  0  0
  5 26  1  0  0  0
  5 91  1  0  0  0
  6 25  1  0  0  0
  6 92  1  0  0  0
  6 93  1  0  0  0
  7  8  2  0  0  0
  7 26  1  0  0  0
  7 29  1  0  0  0
  8  9  1  0  0  0
  8 22  1  0  0  0
  9 10  1  0  0  0
  9 27  2  0  0  0
 10 11  2  0  0  0
 10 15  1  0  0  0
 11 12  1  0  0  0
 11 94  1  0  0  0
 12 13  2  0  0  0
 12 95  1  0  0  0
 13 14  1  0  0  0
 13 31  1  0  0  0
 14 15  2  0  0  0
 14 96  1  0  0  0
 15 97  1  0  0  0
 16 17  2  0  0  0
 16 21  1  0  0  0
 16 31  1  0  0  0
 17 18  1  0  0  0
 17 98  1  0  0  0
 18 19  2  0  0  0
 18 99  1  0  0  0
 19 20  1  0  0  0
 19 24  1  0  0  0
 20 21  2  0  0  0
 20100  1  0  0  0
 21 23  1  0  0  0
 22 28  1  0  0  0
 22 32  2  0  0  0
 26 27  1  0  0  0
 28101  1  0  0  0
 28102  1  0  0  0
 29103  1  0  0  0
 29104  1  0  0  0
 33 34  1  0  0  0
 33 66  1  0  0  0
 33 70  2  0  0  0
 34 36  1  0  0  0
 34 59  1  0  0  0
 34105  1  0  0  0
 35 44  2  0  0  0
 35 45  1  0  0  0
 35 68  1  0  0  0
 36 56  1  0  0  0
 36106  1  0  0  0
 37 39  1  0  0  0
 37 47  1  0  0  0
 37 66  1  0  0  0
 37107  1  0  0  0
 38 43  2  0  0  0
 38 46  1  0  0  0
 38 47  1  0  0  0
 39 64  1  0  0  0
 39 67  2  0  0  0
 40 52  1  0  0  0
 40 53  2  0  0  0
 40 58  1  0  0  0
 41108  1  0  0  0
 41109  1  0  0  0
 41110  1  0  0  0
 41 48  1  0  0  0
 42 43  1  0  0  0
 42 66  1  0  0  0
 42111  1  0  0  0
 42112  1  0  0  0
 43 44  1  0  0  0
 44113  1  0  0  0
 45 46  2  0  0  0
 45114  1  0  0  0
 46115  1  0  0  0
 47116  1  0  0  0
 47117  1  0  0  0
 48 56  1  0  0  0
 48 65  1  0  0  0
 48118  1  0  0  0
 49 50  1  0  0  0
 49 53  1  0  0  0
 49 64  1  0  0  0
 49119  1  0  0  0
 50 51  1  0  0  0
 50120  1  0  0  0
 50121  1  0  0  0
 51 52  1  0  0  0
 51122  1  0  0  0
 51123  1  0  0  0
 52124  1  0  0  0
 52125  1  0  0  0
 53 54  1  0  0  0
 54 55  2  0  0  0
 54126  1  0  0  0
 55 57  1  0  0  0
 55127  1  0  0  0
 56 69  2  0  0  0
 57 58  2  0  0  0
 57128  1  0  0  0
 58129  1  0  0  0
 59 60  1  0  0  0
 59 61  1  0  0  0
 59 62  1  0  0  0
 60130  1  0  0  0
 60131  1  0  0  0
 60132  1  0  0  0
 61133  1  0  0  0
 61134  1  0  0  0
 61135  1  0  0  0
 62136  1  0  0  0
 62137  1  0  0  0
 62138  1  0  0  0
 63 65  1  0  0  0
 63139  1  0  0  0
 63140  1  0  0  0
 63141  1  0  0  0
 64142  1  0  0  0
 65143  1  0  0  0
 68 78  1  0  0  0
 71 74  2  0  0  0
 71 75  1  0  0  0
 71144  1  0  0  0
 72 74  1  0  0  0
 72 76  2  0  0  0
 72145  1  0  0  0
 73 75  2  0  0  0
 73 76  1  0  0  0
 73146  1  0  0  0
 74 82  1  0  0  0
 75 83  1  0  0  0
 76 84  1  0  0  0
 77 78  2  0  0  0
 77 79  1  0  0  0
 77 80  1  0  0  0
 78147  1  0  0  0
 79 81  1  0  0  0
 79148  1  0  0  0
 79149  1  0  0  0
 80 82  1  0  0  0
 80150  1  0  0  0
 80151  1  0  0  0
 81 82  1  0  0  0
 81152  1  0  0  0
 81153  1  0  0  0
 83154  1  0  0  0
M  ISO  4   1 100  68 101  78 101  83 100
M  END
> <chiral flag>
0

> <version>
0

> <s_m_source_file>
/data/baiqing/PycharmProjects/Reinvent-master-3.2/result/LINK_invent/BTK/process_docking_weight1_custom_product_contain_oxygen_bond_distance_aromatic_linkinvent_7_9_3/rearranged_h_0151.sdf

> <i_m_source_file_index>
23

> <r_mmod_Potential_Energy-OPLS-2005>
316.026245117188

> <r_mmod_Stretch_Energy-OPLS-2005>
143.226623535156

> <r_mmod_Bend_Energy-OPLS-2005>
197.0732421875

> <r_mmod_Torsional_Energy-OPLS-2005>
262.226257324219

> <r_mmod_Improper_Torsional_Energy-OPLS-2005>
9.44891929626465

> <r_mmod_Van_der_Waal_Energy-OPLS-2005>
139.074951171875

> <r_mmod_Electrostatic_Energy-OPLS-2005>
-322.344451904297

> <r_mmod_Solvation_Energy-OPLS-2005>
-223.49870300293

> <b_mmod_Minimization_Converged-OPLS-2005>
0

> <r_mmod_RMS_Derivative-OPLS-2005>
1.43954408168793

$$$$
23
                    3D
 Structure written by MMmdl.
151159  0  0  1  0            999 V2000
  -30.6789  -14.7141   20.5558 C   0  0  0  0  0  0
  -30.4246  -12.4565   19.4955 C   0  0  0  0  0  0
  -29.5080  -12.5409   18.2555 C   0  0  0  0  0  0
  -28.0359  -12.3549   18.6631 C   0  0  0  0  0  0
  -27.6460  -13.2419   19.8763 C   0  0  2  0  0  0
  -28.6884  -13.1555   21.0179 C   0  0  0  0  0  0
  -25.2335  -13.8106   20.5460 C   0  0  0  0  0  0
  -24.1708  -13.0337   20.9069 C   0  0  0  0  0  0
  -24.6403  -11.6863   20.8740 C   0  0  0  0  0  0
  -23.9104  -10.4241   21.0402 C   0  0  0  0  0  0
  -24.3645   -9.4163   21.9187 C   0  0  0  0  0  0
  -23.6304   -8.2216   22.0757 C   0  0  0  0  0  0
  -22.4281   -8.0269   21.3547 C   0  0  0  0  0  0
  -21.9919   -9.0236   20.4644 C   0  0  0  0  0  0
  -22.7274  -10.2099   20.3049 C   0  0  0  0  0  0
  -21.6844   -6.0729   22.5281 C   0  0  0  0  0  0
  -21.4012   -6.5636   23.8212 C   0  0  0  0  0  0
  -21.3652   -5.6789   24.9177 C   0  0  0  0  0  0
  -21.6042   -4.3051   24.7222 C   0  0  0  0  0  0
  -21.8822   -3.8143   23.4344 C   0  0  0  0  0  0
  -21.9194   -4.6961   22.3403 C   0  0  0  0  0  0
  -22.7739  -13.5105   21.1796 C   0  0  0  0  0  0
  -22.1658   -4.2153   21.0975 F   0  0  0  0  0  0
  -21.5632   -3.4530   25.7734 F   0  0  0  0  0  0
  -30.0093  -13.5040   20.4652 N   0  0  0  0  0  0
  -26.2946  -12.9441   20.3427 N   0  0  0  0  0  0
  -25.9379  -11.6560   20.5901 N   0  0  0  0  0  0
  -22.0461  -12.8087   22.0402 N   0  0  0  0  0  0
  -25.3639  -15.1770   20.3509 N   0  0  0  0  0  0
  -31.7541  -14.8645   19.9676 O   0  0  0  0  0  0
  -21.6640   -6.8869   21.4242 O   0  0  0  0  0  0
  -22.3397  -14.5446   20.6729 O   0  0  0  0  0  0
  -24.6312  -31.8560   23.1980 C   0  0  0  0  0  0
  -25.9137  -32.4756   23.8331 C   0  0  1  0  0  0
  -27.2272  -27.2558   20.1407 C   0  0  0  0  0  0
  -25.5933  -33.8562   24.2256 N   0  0  0  0  0  0
  -23.4309  -30.4759   21.5419 C   0  0  2  0  0  0
  -24.8818  -28.9237   20.1140 C   0  0  0  0  0  0
  -22.7518  -29.4597   22.4919 C   0  0  0  0  0  0
  -18.0292  -28.1398   22.8474 C   0  0  0  0  0  0
  -24.1492  -36.7287   23.2634 C   0  0  0  0  0  0
  -25.9774  -30.7673   21.3802 C   0  0  0  0  0  0
  -26.0534  -29.3874   20.7263 C   0  0  0  0  0  0
  -27.2303  -28.5676   20.7269 C   0  0  0  0  0  0
  -26.0364  -26.8739   19.4813 C   0  0  0  0  0  0
  -24.8802  -27.6755   19.4774 C   0  0  0  0  0  0
  -23.6504  -29.8083   20.1590 C   0  0  0  0  0  0
  -25.4119  -36.3075   24.0322 C   0  0  1  0  0  0
  -20.5899  -28.3713   23.1265 C   0  0  2  0  0  0
  -20.6792  -26.9428   22.5405 C   0  0  0  0  0  0
  -19.5765  -26.6395   21.5214 C   0  0  0  0  0  0
  -18.1946  -26.7927   22.1622 C   0  0  0  0  0  0
  -19.1551  -28.8873   23.2856 C   0  0  0  0  0  0
  -18.9460  -30.1465   23.8893 C   0  0  0  0  0  0
  -17.6456  -30.6592   24.0561 C   0  0  0  0  0  0
  -25.9065  -34.9442   23.5089 C   0  0  0  0  0  0
  -16.5351  -29.9089   23.6326 C   0  0  0  0  0  0
  -16.7275  -28.6502   23.0346 C   0  0  0  0  0  0
  -26.4502  -31.6574   25.0712 C   0  0  0  0  0  0
  -25.3721  -31.3729   26.1427 C   0  0  0  0  0  0
  -27.0346  -30.2987   24.6196 C   0  0  0  0  0  0
  -27.6062  -32.4317   25.7494 C   0  0  0  0  0  0
  -27.5579  -37.1801   24.8466 C   0  0  0  0  0  0
  -21.4218  -29.3060   22.3661 N   0  0  0  0  0  0
  -26.4293  -37.3768   23.9406 N   0  0  0  0  0  0
  -24.6987  -31.0516   22.0968 N   0  0  0  0  0  0
  -23.4202  -28.8133   23.3021 O   0  0  0  0  0  0
  -28.3084  -26.3398   20.1966 O   0  0  0  0  0  0
  -26.5638  -34.8924   22.4660 O   0  0  0  0  0  0
  -23.5459  -32.1378   23.7267 O   0  0  0  0  0  0
  -30.2486  -18.5143   20.7434 C   0  0  0  0  0  0
  -29.5854  -17.2414   21.0959 C   0  0  0  0  0  0
  -29.4205  -19.6594   20.6787 C   0  0  0  0  0  0
  -28.2438  -17.4790   21.3079 C   0  0  0  0  0  0
  -30.1992  -15.8679   21.5344 C   0  0  0  0  0  0
  -29.0737  -23.7382   20.3451 C   0  0  0  0  0  0
  -28.6628  -22.1925   20.5322 C   0  0  0  0  0  0
  -27.9587  -24.8884   20.4438 C   0  0  0  0  0  0
  -30.3249  -15.6644   22.7826 N   0  0  0  0  0  0
  -27.2798  -16.6326   21.8395 N   0  0  0  0  0  0
  -29.6974  -21.0747   20.4596 N   0  0  0  0  0  0
  -30.2567  -24.0234   20.1270 O   0  0  0  0  0  0
  -27.7785  -19.1419   20.9767 S   0  0  0  0  0  0
  -31.4696  -12.5556   19.2007 H   0  0  0  0  0  0
  -30.3520  -11.4703   19.9566 H   0  0  0  0  0  0
  -29.7905  -11.7853   17.5221 H   0  0  0  0  0  0
  -29.6374  -13.5081   17.7667 H   0  0  0  0  0  0
  -27.8934  -11.3035   18.9154 H   0  0  0  0  0  0
  -27.3781  -12.5535   17.8169 H   0  0  0  0  0  0
  -27.6441  -14.2723   19.5187 H   0  0  0  0  0  0
  -28.4010  -13.8193   21.8326 H   0  0  0  0  0  0
  -28.7093  -12.1534   21.4472 H   0  0  0  0  0  0
  -25.2785   -9.5633   22.4767 H   0  0  0  0  0  0
  -24.0000   -7.4604   22.7475 H   0  0  0  0  0  0
  -21.0846   -8.8771   19.8946 H   0  0  0  0  0  0
  -22.3743  -10.9646   19.6159 H   0  0  0  0  0  0
  -21.2004   -7.6143   23.9707 H   0  0  0  0  0  0
  -21.1463   -6.0523   25.9079 H   0  0  0  0  0  0
  -22.0607   -2.7603   23.2847 H   0  0  0  0  0  0
  -22.4126  -11.9746   22.4746 H   0  0  0  0  0  0
  -21.1116  -13.1113   22.2721 H   0  0  0  0  0  0
  -24.5664  -15.7531   20.5906 H   0  0  0  0  0  0
  -26.2377  -15.6335   20.6346 H   0  0  0  0  0  0
  -26.7208  -32.5417   23.1080 H   0  0  0  0  0  0
  -25.0090  -33.9708   25.0410 H   0  0  0  0  0  0
  -22.7273  -31.2970   21.3928 H   0  0  0  0  0  0
  -23.3756  -35.9615   23.3300 H   0  0  0  0  0  0
  -24.3579  -36.8905   22.2045 H   0  0  0  0  0  0
  -23.7247  -37.6489   23.6663 H   0  0  0  0  0  0
  -26.1134  -31.5265   20.6083 H   0  0  0  0  0  0
  -26.8557  -30.8222   22.0113 H   0  0  0  0  0  0
  -28.1276  -28.9132   21.2214 H   0  0  0  0  0  0
  -25.9691  -25.9356   18.9539 H   0  0  0  0  0  0
  -23.9896  -27.3192   18.9780 H   0  0  0  0  0  0
  -23.7758  -30.5834   19.4023 H   0  0  0  0  0  0
  -22.7697  -29.2396   19.8527 H   0  0  0  0  0  0
  -25.1297  -36.1919   25.0812 H   0  0  0  0  0  0
  -20.9979  -28.3299   24.1386 H   0  0  0  0  0  0
  -20.5687  -26.2333   23.3616 H   0  0  0  0  0  0
  -21.6659  -26.7440   22.1207 H   0  0  0  0  0  0
  -19.6929  -25.6292   21.1260 H   0  0  0  0  0  0
  -19.6716  -27.3199   20.6739 H   0  0  0  0  0  0
  -17.4212  -26.6647   21.4033 H   0  0  0  0  0  0
  -18.0345  -26.0077   22.9036 H   0  0  0  0  0  0
  -19.7935  -30.7271   24.2277 H   0  0  0  0  0  0
  -17.5014  -31.6263   24.5183 H   0  0  0  0  0  0
  -15.5356  -30.2988   23.7643 H   0  0  0  0  0  0
  -15.8677  -28.0802   22.7081 H   0  0  0  0  0  0
  -24.5910  -30.7057   25.7753 H   0  0  0  0  0  0
  -24.8892  -32.2896   26.4830 H   0  0  0  0  0  0
  -25.8024  -30.8926   27.0221 H   0  0  0  0  0  0
  -26.2921  -29.6747   24.1203 H   0  0  0  0  0  0
  -27.4004  -29.7240   25.4716 H   0  0  0  0  0  0
  -27.8820  -30.4260   23.9453 H   0  0  0  0  0  0
  -27.2670  -33.3625   26.2061 H   0  0  0  0  0  0
  -28.3883  -32.6857   25.0324 H   0  0  0  0  0  0
  -28.0720  -31.8440   26.5416 H   0  0  0  0  0  0
  -28.2597  -38.0097   24.7505 H   0  0  0  0  0  0
  -28.1071  -36.2624   24.6303 H   0  0  0  0  0  0
  -27.2298  -37.1465   25.8870 H   0  0  0  0  0  0
  -20.9407  -29.8773   21.6861 H   0  0  0  0  0  0
  -26.0173  -38.2841   24.1402 H   0  0  0  0  0  0
  -31.3214  -18.5481   20.6208 H   0  0  0  0  0  0
  -27.8962  -21.9822   19.7851 H   0  0  0  0  0  0
  -28.1624  -22.1204   21.4986 H   0  0  0  0  0  0
  -27.1654  -24.5599   19.7761 H   0  0  0  0  0  0
  -27.5433  -24.8279   21.4507 H   0  0  0  0  0  0
  -29.9898  -16.4637   23.3071 H   0  0  0  0  0  0
  -27.5935  -15.9182   22.4892 H   0  0  0  0  0  0
  -26.4495  -17.0899   22.2048 H   0  0  0  0  0  0
  -30.6486  -21.4081   20.3129 H   0  0  0  0  0  0
  1 25  1  0  0  0
  1 30  2  0  0  0
  1 75  1  0  0  0
  2  3  1  0  0  0
  2 25  1  0  0  0
  2 84  1  0  0  0
  2 85  1  0  0  0
  3  4  1  0  0  0
  3 86  1  0  0  0
  3 87  1  0  0  0
  4  5  1  0  0  0
  4 88  1  0  0  0
  4 89  1  0  0  0
  5  6  1  0  0  0
  5 26  1  0  0  0
  5 90  1  0  0  0
  6 25  1  0  0  0
  6 91  1  0  0  0
  6 92  1  0  0  0
  7  8  2  0  0  0
  7 26  1  0  0  0
  7 29  1  0  0  0
  8  9  1  0  0  0
  8 22  1  0  0  0
  9 10  1  0  0  0
  9 27  2  0  0  0
 10 11  2  0  0  0
 10 15  1  0  0  0
 11 12  1  0  0  0
 11 93  1  0  0  0
 12 13  2  0  0  0
 12 94  1  0  0  0
 13 14  1  0  0  0
 13 31  1  0  0  0
 14 15  2  0  0  0
 14 95  1  0  0  0
 15 96  1  0  0  0
 16 17  2  0  0  0
 16 21  1  0  0  0
 16 31  1  0  0  0
 17 18  1  0  0  0
 17 97  1  0  0  0
 18 19  2  0  0  0
 18 98  1  0  0  0
 19 20  1  0  0  0
 19 24  1  0  0  0
 20 21  2  0  0  0
 20 99  1  0  0  0
 21 23  1  0  0  0
 22 28  1  0  0  0
 22 32  2  0  0  0
 26 27  1  0  0  0
 28100  1  0  0  0
 28101  1  0  0  0
 29102  1  0  0  0
 29103  1  0  0  0
 33 34  1  0  0  0
 33 66  1  0  0  0
 33 70  2  0  0  0
 34 36  1  0  0  0
 34 59  1  0  0  0
 34104  1  0  0  0
 35 44  2  0  0  0
 35 45  1  0  0  0
 35 68  1  0  0  0
 36 56  1  0  0  0
 36105  1  0  0  0
 37 39  1  0  0  0
 37 47  1  0  0  0
 37 66  1  0  0  0
 37106  1  0  0  0
 38 43  2  0  0  0
 38 46  1  0  0  0
 38 47  1  0  0  0
 39 64  1  0  0  0
 39 67  2  0  0  0
 40 52  1  0  0  0
 40 53  2  0  0  0
 40 58  1  0  0  0
 41107  1  0  0  0
 41108  1  0  0  0
 41109  1  0  0  0
 41 48  1  0  0  0
 42 43  1  0  0  0
 42 66  1  0  0  0
 42110  1  0  0  0
 42111  1  0  0  0
 43 44  1  0  0  0
 44112  1  0  0  0
 45 46  2  0  0  0
 45113  1  0  0  0
 46114  1  0  0  0
 47115  1  0  0  0
 47116  1  0  0  0
 48 56  1  0  0  0
 48 65  1  0  0  0
 48117  1  0  0  0
 49 50  1  0  0  0
 49 53  1  0  0  0
 49 64  1  0  0  0
 49118  1  0  0  0
 50 51  1  0  0  0
 50119  1  0  0  0
 50120  1  0  0  0
 51 52  1  0  0  0
 51121  1  0  0  0
 51122  1  0  0  0
 52123  1  0  0  0
 52124  1  0  0  0
 53 54  1  0  0  0
 54 55  2  0  0  0
 54125  1  0  0  0
 55 57  1  0  0  0
 55126  1  0  0  0
 56 69  2  0  0  0
 57 58  2  0  0  0
 57127  1  0  0  0
 58128  1  0  0  0
 59 60  1  0  0  0
 59 61  1  0  0  0
 59 62  1  0  0  0
 60129  1  0  0  0
 60130  1  0  0  0
 60131  1  0  0  0
 61132  1  0  0  0
 61133  1  0  0  0
 61134  1  0  0  0
 62135  1  0  0  0
 62136  1  0  0  0
 62137  1  0  0  0
 63 65  1  0  0  0
 63138  1  0  0  0
 63139  1  0  0  0
 63140  1  0  0  0
 64141  1  0  0  0
 65142  1  0  0  0
 68 78  1  0  0  0
 71 72  1  0  0  0
 71 73  2  0  0  0
 71143  1  0  0  0
 72 74  2  0  0  0
 72 75  1  0  0  0
 73 81  1  0  0  0
 73 83  1  0  0  0
 74 80  1  0  0  0
 74 83  1  0  0  0
 75 79  2  0  0  0
 76 77  1  0  0  0
 76 78  1  0  0  0
 76 82  2  0  0  0
 77 81  1  0  0  0
 77144  1  0  0  0
 77145  1  0  0  0
 78146  1  0  0  0
 78147  1  0  0  0
 79148  1  0  0  0
 80149  1  0  0  0
 80150  1  0  0  0
 81151  1  0  0  0
M  ISO  4   1 100  68 101  75 100  78 101
M  END
> <chiral flag>
0

> <version>
0

> <s_m_source_file>
/data/baiqing/PycharmProjects/Reinvent-master-3.2/result/LINK_invent/BTK/process_docking_weight1_custom_product_contain_oxygen_bond_distance_aromatic_linkinvent_7_9_3/rearranged_h_0151.sdf

> <i_m_source_file_index>
24

> <r_mmod_Potential_Energy-OPLS-2005>
423.543060302734

> <r_mmod_Stretch_Energy-OPLS-2005>
133.818145751953

> <r_mmod_Bend_Energy-OPLS-2005>
179.012420654297

> <r_mmod_Torsional_Energy-OPLS-2005>
244.00212097168

> <r_mmod_Improper_Torsional_Energy-OPLS-2005>
14.5818405151367

> <r_mmod_Van_der_Waal_Energy-OPLS-2005>
124.668731689453

> <r_mmod_Electrostatic_Energy-OPLS-2005>
-115.091094970703

> <r_mmod_Solvation_Energy-OPLS-2005>
-239.475677490234

> <b_mmod_Minimization_Converged-OPLS-2005>
0

> <r_mmod_RMS_Derivative-OPLS-2005>
1.90061414241791

$$$$
24
                    3D
 Structure written by MMmdl.
148157  0  0  1  0            999 V2000
  -30.4404  -15.2918   20.3673 C   0  0  0  0  0  0
  -30.4350  -12.8280   19.5292 C   0  0  0  0  0  0
  -29.5356  -12.5812   18.2917 C   0  0  0  0  0  0
  -28.0863  -12.2990   18.7213 C   0  0  0  0  0  0
  -27.6096  -13.2787   19.8220 C   0  0  2  0  0  0
  -28.6415  -13.4715   20.9546 C   0  0  0  0  0  0
  -25.2379  -13.8253   20.5751 C   0  0  0  0  0  0
  -24.1735  -13.0436   20.9259 C   0  0  0  0  0  0
  -24.6397  -11.6936   20.8762 C   0  0  0  0  0  0
  -23.9094  -10.4292   21.0403 C   0  0  0  0  0  0
  -24.3637   -9.4206   21.9182 C   0  0  0  0  0  0
  -23.6304   -8.2245   22.0755 C   0  0  0  0  0  0
  -22.4285   -8.0284   21.3544 C   0  0  0  0  0  0
  -21.9926   -9.0258   20.4646 C   0  0  0  0  0  0
  -22.7263  -10.2133   20.3053 C   0  0  0  0  0  0
  -21.6856   -6.0737   22.5278 C   0  0  0  0  0  0
  -21.4017   -6.5640   23.8212 C   0  0  0  0  0  0
  -21.3659   -5.6792   24.9173 C   0  0  0  0  0  0
  -21.6043   -4.3055   24.7224 C   0  0  0  0  0  0
  -21.8819   -3.8147   23.4345 C   0  0  0  0  0  0
  -21.9194   -4.6964   22.3402 C   0  0  0  0  0  0
  -22.7752  -13.5186   21.1904 C   0  0  0  0  0  0
  -22.1662   -4.2149   21.0979 F   0  0  0  0  0  0
  -21.5627   -3.4539   25.7737 F   0  0  0  0  0  0
  -29.8699  -13.9835   20.3247 N   0  0  0  0  0  0
  -26.2809  -12.9534   20.3223 N   0  0  0  0  0  0
  -25.9335  -11.6635   20.5722 N   0  0  0  0  0  0
  -22.0413  -12.8167   22.0458 N   0  0  0  0  0  0
  -25.4004  -15.1989   20.4186 N   0  0  0  0  0  0
  -31.6618  -15.2709   20.1549 O   0  0  0  0  0  0
  -21.6645   -6.8883   21.4241 O   0  0  0  0  0  0
  -22.3431  -14.5486   20.6742 O   0  0  0  0  0  0
  -24.6650  -31.8217   23.1698 C   0  0  0  0  0  0
  -25.9321  -32.4579   23.8168 C   0  0  1  0  0  0
  -27.2177  -26.9072   20.1841 C   0  0  0  0  0  0
  -25.5980  -33.8395   24.2068 N   0  0  0  0  0  0
  -23.4813  -30.4333   21.5193 C   0  0  2  0  0  0
  -24.9365  -28.8203   20.1106 C   0  0  0  0  0  0
  -22.7680  -29.4429   22.4771 C   0  0  0  0  0  0
  -18.0325  -28.1411   22.8464 C   0  0  0  0  0  0
  -24.1492  -36.7199   23.2648 C   0  0  0  0  0  0
  -26.0524  -30.6208   21.4055 C   0  0  0  0  0  0
  -26.1208  -29.2092   20.7489 C   0  0  0  0  0  0
  -27.2553  -28.2740   20.7631 C   0  0  0  0  0  0
  -26.0065  -26.6837   19.4881 C   0  0  0  0  0  0
  -24.9064  -27.5782   19.4592 C   0  0  0  0  0  0
  -23.7232  -29.7498   20.1455 C   0  0  0  0  0  0
  -25.4134  -36.2961   24.0298 C   0  0  1  0  0  0
  -20.5953  -28.3757   23.1180 C   0  0  2  0  0  0
  -20.6800  -26.9435   22.5401 C   0  0  0  0  0  0
  -19.5773  -26.6376   21.5214 C   0  0  0  0  0  0
  -18.1956  -26.7942   22.1621 C   0  0  0  0  0  0
  -19.1588  -28.8904   23.2808 C   0  0  0  0  0  0
  -18.9498  -30.1493   23.8845 C   0  0  0  0  0  0
  -17.6490  -30.6599   24.0554 C   0  0  0  0  0  0
  -25.9102  -34.9345   23.5004 C   0  0  0  0  0  0
  -16.5380  -29.9085   23.6347 C   0  0  0  0  0  0
  -16.7307  -28.6507   23.0364 C   0  0  0  0  0  0
  -26.4564  -31.6536   25.0708 C   0  0  0  0  0  0
  -25.3683  -31.3792   26.1358 C   0  0  0  0  0  0
  -27.0470  -30.2899   24.6466 C   0  0  0  0  0  0
  -27.6048  -32.4355   25.7511 C   0  0  0  0  0  0
  -27.5568  -37.1755   24.8466 C   0  0  0  0  0  0
  -21.4347  -29.3042   22.3523 N   0  0  0  0  0  0
  -26.4277  -37.3700   23.9409 N   0  0  0  0  0  0
  -24.7543  -30.9860   22.0848 N   0  0  0  0  0  0
  -23.4217  -28.7995   23.3018 O   0  0  0  0  0  0
  -28.1885  -25.7658   20.2796 O   0  0  0  0  0  0
  -26.5716  -34.8883   22.4604 O   0  0  0  0  0  0
  -23.5713  -32.1198   23.6775 O   0  0  0  0  0  0
  -29.4544  -22.1180   21.3054 C   0  0  0  0  0  0
  -29.8337  -20.6514   21.3041 C   0  0  0  0  0  0
  -29.3187  -19.7659   20.3809 C   0  0  0  0  0  0
  -28.6171  -22.6407   20.2967 C   0  0  0  0  0  0
  -30.8232  -19.8873   22.1321 C   0  0  0  0  0  0
  -31.1655  -18.5467   21.3779 C   0  0  0  0  0  0
  -30.0908  -18.2141   20.2958 C   0  0  1  0  0  0
  -27.8145  -24.1812   19.9923 C   0  0  0  0  0  0
  -29.7024  -16.5884   20.4472 N   0  0  0  0  0  0
  -28.3660  -21.0097   19.3494 S   0  0  0  0  0  0
  -31.4533  -13.0299   19.1950 H   0  0  0  0  0  0
  -30.5049  -11.9289   20.1439 H   0  0  0  0  0  0
  -29.9212  -11.7511   17.6983 H   0  0  0  0  0  0
  -29.5602  -13.4597   17.6451 H   0  0  0  0  0  0
  -28.0493  -11.2774   19.1012 H   0  0  0  0  0  0
  -27.4174  -12.3304   17.8604 H   0  0  0  0  0  0
  -27.5193  -14.2407   19.3160 H   0  0  0  0  0  0
  -28.8158  -12.5440   21.5021 H   0  0  0  0  0  0
  -28.2750  -14.1983   21.6813 H   0  0  0  0  0  0
  -25.2777   -9.5682   22.4764 H   0  0  0  0  0  0
  -24.0007   -7.4638   22.7479 H   0  0  0  0  0  0
  -21.0857   -8.8783   19.8953 H   0  0  0  0  0  0
  -22.3721  -10.9674   19.6166 H   0  0  0  0  0  0
  -21.2012   -7.6149   23.9715 H   0  0  0  0  0  0
  -21.1479   -6.0523   25.9076 H   0  0  0  0  0  0
  -22.0598   -2.7610   23.2846 H   0  0  0  0  0  0
  -22.4051  -11.9840   22.4850 H   0  0  0  0  0  0
  -21.1025  -13.1171   22.2662 H   0  0  0  0  0  0
  -24.6283  -15.8471   20.5305 H   0  0  0  0  0  0
  -26.2394  -15.6415   20.0676 H   0  0  0  0  0  0
  -26.7392  -32.5110   23.0883 H   0  0  0  0  0  0
  -25.0071  -33.9473   25.0180 H   0  0  0  0  0  0
  -22.7956  -31.2656   21.3474 H   0  0  0  0  0  0
  -23.3766  -35.9518   23.3283 H   0  0  0  0  0  0
  -24.3565  -36.8876   22.2068 H   0  0  0  0  0  0
  -23.7240  -37.6376   23.6724 H   0  0  0  0  0  0
  -26.2364  -31.3614   20.6260 H   0  0  0  0  0  0
  -26.9109  -30.6776   22.0625 H   0  0  0  0  0  0
  -28.1468  -28.5673   21.2994 H   0  0  0  0  0  0
  -25.8639  -25.7393   18.9845 H   0  0  0  0  0  0
  -24.0088  -27.2752   18.9377 H   0  0  0  0  0  0
  -23.8800  -30.5191   19.3884 H   0  0  0  0  0  0
  -22.8326  -29.2056   19.8262 H   0  0  0  0  0  0
  -25.1333  -36.1754   25.0788 H   0  0  0  0  0  0
  -21.0040  -28.3368   24.1304 H   0  0  0  0  0  0
  -20.5681  -26.2375   23.3644 H   0  0  0  0  0  0
  -21.6662  -26.7408   22.1207 H   0  0  0  0  0  0
  -19.6933  -25.6274   21.1276 H   0  0  0  0  0  0
  -19.6714  -27.3158   20.6722 H   0  0  0  0  0  0
  -17.4225  -26.6686   21.4026 H   0  0  0  0  0  0
  -18.0349  -26.0098   22.9030 H   0  0  0  0  0  0
  -19.7975  -30.7322   24.2191 H   0  0  0  0  0  0
  -17.5044  -31.6275   24.5164 H   0  0  0  0  0  0
  -15.5380  -30.2969   23.7704 H   0  0  0  0  0  0
  -15.8708  -28.0809   22.7109 H   0  0  0  0  0  0
  -24.5885  -30.7122   25.7665 H   0  0  0  0  0  0
  -24.8849  -32.2992   26.4652 H   0  0  0  0  0  0
  -25.7905  -30.9047   27.0225 H   0  0  0  0  0  0
  -26.3150  -29.6562   24.1448 H   0  0  0  0  0  0
  -27.3963  -29.7280   25.5138 H   0  0  0  0  0  0
  -27.9104  -30.4074   23.9915 H   0  0  0  0  0  0
  -27.2614  -33.3705   26.1951 H   0  0  0  0  0  0
  -28.3927  -32.6840   25.0389 H   0  0  0  0  0  0
  -28.0640  -31.8578   26.5543 H   0  0  0  0  0  0
  -28.2563  -38.0072   24.7516 H   0  0  0  0  0  0
  -28.1085  -36.2597   24.6291 H   0  0  0  0  0  0
  -27.2282  -37.1395   25.8868 H   0  0  0  0  0  0
  -20.9606  -29.8732   21.6650 H   0  0  0  0  0  0
  -26.0121  -38.2754   24.1426 H   0  0  0  0  0  0
  -29.8541  -22.7564   22.0815 H   0  0  0  0  0  0
  -30.3884  -19.6609   23.1064 H   0  0  0  0  0  0
  -31.7264  -20.4693   22.3187 H   0  0  0  0  0  0
  -31.3237  -17.7330   22.0860 H   0  0  0  0  0  0
  -32.1199  -18.6821   20.8671 H   0  0  0  0  0  0
  -30.5961  -18.2180   19.3287 H   0  0  0  0  0  0
  -26.8329  -24.0723   20.4540 H   0  0  0  0  0  0
  -27.5974  -24.1717   18.9242 H   0  0  0  0  0  0
  -28.7126  -16.4428   20.5811 H   0  0  0  0  0  0
  1 25  1  0  0  0
  1 30  2  0  0  0
  1 79  1  0  0  0
  2  3  1  0  0  0
  2 25  1  0  0  0
  2 81  1  0  0  0
  2 82  1  0  0  0
  3  4  1  0  0  0
  3 83  1  0  0  0
  3 84  1  0  0  0
  4  5  1  0  0  0
  4 85  1  0  0  0
  4 86  1  0  0  0
  5  6  1  0  0  0
  5 26  1  0  0  0
  5 87  1  0  0  0
  6 25  1  0  0  0
  6 88  1  0  0  0
  6 89  1  0  0  0
  7  8  2  0  0  0
  7 26  1  0  0  0
  7 29  1  0  0  0
  8  9  1  0  0  0
  8 22  1  0  0  0
  9 10  1  0  0  0
  9 27  2  0  0  0
 10 11  2  0  0  0
 10 15  1  0  0  0
 11 12  1  0  0  0
 11 90  1  0  0  0
 12 13  2  0  0  0
 12 91  1  0  0  0
 13 14  1  0  0  0
 13 31  1  0  0  0
 14 15  2  0  0  0
 14 92  1  0  0  0
 15 93  1  0  0  0
 16 17  2  0  0  0
 16 21  1  0  0  0
 16 31  1  0  0  0
 17 18  1  0  0  0
 17 94  1  0  0  0
 18 19  2  0  0  0
 18 95  1  0  0  0
 19 20  1  0  0  0
 19 24  1  0  0  0
 20 21  2  0  0  0
 20 96  1  0  0  0
 21 23  1  0  0  0
 22 28  1  0  0  0
 22 32  2  0  0  0
 26 27  1  0  0  0
 28 97  1  0  0  0
 28 98  1  0  0  0
 29 99  1  0  0  0
 29100  1  0  0  0
 33 34  1  0  0  0
 33 66  1  0  0  0
 33 70  2  0  0  0
 34 36  1  0  0  0
 34 59  1  0  0  0
 34101  1  0  0  0
 35 44  2  0  0  0
 35 45  1  0  0  0
 35 68  1  0  0  0
 36 56  1  0  0  0
 36102  1  0  0  0
 37 39  1  0  0  0
 37 47  1  0  0  0
 37 66  1  0  0  0
 37103  1  0  0  0
 38 43  2  0  0  0
 38 46  1  0  0  0
 38 47  1  0  0  0
 39 64  1  0  0  0
 39 67  2  0  0  0
 40 52  1  0  0  0
 40 53  2  0  0  0
 40 58  1  0  0  0
 41104  1  0  0  0
 41105  1  0  0  0
 41106  1  0  0  0
 41 48  1  0  0  0
 42 43  1  0  0  0
 42 66  1  0  0  0
 42107  1  0  0  0
 42108  1  0  0  0
 43 44  1  0  0  0
 44109  1  0  0  0
 45 46  2  0  0  0
 45110  1  0  0  0
 46111  1  0  0  0
 47112  1  0  0  0
 47113  1  0  0  0
 48 56  1  0  0  0
 48 65  1  0  0  0
 48114  1  0  0  0
 49 50  1  0  0  0
 49 53  1  0  0  0
 49 64  1  0  0  0
 49115  1  0  0  0
 50 51  1  0  0  0
 50116  1  0  0  0
 50117  1  0  0  0
 51 52  1  0  0  0
 51118  1  0  0  0
 51119  1  0  0  0
 52120  1  0  0  0
 52121  1  0  0  0
 53 54  1  0  0  0
 54 55  2  0  0  0
 54122  1  0  0  0
 55 57  1  0  0  0
 55123  1  0  0  0
 56 69  2  0  0  0
 57 58  2  0  0  0
 57124  1  0  0  0
 58125  1  0  0  0
 59 60  1  0  0  0
 59 61  1  0  0  0
 59 62  1  0  0  0
 60126  1  0  0  0
 60127  1  0  0  0
 60128  1  0  0  0
 61129  1  0  0  0
 61130  1  0  0  0
 61131  1  0  0  0
 62132  1  0  0  0
 62133  1  0  0  0
 62134  1  0  0  0
 63 65  1  0  0  0
 63135  1  0  0  0
 63136  1  0  0  0
 63137  1  0  0  0
 64138  1  0  0  0
 65139  1  0  0  0
 68 78  1  0  0  0
 71 72  1  0  0  0
 71 74  2  0  0  0
 71140  1  0  0  0
 72 73  2  0  0  0
 72 75  1  0  0  0
 73 77  1  0  0  0
 73 80  1  0  0  0
 74 78  1  0  0  0
 74 80  1  0  0  0
 75 76  1  0  0  0
 75141  1  0  0  0
 75142  1  0  0  0
 76 77  1  0  0  0
 76143  1  0  0  0
 76144  1  0  0  0
 77 79  1  0  0  0
 77145  1  0  0  0
 78146  1  0  0  0
 78147  1  0  0  0
 79148  1  0  0  0
M  ISO  4   1 100  68 101  78 101  79 100
M  END
> <chiral flag>
0

> <version>
0

> <s_m_source_file>
/data/baiqing/PycharmProjects/Reinvent-master-3.2/result/LINK_invent/BTK/process_docking_weight1_custom_product_contain_oxygen_bond_distance_aromatic_linkinvent_7_9_3/rearranged_h_0151.sdf

> <i_m_source_file_index>
25

> <r_mmod_Potential_Energy-OPLS-2005>
1383.43359375

> <r_mmod_Stretch_Energy-OPLS-2005>
560.408264160156

> <r_mmod_Bend_Energy-OPLS-2005>
568.85498046875

> <r_mmod_Torsional_Energy-OPLS-2005>
227.536468505859

> <r_mmod_Improper_Torsional_Energy-OPLS-2005>
10.9011449813843

> <r_mmod_Van_der_Waal_Energy-OPLS-2005>
107.248733520508

> <r_mmod_Electrostatic_Energy-OPLS-2005>
-371.894866943359

> <r_mmod_Solvation_Energy-OPLS-2005>
-212.065628051758

> <b_mmod_Minimization_Converged-OPLS-2005>
0

> <r_mmod_RMS_Derivative-OPLS-2005>
0.286439061164856

$$$$
25
                    3D
 Structure written by MMmdl.
148156  0  0  1  0            999 V2000
  -30.6013  -14.7255   20.4716 C   0  0  0  0  0  0
  -30.4301  -12.4488   19.4594 C   0  0  0  0  0  0
  -29.5033  -12.5006   18.2252 C   0  0  0  0  0  0
  -28.0277  -12.3341   18.6393 C   0  0  0  0  0  0
  -27.6395  -13.2275   19.8480 C   0  0  2  0  0  0
  -28.6845  -13.1457   20.9805 C   0  0  0  0  0  0
  -25.2510  -13.8193   20.5682 C   0  0  0  0  0  0
  -24.1799  -13.0439   20.9203 C   0  0  0  0  0  0
  -24.6388  -11.6919   20.8762 C   0  0  0  0  0  0
  -23.9074  -10.4295   21.0427 C   0  0  0  0  0  0
  -24.3630   -9.4204   21.9204 C   0  0  0  0  0  0
  -23.6298   -8.2235   22.0759 C   0  0  0  0  0  0
  -22.4286   -8.0280   21.3544 C   0  0  0  0  0  0
  -21.9924   -9.0260   20.4649 C   0  0  0  0  0  0
  -22.7250  -10.2137   20.3067 C   0  0  0  0  0  0
  -21.6854   -6.0742   22.5286 C   0  0  0  0  0  0
  -21.4003   -6.5645   23.8217 C   0  0  0  0  0  0
  -21.3645   -5.6796   24.9181 C   0  0  0  0  0  0
  -21.6049   -4.3061   24.7230 C   0  0  0  0  0  0
  -21.8818   -3.8156   23.4343 C   0  0  0  0  0  0
  -21.9188   -4.6972   22.3404 C   0  0  0  0  0  0
  -22.7823  -13.5230   21.1878 C   0  0  0  0  0  0
  -22.1663   -4.2159   21.0982 F   0  0  0  0  0  0
  -21.5627   -3.4548   25.7741 F   0  0  0  0  0  0
  -29.9797  -13.5044   20.3933 N   0  0  0  0  0  0
  -26.2927  -12.9385   20.3274 N   0  0  0  0  0  0
  -25.9321  -11.6535   20.5765 N   0  0  0  0  0  0
  -22.0462  -12.8211   22.0419 N   0  0  0  0  0  0
  -25.4212  -15.1908   20.4061 N   0  0  0  0  0  0
  -31.7981  -14.8232   20.1838 O   0  0  0  0  0  0
  -21.6632   -6.8883   21.4246 O   0  0  0  0  0  0
  -22.3499  -14.5535   20.6724 O   0  0  0  0  0  0
  -24.6313  -31.8550   23.1972 C   0  0  0  0  0  0
  -25.9129  -32.4756   23.8337 C   0  0  1  0  0  0
  -27.2188  -27.2688   20.1328 C   0  0  0  0  0  0
  -25.5927  -33.8558   24.2276 N   0  0  0  0  0  0
  -23.4284  -30.4764   21.5404 C   0  0  2  0  0  0
  -24.8752  -28.9152   20.1213 C   0  0  0  0  0  0
  -22.7495  -29.4621   22.4911 C   0  0  0  0  0  0
  -18.0286  -28.1382   22.8494 C   0  0  0  0  0  0
  -24.1482  -36.7265   23.2671 C   0  0  0  0  0  0
  -25.9736  -30.7714   21.3738 C   0  0  0  0  0  0
  -26.0492  -29.3932   20.7188 C   0  0  0  0  0  0
  -27.2300  -28.5833   20.7084 C   0  0  0  0  0  0
  -26.0219  -26.8467   19.5221 C   0  0  0  0  0  0
  -24.8631  -27.6464   19.5192 C   0  0  0  0  0  0
  -23.6460  -29.8032   20.1604 C   0  0  0  0  0  0
  -25.4126  -36.3069   24.0337 C   0  0  1  0  0  0
  -20.5896  -28.3701   23.1255 C   0  0  2  0  0  0
  -20.6774  -26.9411   22.5403 C   0  0  0  0  0  0
  -19.5741  -26.6376   21.5214 C   0  0  0  0  0  0
  -18.1924  -26.7929   22.1631 C   0  0  0  0  0  0
  -19.1545  -28.8862   23.2869 C   0  0  0  0  0  0
  -18.9473  -30.1466   23.8880 C   0  0  0  0  0  0
  -17.6479  -30.6598   24.0567 C   0  0  0  0  0  0
  -25.9035  -34.9434   23.5107 C   0  0  0  0  0  0
  -16.5374  -29.9085   23.6348 C   0  0  0  0  0  0
  -16.7281  -28.6503   23.0364 C   0  0  0  0  0  0
  -26.4489  -31.6589   25.0728 C   0  0  0  0  0  0
  -25.3711  -31.3749   26.1456 C   0  0  0  0  0  0
  -27.0355  -30.3007   24.6226 C   0  0  0  0  0  0
  -27.6042  -32.4345   25.7486 C   0  0  0  0  0  0
  -27.5512  -37.1890   24.8540 C   0  0  0  0  0  0
  -21.4203  -29.3052   22.3646 N   0  0  0  0  0  0
  -26.4345  -37.3719   23.9300 N   0  0  0  0  0  0
  -24.6971  -31.0524   22.0942 N   0  0  0  0  0  0
  -23.4177  -28.8160   23.3034 O   0  0  0  0  0  0
  -28.3012  -26.3709   20.1291 O   0  0  0  0  0  0
  -26.5581  -34.8905   22.4661 O   0  0  0  0  0  0
  -23.5454  -32.1354   23.7275 O   0  0  0  0  0  0
  -28.7899  -18.9760   19.4775 C   0  0  0  0  0  0
  -28.3912  -20.3801   19.4312 C   0  0  0  0  0  0
  -29.5333  -18.6011   20.5788 C   0  0  0  0  0  0
  -28.7928  -21.1636   20.4989 C   0  0  0  0  0  0
  -28.4110  -23.6721   20.0671 C   0  0  0  0  0  0
  -30.3280  -17.2797   20.9270 C   0  0  0  0  0  0
  -28.1189  -25.0558   20.8297 C   0  0  0  0  0  0
  -28.5601  -22.5129   20.8154 N   0  0  0  0  0  0
  -29.8306  -15.8592   20.6912 N   0  0  0  0  0  0
  -28.4995  -23.6621   18.8358 O   0  0  0  0  0  0
  -29.6601  -20.0597   21.6016 S   0  0  0  0  0  0
  -31.4702  -12.5796   19.1556 H   0  0  0  0  0  0
  -30.3788  -11.4697   19.9389 H   0  0  0  0  0  0
  -29.7799  -11.7220   17.5136 H   0  0  0  0  0  0
  -29.6338  -13.4505   17.7037 H   0  0  0  0  0  0
  -27.8751  -11.2843   18.8922 H   0  0  0  0  0  0
  -27.3716  -12.5401   17.7928 H   0  0  0  0  0  0
  -27.6374  -14.2527   19.4769 H   0  0  0  0  0  0
  -28.7218  -12.1400   21.4018 H   0  0  0  0  0  0
  -28.4244  -13.8137   21.8039 H   0  0  0  0  0  0
  -25.2781   -9.5671   22.4777 H   0  0  0  0  0  0
  -24.0014   -7.4619   22.7475 H   0  0  0  0  0  0
  -21.0856   -8.8786   19.8949 H   0  0  0  0  0  0
  -22.3730  -10.9685   19.6168 H   0  0  0  0  0  0
  -21.1986   -7.6147   23.9725 H   0  0  0  0  0  0
  -21.1467   -6.0527   25.9084 H   0  0  0  0  0  0
  -22.0604   -2.7623   23.2853 H   0  0  0  0  0  0
  -22.4085  -11.9864   22.4796 H   0  0  0  0  0  0
  -21.1083  -13.1235   22.2641 H   0  0  0  0  0  0
  -24.6522  -15.8451   20.5021 H   0  0  0  0  0  0
  -26.2652  -15.6271   20.0595 H   0  0  0  0  0  0
  -26.7204  -32.5390   23.1082 H   0  0  0  0  0  0
  -25.0144  -33.9695   25.0475 H   0  0  0  0  0  0
  -22.7279  -31.3001   21.3894 H   0  0  0  0  0  0
  -23.3636  -35.9743   23.3676 H   0  0  0  0  0  0
  -24.3465  -36.8493   22.2013 H   0  0  0  0  0  0
  -23.7421  -37.6663   23.6434 H   0  0  0  0  0  0
  -26.1116  -31.5323   20.6045 H   0  0  0  0  0  0
  -26.8512  -30.8213   22.0058 H   0  0  0  0  0  0
  -28.1350  -28.9472   21.1742 H   0  0  0  0  0  0
  -25.9782  -25.8682   19.0641 H   0  0  0  0  0  0
  -23.9594  -27.2639   19.0645 H   0  0  0  0  0  0
  -23.7742  -30.5750   19.4008 H   0  0  0  0  0  0
  -22.7631  -29.2371   19.8557 H   0  0  0  0  0  0
  -25.1349  -36.1991   25.0842 H   0  0  0  0  0  0
  -21.0011  -28.3287   24.1370 H   0  0  0  0  0  0
  -20.5671  -26.2312   23.3618 H   0  0  0  0  0  0
  -21.6639  -26.7417   22.1201 H   0  0  0  0  0  0
  -19.6899  -25.6284   21.1248 H   0  0  0  0  0  0
  -19.6675  -27.3187   20.6751 H   0  0  0  0  0  0
  -17.4192  -26.6693   21.4031 H   0  0  0  0  0  0
  -18.0318  -26.0059   22.9010 H   0  0  0  0  0  0
  -19.7957  -30.7295   24.2218 H   0  0  0  0  0  0
  -17.5032  -31.6276   24.5170 H   0  0  0  0  0  0
  -15.5373  -30.2986   23.7683 H   0  0  0  0  0  0
  -15.8669  -28.0818   22.7099 H   0  0  0  0  0  0
  -24.5908  -30.7053   25.7811 H   0  0  0  0  0  0
  -24.8870  -32.2920   26.4830 H   0  0  0  0  0  0
  -25.8032  -30.8991   27.0267 H   0  0  0  0  0  0
  -26.2967  -29.6748   24.1207 H   0  0  0  0  0  0
  -27.4000  -29.7270   25.4761 H   0  0  0  0  0  0
  -27.8840  -30.4289   23.9498 H   0  0  0  0  0  0
  -27.2652  -33.3653   26.2046 H   0  0  0  0  0  0
  -28.3850  -32.6906   25.0307 H   0  0  0  0  0  0
  -28.0713  -31.8486   26.5408 H   0  0  0  0  0  0
  -28.2883  -37.9811   24.7093 H   0  0  0  0  0  0
  -28.0638  -36.2368   24.7069 H   0  0  0  0  0  0
  -27.2147  -37.2394   25.8917 H   0  0  0  0  0  0
  -20.9392  -29.8750   21.6820 H   0  0  0  0  0  0
  -26.0259  -38.2870   24.0987 H   0  0  0  0  0  0
  -28.5464  -18.2997   18.6703 H   0  0  0  0  0  0
  -27.8109  -20.7574   18.6011 H   0  0  0  0  0  0
  -30.5667  -17.3183   21.9915 H   0  0  0  0  0  0
  -31.2990  -17.3659   20.4367 H   0  0  0  0  0  0
  -28.8085  -25.0767   21.6722 H   0  0  0  0  0  0
  -27.1266  -24.9943   21.2803 H   0  0  0  0  0  0
  -28.5284  -22.6968   21.8107 H   0  0  0  0  0  0
  -28.8445  -15.7037   20.8323 H   0  0  0  0  0  0
  1 25  1  0  0  0
  1 30  2  0  0  0
  1 79  1  0  0  0
  2  3  1  0  0  0
  2 25  1  0  0  0
  2 82  1  0  0  0
  2 83  1  0  0  0
  3  4  1  0  0  0
  3 84  1  0  0  0
  3 85  1  0  0  0
  4  5  1  0  0  0
  4 86  1  0  0  0
  4 87  1  0  0  0
  5  6  1  0  0  0
  5 26  1  0  0  0
  5 88  1  0  0  0
  6 25  1  0  0  0
  6 89  1  0  0  0
  6 90  1  0  0  0
  7  8  2  0  0  0
  7 26  1  0  0  0
  7 29  1  0  0  0
  8  9  1  0  0  0
  8 22  1  0  0  0
  9 10  1  0  0  0
  9 27  2  0  0  0
 10 11  2  0  0  0
 10 15  1  0  0  0
 11 12  1  0  0  0
 11 91  1  0  0  0
 12 13  2  0  0  0
 12 92  1  0  0  0
 13 14  1  0  0  0
 13 31  1  0  0  0
 14 15  2  0  0  0
 14 93  1  0  0  0
 15 94  1  0  0  0
 16 17  2  0  0  0
 16 21  1  0  0  0
 16 31  1  0  0  0
 17 18  1  0  0  0
 17 95  1  0  0  0
 18 19  2  0  0  0
 18 96  1  0  0  0
 19 20  1  0  0  0
 19 24  1  0  0  0
 20 21  2  0  0  0
 20 97  1  0  0  0
 21 23  1  0  0  0
 22 28  1  0  0  0
 22 32  2  0  0  0
 26 27  1  0  0  0
 28 98  1  0  0  0
 28 99  1  0  0  0
 29100  1  0  0  0
 29101  1  0  0  0
 33 34  1  0  0  0
 33 66  1  0  0  0
 33 70  2  0  0  0
 34 36  1  0  0  0
 34 59  1  0  0  0
 34102  1  0  0  0
 35 44  2  0  0  0
 35 45  1  0  0  0
 35 68  1  0  0  0
 36 56  1  0  0  0
 36103  1  0  0  0
 37 39  1  0  0  0
 37 47  1  0  0  0
 37 66  1  0  0  0
 37104  1  0  0  0
 38 43  2  0  0  0
 38 46  1  0  0  0
 38 47  1  0  0  0
 39 64  1  0  0  0
 39 67  2  0  0  0
 40 52  1  0  0  0
 40 53  2  0  0  0
 40 58  1  0  0  0
 41105  1  0  0  0
 41106  1  0  0  0
 41107  1  0  0  0
 41 48  1  0  0  0
 42 43  1  0  0  0
 42 66  1  0  0  0
 42108  1  0  0  0
 42109  1  0  0  0
 43 44  1  0  0  0
 44110  1  0  0  0
 45 46  2  0  0  0
 45111  1  0  0  0
 46112  1  0  0  0
 47113  1  0  0  0
 47114  1  0  0  0
 48 56  1  0  0  0
 48 65  1  0  0  0
 48115  1  0  0  0
 49 50  1  0  0  0
 49 53  1  0  0  0
 49 64  1  0  0  0
 49116  1  0  0  0
 50 51  1  0  0  0
 50117  1  0  0  0
 50118  1  0  0  0
 51 52  1  0  0  0
 51119  1  0  0  0
 51120  1  0  0  0
 52121  1  0  0  0
 52122  1  0  0  0
 53 54  1  0  0  0
 54 55  2  0  0  0
 54123  1  0  0  0
 55 57  1  0  0  0
 55124  1  0  0  0
 56 69  2  0  0  0
 57 58  2  0  0  0
 57125  1  0  0  0
 58126  1  0  0  0
 59 60  1  0  0  0
 59 61  1  0  0  0
 59 62  1  0  0  0
 60127  1  0  0  0
 60128  1  0  0  0
 60129  1  0  0  0
 61130  1  0  0  0
 61131  1  0  0  0
 61132  1  0  0  0
 62133  1  0  0  0
 62134  1  0  0  0
 62135  1  0  0  0
 63 65  1  0  0  0
 63136  1  0  0  0
 63137  1  0  0  0
 63138  1  0  0  0
 64139  1  0  0  0
 65140  1  0  0  0
 68 77  1  0  0  0
 71 72  1  0  0  0
 71 73  2  0  0  0
 71141  1  0  0  0
 72 74  2  0  0  0
 72142  1  0  0  0
 73 76  1  0  0  0
 73 81  1  0  0  0
 74 78  1  0  0  0
 74 81  1  0  0  0
 75 77  1  0  0  0
 75 78  1  0  0  0
 75 80  2  0  0  0
 76 79  1  0  0  0
 76143  1  0  0  0
 76144  1  0  0  0
 77145  1  0  0  0
 77146  1  0  0  0
 78147  1  0  0  0
 79148  1  0  0  0
M  ISO  4   1 100  68 101  77 101  79 100
M  END
> <chiral flag>
0

> <version>
0

> <s_m_source_file>
/data/baiqing/PycharmProjects/Reinvent-master-3.2/result/LINK_invent/BTK/process_docking_weight1_custom_product_contain_oxygen_bond_distance_aromatic_linkinvent_7_9_3/rearranged_h_0151.sdf

> <i_m_source_file_index>
26

> <r_mmod_Potential_Energy-OPLS-2005>
65.9956207275391

> <r_mmod_Stretch_Energy-OPLS-2005>
103.956047058105

> <r_mmod_Bend_Energy-OPLS-2005>
173.040939331055

> <r_mmod_Torsional_Energy-OPLS-2005>
238.459716796875

> <r_mmod_Improper_Torsional_Energy-OPLS-2005>
4.65559244155884

> <r_mmod_Van_der_Waal_Energy-OPLS-2005>
112.999862670898

> <r_mmod_Electrostatic_Energy-OPLS-2005>
-405.581939697266

> <r_mmod_Solvation_Energy-OPLS-2005>
-241.360015869141

> <b_mmod_Minimization_Converged-OPLS-2005>
0

> <r_mmod_RMS_Derivative-OPLS-2005>
2.90943837165833

$$$$
26
                    3D
 Structure written by MMmdl.
155164  0  0  1  0            999 V2000
  -30.5586  -14.7449   20.4974 C   0  0  0  0  0  0
  -30.4560  -12.4608   19.4620 C   0  0  0  0  0  0
  -29.5173  -12.5245   18.2335 C   0  0  0  0  0  0
  -28.0420  -12.3415   18.6455 C   0  0  0  0  0  0
  -27.6532  -13.2190   19.8641 C   0  0  2  0  0  0
  -28.6998  -13.0904   20.9940 C   0  0  0  0  0  0
  -25.2558  -13.8162   20.5665 C   0  0  0  0  0  0
  -24.1833  -13.0431   20.9192 C   0  0  0  0  0  0
  -24.6406  -11.6904   20.8747 C   0  0  0  0  0  0
  -23.9072  -10.4289   21.0409 C   0  0  0  0  0  0
  -24.3620   -9.4203   21.9186 C   0  0  0  0  0  0
  -23.6292   -8.2241   22.0756 C   0  0  0  0  0  0
  -22.4275   -8.0281   21.3544 C   0  0  0  0  0  0
  -21.9912   -9.0258   20.4648 C   0  0  0  0  0  0
  -22.7244  -10.2136   20.3058 C   0  0  0  0  0  0
  -21.6853   -6.0736   22.5279 C   0  0  0  0  0  0
  -21.4014   -6.5641   23.8212 C   0  0  0  0  0  0
  -21.3658   -5.6794   24.9175 C   0  0  0  0  0  0
  -21.6042   -4.3056   24.7225 C   0  0  0  0  0  0
  -21.8819   -3.8148   23.4347 C   0  0  0  0  0  0
  -21.9192   -4.6964   22.3403 C   0  0  0  0  0  0
  -22.7855  -13.5227   21.1853 C   0  0  0  0  0  0
  -22.1660   -4.2149   21.0981 F   0  0  0  0  0  0
  -21.5627   -3.4540   25.7737 F   0  0  0  0  0  0
  -30.0053  -13.4829   20.4333 N   0  0  0  0  0  0
  -26.2994  -12.9347   20.3319 N   0  0  0  0  0  0
  -25.9339  -11.6503   20.5768 N   0  0  0  0  0  0
  -22.0497  -12.8222   22.0412 N   0  0  0  0  0  0
  -25.4245  -15.1876   20.4022 N   0  0  0  0  0  0
  -31.7079  -14.9505   20.0917 O   0  0  0  0  0  0
  -21.6638   -6.8879   21.4241 O   0  0  0  0  0  0
  -22.3540  -14.5533   20.6702 O   0  0  0  0  0  0
  -24.6330  -31.8544   23.1984 C   0  0  0  0  0  0
  -25.9149  -32.4751   23.8333 C   0  0  1  0  0  0
  -27.2243  -27.2546   20.1237 C   0  0  0  0  0  0
  -25.5939  -33.8553   24.2252 N   0  0  0  0  0  0
  -23.4303  -30.4776   21.5423 C   0  0  2  0  0  0
  -24.8781  -28.9256   20.1110 C   0  0  0  0  0  0
  -22.7513  -29.4599   22.4910 C   0  0  0  0  0  0
  -18.0296  -28.1388   22.8484 C   0  0  0  0  0  0
  -24.1490  -36.7281   23.2640 C   0  0  0  0  0  0
  -25.9783  -30.7650   21.3803 C   0  0  0  0  0  0
  -26.0518  -29.3880   20.7194 C   0  0  0  0  0  0
  -27.2275  -28.5668   20.7124 C   0  0  0  0  0  0
  -26.0223  -26.8653   19.4868 C   0  0  0  0  0  0
  -24.8693  -27.6724   19.4836 C   0  0  0  0  0  0
  -23.6494  -29.8133   20.1585 C   0  0  0  0  0  0
  -25.4118  -36.3066   24.0324 C   0  0  1  0  0  0
  -20.5901  -28.3701   23.1265 C   0  0  2  0  0  0
  -20.6783  -26.9417   22.5406 C   0  0  0  0  0  0
  -19.5757  -26.6385   21.5212 C   0  0  0  0  0  0
  -18.1938  -26.7929   22.1626 C   0  0  0  0  0  0
  -19.1549  -28.8863   23.2868 C   0  0  0  0  0  0
  -18.9469  -30.1463   23.8888 C   0  0  0  0  0  0
  -17.6467  -30.6588   24.0562 C   0  0  0  0  0  0
  -25.9060  -34.9437   23.5091 C   0  0  0  0  0  0
  -16.5358  -29.9084   23.6332 C   0  0  0  0  0  0
  -16.7282  -28.6502   23.0353 C   0  0  0  0  0  0
  -26.4510  -31.6581   25.0728 C   0  0  0  0  0  0
  -25.3727  -31.3735   26.1444 C   0  0  0  0  0  0
  -27.0365  -30.2995   24.6230 C   0  0  0  0  0  0
  -27.6058  -32.4330   25.7503 C   0  0  0  0  0  0
  -27.5578  -37.1798   24.8466 C   0  0  0  0  0  0
  -21.4220  -29.3045   22.3651 N   0  0  0  0  0  0
  -26.4292  -37.3765   23.9406 N   0  0  0  0  0  0
  -24.6997  -31.0502   22.0965 N   0  0  0  0  0  0
  -23.4208  -28.8138   23.3014 O   0  0  0  0  0  0
  -28.3172  -26.3492   20.1794 O   0  0  0  0  0  0
  -26.5632  -34.8914   22.4661 O   0  0  0  0  0  0
  -23.5475  -32.1371   23.7270 O   0  0  0  0  0  0
  -28.5523  -19.2060   21.6370 C   0  0  0  0  0  0
  -28.6677  -17.7721   21.7861 C   0  0  0  0  0  0
  -29.3549  -19.8139   20.6951 C   0  0  0  0  0  0
  -29.5796  -17.1408   20.9594 C   0  0  0  0  0  0
  -28.6295  -22.2446   20.8180 C   0  0  0  0  0  0
  -30.0487  -23.2543   19.2346 C   0  0  0  0  0  0
  -30.4254  -21.7610   19.4843 C   0  0  0  0  0  0
  -29.1184  -23.6854   20.3819 C   0  0  1  0  0  0
  -27.8286  -17.0252   22.7840 C   0  0  0  0  0  0
  -28.0414  -24.8671   20.0646 C   0  0  0  0  0  0
  -29.4113  -21.1927   20.3736 N   0  0  0  0  0  0
  -29.7016  -15.7367   20.9381 N   0  0  0  0  0  0
  -27.6189  -22.1154   21.5133 O   0  0  0  0  0  0
  -30.3320  -18.4579   19.9880 S   0  0  0  0  0  0
  -31.4902  -12.6235   19.1539 H   0  0  0  0  0  0
  -30.4324  -11.4691   19.9163 H   0  0  0  0  0  0
  -29.7987  -11.7636   17.5042 H   0  0  0  0  0  0
  -29.6378  -13.4859   17.7320 H   0  0  0  0  0  0
  -27.8953  -11.2887   18.8892 H   0  0  0  0  0  0
  -27.3839  -12.5518   17.8016 H   0  0  0  0  0  0
  -27.6634  -14.2513   19.5136 H   0  0  0  0  0  0
  -28.7396  -12.0646   21.3635 H   0  0  0  0  0  0
  -28.4232  -13.6997   21.8556 H   0  0  0  0  0  0
  -25.2765   -9.5676   22.4761 H   0  0  0  0  0  0
  -23.9998   -7.4632   22.7476 H   0  0  0  0  0  0
  -21.0842   -8.8782   19.8956 H   0  0  0  0  0  0
  -22.3704  -10.9678   19.6169 H   0  0  0  0  0  0
  -21.2009   -7.6149   23.9716 H   0  0  0  0  0  0
  -21.1480   -6.0524   25.9077 H   0  0  0  0  0  0
  -22.0599   -2.7610   23.2848 H   0  0  0  0  0  0
  -22.4110  -11.9882   22.4800 H   0  0  0  0  0  0
  -21.1119  -13.1255   22.2621 H   0  0  0  0  0  0
  -24.6515  -15.8367   20.4987 H   0  0  0  0  0  0
  -26.2621  -15.6240   20.0392 H   0  0  0  0  0  0
  -26.7215  -32.5396   23.1073 H   0  0  0  0  0  0
  -25.0077  -33.9689   25.0392 H   0  0  0  0  0  0
  -22.7272  -31.3003   21.3964 H   0  0  0  0  0  0
  -23.3751  -35.9615   23.3305 H   0  0  0  0  0  0
  -24.3576  -36.8902   22.2054 H   0  0  0  0  0  0
  -23.7248  -37.6484   23.6665 H   0  0  0  0  0  0
  -26.1208  -31.5270   20.6128 H   0  0  0  0  0  0
  -26.8542  -30.8111   22.0158 H   0  0  0  0  0  0
  -28.1252  -28.9173   21.2023 H   0  0  0  0  0  0
  -25.9354  -25.9106   18.9920 H   0  0  0  0  0  0
  -23.9714  -27.3130   18.9998 H   0  0  0  0  0  0
  -23.7757  -30.5907   19.4041 H   0  0  0  0  0  0
  -22.7673  -29.2483   19.8514 H   0  0  0  0  0  0
  -25.1302  -36.1911   25.0817 H   0  0  0  0  0  0
  -20.9993  -28.3280   24.1385 H   0  0  0  0  0  0
  -20.5686  -26.2311   23.3612 H   0  0  0  0  0  0
  -21.6650  -26.7440   22.1197 H   0  0  0  0  0  0
  -19.6918  -25.6294   21.1245 H   0  0  0  0  0  0
  -19.6692  -27.3192   20.6739 H   0  0  0  0  0  0
  -17.4206  -26.6675   21.4031 H   0  0  0  0  0  0
  -18.0341  -26.0074   22.9026 H   0  0  0  0  0  0
  -19.7944  -30.7282   24.2254 H   0  0  0  0  0  0
  -17.5020  -31.6267   24.5165 H   0  0  0  0  0  0
  -15.5358  -30.2983   23.7660 H   0  0  0  0  0  0
  -15.8683  -28.0819   22.7071 H   0  0  0  0  0  0
  -24.5905  -30.7083   25.7769 H   0  0  0  0  0  0
  -24.8918  -32.2905   26.4855 H   0  0  0  0  0  0
  -25.8039  -30.8919   27.0229 H   0  0  0  0  0  0
  -26.2959  -29.6734   24.1241 H   0  0  0  0  0  0
  -27.4027  -29.7268   25.4761 H   0  0  0  0  0  0
  -27.8845  -30.4265   23.9496 H   0  0  0  0  0  0
  -27.2659  -33.3634   26.2064 H   0  0  0  0  0  0
  -28.3876  -32.6885   25.0338 H   0  0  0  0  0  0
  -28.0719  -31.8469   26.5434 H   0  0  0  0  0  0
  -28.2599  -38.0091   24.7501 H   0  0  0  0  0  0
  -28.1070  -36.2620   24.6308 H   0  0  0  0  0  0
  -27.2292  -37.1463   25.8869 H   0  0  0  0  0  0
  -20.9410  -29.8765   21.6850 H   0  0  0  0  0  0
  -26.0168  -38.2840   24.1400 H   0  0  0  0  0  0
  -27.8522  -19.7474   22.2563 H   0  0  0  0  0  0
  -29.5238  -23.3408   18.2822 H   0  0  0  0  0  0
  -30.9345  -23.8870   19.1691 H   0  0  0  0  0  0
  -31.3978  -21.6904   19.9745 H   0  0  0  0  0  0
  -30.4873  -21.2066   18.5467 H   0  0  0  0  0  0
  -29.7289  -24.0255   21.2187 H   0  0  0  0  0  0
  -27.1881  -17.6957   23.3573 H   0  0  0  0  0  0
  -28.4505  -16.4861   23.4992 H   0  0  0  0  0  0
  -27.1780  -16.2994   22.2976 H   0  0  0  0  0  0
  -27.1805  -24.6740   20.7064 H   0  0  0  0  0  0
  -27.6921  -24.6831   19.0489 H   0  0  0  0  0  0
  -28.8877  -15.2921   21.3327 H   0  0  0  0  0  0
  1 25  1  0  0  0
  1 30  2  0  0  0
  1 82  1  0  0  0
  2  3  1  0  0  0
  2 25  1  0  0  0
  2 85  1  0  0  0
  2 86  1  0  0  0
  3  4  1  0  0  0
  3 87  1  0  0  0
  3 88  1  0  0  0
  4  5  1  0  0  0
  4 89  1  0  0  0
  4 90  1  0  0  0
  5  6  1  0  0  0
  5 26  1  0  0  0
  5 91  1  0  0  0
  6 25  1  0  0  0
  6 92  1  0  0  0
  6 93  1  0  0  0
  7  8  2  0  0  0
  7 26  1  0  0  0
  7 29  1  0  0  0
  8  9  1  0  0  0
  8 22  1  0  0  0
  9 10  1  0  0  0
  9 27  2  0  0  0
 10 11  2  0  0  0
 10 15  1  0  0  0
 11 12  1  0  0  0
 11 94  1  0  0  0
 12 13  2  0  0  0
 12 95  1  0  0  0
 13 14  1  0  0  0
 13 31  1  0  0  0
 14 15  2  0  0  0
 14 96  1  0  0  0
 15 97  1  0  0  0
 16 17  2  0  0  0
 16 21  1  0  0  0
 16 31  1  0  0  0
 17 18  1  0  0  0
 17 98  1  0  0  0
 18 19  2  0  0  0
 18 99  1  0  0  0
 19 20  1  0  0  0
 19 24  1  0  0  0
 20 21  2  0  0  0
 20100  1  0  0  0
 21 23  1  0  0  0
 22 28  1  0  0  0
 22 32  2  0  0  0
 26 27  1  0  0  0
 28101  1  0  0  0
 28102  1  0  0  0
 29103  1  0  0  0
 29104  1  0  0  0
 33 34  1  0  0  0
 33 66  1  0  0  0
 33 70  2  0  0  0
 34 36  1  0  0  0
 34 59  1  0  0  0
 34105  1  0  0  0
 35 44  2  0  0  0
 35 45  1  0  0  0
 35 68  1  0  0  0
 36 56  1  0  0  0
 36106  1  0  0  0
 37 39  1  0  0  0
 37 47  1  0  0  0
 37 66  1  0  0  0
 37107  1  0  0  0
 38 43  2  0  0  0
 38 46  1  0  0  0
 38 47  1  0  0  0
 39 64  1  0  0  0
 39 67  2  0  0  0
 40 52  1  0  0  0
 40 53  2  0  0  0
 40 58  1  0  0  0
 41108  1  0  0  0
 41109  1  0  0  0
 41110  1  0  0  0
 41 48  1  0  0  0
 42 43  1  0  0  0
 42 66  1  0  0  0
 42111  1  0  0  0
 42112  1  0  0  0
 43 44  1  0  0  0
 44113  1  0  0  0
 45 46  2  0  0  0
 45114  1  0  0  0
 46115  1  0  0  0
 47116  1  0  0  0
 47117  1  0  0  0
 48 56  1  0  0  0
 48 65  1  0  0  0
 48118  1  0  0  0
 49 50  1  0  0  0
 49 53  1  0  0  0
 49 64  1  0  0  0
 49119  1  0  0  0
 50 51  1  0  0  0
 50120  1  0  0  0
 50121  1  0  0  0
 51 52  1  0  0  0
 51122  1  0  0  0
 51123  1  0  0  0
 52124  1  0  0  0
 52125  1  0  0  0
 53 54  1  0  0  0
 54 55  2  0  0  0
 54126  1  0  0  0
 55 57  1  0  0  0
 55127  1  0  0  0
 56 69  2  0  0  0
 57 58  2  0  0  0
 57128  1  0  0  0
 58129  1  0  0  0
 59 60  1  0  0  0
 59 61  1  0  0  0
 59 62  1  0  0  0
 60130  1  0  0  0
 60131  1  0  0  0
 60132  1  0  0  0
 61133  1  0  0  0
 61134  1  0  0  0
 61135  1  0  0  0
 62136  1  0  0  0
 62137  1  0  0  0
 62138  1  0  0  0
 63 65  1  0  0  0
 63139  1  0  0  0
 63140  1  0  0  0
 63141  1  0  0  0
 64142  1  0  0  0
 65143  1  0  0  0
 68 80  1  0  0  0
 71 72  1  0  0  0
 71 73  2  0  0  0
 71144  1  0  0  0
 72 74  2  0  0  0
 72 79  1  0  0  0
 73 81  1  0  0  0
 73 84  1  0  0  0
 74 82  1  0  0  0
 74 84  1  0  0  0
 75 78  1  0  0  0
 75 81  1  0  0  0
 75 83  2  0  0  0
 76 77  1  0  0  0
 76 78  1  0  0  0
 76145  1  0  0  0
 76146  1  0  0  0
 77 81  1  0  0  0
 77147  1  0  0  0
 77148  1  0  0  0
 78 80  1  0  0  0
 78149  1  0  0  0
 79150  1  0  0  0
 79151  1  0  0  0
 79152  1  0  0  0
 80153  1  0  0  0
 80154  1  0  0  0
 82155  1  0  0  0
M  ISO  4   1 100  68 101  80 101  82 100
M  END
> <chiral flag>
0

> <version>
0

> <s_m_source_file>
/data/baiqing/PycharmProjects/Reinvent-master-3.2/result/LINK_invent/BTK/process_docking_weight1_custom_product_contain_oxygen_bond_distance_aromatic_linkinvent_7_9_3/rearranged_h_0151.sdf

> <i_m_source_file_index>
27

> <r_mmod_Potential_Energy-OPLS-2005>
211.502304077148

> <r_mmod_Stretch_Energy-OPLS-2005>
115.68000793457

> <r_mmod_Bend_Energy-OPLS-2005>
233.31184387207

> <r_mmod_Torsional_Energy-OPLS-2005>
242.514862060547

> <r_mmod_Improper_Torsional_Energy-OPLS-2005>
3.21375441551208

> <r_mmod_Van_der_Waal_Energy-OPLS-2005>
117.654556274414

> <r_mmod_Electrostatic_Energy-OPLS-2005>
-369.848083496094

> <r_mmod_Solvation_Energy-OPLS-2005>
-218.597763061523

> <b_mmod_Minimization_Converged-OPLS-2005>
0

> <r_mmod_RMS_Derivative-OPLS-2005>
0.291020631790161

$$$$
27
                    3D
 Structure written by MMmdl.
148156  0  0  1  0            999 V2000
  -30.6122  -14.7891   20.4234 C   0  0  0  0  0  0
  -30.4315  -12.4741   19.4931 C   0  0  0  0  0  0
  -29.5145  -12.4938   18.2501 C   0  0  0  0  0  0
  -28.0381  -12.3304   18.6585 C   0  0  0  0  0  0
  -27.6373  -13.2448   19.8491 C   0  0  2  0  0  0
  -28.6824  -13.2112   20.9854 C   0  0  0  0  0  0
  -25.2471  -13.8240   20.5743 C   0  0  0  0  0  0
  -24.1791  -13.0454   20.9253 C   0  0  0  0  0  0
  -24.6405  -11.6944   20.8778 C   0  0  0  0  0  0
  -23.9093  -10.4310   21.0426 C   0  0  0  0  0  0
  -24.3632   -9.4206   21.9191 C   0  0  0  0  0  0
  -23.6307   -8.2239   22.0750 C   0  0  0  0  0  0
  -22.4276   -8.0288   21.3545 C   0  0  0  0  0  0
  -21.9924   -9.0269   20.4647 C   0  0  0  0  0  0
  -22.7271  -10.2153   20.3072 C   0  0  0  0  0  0
  -21.6861   -6.0742   22.5281 C   0  0  0  0  0  0
  -21.4026   -6.5646   23.8218 C   0  0  0  0  0  0
  -21.3674   -5.6783   24.9178 C   0  0  0  0  0  0
  -21.6044   -4.3045   24.7204 C   0  0  0  0  0  0
  -21.8813   -3.8150   23.4321 C   0  0  0  0  0  0
  -21.9191   -4.6971   22.3393 C   0  0  0  0  0  0
  -22.7794  -13.5216   21.1870 C   0  0  0  0  0  0
  -22.1653   -4.2167   21.0965 F   0  0  0  0  0  0
  -21.5617   -3.4522   25.7717 F   0  0  0  0  0  0
  -29.9819  -13.5601   20.3984 N   0  0  0  0  0  0
  -26.2919  -12.9477   20.3307 N   0  0  0  0  0  0
  -25.9340  -11.6610   20.5785 N   0  0  0  0  0  0
  -22.0421  -12.8243   22.0439 N   0  0  0  0  0  0
  -25.4082  -15.1964   20.4168 N   0  0  0  0  0  0
  -31.8052  -14.8542   20.1168 O   0  0  0  0  0  0
  -21.6637   -6.8885   21.4248 O   0  0  0  0  0  0
  -22.3496  -14.5503   20.6680 O   0  0  0  0  0  0
  -24.6355  -31.8530   23.1959 C   0  0  0  0  0  0
  -25.9169  -32.4731   23.8320 C   0  0  1  0  0  0
  -27.2078  -27.2150   20.1272 C   0  0  0  0  0  0
  -25.5954  -33.8536   24.2227 N   0  0  0  0  0  0
  -23.4336  -30.4768   21.5415 C   0  0  2  0  0  0
  -24.8790  -28.9258   20.1017 C   0  0  0  0  0  0
  -22.7538  -29.4589   22.4898 C   0  0  0  0  0  0
  -18.0303  -28.1385   22.8489 C   0  0  0  0  0  0
  -24.1488  -36.7269   23.2638 C   0  0  0  0  0  0
  -25.9833  -30.7491   21.3869 C   0  0  0  0  0  0
  -26.0528  -29.3708   20.7220 C   0  0  0  0  0  0
  -27.2183  -28.5281   20.7257 C   0  0  0  0  0  0
  -26.0149  -26.8697   19.4473 C   0  0  0  0  0  0
  -24.8696  -27.6859   19.4512 C   0  0  0  0  0  0
  -23.6520  -29.8177   20.1551 C   0  0  0  0  0  0
  -25.4120  -36.3052   24.0321 C   0  0  1  0  0  0
  -20.5914  -28.3711   23.1254 C   0  0  2  0  0  0
  -20.6792  -26.9422   22.5399 C   0  0  0  0  0  0
  -19.5761  -26.6375   21.5212 C   0  0  0  0  0  0
  -18.1947  -26.7925   22.1626 C   0  0  0  0  0  0
  -19.1561  -28.8863   23.2863 C   0  0  0  0  0  0
  -18.9481  -30.1467   23.8876 C   0  0  0  0  0  0
  -17.6472  -30.6586   24.0563 C   0  0  0  0  0  0
  -25.9077  -34.9422   23.5076 C   0  0  0  0  0  0
  -16.5362  -29.9080   23.6334 C   0  0  0  0  0  0
  -16.7288  -28.6501   23.0355 C   0  0  0  0  0  0
  -26.4509  -31.6585   25.0737 C   0  0  0  0  0  0
  -25.3715  -31.3779   26.1452 C   0  0  0  0  0  0
  -27.0374  -30.2990   24.6285 C   0  0  0  0  0  0
  -27.6040  -32.4345   25.7524 C   0  0  0  0  0  0
  -27.5575  -37.1789   24.8463 C   0  0  0  0  0  0
  -21.4242  -29.3041   22.3636 N   0  0  0  0  0  0
  -26.4280  -37.3762   23.9416 N   0  0  0  0  0  0
  -24.7028  -31.0459   22.0959 N   0  0  0  0  0  0
  -23.4219  -28.8152   23.3030 O   0  0  0  0  0  0
  -28.2674  -26.2623   20.2202 O   0  0  0  0  0  0
  -26.5625  -34.8907   22.4633 O   0  0  0  0  0  0
  -23.5496  -32.1373   23.7227 O   0  0  0  0  0  0
  -29.7527  -19.2640   21.8464 C   0  0  0  0  0  0
  -29.4251  -20.6712   21.8071 C   0  0  0  0  0  0
  -29.7424  -18.7474   20.5731 C   0  0  0  0  0  0
  -29.2069  -21.0217   20.4999 C   0  0  0  0  0  0
  -28.8235  -23.5835   20.5404 C   0  0  0  0  0  0
  -30.1827  -17.3471   19.9479 C   0  0  0  0  0  0
  -28.0123  -24.8022   19.8445 C   0  0  0  0  0  0
  -28.7924  -22.2855   20.0110 N   0  0  0  0  0  0
  -29.8553  -15.9570   20.5347 N   0  0  0  0  0  0
  -29.4598  -23.8321   21.5694 O   0  0  0  0  0  0
  -29.3869  -19.8425   19.7340 O   0  0  0  0  0  0
  -31.4733  -12.5926   19.1909 H   0  0  0  0  0  0
  -30.3789  -11.5084   19.9988 H   0  0  0  0  0  0
  -29.8005  -11.6951   17.5639 H   0  0  0  0  0  0
  -29.6469  -13.4316   17.7088 H   0  0  0  0  0  0
  -27.8883  -11.2860   18.9323 H   0  0  0  0  0  0
  -27.3869  -12.5189   17.8040 H   0  0  0  0  0  0
  -27.6194  -14.2606   19.4548 H   0  0  0  0  0  0
  -28.7197  -12.2260   21.4531 H   0  0  0  0  0  0
  -28.4181  -13.9177   21.7745 H   0  0  0  0  0  0
  -25.2759   -9.5680   22.4779 H   0  0  0  0  0  0
  -24.0009   -7.4627   22.7466 H   0  0  0  0  0  0
  -21.0845   -8.8819   19.8948 H   0  0  0  0  0  0
  -22.3731  -10.9705   19.6191 H   0  0  0  0  0  0
  -21.2033   -7.6154   23.9745 H   0  0  0  0  0  0
  -21.1508   -6.0500   25.9090 H   0  0  0  0  0  0
  -22.0580   -2.7614   23.2811 H   0  0  0  0  0  0
  -22.4015  -11.9950   22.4933 H   0  0  0  0  0  0
  -21.1034  -13.1312   22.2584 H   0  0  0  0  0  0
  -24.6245  -15.8331   20.5161 H   0  0  0  0  0  0
  -26.2451  -15.6525   20.0772 H   0  0  0  0  0  0
  -26.7232  -32.5353   23.1055 H   0  0  0  0  0  0
  -25.0130  -33.9679   25.0389 H   0  0  0  0  0  0
  -22.7310  -31.2997   21.3978 H   0  0  0  0  0  0
  -23.3751  -35.9600   23.3295 H   0  0  0  0  0  0
  -24.3582  -36.8899   22.2054 H   0  0  0  0  0  0
  -23.7241  -37.6467   23.6668 H   0  0  0  0  0  0
  -26.1374  -31.5134   20.6237 H   0  0  0  0  0  0
  -26.8523  -30.7874   22.0313 H   0  0  0  0  0  0
  -28.1097  -28.8642   21.2364 H   0  0  0  0  0  0
  -25.9189  -25.9397   18.9089 H   0  0  0  0  0  0
  -23.9783  -27.3488   18.9397 H   0  0  0  0  0  0
  -23.7761  -30.5946   19.3997 H   0  0  0  0  0  0
  -22.7677  -29.2549   19.8521 H   0  0  0  0  0  0
  -25.1301  -36.1889   25.0810 H   0  0  0  0  0  0
  -21.0004  -28.3277   24.1376 H   0  0  0  0  0  0
  -20.5696  -26.2320   23.3619 H   0  0  0  0  0  0
  -21.6669  -26.7435   22.1197 H   0  0  0  0  0  0
  -19.6922  -25.6282   21.1262 H   0  0  0  0  0  0
  -19.6694  -27.3175   20.6739 H   0  0  0  0  0  0
  -17.4220  -26.6676   21.4022 H   0  0  0  0  0  0
  -18.0333  -26.0070   22.9026 H   0  0  0  0  0  0
  -19.7957  -30.7296   24.2225 H   0  0  0  0  0  0
  -17.5027  -31.6268   24.5172 H   0  0  0  0  0  0
  -15.5364  -30.2967   23.7677 H   0  0  0  0  0  0
  -15.8695  -28.0810   22.7060 H   0  0  0  0  0  0
  -24.5860  -30.7166   25.7785 H   0  0  0  0  0  0
  -24.8954  -32.2978   26.4857 H   0  0  0  0  0  0
  -25.8011  -30.8960   27.0249 H   0  0  0  0  0  0
  -26.2994  -29.6725   24.1263 H   0  0  0  0  0  0
  -27.3980  -29.7273   25.4850 H   0  0  0  0  0  0
  -27.8905  -30.4241   23.9610 H   0  0  0  0  0  0
  -27.2611  -33.3636   26.2089 H   0  0  0  0  0  0
  -28.3859  -32.6927   25.0371 H   0  0  0  0  0  0
  -28.0701  -31.8496   26.5462 H   0  0  0  0  0  0
  -28.2582  -38.0093   24.7519 H   0  0  0  0  0  0
  -28.1081  -36.2629   24.6273 H   0  0  0  0  0  0
  -27.2302  -37.1417   25.8865 H   0  0  0  0  0  0
  -20.9432  -29.8775   21.6850 H   0  0  0  0  0  0
  -26.0154  -38.2832   24.1418 H   0  0  0  0  0  0
  -30.0137  -18.6960   22.7284 H   0  0  0  0  0  0
  -29.3624  -21.3403   22.6536 H   0  0  0  0  0  0
  -31.2682  -17.3907   19.8467 H   0  0  0  0  0  0
  -29.8321  -17.3224   18.9165 H   0  0  0  0  0  0
  -28.1049  -24.7021   18.7622 H   0  0  0  0  0  0
  -26.9808  -24.5532   20.0897 H   0  0  0  0  0  0
  -28.3530  -22.2394   19.1021 H   0  0  0  0  0  0
  -28.8867  -15.8178   20.7783 H   0  0  0  0  0  0
  1 25  1  0  0  0
  1 30  2  0  0  0
  1 79  1  0  0  0
  2  3  1  0  0  0
  2 25  1  0  0  0
  2 82  1  0  0  0
  2 83  1  0  0  0
  3  4  1  0  0  0
  3 84  1  0  0  0
  3 85  1  0  0  0
  4  5  1  0  0  0
  4 86  1  0  0  0
  4 87  1  0  0  0
  5  6  1  0  0  0
  5 26  1  0  0  0
  5 88  1  0  0  0
  6 25  1  0  0  0
  6 89  1  0  0  0
  6 90  1  0  0  0
  7  8  2  0  0  0
  7 26  1  0  0  0
  7 29  1  0  0  0
  8  9  1  0  0  0
  8 22  1  0  0  0
  9 10  1  0  0  0
  9 27  2  0  0  0
 10 11  2  0  0  0
 10 15  1  0  0  0
 11 12  1  0  0  0
 11 91  1  0  0  0
 12 13  2  0  0  0
 12 92  1  0  0  0
 13 14  1  0  0  0
 13 31  1  0  0  0
 14 15  2  0  0  0
 14 93  1  0  0  0
 15 94  1  0  0  0
 16 17  2  0  0  0
 16 21  1  0  0  0
 16 31  1  0  0  0
 17 18  1  0  0  0
 17 95  1  0  0  0
 18 19  2  0  0  0
 18 96  1  0  0  0
 19 20  1  0  0  0
 19 24  1  0  0  0
 20 21  2  0  0  0
 20 97  1  0  0  0
 21 23  1  0  0  0
 22 28  1  0  0  0
 22 32  2  0  0  0
 26 27  1  0  0  0
 28 98  1  0  0  0
 28 99  1  0  0  0
 29100  1  0  0  0
 29101  1  0  0  0
 33 34  1  0  0  0
 33 66  1  0  0  0
 33 70  2  0  0  0
 34 36  1  0  0  0
 34 59  1  0  0  0
 34102  1  0  0  0
 35 44  2  0  0  0
 35 45  1  0  0  0
 35 68  1  0  0  0
 36 56  1  0  0  0
 36103  1  0  0  0
 37 39  1  0  0  0
 37 47  1  0  0  0
 37 66  1  0  0  0
 37104  1  0  0  0
 38 43  2  0  0  0
 38 46  1  0  0  0
 38 47  1  0  0  0
 39 64  1  0  0  0
 39 67  2  0  0  0
 40 52  1  0  0  0
 40 53  2  0  0  0
 40 58  1  0  0  0
 41105  1  0  0  0
 41106  1  0  0  0
 41107  1  0  0  0
 41 48  1  0  0  0
 42 43  1  0  0  0
 42 66  1  0  0  0
 42108  1  0  0  0
 42109  1  0  0  0
 43 44  1  0  0  0
 44110  1  0  0  0
 45 46  2  0  0  0
 45111  1  0  0  0
 46112  1  0  0  0
 47113  1  0  0  0
 47114  1  0  0  0
 48 56  1  0  0  0
 48 65  1  0  0  0
 48115  1  0  0  0
 49 50  1  0  0  0
 49 53  1  0  0  0
 49 64  1  0  0  0
 49116  1  0  0  0
 50 51  1  0  0  0
 50117  1  0  0  0
 50118  1  0  0  0
 51 52  1  0  0  0
 51119  1  0  0  0
 51120  1  0  0  0
 52121  1  0  0  0
 52122  1  0  0  0
 53 54  1  0  0  0
 54 55  2  0  0  0
 54123  1  0  0  0
 55 57  1  0  0  0
 55124  1  0  0  0
 56 69  2  0  0  0
 57 58  2  0  0  0
 57125  1  0  0  0
 58126  1  0  0  0
 59 60  1  0  0  0
 59 61  1  0  0  0
 59 62  1  0  0  0
 60127  1  0  0  0
 60128  1  0  0  0
 60129  1  0  0  0
 61130  1  0  0  0
 61131  1  0  0  0
 61132  1  0  0  0
 62133  1  0  0  0
 62134  1  0  0  0
 62135  1  0  0  0
 63 65  1  0  0  0
 63136  1  0  0  0
 63137  1  0  0  0
 63138  1  0  0  0
 64139  1  0  0  0
 65140  1  0  0  0
 68 77  1  0  0  0
 71 72  1  0  0  0
 71 73  2  0  0  0
 71141  1  0  0  0
 72 74  2  0  0  0
 72142  1  0  0  0
 73 76  1  0  0  0
 73 81  1  0  0  0
 74 78  1  0  0  0
 74 81  1  0  0  0
 75 77  1  0  0  0
 75 78  1  0  0  0
 75 80  2  0  0  0
 76 79  1  0  0  0
 76143  1  0  0  0
 76144  1  0  0  0
 77145  1  0  0  0
 77146  1  0  0  0
 78147  1  0  0  0
 79148  1  0  0  0
M  ISO  4   1 100  68 101  77 101  79 100
M  END
> <chiral flag>
0

> <version>
0

> <s_m_source_file>
/data/baiqing/PycharmProjects/Reinvent-master-3.2/result/LINK_invent/BTK/process_docking_weight1_custom_product_contain_oxygen_bond_distance_aromatic_linkinvent_7_9_3/rearranged_h_0151.sdf

> <i_m_source_file_index>
28

> <r_mmod_Potential_Energy-OPLS-2005>
110.106658935547

> <r_mmod_Stretch_Energy-OPLS-2005>
146.602294921875

> <r_mmod_Bend_Energy-OPLS-2005>
190.734954833984

> <r_mmod_Torsional_Energy-OPLS-2005>
219.901763916016

> <r_mmod_Improper_Torsional_Energy-OPLS-2005>
7.66667795181274

> <r_mmod_Van_der_Waal_Energy-OPLS-2005>
122.649063110352

> <r_mmod_Electrostatic_Energy-OPLS-2005>
-444.176086425781

> <r_mmod_Solvation_Energy-OPLS-2005>
-249.012298583984

> <b_mmod_Minimization_Converged-OPLS-2005>
0

> <r_mmod_RMS_Derivative-OPLS-2005>
2.72105193138123

$$$$
28
                    3D
 Structure written by MMmdl.
156164  0  0  1  0            999 V2000
  -30.7133  -14.8540   20.4379 C   0  0  0  0  0  0
  -30.3447  -12.5301   19.5004 C   0  0  0  0  0  0
  -29.4780  -12.5410   18.2288 C   0  0  0  0  0  0
  -28.0093  -12.3465   18.6335 C   0  0  0  0  0  0
  -27.6014  -13.2552   19.8216 C   0  0  2  0  0  0
  -28.6432  -13.3727   20.9607 C   0  0  0  0  0  0
  -25.2283  -13.8017   20.5865 C   0  0  0  0  0  0
  -24.1674  -13.0231   20.9347 C   0  0  0  0  0  0
  -24.6381  -11.6780   20.8788 C   0  0  0  0  0  0
  -23.9095  -10.4177   21.0407 C   0  0  0  0  0  0
  -24.3649   -9.4082   21.9147 C   0  0  0  0  0  0
  -23.6259   -8.2166   22.0753 C   0  0  0  0  0  0
  -22.4239   -8.0236   21.3547 C   0  0  0  0  0  0
  -21.9904   -9.0212   20.4650 C   0  0  0  0  0  0
  -22.7295  -10.2051   20.3022 C   0  0  0  0  0  0
  -21.6831   -6.0712   22.5292 C   0  0  0  0  0  0
  -21.3982   -6.5603   23.8224 C   0  0  0  0  0  0
  -21.3662   -5.6761   24.9189 C   0  0  0  0  0  0
  -21.6076   -4.3032   24.7238 C   0  0  0  0  0  0
  -21.8811   -3.8118   23.4352 C   0  0  0  0  0  0
  -21.9178   -4.6945   22.3405 C   0  0  0  0  0  0
  -22.7726  -13.5031   21.1934 C   0  0  0  0  0  0
  -22.1658   -4.2104   21.0992 F   0  0  0  0  0  0
  -21.5647   -3.4525   25.7761 F   0  0  0  0  0  0
  -29.9362  -13.6946   20.3535 N   0  0  0  0  0  0
  -26.2759  -12.9370   20.3249 N   0  0  0  0  0  0
  -25.9322  -11.6468   20.5763 N   0  0  0  0  0  0
  -22.0433  -12.8038   22.0535 N   0  0  0  0  0  0
  -25.3536  -15.1729   20.4423 N   0  0  0  0  0  0
  -31.8643  -14.7758   20.0177 O   0  0  0  0  0  0
  -21.6617   -6.8840   21.4247 O   0  0  0  0  0  0
  -22.3433  -14.5392   20.6908 O   0  0  0  0  0  0
  -24.6344  -31.8491   23.1869 C   0  0  0  0  0  0
  -25.9177  -32.4702   23.8315 C   0  0  1  0  0  0
  -27.2086  -27.1503   20.2164 C   0  0  0  0  0  0
  -25.5919  -33.8525   24.2218 N   0  0  0  0  0  0
  -23.4460  -30.4611   21.5223 C   0  0  2  0  0  0
  -24.8974  -28.8805   20.1217 C   0  0  0  0  0  0
  -22.7560  -29.4595   22.4896 C   0  0  0  0  0  0
  -18.0295  -28.1500   22.8550 C   0  0  0  0  0  0
  -24.1485  -36.7227   23.2646 C   0  0  0  0  0  0
  -25.9971  -30.7250   21.3909 C   0  0  0  0  0  0
  -26.0693  -29.3374   20.7451 C   0  0  0  0  0  0
  -27.2388  -28.4928   20.7555 C   0  0  0  0  0  0
  -26.0154  -26.7758   19.5685 C   0  0  0  0  0  0
  -24.8774  -27.6094   19.5240 C   0  0  0  0  0  0
  -23.6670  -29.7609   20.1528 C   0  0  0  0  0  0
  -25.4117  -36.3066   24.0317 C   0  0  1  0  0  0
  -20.5858  -28.3979   23.1308 C   0  0  2  0  0  0
  -20.6810  -26.9646   22.5477 C   0  0  0  0  0  0
  -19.5664  -26.6378   21.5605 C   0  0  0  0  0  0
  -18.1888  -26.7996   22.1972 C   0  0  0  0  0  0
  -19.1476  -28.8992   23.3005 C   0  0  0  0  0  0
  -18.9234  -30.1510   23.9171 C   0  0  0  0  0  0
  -17.6334  -30.6715   24.0334 C   0  0  0  0  0  0
  -25.9052  -34.9423   23.5086 C   0  0  0  0  0  0
  -16.5289  -29.9378   23.5756 C   0  0  0  0  0  0
  -16.7353  -28.6761   23.0013 C   0  0  0  0  0  0
  -26.4503  -31.6594   25.0736 C   0  0  0  0  0  0
  -25.3695  -31.3720   26.1407 C   0  0  0  0  0  0
  -27.0381  -30.3003   24.6350 C   0  0  0  0  0  0
  -27.6059  -32.4372   25.7474 C   0  0  0  0  0  0
  -27.5595  -37.1763   24.8480 C   0  0  0  0  0  0
  -21.4248  -29.3155   22.3441 N   0  0  0  0  0  0
  -26.4326  -37.3743   23.9388 N   0  0  0  0  0  0
  -24.7139  -31.0365   22.0883 N   0  0  0  0  0  0
  -23.4067  -28.8376   23.3241 O   0  0  0  0  0  0
  -28.2852  -26.2059   20.2123 O   0  0  0  0  0  0
  -26.5701  -34.8906   22.4690 O   0  0  0  0  0  0
  -23.5486  -32.1369   23.7014 O   0  0  0  0  0  0
  -28.1807  -17.1037   20.1277 C   0  0  0  0  0  0
  -27.5566  -18.4169   20.2094 C   0  0  0  0  0  0
  -29.4322  -17.1735   20.6746 C   0  0  0  0  0  0
  -28.4760  -19.3158   20.7241 C   0  0  0  0  0  0
  -26.1329  -18.7661   19.9273 C   0  0  0  0  0  0
  -28.1562  -23.3918   20.3447 C   0  0  0  0  0  0
  -25.7708  -20.1664   19.4251 C   0  0  0  0  0  0
  -27.3916  -20.6722   22.4815 C   0  0  0  0  0  0
  -28.8732  -22.0274   20.9532 C   0  0  0  0  0  0
  -28.2518  -24.8870   21.0144 C   0  0  0  0  0  0
  -30.3412  -16.1100   20.9463 N   0  0  0  0  0  0
  -28.1602  -20.6858   21.2256 N   0  0  0  0  0  0
  -25.2300  -17.9513   20.0407 O   0  0  0  0  0  0
  -27.5392  -23.2743   19.2798 O   0  0  0  0  0  0
  -29.6321  -18.5462   21.0389 O   0  0  0  0  0  0
  -31.4026  -12.5035   19.2433 H   0  0  0  0  0  0
  -30.1584  -11.5996   20.0446 H   0  0  0  0  0  0
  -29.7820  -11.7648   17.5297 H   0  0  0  0  0  0
  -29.5867  -13.4878   17.6891 H   0  0  0  0  0  0
  -27.8562  -11.2972   18.8729 H   0  0  0  0  0  0
  -27.3537  -12.5432   17.7769 H   0  0  0  0  0  0
  -27.5222  -14.2306   19.3477 H   0  0  0  0  0  0
  -28.7101  -12.4591   21.5566 H   0  0  0  0  0  0
  -28.3503  -14.1723   21.6404 H   0  0  0  0  0  0
  -25.2785   -9.5554   22.4719 H   0  0  0  0  0  0
  -23.9985   -7.4545   22.7435 H   0  0  0  0  0  0
  -21.0848   -8.8697   19.8934 H   0  0  0  0  0  0
  -22.3731  -10.9585   19.6133 H   0  0  0  0  0  0
  -21.1957   -7.6099   23.9707 H   0  0  0  0  0  0
  -21.1504   -6.0499   25.9093 H   0  0  0  0  0  0
  -22.0594   -2.7560   23.2873 H   0  0  0  0  0  0
  -22.4159  -11.9754   22.4883 H   0  0  0  0  0  0
  -21.1023  -13.0941   22.2723 H   0  0  0  0  0  0
  -24.5348  -15.7634   20.5575 H   0  0  0  0  0  0
  -26.1430  -15.6847   20.0713 H   0  0  0  0  0  0
  -26.7224  -32.5349   23.1065 H   0  0  0  0  0  0
  -24.9988  -33.9633   25.0326 H   0  0  0  0  0  0
  -22.7602  -31.2889   21.3417 H   0  0  0  0  0  0
  -23.3787  -35.9535   23.3334 H   0  0  0  0  0  0
  -24.3580  -36.8811   22.2069 H   0  0  0  0  0  0
  -23.7214  -37.6400   23.6669 H   0  0  0  0  0  0
  -26.1681  -31.4730   20.6146 H   0  0  0  0  0  0
  -26.8578  -30.7681   22.0494 H   0  0  0  0  0  0
  -28.1429  -28.8367   21.2355 H   0  0  0  0  0  0
  -25.9496  -25.7850   19.1270 H   0  0  0  0  0  0
  -23.9830  -27.2474   19.0389 H   0  0  0  0  0  0
  -23.7832  -30.5118   19.3716 H   0  0  0  0  0  0
  -22.7879  -29.1835   19.8496 H   0  0  0  0  0  0
  -25.1323  -36.1887   25.0818 H   0  0  0  0  0  0
  -20.9707  -28.3754   24.1494 H   0  0  0  0  0  0
  -20.6062  -26.2815   23.3917 H   0  0  0  0  0  0
  -21.6433  -26.7509   22.0712 H   0  0  0  0  0  0
  -19.6649  -27.3093   20.7065 H   0  0  0  0  0  0
  -19.7149  -25.6207   21.1996 H   0  0  0  0  0  0
  -17.4399  -26.6617   21.4096 H   0  0  0  0  0  0
  -17.9899  -26.0361   22.9539 H   0  0  0  0  0  0
  -19.7554  -30.7333   24.2620 H   0  0  0  0  0  0
  -17.4679  -31.6571   24.4673 H   0  0  0  0  0  0
  -15.5343  -30.3585   23.6451 H   0  0  0  0  0  0
  -15.9004  -28.1198   22.5865 H   0  0  0  0  0  0
  -24.5900  -30.7055   25.7676 H   0  0  0  0  0  0
  -24.8863  -32.2863   26.4868 H   0  0  0  0  0  0
  -25.7964  -30.8853   27.0191 H   0  0  0  0  0  0
  -26.3015  -29.6704   24.1337 H   0  0  0  0  0  0
  -27.3930  -29.7314   25.4964 H   0  0  0  0  0  0
  -27.8966  -30.4196   23.9725 H   0  0  0  0  0  0
  -27.2697  -33.3697   26.2023 H   0  0  0  0  0  0
  -28.3867  -32.6885   25.0284 H   0  0  0  0  0  0
  -28.0779  -31.8547   26.5391 H   0  0  0  0  0  0
  -28.2617  -38.0054   24.7542 H   0  0  0  0  0  0
  -28.1077  -36.2584   24.6318 H   0  0  0  0  0  0
  -27.2305  -37.1428   25.8881 H   0  0  0  0  0  0
  -20.9438  -29.8509   21.6461 H   0  0  0  0  0  0
  -26.0193  -38.2808   24.1387 H   0  0  0  0  0  0
  -27.7369  -16.1967   19.7642 H   0  0  0  0  0  0
  -26.6325  -20.6567   18.9756 H   0  0  0  0  0  0
  -25.3693  -20.7713   20.2439 H   0  0  0  0  0  0
  -25.0087  -20.0879   18.6568 H   0  0  0  0  0  0
  -26.6328  -19.8915   22.5277 H   0  0  0  0  0  0
  -26.8575  -21.6064   22.6730 H   0  0  0  0  0  0
  -28.0576  -20.4707   23.3177 H   0  0  0  0  0  0
  -29.3298  -22.3357   21.9047 H   0  0  0  0  0  0
  -29.7203  -21.8070   20.3000 H   0  0  0  0  0  0
  -29.1811  -24.8769   21.5910 H   0  0  0  0  0  0
  -27.4492  -24.9552   21.7478 H   0  0  0  0  0  0
  -31.2295  -16.5240   21.2265 H   0  0  0  0  0  0
  1 25  1  0  0  0
  1 30  2  0  0  0
  1 81  1  0  0  0
  2  3  1  0  0  0
  2 25  1  0  0  0
  2 86  1  0  0  0
  2 87  1  0  0  0
  3  4  1  0  0  0
  3 88  1  0  0  0
  3 89  1  0  0  0
  4  5  1  0  0  0
  4 90  1  0  0  0
  4 91  1  0  0  0
  5  6  1  0  0  0
  5 26  1  0  0  0
  5 92  1  0  0  0
  6 25  1  0  0  0
  6 93  1  0  0  0
  6 94  1  0  0  0
  7  8  2  0  0  0
  7 26  1  0  0  0
  7 29  1  0  0  0
  8  9  1  0  0  0
  8 22  1  0  0  0
  9 10  1  0  0  0
  9 27  2  0  0  0
 10 11  2  0  0  0
 10 15  1  0  0  0
 11 12  1  0  0  0
 11 95  1  0  0  0
 12 13  2  0  0  0
 12 96  1  0  0  0
 13 14  1  0  0  0
 13 31  1  0  0  0
 14 15  2  0  0  0
 14 97  1  0  0  0
 15 98  1  0  0  0
 16 17  2  0  0  0
 16 21  1  0  0  0
 16 31  1  0  0  0
 17 18  1  0  0  0
 17 99  1  0  0  0
 18 19  2  0  0  0
 18100  1  0  0  0
 19 20  1  0  0  0
 19 24  1  0  0  0
 20 21  2  0  0  0
 20101  1  0  0  0
 21 23  1  0  0  0
 22 28  1  0  0  0
 22 32  2  0  0  0
 26 27  1  0  0  0
 28102  1  0  0  0
 28103  1  0  0  0
 29104  1  0  0  0
 29105  1  0  0  0
 33 34  1  0  0  0
 33 66  1  0  0  0
 33 70  2  0  0  0
 34 36  1  0  0  0
 34 59  1  0  0  0
 34106  1  0  0  0
 35 44  2  0  0  0
 35 45  1  0  0  0
 35 68  1  0  0  0
 36 56  1  0  0  0
 36107  1  0  0  0
 37 39  1  0  0  0
 37 47  1  0  0  0
 37 66  1  0  0  0
 37108  1  0  0  0
 38 43  2  0  0  0
 38 46  1  0  0  0
 38 47  1  0  0  0
 39 64  1  0  0  0
 39 67  2  0  0  0
 40 52  1  0  0  0
 40 53  2  0  0  0
 40 58  1  0  0  0
 41109  1  0  0  0
 41110  1  0  0  0
 41111  1  0  0  0
 41 48  1  0  0  0
 42 43  1  0  0  0
 42 66  1  0  0  0
 42112  1  0  0  0
 42113  1  0  0  0
 43 44  1  0  0  0
 44114  1  0  0  0
 45 46  2  0  0  0
 45115  1  0  0  0
 46116  1  0  0  0
 47117  1  0  0  0
 47118  1  0  0  0
 48 56  1  0  0  0
 48 65  1  0  0  0
 48119  1  0  0  0
 49 50  1  0  0  0
 49 53  1  0  0  0
 49 64  1  0  0  0
 49120  1  0  0  0
 50 51  1  0  0  0
 50121  1  0  0  0
 50122  1  0  0  0
 51 52  1  0  0  0
 51123  1  0  0  0
 51124  1  0  0  0
 52125  1  0  0  0
 52126  1  0  0  0
 53 54  1  0  0  0
 54 55  2  0  0  0
 54127  1  0  0  0
 55 57  1  0  0  0
 55128  1  0  0  0
 56 69  2  0  0  0
 57 58  2  0  0  0
 57129  1  0  0  0
 58130  1  0  0  0
 59 60  1  0  0  0
 59 61  1  0  0  0
 59 62  1  0  0  0
 60131  1  0  0  0
 60132  1  0  0  0
 60133  1  0  0  0
 61134  1  0  0  0
 61135  1  0  0  0
 61136  1  0  0  0
 62137  1  0  0  0
 62138  1  0  0  0
 62139  1  0  0  0
 63 65  1  0  0  0
 63140  1  0  0  0
 63141  1  0  0  0
 63142  1  0  0  0
 64143  1  0  0  0
 65144  1  0  0  0
 68 80  1  0  0  0
 71 72  1  0  0  0
 71 73  2  0  0  0
 71145  1  0  0  0
 72 74  2  0  0  0
 72 75  1  0  0  0
 73 81  1  0  0  0
 73 85  1  0  0  0
 74 82  1  0  0  0
 74 85  1  0  0  0
 75 77  1  0  0  0
 75 83  2  0  0  0
 76 79  1  0  0  0
 76 80  1  0  0  0
 76 84  2  0  0  0
 77146  1  0  0  0
 77147  1  0  0  0
 77148  1  0  0  0
 78 82  1  0  0  0
 78149  1  0  0  0
 78150  1  0  0  0
 78151  1  0  0  0
 79 82  1  0  0  0
 79152  1  0  0  0
 79153  1  0  0  0
 80154  1  0  0  0
 80155  1  0  0  0
 81156  1  0  0  0
M  ISO  4   1 100  68 101  80 101  81 100
M  END
> <chiral flag>
0

> <version>
0

> <s_m_source_file>
/data/baiqing/PycharmProjects/Reinvent-master-3.2/result/LINK_invent/BTK/process_docking_weight1_custom_product_contain_oxygen_bond_distance_aromatic_linkinvent_7_9_3/rearranged_h_0151.sdf

> <i_m_source_file_index>
29

> <r_mmod_Potential_Energy-OPLS-2005>
561.112670898438

> <r_mmod_Stretch_Energy-OPLS-2005>
201.803085327148

> <r_mmod_Bend_Energy-OPLS-2005>
319.133453369141

> <r_mmod_Torsional_Energy-OPLS-2005>
320.2763671875

> <r_mmod_Improper_Torsional_Energy-OPLS-2005>
10.6913690567017

> <r_mmod_Van_der_Waal_Energy-OPLS-2005>
109.595748901367

> <r_mmod_Electrostatic_Energy-OPLS-2005>
-340.508392333984

> <r_mmod_Solvation_Energy-OPLS-2005>
-225.639694213867

> <b_mmod_Minimization_Converged-OPLS-2005>
0

> <r_mmod_RMS_Derivative-OPLS-2005>
21.606632232666

$$$$
29
                    3D
 Structure written by MMmdl.
152160  0  0  1  0            999 V2000
  -30.6720  -14.7858   20.4220 C   0  0  0  0  0  0
  -30.4127  -12.4890   19.4659 C   0  0  0  0  0  0
  -29.4906  -12.5012   18.2314 C   0  0  0  0  0  0
  -28.0233  -12.3245   18.6597 C   0  0  0  0  0  0
  -27.6209  -13.2523   19.8380 C   0  0  2  0  0  0
  -28.6769  -13.2641   20.9654 C   0  0  0  0  0  0
  -25.2243  -13.8050   20.5782 C   0  0  0  0  0  0
  -24.1618  -13.0255   20.9265 C   0  0  0  0  0  0
  -24.6339  -11.6817   20.8737 C   0  0  0  0  0  0
  -23.9044  -10.4214   21.0378 C   0  0  0  0  0  0
  -24.3593   -9.4153   21.9163 C   0  0  0  0  0  0
  -23.6268   -8.2199   22.0740 C   0  0  0  0  0  0
  -22.4248   -8.0241   21.3532 C   0  0  0  0  0  0
  -21.9884   -9.0204   20.4624 C   0  0  0  0  0  0
  -22.7222  -10.2080   20.3027 C   0  0  0  0  0  0
  -21.6849   -6.0716   22.5278 C   0  0  0  0  0  0
  -21.4015   -6.5621   23.8210 C   0  0  0  0  0  0
  -21.3647   -5.6778   24.9172 C   0  0  0  0  0  0
  -21.6041   -4.3044   24.7225 C   0  0  0  0  0  0
  -21.8834   -3.8131   23.4344 C   0  0  0  0  0  0
  -21.9208   -4.6946   22.3400 C   0  0  0  0  0  0
  -22.7651  -13.5048   21.1942 C   0  0  0  0  0  0
  -22.1678   -4.2131   21.0979 F   0  0  0  0  0  0
  -21.5618   -3.4522   25.7736 F   0  0  0  0  0  0
  -29.9739  -13.5923   20.3571 N   0  0  0  0  0  0
  -26.2812  -12.9432   20.3320 N   0  0  0  0  0  0
  -25.9300  -11.6535   20.5772 N   0  0  0  0  0  0
  -22.0347  -12.8014   22.0526 N   0  0  0  0  0  0
  -25.3458  -15.1717   20.4341 N   0  0  0  0  0  0
  -31.8819  -14.7491   20.1942 O   0  0  0  0  0  0
  -21.6616   -6.8842   21.4236 O   0  0  0  0  0  0
  -22.3310  -14.5377   20.6841 O   0  0  0  0  0  0
  -24.6274  -31.8543   23.1972 C   0  0  0  0  0  0
  -25.9086  -32.4770   23.8351 C   0  0  1  0  0  0
  -27.2294  -27.2634   20.1303 C   0  0  0  0  0  0
  -25.5870  -33.8571   24.2270 N   0  0  0  0  0  0
  -23.4300  -30.4687   21.5401 C   0  0  2  0  0  0
  -24.8811  -28.9147   20.1103 C   0  0  0  0  0  0
  -22.7499  -29.4571   22.4948 C   0  0  0  0  0  0
  -18.0294  -28.1366   22.8468 C   0  0  0  0  0  0
  -24.1474  -36.7276   23.2649 C   0  0  0  0  0  0
  -25.9724  -30.7682   21.3765 C   0  0  0  0  0  0
  -26.0465  -29.3878   20.7231 C   0  0  0  0  0  0
  -27.2174  -28.5684   20.7298 C   0  0  0  0  0  0
  -26.0375  -26.8489   19.4936 C   0  0  0  0  0  0
  -24.8810  -27.6560   19.4876 C   0  0  0  0  0  0
  -23.6486  -29.7926   20.1592 C   0  0  0  0  0  0
  -25.4106  -36.3087   24.0338 C   0  0  1  0  0  0
  -20.5895  -28.3680   23.1295 C   0  0  2  0  0  0
  -20.6784  -26.9394   22.5438 C   0  0  0  0  0  0
  -19.5798  -26.6383   21.5219 C   0  0  0  0  0  0
  -18.1950  -26.7916   22.1611 C   0  0  0  0  0  0
  -19.1544  -28.8844   23.2868 C   0  0  0  0  0  0
  -18.9434  -30.1450   23.8882 C   0  0  0  0  0  0
  -17.6428  -30.6557   24.0543 C   0  0  0  0  0  0
  -25.9034  -34.9448   23.5121 C   0  0  0  0  0  0
  -16.5335  -29.9035   23.6320 C   0  0  0  0  0  0
  -16.7273  -28.6457   23.0330 C   0  0  0  0  0  0
  -26.4462  -31.6603   25.0739 C   0  0  0  0  0  0
  -25.3700  -31.3731   26.1469 C   0  0  0  0  0  0
  -27.0323  -30.3034   24.6216 C   0  0  0  0  0  0
  -27.6026  -32.4352   25.7490 C   0  0  0  0  0  0
  -27.5575  -37.1791   24.8466 C   0  0  0  0  0  0
  -21.4209  -29.3006   22.3674 N   0  0  0  0  0  0
  -26.4295  -37.3774   23.9401 N   0  0  0  0  0  0
  -24.6958  -31.0494   22.0955 N   0  0  0  0  0  0
  -23.4188  -28.8148   23.3088 O   0  0  0  0  0  0
  -28.3506  -26.4115   20.2378 O   0  0  0  0  0  0
  -26.5614  -34.8921   22.4691 O   0  0  0  0  0  0
  -23.5424  -32.1341   23.7264 O   0  0  0  0  0  0
  -28.0419  -20.4078   20.0156 C   0  0  0  0  0  0
  -28.3280  -18.9771   20.0816 C   0  0  0  0  0  0
  -29.6526  -18.6330   20.3271 C   0  0  0  0  0  0
  -29.1190  -21.2609   20.1253 C   0  0  0  0  0  0
  -27.2991  -17.9739   19.8647 C   0  0  0  0  0  0
  -30.4984  -17.3127   20.4543 C   0  0  0  0  0  0
  -28.3566  -23.7059   20.2478 C   0  0  0  0  0  0
  -25.9384  -18.4612   19.3861 C   0  0  0  0  0  0
  -28.5282  -25.1180   19.5032 C   0  0  0  0  0  0
  -29.1884  -22.6465   19.9127 N   0  0  0  0  0  0
  -29.9903  -16.0076   20.4907 N   0  0  0  0  0  0
  -27.4639  -16.7660   20.0122 O   0  0  0  0  0  0
  -31.7154  -17.4981   20.5367 O   0  0  0  0  0  0
  -27.4757  -23.5794   21.1051 O   0  0  0  0  0  0
  -30.5356  -20.1996   20.3771 S   0  0  0  0  0  0
  -31.4500  -12.5892   19.1422 H   0  0  0  0  0  0
  -30.3473  -11.5287   19.9794 H   0  0  0  0  0  0
  -29.7703  -11.7001   17.5470 H   0  0  0  0  0  0
  -29.6082  -13.4343   17.6773 H   0  0  0  0  0  0
  -27.8971  -11.2823   18.9520 H   0  0  0  0  0  0
  -27.3587  -12.4865   17.8097 H   0  0  0  0  0  0
  -27.5812  -14.2582   19.4213 H   0  0  0  0  0  0
  -28.7173  -12.3012   21.4757 H   0  0  0  0  0  0
  -28.4061  -14.0017   21.7233 H   0  0  0  0  0  0
  -25.2735   -9.5645   22.4721 H   0  0  0  0  0  0
  -23.9986   -7.4587   22.7440 H   0  0  0  0  0  0
  -21.0824   -8.8719   19.8890 H   0  0  0  0  0  0
  -22.3682  -10.9617   19.6122 H   0  0  0  0  0  0
  -21.2002   -7.6132   23.9706 H   0  0  0  0  0  0
  -21.1450   -6.0499   25.9069 H   0  0  0  0  0  0
  -22.0624   -2.7590   23.2855 H   0  0  0  0  0  0
  -22.3974  -11.9651   22.4855 H   0  0  0  0  0  0
  -21.0965  -13.0987   22.2792 H   0  0  0  0  0  0
  -24.5667  -15.7970   20.6049 H   0  0  0  0  0  0
  -26.2129  -15.6605   20.2053 H   0  0  0  0  0  0
  -26.7156  -32.5437   23.1109 H   0  0  0  0  0  0
  -24.9996  -33.9724   25.0407 H   0  0  0  0  0  0
  -22.7269  -31.2885   21.3834 H   0  0  0  0  0  0
  -23.3762  -35.9588   23.3326 H   0  0  0  0  0  0
  -24.3562  -36.8881   22.2063 H   0  0  0  0  0  0
  -23.7207  -37.6471   23.6662 H   0  0  0  0  0  0
  -26.0987  -31.5274   20.6030 H   0  0  0  0  0  0
  -26.8533  -30.8284   22.0046 H   0  0  0  0  0  0
  -28.1087  -28.9107   21.2366 H   0  0  0  0  0  0
  -25.9611  -25.8748   19.0357 H   0  0  0  0  0  0
  -23.9799  -27.2919   19.0127 H   0  0  0  0  0  0
  -23.7572  -30.5561   19.3891 H   0  0  0  0  0  0
  -22.7748  -29.2049   19.8697 H   0  0  0  0  0  0
  -25.1296  -36.1961   25.0839 H   0  0  0  0  0  0
  -20.9978  -28.3259   24.1413 H   0  0  0  0  0  0
  -20.5684  -26.2246   23.3624 H   0  0  0  0  0  0
  -21.6656  -26.7424   22.1244 H   0  0  0  0  0  0
  -19.6790  -27.3193   20.6766 H   0  0  0  0  0  0
  -19.6973  -25.6300   21.1227 H   0  0  0  0  0  0
  -17.4247  -26.6639   21.3997 H   0  0  0  0  0  0
  -18.0345  -26.0069   22.9017 H   0  0  0  0  0  0
  -19.7911  -30.7283   24.2245 H   0  0  0  0  0  0
  -17.4963  -31.6239   24.5129 H   0  0  0  0  0  0
  -15.5323  -30.2901   23.7651 H   0  0  0  0  0  0
  -15.8685  -28.0770   22.7033 H   0  0  0  0  0  0
  -24.5883  -30.7066   25.7798 H   0  0  0  0  0  0
  -24.8878  -32.2887   26.4908 H   0  0  0  0  0  0
  -25.8030  -30.8910   27.0247 H   0  0  0  0  0  0
  -26.2915  -29.6787   24.1211 H   0  0  0  0  0  0
  -27.3972  -29.7283   25.4738 H   0  0  0  0  0  0
  -27.8798  -30.4322   23.9481 H   0  0  0  0  0  0
  -27.2639  -33.3665   26.2043 H   0  0  0  0  0  0
  -28.3827  -32.6891   25.0301 H   0  0  0  0  0  0
  -28.0700  -31.8502   26.5422 H   0  0  0  0  0  0
  -28.2605  -38.0074   24.7506 H   0  0  0  0  0  0
  -28.1053  -36.2604   24.6313 H   0  0  0  0  0  0
  -27.2274  -37.1459   25.8863 H   0  0  0  0  0  0
  -20.9419  -29.8629   21.6793 H   0  0  0  0  0  0
  -26.0187  -38.2856   24.1403 H   0  0  0  0  0  0
  -27.0438  -20.7698   19.8076 H   0  0  0  0  0  0
  -25.4652  -19.0644   20.1595 H   0  0  0  0  0  0
  -25.2947  -17.6099   19.1747 H   0  0  0  0  0  0
  -26.0395  -19.0393   18.4675 H   0  0  0  0  0  0
  -27.9316  -25.1003   18.5947 H   0  0  0  0  0  0
  -29.5587  -25.1411   19.1507 H   0  0  0  0  0  0
  -29.9707  -22.9304   19.3397 H   0  0  0  0  0  0
  -28.9780  -15.9596   20.4861 H   0  0  0  0  0  0
  1 25  1  0  0  0
  1 30  2  0  0  0
  1 81  1  0  0  0
  2  3  1  0  0  0
  2 25  1  0  0  0
  2 86  1  0  0  0
  2 87  1  0  0  0
  3  4  1  0  0  0
  3 88  1  0  0  0
  3 89  1  0  0  0
  4  5  1  0  0  0
  4 90  1  0  0  0
  4 91  1  0  0  0
  5  6  1  0  0  0
  5 26  1  0  0  0
  5 92  1  0  0  0
  6 25  1  0  0  0
  6 93  1  0  0  0
  6 94  1  0  0  0
  7  8  2  0  0  0
  7 26  1  0  0  0
  7 29  1  0  0  0
  8  9  1  0  0  0
  8 22  1  0  0  0
  9 10  1  0  0  0
  9 27  2  0  0  0
 10 11  2  0  0  0
 10 15  1  0  0  0
 11 12  1  0  0  0
 11 95  1  0  0  0
 12 13  2  0  0  0
 12 96  1  0  0  0
 13 14  1  0  0  0
 13 31  1  0  0  0
 14 15  2  0  0  0
 14 97  1  0  0  0
 15 98  1  0  0  0
 16 17  2  0  0  0
 16 21  1  0  0  0
 16 31  1  0  0  0
 17 18  1  0  0  0
 17 99  1  0  0  0
 18 19  2  0  0  0
 18100  1  0  0  0
 19 20  1  0  0  0
 19 24  1  0  0  0
 20 21  2  0  0  0
 20101  1  0  0  0
 21 23  1  0  0  0
 22 28  1  0  0  0
 22 32  2  0  0  0
 26 27  1  0  0  0
 28102  1  0  0  0
 28103  1  0  0  0
 29104  1  0  0  0
 29105  1  0  0  0
 33 34  1  0  0  0
 33 66  1  0  0  0
 33 70  2  0  0  0
 34 36  1  0  0  0
 34 59  1  0  0  0
 34106  1  0  0  0
 35 44  2  0  0  0
 35 45  1  0  0  0
 35 68  1  0  0  0
 36 56  1  0  0  0
 36107  1  0  0  0
 37 39  1  0  0  0
 37 47  1  0  0  0
 37 66  1  0  0  0
 37108  1  0  0  0
 38 43  2  0  0  0
 38 46  1  0  0  0
 38 47  1  0  0  0
 39 64  1  0  0  0
 39 67  2  0  0  0
 40 52  1  0  0  0
 40 53  2  0  0  0
 40 58  1  0  0  0
 41109  1  0  0  0
 41110  1  0  0  0
 41111  1  0  0  0
 41 48  1  0  0  0
 42 43  1  0  0  0
 42 66  1  0  0  0
 42112  1  0  0  0
 42113  1  0  0  0
 43 44  1  0  0  0
 44114  1  0  0  0
 45 46  2  0  0  0
 45115  1  0  0  0
 46116  1  0  0  0
 47117  1  0  0  0
 47118  1  0  0  0
 48 56  1  0  0  0
 48 65  1  0  0  0
 48119  1  0  0  0
 49 50  1  0  0  0
 49 53  1  0  0  0
 49 64  1  0  0  0
 49120  1  0  0  0
 50 51  1  0  0  0
 50121  1  0  0  0
 50122  1  0  0  0
 51 52  1  0  0  0
 51123  1  0  0  0
 51124  1  0  0  0
 52125  1  0  0  0
 52126  1  0  0  0
 53 54  1  0  0  0
 54 55  2  0  0  0
 54127  1  0  0  0
 55 57  1  0  0  0
 55128  1  0  0  0
 56 69  2  0  0  0
 57 58  2  0  0  0
 57129  1  0  0  0
 58130  1  0  0  0
 59 60  1  0  0  0
 59 61  1  0  0  0
 59 62  1  0  0  0
 60131  1  0  0  0
 60132  1  0  0  0
 60133  1  0  0  0
 61134  1  0  0  0
 61135  1  0  0  0
 61136  1  0  0  0
 62137  1  0  0  0
 62138  1  0  0  0
 62139  1  0  0  0
 63 65  1  0  0  0
 63140  1  0  0  0
 63141  1  0  0  0
 63142  1  0  0  0
 64143  1  0  0  0
 65144  1  0  0  0
 68 79  1  0  0  0
 71 72  1  0  0  0
 71 74  2  0  0  0
 71145  1  0  0  0
 72 73  2  0  0  0
 72 75  1  0  0  0
 73 76  1  0  0  0
 73 85  1  0  0  0
 74 80  1  0  0  0
 74 85  1  0  0  0
 75 78  1  0  0  0
 75 82  2  0  0  0
 76 81  1  0  0  0
 76 83  2  0  0  0
 77 79  1  0  0  0
 77 80  1  0  0  0
 77 84  2  0  0  0
 78146  1  0  0  0
 78147  1  0  0  0
 78148  1  0  0  0
 79149  1  0  0  0
 79150  1  0  0  0
 80151  1  0  0  0
 81152  1  0  0  0
M  ISO  4   1 100  68 101  79 101  81 100
M  END
> <chiral flag>
0

> <version>
0

> <s_m_source_file>
/data/baiqing/PycharmProjects/Reinvent-master-3.2/result/LINK_invent/BTK/process_docking_weight1_custom_product_contain_oxygen_bond_distance_aromatic_linkinvent_7_9_3/rearranged_h_0151.sdf

> <i_m_source_file_index>
30

> <r_mmod_Potential_Energy-OPLS-2005>
8.47560024261475

> <r_mmod_Stretch_Energy-OPLS-2005>
118.076652526855

> <r_mmod_Bend_Energy-OPLS-2005>
197.196807861328

> <r_mmod_Torsional_Energy-OPLS-2005>
257.379333496094

> <r_mmod_Improper_Torsional_Energy-OPLS-2005>
6.55028057098389

> <r_mmod_Van_der_Waal_Energy-OPLS-2005>
145.561340332031

> <r_mmod_Electrostatic_Energy-OPLS-2005>
-570.583740234375

> <r_mmod_Solvation_Energy-OPLS-2005>
-247.832992553711

> <b_mmod_Minimization_Converged-OPLS-2005>
0

> <r_mmod_RMS_Derivative-OPLS-2005>
3.6611065864563

$$$$
30
                    3D
 Structure written by MMmdl.
155164  0  0  1  0            999 V2000
  -30.6302  -14.7419   20.5148 C   0  0  0  0  0  0
  -30.4329  -12.4677   19.4673 C   0  0  0  0  0  0
  -29.5073  -12.5310   18.2319 C   0  0  0  0  0  0
  -28.0336  -12.3562   18.6454 C   0  0  0  0  0  0
  -27.6447  -13.2385   19.8589 C   0  0  2  0  0  0
  -28.6903  -13.1560   20.9882 C   0  0  0  0  0  0
  -25.2518  -13.8217   20.5739 C   0  0  0  0  0  0
  -24.1810  -13.0450   20.9211 C   0  0  0  0  0  0
  -24.6411  -11.6929   20.8754 C   0  0  0  0  0  0
  -23.9092  -10.4304   21.0407 C   0  0  0  0  0  0
  -24.3634   -9.4205   21.9183 C   0  0  0  0  0  0
  -23.6308   -8.2239   22.0756 C   0  0  0  0  0  0
  -22.4291   -8.0284   21.3546 C   0  0  0  0  0  0
  -21.9931   -9.0257   20.4647 C   0  0  0  0  0  0
  -22.7265  -10.2131   20.3050 C   0  0  0  0  0  0
  -21.6857   -6.0728   22.5280 C   0  0  0  0  0  0
  -21.4021   -6.5629   23.8207 C   0  0  0  0  0  0
  -21.3658   -5.6772   24.9167 C   0  0  0  0  0  0
  -21.6060   -4.3046   24.7222 C   0  0  0  0  0  0
  -21.8823   -3.8133   23.4340 C   0  0  0  0  0  0
  -21.9197   -4.6951   22.3395 C   0  0  0  0  0  0
  -22.7818  -13.5211   21.1871 C   0  0  0  0  0  0
  -22.1669   -4.2132   21.0973 F   0  0  0  0  0  0
  -21.5613   -3.4532   25.7732 F   0  0  0  0  0  0
  -29.9945  -13.5188   20.4191 N   0  0  0  0  0  0
  -26.2961  -12.9445   20.3333 N   0  0  0  0  0  0
  -25.9353  -11.6579   20.5780 N   0  0  0  0  0  0
  -22.0475  -12.8190   22.0438 N   0  0  0  0  0  0
  -25.4225  -15.1964   20.4226 N   0  0  0  0  0  0
  -31.7733  -14.8612   20.0634 O   0  0  0  0  0  0
  -21.6646   -6.8888   21.4256 O   0  0  0  0  0  0
  -22.3477  -14.5497   20.6708 O   0  0  0  0  0  0
  -24.6345  -31.8527   23.1953 C   0  0  0  0  0  0
  -25.9148  -32.4754   23.8334 C   0  0  1  0  0  0
  -27.2171  -27.2424   20.1335 C   0  0  0  0  0  0
  -25.5915  -33.8562   24.2245 N   0  0  0  0  0  0
  -23.4334  -30.4740   21.5391 C   0  0  2  0  0  0
  -24.8800  -28.9152   20.1122 C   0  0  0  0  0  0
  -22.7520  -29.4604   22.4907 C   0  0  0  0  0  0
  -18.0327  -28.1377   22.8444 C   0  0  0  0  0  0
  -24.1481  -36.7291   23.2651 C   0  0  0  0  0  0
  -25.9813  -30.7606   21.3757 C   0  0  0  0  0  0
  -26.0539  -29.3813   20.7187 C   0  0  0  0  0  0
  -27.2302  -28.5582   20.7138 C   0  0  0  0  0  0
  -26.0211  -26.8477   19.5009 C   0  0  0  0  0  0
  -24.8692  -27.6575   19.4895 C   0  0  0  0  0  0
  -23.6522  -29.8043   20.1561 C   0  0  0  0  0  0
  -25.4109  -36.3081   24.0328 C   0  0  1  0  0  0
  -20.5908  -28.3754   23.1253 C   0  0  2  0  0  0
  -20.6813  -26.9469   22.5403 C   0  0  0  0  0  0
  -19.5829  -26.6442   21.5194 C   0  0  0  0  0  0
  -18.2026  -26.7909   22.1636 C   0  0  0  0  0  0
  -19.1554  -28.8889   23.2846 C   0  0  0  0  0  0
  -18.9433  -30.1501   23.8834 C   0  0  0  0  0  0
  -17.6405  -30.6565   24.0503 C   0  0  0  0  0  0
  -25.9046  -34.9447   23.5090 C   0  0  0  0  0  0
  -16.5334  -29.9031   23.6253 C   0  0  0  0  0  0
  -16.7312  -28.6454   23.0286 C   0  0  0  0  0  0
  -26.4494  -31.6601   25.0743 C   0  0  0  0  0  0
  -25.3725  -31.3743   26.1466 C   0  0  0  0  0  0
  -27.0342  -30.3028   24.6230 C   0  0  0  0  0  0
  -27.6032  -32.4355   25.7523 C   0  0  0  0  0  0
  -27.5565  -37.1803   24.8467 C   0  0  0  0  0  0
  -21.4216  -29.3098   22.3656 N   0  0  0  0  0  0
  -26.4290  -37.3774   23.9403 N   0  0  0  0  0  0
  -24.7033  -31.0477   22.0936 N   0  0  0  0  0  0
  -23.4195  -28.8135   23.3008 O   0  0  0  0  0  0
  -28.2956  -26.3265   20.1434 O   0  0  0  0  0  0
  -26.5634  -34.8922   22.4666 O   0  0  0  0  0  0
  -23.5484  -32.1354   23.7221 O   0  0  0  0  0  0
  -29.4375  -18.3309   19.8080 C   0  0  0  0  0  0
  -29.7671  -17.2420   20.7235 C   0  0  0  0  0  0
  -29.9335  -17.6853   22.0408 C   0  0  0  0  0  0
  -29.3677  -19.5976   20.4833 C   0  0  0  0  0  0
  -28.7345  -23.6445   19.9879 C   0  0  0  0  0  0
  -30.2094  -16.3082   22.5416 C   0  0  0  0  0  0
  -31.6478  -16.1303   23.0411 C   0  0  0  0  0  0
  -29.1644  -15.7783   23.5207 C   0  0  0  0  0  0
  -28.7897  -22.2067   20.7302 C   0  0  0  0  0  0
  -28.0262  -24.9273   20.6604 C   0  0  0  0  0  0
  -29.9689  -15.8205   21.1057 N   0  0  0  0  0  0
  -29.0761  -20.9270   19.9448 N   0  0  0  0  0  0
  -29.2428  -23.7426   18.8658 O   0  0  0  0  0  0
  -29.7107  -19.3991   22.2524 S   0  0  0  0  0  0
  -31.4726  -12.5944   19.1596 H   0  0  0  0  0  0
  -30.3826  -11.4833   19.9351 H   0  0  0  0  0  0
  -29.7811  -11.7638   17.5070 H   0  0  0  0  0  0
  -29.6389  -13.4877   17.7259 H   0  0  0  0  0  0
  -27.8835  -11.3074   18.8937 H   0  0  0  0  0  0
  -27.3699  -12.5650   17.8037 H   0  0  0  0  0  0
  -27.6450  -14.2676   19.4976 H   0  0  0  0  0  0
  -28.4032  -13.8231   21.7981 H   0  0  0  0  0  0
  -28.7288  -12.1577   21.4244 H   0  0  0  0  0  0
  -25.2792   -9.5647   22.4748 H   0  0  0  0  0  0
  -23.9997   -7.4622   22.7472 H   0  0  0  0  0  0
  -21.0855   -8.8802   19.8954 H   0  0  0  0  0  0
  -22.3762  -10.9667   19.6137 H   0  0  0  0  0  0
  -21.2032   -7.6137   23.9709 H   0  0  0  0  0  0
  -21.1476   -6.0503   25.9063 H   0  0  0  0  0  0
  -22.0611   -2.7605   23.2842 H   0  0  0  0  0  0
  -22.4095  -11.9852   22.4809 H   0  0  0  0  0  0
  -21.1077  -13.1180   22.2625 H   0  0  0  0  0  0
  -24.6610  -15.8538   20.5539 H   0  0  0  0  0  0
  -26.2902  -15.6448   20.1568 H   0  0  0  0  0  0
  -26.7237  -32.5409   23.1097 H   0  0  0  0  0  0
  -25.0062  -33.9682   25.0394 H   0  0  0  0  0  0
  -22.7340  -31.2980   21.3881 H   0  0  0  0  0  0
  -23.3735  -35.9629   23.3322 H   0  0  0  0  0  0
  -24.3580  -36.8893   22.2059 H   0  0  0  0  0  0
  -23.7220  -37.6492   23.6674 H   0  0  0  0  0  0
  -26.1226  -31.5170   20.6020 H   0  0  0  0  0  0
  -26.8607  -30.8139   22.0068 H   0  0  0  0  0  0
  -28.1347  -28.9083   21.1911 H   0  0  0  0  0  0
  -25.9633  -25.8849   19.0145 H   0  0  0  0  0  0
  -23.9706  -27.2941   19.0093 H   0  0  0  0  0  0
  -23.7811  -30.5782   19.3988 H   0  0  0  0  0  0
  -22.7694  -29.2377   19.8539 H   0  0  0  0  0  0
  -25.1286  -36.1945   25.0824 H   0  0  0  0  0  0
  -21.0007  -28.3337   24.1370 H   0  0  0  0  0  0
  -21.6685  -26.7486   22.1241 H   0  0  0  0  0  0
  -20.5649  -26.2387   23.3629 H   0  0  0  0  0  0
  -19.6749  -27.3328   20.6794 H   0  0  0  0  0  0
  -19.7041  -25.6392   21.1126 H   0  0  0  0  0  0
  -17.4298  -26.6525   21.4051 H   0  0  0  0  0  0
  -18.0540  -26.0077   22.9071 H   0  0  0  0  0  0
  -19.7891  -30.7401   24.2140 H   0  0  0  0  0  0
  -17.4909  -31.6263   24.5079 H   0  0  0  0  0  0
  -15.5310  -30.2863   23.7579 H   0  0  0  0  0  0
  -15.8761  -28.0714   22.6997 H   0  0  0  0  0  0
  -24.5909  -30.7073   25.7817 H   0  0  0  0  0  0
  -24.8910  -32.2900   26.4913 H   0  0  0  0  0  0
  -25.8060  -30.8933   27.0249 H   0  0  0  0  0  0
  -26.2934  -29.6778   24.1231 H   0  0  0  0  0  0
  -27.4001  -29.7286   25.4754 H   0  0  0  0  0  0
  -27.8826  -30.4308   23.9503 H   0  0  0  0  0  0
  -27.2633  -33.3665   26.2083 H   0  0  0  0  0  0
  -28.3863  -32.6894   25.0370 H   0  0  0  0  0  0
  -28.0694  -31.8505   26.5456 H   0  0  0  0  0  0
  -28.2602  -38.0085   24.7493 H   0  0  0  0  0  0
  -28.1038  -36.2603   24.6331 H   0  0  0  0  0  0
  -27.2289  -37.1508   25.8879 H   0  0  0  0  0  0
  -20.9450  -29.8793   21.6805 H   0  0  0  0  0  0
  -26.0162  -38.2855   24.1394 H   0  0  0  0  0  0
  -29.2412  -18.1587   18.7593 H   0  0  0  0  0  0
  -31.8302  -16.7200   23.9397 H   0  0  0  0  0  0
  -31.8649  -15.0918   23.2934 H   0  0  0  0  0  0
  -32.3812  -16.4526   22.3000 H   0  0  0  0  0  0
  -29.2175  -16.2962   24.4787 H   0  0  0  0  0  0
  -29.3070  -14.7189   23.7294 H   0  0  0  0  0  0
  -28.1504  -15.8996   23.1407 H   0  0  0  0  0  0
  -29.5419  -22.2942   21.5163 H   0  0  0  0  0  0
  -27.8386  -22.0827   21.2475 H   0  0  0  0  0  0
  -28.3069  -24.9216   21.7133 H   0  0  0  0  0  0
  -26.9549  -24.7290   20.6522 H   0  0  0  0  0  0
  -28.8917  -21.0284   18.9482 H   0  0  0  0  0  0
  1 25  1  0  0  0
  1 30  2  0  0  0
  1 81  1  0  0  0
  2  3  1  0  0  0
  2 25  1  0  0  0
  2 85  1  0  0  0
  2 86  1  0  0  0
  3  4  1  0  0  0
  3 87  1  0  0  0
  3 88  1  0  0  0
  4  5  1  0  0  0
  4 89  1  0  0  0
  4 90  1  0  0  0
  5  6  1  0  0  0
  5 26  1  0  0  0
  5 91  1  0  0  0
  6 25  1  0  0  0
  6 92  1  0  0  0
  6 93  1  0  0  0
  7  8  2  0  0  0
  7 26  1  0  0  0
  7 29  1  0  0  0
  8  9  1  0  0  0
  8 22  1  0  0  0
  9 10  1  0  0  0
  9 27  2  0  0  0
 10 11  2  0  0  0
 10 15  1  0  0  0
 11 12  1  0  0  0
 11 94  1  0  0  0
 12 13  2  0  0  0
 12 95  1  0  0  0
 13 14  1  0  0  0
 13 31  1  0  0  0
 14 15  2  0  0  0
 14 96  1  0  0  0
 15 97  1  0  0  0
 16 17  2  0  0  0
 16 21  1  0  0  0
 16 31  1  0  0  0
 17 18  1  0  0  0
 17 98  1  0  0  0
 18 19  2  0  0  0
 18 99  1  0  0  0
 19 20  1  0  0  0
 19 24  1  0  0  0
 20 21  2  0  0  0
 20100  1  0  0  0
 21 23  1  0  0  0
 22 28  1  0  0  0
 22 32  2  0  0  0
 26 27  1  0  0  0
 28101  1  0  0  0
 28102  1  0  0  0
 29103  1  0  0  0
 29104  1  0  0  0
 33 34  1  0  0  0
 33 66  1  0  0  0
 33 70  2  0  0  0
 34 36  1  0  0  0
 34 59  1  0  0  0
 34105  1  0  0  0
 35 44  2  0  0  0
 35 45  1  0  0  0
 35 68  1  0  0  0
 36 56  1  0  0  0
 36106  1  0  0  0
 37 39  1  0  0  0
 37 47  1  0  0  0
 37 66  1  0  0  0
 37107  1  0  0  0
 38 43  2  0  0  0
 38 46  1  0  0  0
 38 47  1  0  0  0
 39 64  1  0  0  0
 39 67  2  0  0  0
 40 52  1  0  0  0
 40 53  2  0  0  0
 40 58  1  0  0  0
 41108  1  0  0  0
 41109  1  0  0  0
 41110  1  0  0  0
 41 48  1  0  0  0
 42 43  1  0  0  0
 42 66  1  0  0  0
 42111  1  0  0  0
 42112  1  0  0  0
 43 44  1  0  0  0
 44113  1  0  0  0
 45 46  2  0  0  0
 45114  1  0  0  0
 46115  1  0  0  0
 47116  1  0  0  0
 47117  1  0  0  0
 48 56  1  0  0  0
 48 65  1  0  0  0
 48118  1  0  0  0
 49 50  1  0  0  0
 49 53  1  0  0  0
 49 64  1  0  0  0
 49119  1  0  0  0
 50 51  1  0  0  0
 50120  1  0  0  0
 50121  1  0  0  0
 51 52  1  0  0  0
 51122  1  0  0  0
 51123  1  0  0  0
 52124  1  0  0  0
 52125  1  0  0  0
 53 54  1  0  0  0
 54 55  2  0  0  0
 54126  1  0  0  0
 55 57  1  0  0  0
 55127  1  0  0  0
 56 69  2  0  0  0
 57 58  2  0  0  0
 57128  1  0  0  0
 58129  1  0  0  0
 59 60  1  0  0  0
 59 61  1  0  0  0
 59 62  1  0  0  0
 60130  1  0  0  0
 60131  1  0  0  0
 60132  1  0  0  0
 61133  1  0  0  0
 61134  1  0  0  0
 61135  1  0  0  0
 62136  1  0  0  0
 62137  1  0  0  0
 62138  1  0  0  0
 63 65  1  0  0  0
 63139  1  0  0  0
 63140  1  0  0  0
 63141  1  0  0  0
 64142  1  0  0  0
 65143  1  0  0  0
 68 80  1  0  0  0
 71 72  1  0  0  0
 71 74  2  0  0  0
 71144  1  0  0  0
 72 73  2  0  0  0
 72 81  1  0  0  0
 73 76  1  0  0  0
 73 84  1  0  0  0
 74 82  1  0  0  0
 74 84  1  0  0  0
 75 79  1  0  0  0
 75 80  1  0  0  0
 75 83  2  0  0  0
 76 77  1  0  0  0
 76 78  1  0  0  0
 76 81  1  0  0  0
 77145  1  0  0  0
 77146  1  0  0  0
 77147  1  0  0  0
 78148  1  0  0  0
 78149  1  0  0  0
 78150  1  0  0  0
 79 82  1  0  0  0
 79151  1  0  0  0
 79152  1  0  0  0
 80153  1  0  0  0
 80154  1  0  0  0
 82155  1  0  0  0
M  ISO  4   1 100  68 101  80 101  81 100
M  END
> <chiral flag>
0

> <version>
0

> <s_m_source_file>
/data/baiqing/PycharmProjects/Reinvent-master-3.2/result/LINK_invent/BTK/process_docking_weight1_custom_product_contain_oxygen_bond_distance_aromatic_linkinvent_7_9_3/rearranged_h_0151.sdf

> <i_m_source_file_index>
31

> <r_mmod_Potential_Energy-OPLS-2005>
836.904907226562

> <r_mmod_Stretch_Energy-OPLS-2005>
165.030426025391

> <r_mmod_Bend_Energy-OPLS-2005>
672.770446777344

> <r_mmod_Torsional_Energy-OPLS-2005>
251.56819152832

> <r_mmod_Improper_Torsional_Energy-OPLS-2005>
7.75228309631348

> <r_mmod_Van_der_Waal_Energy-OPLS-2005>
107.425315856934

> <r_mmod_Electrostatic_Energy-OPLS-2005>
-226.370971679688

> <r_mmod_Solvation_Energy-OPLS-2005>
-228.686538696289

> <b_mmod_Minimization_Converged-OPLS-2005>
0

> <r_mmod_RMS_Derivative-OPLS-2005>
3.6757824420929

$$$$
31
                    3D
 Structure written by MMmdl.
168177  0  0  1  0            999 V2000
  -30.6681  -14.5432   20.3506 C   0  0  0  0  0  0
  -30.4276  -12.2691   19.4722 C   0  0  0  0  0  0
  -29.5131  -12.3793   18.2400 C   0  0  0  0  0  0
  -28.0224  -12.3065   18.6290 C   0  0  0  0  0  0
  -27.6518  -13.2021   19.8422 C   0  0  2  0  0  0
  -28.7035  -13.0916   20.9707 C   0  0  0  0  0  0
  -25.2604  -13.8161   20.5674 C   0  0  0  0  0  0
  -24.1857  -13.0455   20.9207 C   0  0  0  0  0  0
  -24.6397  -11.6910   20.8770 C   0  0  0  0  0  0
  -23.9062  -10.4293   21.0414 C   0  0  0  0  0  0
  -24.3605   -9.4201   21.9182 C   0  0  0  0  0  0
  -23.6272   -8.2246   22.0760 C   0  0  0  0  0  0
  -22.4258   -8.0288   21.3546 C   0  0  0  0  0  0
  -21.9899   -9.0273   20.4647 C   0  0  0  0  0  0
  -22.7244  -10.2138   20.3049 C   0  0  0  0  0  0
  -21.6852   -6.0736   22.5282 C   0  0  0  0  0  0
  -21.4025   -6.5646   23.8215 C   0  0  0  0  0  0
  -21.3656   -5.6805   24.9184 C   0  0  0  0  0  0
  -21.6037   -4.3066   24.7238 C   0  0  0  0  0  0
  -21.8816   -3.8149   23.4362 C   0  0  0  0  0  0
  -21.9194   -4.6961   22.3414 C   0  0  0  0  0  0
  -22.7878  -13.5254   21.1868 C   0  0  0  0  0  0
  -22.1658   -4.2141   21.0989 F   0  0  0  0  0  0
  -21.5604   -3.4549   25.7752 F   0  0  0  0  0  0
  -30.0296  -13.3429   20.3884 N   0  0  0  0  0  0
  -26.3000  -12.9302   20.3266 N   0  0  0  0  0  0
  -25.9316  -11.6483   20.5779 N   0  0  0  0  0  0
  -22.0498  -12.8234   22.0389 N   0  0  0  0  0  0
  -25.4378  -15.1883   20.4049 N   0  0  0  0  0  0
  -31.8866  -14.6530   20.2100 O   0  0  0  0  0  0
  -21.6621   -6.8882   21.4247 O   0  0  0  0  0  0
  -22.3559  -14.5570   20.6729 O   0  0  0  0  0  0
  -24.6156  -31.8674   23.2090 C   0  0  0  0  0  0
  -25.9047  -32.4819   23.8390 C   0  0  1  0  0  0
  -27.2346  -27.4163   20.1040 C   0  0  0  0  0  0
  -25.5903  -33.8618   24.2322 N   0  0  0  0  0  0
  -23.4040  -30.4913   21.5496 C   0  0  2  0  0  0
  -24.8499  -28.9562   20.1117 C   0  0  0  0  0  0
  -22.7410  -29.4665   22.4982 C   0  0  0  0  0  0
  -18.0278  -28.1373   22.8498 C   0  0  0  0  0  0
  -24.1488  -36.7324   23.2637 C   0  0  0  0  0  0
  -25.9342  -30.8273   21.3634 C   0  0  0  0  0  0
  -26.0103  -29.4604   20.7116 C   0  0  0  0  0  0
  -27.2037  -28.6991   20.7029 C   0  0  0  0  0  0
  -26.0552  -26.9382   19.4830 C   0  0  0  0  0  0
  -24.8692  -27.6959   19.4921 C   0  0  0  0  0  0
  -23.6110  -29.8228   20.1641 C   0  0  0  0  0  0
  -25.4107  -36.3114   24.0337 C   0  0  1  0  0  0
  -20.5872  -28.3666   23.1312 C   0  0  2  0  0  0
  -20.6775  -26.9404   22.5412 C   0  0  0  0  0  0
  -19.5747  -26.6386   21.5214 C   0  0  0  0  0  0
  -18.1925  -26.7921   22.1626 C   0  0  0  0  0  0
  -19.1527  -28.8836   23.2903 C   0  0  0  0  0  0
  -18.9455  -30.1445   23.8910 C   0  0  0  0  0  0
  -17.6455  -30.6584   24.0566 C   0  0  0  0  0  0
  -25.9035  -34.9477   23.5127 C   0  0  0  0  0  0
  -16.5348  -29.9083   23.6327 C   0  0  0  0  0  0
  -16.7269  -28.6499   23.0354 C   0  0  0  0  0  0
  -26.4464  -31.6604   25.0727 C   0  0  0  0  0  0
  -25.3737  -31.3713   26.1484 C   0  0  0  0  0  0
  -27.0291  -30.3050   24.6102 C   0  0  0  0  0  0
  -27.6032  -32.4329   25.7497 C   0  0  0  0  0  0
  -27.5581  -37.1815   24.8461 C   0  0  0  0  0  0
  -21.4137  -29.3040   22.3716 N   0  0  0  0  0  0
  -26.4292  -37.3797   23.9409 N   0  0  0  0  0  0
  -24.6700  -31.0764   22.0992 N   0  0  0  0  0  0
  -23.4177  -28.8207   23.3029 O   0  0  0  0  0  0
  -28.3979  -26.6656   20.1507 O   0  0  0  0  0  0
  -26.5595  -34.8928   22.4689 O   0  0  0  0  0  0
  -23.5347  -32.1430   23.7482 O   0  0  0  0  0  0
  -30.7900  -19.6751   19.2705 C   0  0  0  0  0  0
  -30.0058  -17.9467   20.7702 C   0  0  0  0  0  0
  -30.5827  -17.3595   18.4476 C   0  0  0  0  0  0
  -30.2665  -19.3185   20.5238 C   0  0  0  0  0  0
  -30.9624  -18.7239   18.2515 C   0  0  0  0  0  0
  -30.1914  -16.9470   19.7740 C   0  0  0  0  0  0
  -29.3808  -24.4520   20.7392 C   0  0  0  0  0  0
  -29.4762  -14.8964   15.6800 C   0  0  0  0  0  0
  -30.9953  -14.6136   15.7277 C   0  0  0  0  0  0
  -29.1520  -15.8099   16.8765 C   0  0  0  0  0  0
  -31.5535  -15.3987   16.9261 C   0  0  0  0  0  0
  -30.4932  -16.4701   17.1814 C   0  0  0  0  0  0
  -28.2498  -25.2319   20.0383 C   0  0  0  0  0  0
  -29.3276  -22.9105   20.6123 C   0  0  0  0  0  0
  -31.4863  -19.2051   17.0444 N   0  0  0  0  0  0
  -29.8455  -15.5986   20.1478 N   0  0  0  0  0  0
  -29.9700  -20.3033   21.4902 N   0  0  0  0  0  0
  -30.2675  -25.0387   21.3740 O   0  0  0  0  0  0
  -31.9352  -22.0005   20.8102 O   0  0  0  0  0  0
  -30.6255  -22.0041   21.6065 S   0  0  1  0  0  0
  -31.4769  -12.3423   19.1776 H   0  0  0  0  0  0
  -30.3102  -11.2967   19.9526 H   0  0  0  0  0  0
  -29.7499  -11.5980   17.5165 H   0  0  0  0  0  0
  -29.7275  -13.3130   17.7445 H   0  0  0  0  0  0
  -27.8063  -11.2632   18.8595 H   0  0  0  0  0  0
  -27.3988  -12.5575   17.7698 H   0  0  0  0  0  0
  -27.6544  -14.2248   19.4695 H   0  0  0  0  0  0
  -28.6808  -12.1008   21.4267 H   0  0  0  0  0  0
  -28.4880  -13.8041   21.7692 H   0  0  0  0  0  0
  -25.2757   -9.5671   22.4740 H   0  0  0  0  0  0
  -23.9974   -7.4643   22.7497 H   0  0  0  0  0  0
  -21.0824   -8.8829   19.8946 H   0  0  0  0  0  0
  -22.3745  -10.9682   19.6140 H   0  0  0  0  0  0
  -21.2027   -7.6153   23.9731 H   0  0  0  0  0  0
  -21.1468   -6.0527   25.9088 H   0  0  0  0  0  0
  -22.0584   -2.7606   23.2885 H   0  0  0  0  0  0
  -22.4061  -11.9841   22.4719 H   0  0  0  0  0  0
  -21.1124  -13.1290   22.2577 H   0  0  0  0  0  0
  -24.6810  -15.8539   20.5197 H   0  0  0  0  0  0
  -26.2854  -15.6178   20.0597 H   0  0  0  0  0  0
  -26.7120  -32.5521   23.1151 H   0  0  0  0  0  0
  -25.0066  -33.9782   25.0477 H   0  0  0  0  0  0
  -22.6934  -31.3089   21.4108 H   0  0  0  0  0  0
  -23.3742  -35.9663   23.3295 H   0  0  0  0  0  0
  -24.3583  -36.8945   22.2051 H   0  0  0  0  0  0
  -23.7243  -37.6531   23.6653 H   0  0  0  0  0  0
  -26.0459  -31.5898   20.5912 H   0  0  0  0  0  0
  -26.8223  -30.8834   21.9811 H   0  0  0  0  0  0
  -28.0971  -29.0815   21.1764 H   0  0  0  0  0  0
  -26.0308  -25.9796   18.9847 H   0  0  0  0  0  0
  -23.9793  -27.3062   19.0169 H   0  0  0  0  0  0
  -23.7118  -30.5966   19.4021 H   0  0  0  0  0  0
  -22.7348  -29.2401   19.8734 H   0  0  0  0  0  0
  -25.1279  -36.1979   25.0829 H   0  0  0  0  0  0
  -20.9973  -28.3240   24.1427 H   0  0  0  0  0  0
  -20.5694  -26.2277   23.3597 H   0  0  0  0  0  0
  -21.6642  -26.7454   22.1195 H   0  0  0  0  0  0
  -19.6911  -25.6299   21.1232 H   0  0  0  0  0  0
  -19.6682  -27.3206   20.6747 H   0  0  0  0  0  0
  -17.4198  -26.6682   21.4024 H   0  0  0  0  0  0
  -18.0324  -26.0054   22.9009 H   0  0  0  0  0  0
  -19.7934  -30.7264   24.2283 H   0  0  0  0  0  0
  -17.5012  -31.6264   24.5158 H   0  0  0  0  0  0
  -15.5354  -30.2988   23.7640 H   0  0  0  0  0  0
  -15.8672  -28.0819   22.7061 H   0  0  0  0  0  0
  -24.5901  -30.7063   25.7832 H   0  0  0  0  0  0
  -24.8941  -32.2872   26.4948 H   0  0  0  0  0  0
  -25.8105  -30.8877   27.0232 H   0  0  0  0  0  0
  -26.2839  -29.6825   24.1138 H   0  0  0  0  0  0
  -27.4042  -29.7267   25.4553 H   0  0  0  0  0  0
  -27.8676  -30.4365   23.9260 H   0  0  0  0  0  0
  -27.2637  -33.3611   26.2102 H   0  0  0  0  0  0
  -28.3832  -32.6923   25.0329 H   0  0  0  0  0  0
  -28.0709  -31.8444   26.5396 H   0  0  0  0  0  0
  -28.2593  -38.0119   24.7521 H   0  0  0  0  0  0
  -28.1086  -36.2652   24.6269 H   0  0  0  0  0  0
  -27.2307  -37.1449   25.8867 H   0  0  0  0  0  0
  -20.9297  -29.8754   21.6930 H   0  0  0  0  0  0
  -26.0181  -38.2878   24.1406 H   0  0  0  0  0  0
  -31.0224  -20.7065   19.0567 H   0  0  0  0  0  0
  -29.6395  -17.6520   21.7432 H   0  0  0  0  0  0
  -28.8844  -13.9799   15.6934 H   0  0  0  0  0  0
  -29.2374  -15.4109   14.7480 H   0  0  0  0  0  0
  -31.4653  -14.9566   14.8039 H   0  0  0  0  0  0
  -31.2140  -13.5480   15.8154 H   0  0  0  0  0  0
  -28.7931  -15.2344   17.7234 H   0  0  0  0  0  0
  -28.3778  -16.5409   16.6384 H   0  0  0  0  0  0
  -32.5346  -15.8280   16.7191 H   0  0  0  0  0  0
  -31.6649  -14.7227   17.7654 H   0  0  0  0  0  0
  -30.5897  -17.1236   16.3177 H   0  0  0  0  0  0
  -27.3177  -24.9096   20.5032 H   0  0  0  0  0  0
  -28.2161  -24.9414   18.9882 H   0  0  0  0  0  0
  -29.4366  -22.6455   19.5620 H   0  0  0  0  0  0
  -28.3436  -22.5703   20.9318 H   0  0  0  0  0  0
  -31.5783  -20.2007   16.8718 H   0  0  0  0  0  0
  -31.4785  -18.6383   16.2034 H   0  0  0  0  0  0
  -28.8680  -15.4157   20.3095 H   0  0  0  0  0  0
  -29.3878  -20.0039   22.2680 H   0  0  0  0  0  0
  1 25  1  0  0  0
  1 30  2  0  0  0
  1 86  1  0  0  0
  2  3  1  0  0  0
  2 25  1  0  0  0
  2 91  1  0  0  0
  2 92  1  0  0  0
  3  4  1  0  0  0
  3 93  1  0  0  0
  3 94  1  0  0  0
  4  5  1  0  0  0
  4 95  1  0  0  0
  4 96  1  0  0  0
  5  6  1  0  0  0
  5 26  1  0  0  0
  5 97  1  0  0  0
  6 25  1  0  0  0
  6 98  1  0  0  0
  6 99  1  0  0  0
  7  8  2  0  0  0
  7 26  1  0  0  0
  7 29  1  0  0  0
  8  9  1  0  0  0
  8 22  1  0  0  0
  9 10  1  0  0  0
  9 27  2  0  0  0
 10 11  2  0  0  0
 10 15  1  0  0  0
 11 12  1  0  0  0
 11100  1  0  0  0
 12 13  2  0  0  0
 12101  1  0  0  0
 13 14  1  0  0  0
 13 31  1  0  0  0
 14 15  2  0  0  0
 14102  1  0  0  0
 15103  1  0  0  0
 16 17  2  0  0  0
 16 21  1  0  0  0
 16 31  1  0  0  0
 17 18  1  0  0  0
 17104  1  0  0  0
 18 19  2  0  0  0
 18105  1  0  0  0
 19 20  1  0  0  0
 19 24  1  0  0  0
 20 21  2  0  0  0
 20106  1  0  0  0
 21 23  1  0  0  0
 22 28  1  0  0  0
 22 32  2  0  0  0
 26 27  1  0  0  0
 28107  1  0  0  0
 28108  1  0  0  0
 29109  1  0  0  0
 29110  1  0  0  0
 33 34  1  0  0  0
 33 66  1  0  0  0
 33 70  2  0  0  0
 34 36  1  0  0  0
 34 59  1  0  0  0
 34111  1  0  0  0
 35 44  2  0  0  0
 35 45  1  0  0  0
 35 68  1  0  0  0
 36 56  1  0  0  0
 36112  1  0  0  0
 37 39  1  0  0  0
 37 47  1  0  0  0
 37 66  1  0  0  0
 37113  1  0  0  0
 38 43  2  0  0  0
 38 46  1  0  0  0
 38 47  1  0  0  0
 39 64  1  0  0  0
 39 67  2  0  0  0
 40 52  1  0  0  0
 40 53  2  0  0  0
 40 58  1  0  0  0
 41114  1  0  0  0
 41115  1  0  0  0
 41116  1  0  0  0
 41 48  1  0  0  0
 42 43  1  0  0  0
 42 66  1  0  0  0
 42117  1  0  0  0
 42118  1  0  0  0
 43 44  1  0  0  0
 44119  1  0  0  0
 45 46  2  0  0  0
 45120  1  0  0  0
 46121  1  0  0  0
 47122  1  0  0  0
 47123  1  0  0  0
 48 56  1  0  0  0
 48 65  1  0  0  0
 48124  1  0  0  0
 49 50  1  0  0  0
 49 53  1  0  0  0
 49 64  1  0  0  0
 49125  1  0  0  0
 50 51  1  0  0  0
 50126  1  0  0  0
 50127  1  0  0  0
 51 52  1  0  0  0
 51128  1  0  0  0
 51129  1  0  0  0
 52130  1  0  0  0
 52131  1  0  0  0
 53 54  1  0  0  0
 54 55  2  0  0  0
 54132  1  0  0  0
 55 57  1  0  0  0
 55133  1  0  0  0
 56 69  2  0  0  0
 57 58  2  0  0  0
 57134  1  0  0  0
 58135  1  0  0  0
 59 60  1  0  0  0
 59 61  1  0  0  0
 59 62  1  0  0  0
 60136  1  0  0  0
 60137  1  0  0  0
 60138  1  0  0  0
 61139  1  0  0  0
 61140  1  0  0  0
 61141  1  0  0  0
 62142  1  0  0  0
 62143  1  0  0  0
 62144  1  0  0  0
 63 65  1  0  0  0
 63145  1  0  0  0
 63146  1  0  0  0
 63147  1  0  0  0
 64148  1  0  0  0
 65149  1  0  0  0
 68 83  1  0  0  0
 71 74  2  0  0  0
 71 75  1  0  0  0
 71150  1  0  0  0
 72 74  1  0  0  0
 72 76  2  0  0  0
 72151  1  0  0  0
 73 75  2  0  0  0
 73 76  1  0  0  0
 73 82  1  0  0  0
 74 87  1  0  0  0
 75 85  1  0  0  0
 76 86  1  0  0  0
 77 83  1  0  0  0
 77 84  1  0  0  0
 77 88  2  0  0  0
 78 79  1  0  0  0
 78 80  1  0  0  0
 78152  1  0  0  0
 78153  1  0  0  0
 79 81  1  0  0  0
 79154  1  0  0  0
 79155  1  0  0  0
 80 82  1  0  0  0
 80156  1  0  0  0
 80157  1  0  0  0
 81 82  1  0  0  0
 81158  1  0  0  0
 81159  1  0  0  0
 82160  1  0  0  0
 83161  1  0  0  0
 83162  1  0  0  0
 84163  1  0  0  0
 84164  1  0  0  0
 84 90  1  0  0  0
 85165  1  0  0  0
 85166  1  0  0  0
 86167  1  0  0  0
 87 90  1  0  0  0
 87168  1  0  0  0
 89 90  2  0  0  0
M  ISO  4   1 100  68 101  83 101  86 100
M  END
> <chiral flag>
0

> <version>
0

> <s_m_source_file>
/data/baiqing/PycharmProjects/Reinvent-master-3.2/result/LINK_invent/BTK/process_docking_weight1_custom_product_contain_oxygen_bond_distance_aromatic_linkinvent_7_9_3/rearranged_h_0151.sdf

> <i_m_source_file_index>
32

> <r_mmod_Potential_Energy-OPLS-2005>
161.795745849609

> <r_mmod_Stretch_Energy-OPLS-2005>
49.0158271789551

> <r_mmod_Bend_Energy-OPLS-2005>
153.478439331055

> <r_mmod_Torsional_Energy-OPLS-2005>
334.329040527344

> <r_mmod_Improper_Torsional_Energy-OPLS-2005>
10.3897666931152

> <r_mmod_Van_der_Waal_Energy-OPLS-2005>
143.105804443359

> <r_mmod_Electrostatic_Energy-OPLS-2005>
-272.393615722656

> <r_mmod_Solvation_Energy-OPLS-2005>
-292.998474121094

> <b_mmod_Minimization_Converged-OPLS-2005>
0

> <r_mmod_RMS_Derivative-OPLS-2005>
1.92603099346161

$$$$
32
                    3D
 Structure written by MMmdl.
151160  0  0  1  0            999 V2000
  -30.5815  -14.7786   20.4608 C   0  0  0  0  0  0
  -30.4429  -12.4732   19.4834 C   0  0  0  0  0  0
  -29.5179  -12.5193   18.2452 C   0  0  0  0  0  0
  -28.0442  -12.3341   18.6557 C   0  0  0  0  0  0
  -27.6463  -13.2314   19.8573 C   0  0  2  0  0  0
  -28.6899  -13.1585   20.9946 C   0  0  0  0  0  0
  -25.2523  -13.8195   20.5698 C   0  0  0  0  0  0
  -24.1808  -13.0443   20.9202 C   0  0  0  0  0  0
  -24.6396  -11.6919   20.8741 C   0  0  0  0  0  0
  -23.9069  -10.4297   21.0399 C   0  0  0  0  0  0
  -24.3618   -9.4214   21.9179 C   0  0  0  0  0  0
  -23.6293   -8.2248   22.0754 C   0  0  0  0  0  0
  -22.4275   -8.0282   21.3545 C   0  0  0  0  0  0
  -21.9910   -9.0255   20.4645 C   0  0  0  0  0  0
  -22.7239  -10.2134   20.3052 C   0  0  0  0  0  0
  -21.6855   -6.0733   22.5277 C   0  0  0  0  0  0
  -21.4016   -6.5637   23.8210 C   0  0  0  0  0  0
  -21.3661   -5.6791   24.9173 C   0  0  0  0  0  0
  -21.6047   -4.3054   24.7224 C   0  0  0  0  0  0
  -21.8817   -3.8144   23.4346 C   0  0  0  0  0  0
  -21.9193   -4.6960   22.3402 C   0  0  0  0  0  0
  -22.7828  -13.5226   21.1865 C   0  0  0  0  0  0
  -22.1660   -4.2145   21.0980 F   0  0  0  0  0  0
  -21.5630   -3.4538   25.7738 F   0  0  0  0  0  0
  -29.9930  -13.5289   20.4230 N   0  0  0  0  0  0
  -26.2960  -12.9402   20.3305 N   0  0  0  0  0  0
  -25.9332  -11.6546   20.5759 N   0  0  0  0  0  0
  -22.0473  -12.8213   22.0418 N   0  0  0  0  0  0
  -25.4214  -15.1920   20.4116 N   0  0  0  0  0  0
  -31.7515  -14.9122   20.0873 O   0  0  0  0  0  0
  -21.6641   -6.8875   21.4239 O   0  0  0  0  0  0
  -22.3510  -14.5532   20.6716 O   0  0  0  0  0  0
  -24.6341  -31.8523   23.1962 C   0  0  0  0  0  0
  -25.9153  -32.4741   23.8321 C   0  0  1  0  0  0
  -27.2248  -27.2473   20.1311 C   0  0  0  0  0  0
  -25.5939  -33.8544   24.2245 N   0  0  0  0  0  0
  -23.4341  -30.4743   21.5386 C   0  0  2  0  0  0
  -24.8867  -28.9223   20.1056 C   0  0  0  0  0  0
  -22.7528  -29.4587   22.4885 C   0  0  0  0  0  0
  -18.0299  -28.1395   22.8479 C   0  0  0  0  0  0
  -24.1489  -36.7277   23.2642 C   0  0  0  0  0  0
  -25.9824  -30.7607   21.3813 C   0  0  0  0  0  0
  -26.0593  -29.3828   20.7212 C   0  0  0  0  0  0
  -27.2343  -28.5565   20.7272 C   0  0  0  0  0  0
  -26.0346  -26.8648   19.4775 C   0  0  0  0  0  0
  -24.8802  -27.6715   19.4709 C   0  0  0  0  0  0
  -23.6559  -29.8088   20.1549 C   0  0  0  0  0  0
  -25.4115  -36.3061   24.0327 C   0  0  1  0  0  0
  -20.5906  -28.3709   23.1250 C   0  0  2  0  0  0
  -20.6790  -26.9421   22.5401 C   0  0  0  0  0  0
  -19.5763  -26.6384   21.5212 C   0  0  0  0  0  0
  -18.1942  -26.7936   22.1621 C   0  0  0  0  0  0
  -19.1554  -28.8869   23.2859 C   0  0  0  0  0  0
  -18.9479  -30.1467   23.8881 C   0  0  0  0  0  0
  -17.6478  -30.6592   24.0562 C   0  0  0  0  0  0
  -25.9056  -34.9433   23.5088 C   0  0  0  0  0  0
  -16.5366  -29.9089   23.6339 C   0  0  0  0  0  0
  -16.7285  -28.6510   23.0354 C   0  0  0  0  0  0
  -26.4511  -31.6579   25.0720 C   0  0  0  0  0  0
  -25.3726  -31.3750   26.1438 C   0  0  0  0  0  0
  -27.0364  -30.2993   24.6228 C   0  0  0  0  0  0
  -27.6057  -32.4326   25.7497 C   0  0  0  0  0  0
  -27.5575  -37.1794   24.8467 C   0  0  0  0  0  0
  -21.4229  -29.3051   22.3638 N   0  0  0  0  0  0
  -26.4290  -37.3763   23.9409 N   0  0  0  0  0  0
  -24.7025  -31.0471   22.0949 N   0  0  0  0  0  0
  -23.4217  -28.8129   23.2994 O   0  0  0  0  0  0
  -28.2446  -26.2623   20.2065 O   0  0  0  0  0  0
  -26.5626  -34.8913   22.4654 O   0  0  0  0  0  0
  -23.5479  -32.1348   23.7237 O   0  0  0  0  0  0
  -30.4345  -19.4902   19.7794 C   0  0  0  0  0  0
  -30.7036  -18.0496   19.8004 C   0  0  0  0  0  0
  -29.3747  -19.9265   20.5527 C   0  0  0  0  0  0
  -29.8622  -17.2662   20.5765 C   0  0  0  0  0  0
  -28.1655  -23.7021   20.9390 C   0  0  0  0  0  0
  -27.8716  -25.0744   20.9069 C   0  0  0  0  0  0
  -27.3679  -22.8713   21.9293 C   0  0  0  0  0  0
  -29.0890  -22.6308   20.2245 C   0  0  0  0  0  0
  -27.8555  -21.4128   21.9061 C   0  0  0  0  0  0
  -28.8085  -21.2574   20.8184 N   0  0  0  0  0  0
  -29.7779  -15.8685   20.7862 N   0  0  0  0  0  0
  -28.7140  -18.4330   21.3090 S   0  0  0  0  0  0
  -31.4824  -12.6090   19.1811 H   0  0  0  0  0  0
  -30.3985  -11.4941   19.9630 H   0  0  0  0  0  0
  -29.8067  -11.7500   17.5281 H   0  0  0  0  0  0
  -29.6378  -13.4755   17.7337 H   0  0  0  0  0  0
  -27.9057  -11.2848   18.9188 H   0  0  0  0  0  0
  -27.3870  -12.5239   17.8066 H   0  0  0  0  0  0
  -27.6422  -14.2543   19.4804 H   0  0  0  0  0  0
  -28.7304  -12.1551   21.4206 H   0  0  0  0  0  0
  -28.4150  -13.8227   21.8152 H   0  0  0  0  0  0
  -25.2759   -9.5693   22.4756 H   0  0  0  0  0  0
  -24.0002   -7.4641   22.7475 H   0  0  0  0  0  0
  -21.0842   -8.8772   19.8948 H   0  0  0  0  0  0
  -22.3694  -10.9672   19.6162 H   0  0  0  0  0  0
  -21.2007   -7.6144   23.9713 H   0  0  0  0  0  0
  -21.1487   -6.0521   25.9076 H   0  0  0  0  0  0
  -22.0594   -2.7606   23.2848 H   0  0  0  0  0  0
  -22.4087  -11.9869   22.4800 H   0  0  0  0  0  0
  -21.1093  -13.1240   22.2634 H   0  0  0  0  0  0
  -24.6506  -15.8434   20.5146 H   0  0  0  0  0  0
  -26.2661  -15.6321   20.0693 H   0  0  0  0  0  0
  -26.7222  -32.5394   23.1064 H   0  0  0  0  0  0
  -25.0108  -33.9682   25.0406 H   0  0  0  0  0  0
  -22.7325  -31.2978   21.3899 H   0  0  0  0  0  0
  -23.3757  -35.9602   23.3296 H   0  0  0  0  0  0
  -24.3585  -36.8906   22.2059 H   0  0  0  0  0  0
  -23.7235  -37.6471   23.6673 H   0  0  0  0  0  0
  -26.1243  -31.5218   20.6126 H   0  0  0  0  0  0
  -26.8582  -30.8095   22.0168 H   0  0  0  0  0  0
  -28.1249  -28.8941   21.2381 H   0  0  0  0  0  0
  -25.9832  -25.8941   19.0047 H   0  0  0  0  0  0
  -23.9843  -27.3129   18.9830 H   0  0  0  0  0  0
  -23.7813  -30.5852   19.3992 H   0  0  0  0  0  0
  -22.7756  -29.2413   19.8474 H   0  0  0  0  0  0
  -25.1300  -36.1904   25.0821 H   0  0  0  0  0  0
  -21.0001  -28.3289   24.1368 H   0  0  0  0  0  0
  -20.5691  -26.2319   23.3610 H   0  0  0  0  0  0
  -21.6655  -26.7441   22.1192 H   0  0  0  0  0  0
  -19.6922  -25.6290   21.1251 H   0  0  0  0  0  0
  -19.6701  -27.3186   20.6736 H   0  0  0  0  0  0
  -17.4211  -26.6685   21.4022 H   0  0  0  0  0  0
  -18.0336  -26.0079   22.9019 H   0  0  0  0  0  0
  -19.7956  -30.7290   24.2238 H   0  0  0  0  0  0
  -17.5033  -31.6271   24.5163 H   0  0  0  0  0  0
  -15.5365  -30.2986   23.7676 H   0  0  0  0  0  0
  -15.8687  -28.0828   22.7072 H   0  0  0  0  0  0
  -24.5904  -30.7092   25.7775 H   0  0  0  0  0  0
  -24.8918  -32.2928   26.4830 H   0  0  0  0  0  0
  -25.8035  -30.8955   27.0236 H   0  0  0  0  0  0
  -26.2954  -29.6729   24.1246 H   0  0  0  0  0  0
  -27.4034  -29.7270   25.4758 H   0  0  0  0  0  0
  -27.8838  -30.4267   23.9489 H   0  0  0  0  0  0
  -27.2670  -33.3655   26.2019 H   0  0  0  0  0  0
  -28.3899  -32.6835   25.0341 H   0  0  0  0  0  0
  -28.0684  -31.8481   26.5459 H   0  0  0  0  0  0
  -28.2592  -38.0090   24.7508 H   0  0  0  0  0  0
  -28.1072  -36.2620   24.6303 H   0  0  0  0  0  0
  -27.2296  -37.1453   25.8872 H   0  0  0  0  0  0
  -20.9420  -29.8774   21.6841 H   0  0  0  0  0  0
  -26.0165  -38.2836   24.1408 H   0  0  0  0  0  0
  -31.0498  -20.1530   19.1888 H   0  0  0  0  0  0
  -31.5149  -17.6436   19.2131 H   0  0  0  0  0  0
  -27.1187  -25.3672   21.6285 H   0  0  0  0  0  0
  -26.3156  -22.9110   21.6447 H   0  0  0  0  0  0
  -27.4439  -23.2900   22.9341 H   0  0  0  0  0  0
  -30.1382  -22.8986   20.3578 H   0  0  0  0  0  0
  -28.8812  -22.6271   19.1535 H   0  0  0  0  0  0
  -27.0112  -20.7324   21.7834 H   0  0  0  0  0  0
  -28.3414  -21.1629   22.8512 H   0  0  0  0  0  0
  -28.9008  -15.5737   21.1892 H   0  0  0  0  0  0
  1 25  1  0  0  0
  1 30  2  0  0  0
  1 81  1  0  0  0
  2  3  1  0  0  0
  2 25  1  0  0  0
  2 83  1  0  0  0
  2 84  1  0  0  0
  3  4  1  0  0  0
  3 85  1  0  0  0
  3 86  1  0  0  0
  4  5  1  0  0  0
  4 87  1  0  0  0
  4 88  1  0  0  0
  5  6  1  0  0  0
  5 26  1  0  0  0
  5 89  1  0  0  0
  6 25  1  0  0  0
  6 90  1  0  0  0
  6 91  1  0  0  0
  7  8  2  0  0  0
  7 26  1  0  0  0
  7 29  1  0  0  0
  8  9  1  0  0  0
  8 22  1  0  0  0
  9 10  1  0  0  0
  9 27  2  0  0  0
 10 11  2  0  0  0
 10 15  1  0  0  0
 11 12  1  0  0  0
 11 92  1  0  0  0
 12 13  2  0  0  0
 12 93  1  0  0  0
 13 14  1  0  0  0
 13 31  1  0  0  0
 14 15  2  0  0  0
 14 94  1  0  0  0
 15 95  1  0  0  0
 16 17  2  0  0  0
 16 21  1  0  0  0
 16 31  1  0  0  0
 17 18  1  0  0  0
 17 96  1  0  0  0
 18 19  2  0  0  0
 18 97  1  0  0  0
 19 20  1  0  0  0
 19 24  1  0  0  0
 20 21  2  0  0  0
 20 98  1  0  0  0
 21 23  1  0  0  0
 22 28  1  0  0  0
 22 32  2  0  0  0
 26 27  1  0  0  0
 28 99  1  0  0  0
 28100  1  0  0  0
 29101  1  0  0  0
 29102  1  0  0  0
 33 34  1  0  0  0
 33 66  1  0  0  0
 33 70  2  0  0  0
 34 36  1  0  0  0
 34 59  1  0  0  0
 34103  1  0  0  0
 35 44  2  0  0  0
 35 45  1  0  0  0
 35 68  1  0  0  0
 36 56  1  0  0  0
 36104  1  0  0  0
 37 39  1  0  0  0
 37 47  1  0  0  0
 37 66  1  0  0  0
 37105  1  0  0  0
 38 43  2  0  0  0
 38 46  1  0  0  0
 38 47  1  0  0  0
 39 64  1  0  0  0
 39 67  2  0  0  0
 40 52  1  0  0  0
 40 53  2  0  0  0
 40 58  1  0  0  0
 41106  1  0  0  0
 41107  1  0  0  0
 41108  1  0  0  0
 41 48  1  0  0  0
 42 43  1  0  0  0
 42 66  1  0  0  0
 42109  1  0  0  0
 42110  1  0  0  0
 43 44  1  0  0  0
 44111  1  0  0  0
 45 46  2  0  0  0
 45112  1  0  0  0
 46113  1  0  0  0
 47114  1  0  0  0
 47115  1  0  0  0
 48 56  1  0  0  0
 48 65  1  0  0  0
 48116  1  0  0  0
 49 50  1  0  0  0
 49 53  1  0  0  0
 49 64  1  0  0  0
 49117  1  0  0  0
 50 51  1  0  0  0
 50118  1  0  0  0
 50119  1  0  0  0
 51 52  1  0  0  0
 51120  1  0  0  0
 51121  1  0  0  0
 52122  1  0  0  0
 52123  1  0  0  0
 53 54  1  0  0  0
 54 55  2  0  0  0
 54124  1  0  0  0
 55 57  1  0  0  0
 55125  1  0  0  0
 56 69  2  0  0  0
 57 58  2  0  0  0
 57126  1  0  0  0
 58127  1  0  0  0
 59 60  1  0  0  0
 59 61  1  0  0  0
 59 62  1  0  0  0
 60128  1  0  0  0
 60129  1  0  0  0
 60130  1  0  0  0
 61131  1  0  0  0
 61132  1  0  0  0
 61133  1  0  0  0
 62134  1  0  0  0
 62135  1  0  0  0
 62136  1  0  0  0
 63 65  1  0  0  0
 63137  1  0  0  0
 63138  1  0  0  0
 63139  1  0  0  0
 64140  1  0  0  0
 65141  1  0  0  0
 68 76  1  0  0  0
 71 72  1  0  0  0
 71 73  2  0  0  0
 71142  1  0  0  0
 72 74  2  0  0  0
 72143  1  0  0  0
 73 80  1  0  0  0
 73 82  1  0  0  0
 74 81  1  0  0  0
 74 82  1  0  0  0
 75 76  2  0  0  0
 75 77  1  0  0  0
 75 78  1  0  0  0
 76144  1  0  0  0
 77 79  1  0  0  0
 77145  1  0  0  0
 77146  1  0  0  0
 78 80  1  0  0  0
 78147  1  0  0  0
 78148  1  0  0  0
 79 80  1  0  0  0
 79149  1  0  0  0
 79150  1  0  0  0
 81151  1  0  0  0
M  ISO  4   1 100  68 101  76 101  81 100
M  END
> <chiral flag>
0

> <version>
0

> <s_m_source_file>
/data/baiqing/PycharmProjects/Reinvent-master-3.2/result/LINK_invent/BTK/process_docking_weight1_custom_product_contain_oxygen_bond_distance_aromatic_linkinvent_7_9_3/rearranged_h_0151.sdf

> <i_m_source_file_index>
33

> <r_mmod_Potential_Energy-OPLS-2005>
287.762054443359

> <r_mmod_Stretch_Energy-OPLS-2005>
119.516632080078

> <r_mmod_Bend_Energy-OPLS-2005>
261.224517822266

> <r_mmod_Torsional_Energy-OPLS-2005>
245.144607543945

> <r_mmod_Improper_Torsional_Energy-OPLS-2005>
3.78673791885376

> <r_mmod_Van_der_Waal_Energy-OPLS-2005>
115.785125732422

> <r_mmod_Electrostatic_Energy-OPLS-2005>
-338.058288574219

> <r_mmod_Solvation_Energy-OPLS-2005>
-226.097808837891

> <b_mmod_Minimization_Converged-OPLS-2005>
0

> <r_mmod_RMS_Derivative-OPLS-2005>
0.695441365242004

$$$$
33
                    3D
 Structure written by MMmdl.
162171  0  0  1  0            999 V2000
  -30.6066  -14.7286   20.4679 C   0  0  0  0  0  0
  -30.4376  -12.4544   19.4537 C   0  0  0  0  0  0
  -29.5018  -12.4895   18.2235 C   0  0  0  0  0  0
  -28.0312  -12.3098   18.6479 C   0  0  0  0  0  0
  -27.6413  -13.2195   19.8446 C   0  0  2  0  0  0
  -28.6893  -13.1403   20.9749 C   0  0  0  0  0  0
  -25.2526  -13.8179   20.5687 C   0  0  0  0  0  0
  -24.1808  -13.0428   20.9204 C   0  0  0  0  0  0
  -24.6398  -11.6901   20.8753 C   0  0  0  0  0  0
  -23.9088  -10.4276   21.0408 C   0  0  0  0  0  0
  -24.3647   -9.4182   21.9165 C   0  0  0  0  0  0
  -23.6308   -8.2232   22.0760 C   0  0  0  0  0  0
  -22.4289   -8.0285   21.3550 C   0  0  0  0  0  0
  -21.9922   -9.0255   20.4647 C   0  0  0  0  0  0
  -22.7273  -10.2116   20.3039 C   0  0  0  0  0  0
  -21.6845   -6.0739   22.5282 C   0  0  0  0  0  0
  -21.3993   -6.5637   23.8209 C   0  0  0  0  0  0
  -21.3658   -5.6782   24.9167 C   0  0  0  0  0  0
  -21.6039   -4.3051   24.7201 C   0  0  0  0  0  0
  -21.8841   -3.8154   23.4330 C   0  0  0  0  0  0
  -21.9184   -4.6969   22.3390 C   0  0  0  0  0  0
  -22.7828  -13.5209   21.1841 C   0  0  0  0  0  0
  -22.1661   -4.2170   21.0961 F   0  0  0  0  0  0
  -21.5625   -3.4531   25.7706 F   0  0  0  0  0  0
  -29.9858  -13.5039   20.3930 N   0  0  0  0  0  0
  -26.2926  -12.9363   20.3247 N   0  0  0  0  0  0
  -25.9314  -11.6523   20.5752 N   0  0  0  0  0  0
  -22.0475  -12.8205   22.0408 N   0  0  0  0  0  0
  -25.4159  -15.1913   20.4091 N   0  0  0  0  0  0
  -31.7953  -14.8315   20.1499 O   0  0  0  0  0  0
  -21.6653   -6.8892   21.4250 O   0  0  0  0  0  0
  -22.3503  -14.5508   20.6683 O   0  0  0  0  0  0
  -24.6257  -31.8501   23.1979 C   0  0  0  0  0  0
  -25.9078  -32.4719   23.8330 C   0  0  1  0  0  0
  -27.2433  -27.2751   20.1198 C   0  0  0  0  0  0
  -25.5914  -33.8529   24.2219 N   0  0  0  0  0  0
  -23.4290  -30.4704   21.5326 C   0  0  2  0  0  0
  -24.8913  -28.9252   20.1114 C   0  0  0  0  0  0
  -22.7503  -29.4532   22.4819 C   0  0  0  0  0  0
  -18.0271  -28.1335   22.8454 C   0  0  0  0  0  0
  -24.1514  -36.7267   23.2643 C   0  0  0  0  0  0
  -25.9793  -30.7676   21.3867 C   0  0  0  0  0  0
  -26.0575  -29.3957   20.7209 C   0  0  0  0  0  0
  -27.2356  -28.5827   20.7158 C   0  0  0  0  0  0
  -26.0511  -26.8746   19.4793 C   0  0  0  0  0  0
  -24.8893  -27.6702   19.4831 C   0  0  0  0  0  0
  -23.6607  -29.8046   20.1512 C   0  0  0  0  0  0
  -25.4139  -36.3031   24.0292 C   0  0  1  0  0  0
  -20.5863  -28.3616   23.1193 C   0  0  2  0  0  0
  -20.6750  -26.9310   22.5374 C   0  0  0  0  0  0
  -19.5711  -26.6279   21.5190 C   0  0  0  0  0  0
  -18.1901  -26.7907   22.1551 C   0  0  0  0  0  0
  -19.1540  -28.8800   23.2813 C   0  0  0  0  0  0
  -18.9473  -30.1394   23.8852 C   0  0  0  0  0  0
  -17.6489  -30.6546   24.0559 C   0  0  0  0  0  0
  -25.9052  -34.9418   23.5039 C   0  0  0  0  0  0
  -16.5378  -29.9059   23.6321 C   0  0  0  0  0  0
  -16.7275  -28.6469   23.0346 C   0  0  0  0  0  0
  -26.4529  -31.6551   25.0684 C   0  0  0  0  0  0
  -25.3772  -31.3682   26.1390 C   0  0  0  0  0  0
  -27.0418  -30.2964   24.6218 C   0  0  0  0  0  0
  -27.6052  -32.4328   25.7459 C   0  0  0  0  0  0
  -27.5576  -37.1798   24.8464 C   0  0  0  0  0  0
  -21.4182  -29.2974   22.3588 N   0  0  0  0  0  0
  -26.4315  -37.3718   23.9376 N   0  0  0  0  0  0
  -24.6958  -31.0514   22.0924 N   0  0  0  0  0  0
  -23.4235  -28.8081   23.2912 O   0  0  0  0  0  0
  -28.3655  -26.4099   20.2145 O   0  0  0  0  0  0
  -26.5630  -34.8892   22.4610 O   0  0  0  0  0  0
  -23.5411  -32.1265   23.7290 O   0  0  0  0  0  0
  -31.6406  -19.0323   21.6072 C   0  0  0  0  0  0
  -30.6780  -20.0417   21.3959 C   0  0  0  0  0  0
  -31.3768  -17.6888   21.2914 C   0  0  0  0  0  0
  -29.1863  -18.3753   20.5042 C   0  0  0  0  0  0
  -29.4319  -19.7997   20.7770 C   0  0  0  0  0  0
  -30.1208  -17.2922   20.7845 C   0  0  0  0  0  0
  -27.9491  -23.5150   20.2845 C   0  0  0  0  0  0
  -28.7789  -22.3677   20.3136 C   0  0  0  0  0  0
  -26.0089  -21.0841   20.3910 C   0  0  0  0  0  0
  -26.4016  -23.5513   20.4737 C   0  0  0  0  0  0
  -25.6164  -22.3764   21.0500 C   0  0  0  0  0  0
  -27.1971  -20.4301   21.0450 C   0  0  0  0  0  0
  -30.2273  -22.6122   19.8863 C   0  0  0  0  0  0
  -28.4313  -24.9685   19.7467 C   0  0  0  0  0  0
  -28.5019  -20.9308   20.5761 N   0  0  0  0  0  0
  -29.8005  -15.8462   20.6607 N   0  0  0  0  0  0
  -25.4385  -20.6250   19.3960 O   0  0  0  0  0  0
  -31.4710  -12.6008   19.1317 H   0  0  0  0  0  0
  -30.4120  -11.4752   19.9341 H   0  0  0  0  0  0
  -29.7846  -11.7058   17.5193 H   0  0  0  0  0  0
  -29.6163  -13.4333   17.6892 H   0  0  0  0  0  0
  -27.8992  -11.2618   18.9248 H   0  0  0  0  0  0
  -27.3652  -12.4815   17.8004 H   0  0  0  0  0  0
  -27.6401  -14.2397   19.4585 H   0  0  0  0  0  0
  -28.7378  -12.1324   21.3894 H   0  0  0  0  0  0
  -28.4221  -13.7947   21.8072 H   0  0  0  0  0  0
  -25.2807   -9.5642   22.4706 H   0  0  0  0  0  0
  -24.0026   -7.4612   22.7484 H   0  0  0  0  0  0
  -21.0855   -8.8759   19.8946 H   0  0  0  0  0  0
  -22.3760  -10.9631   19.6119 H   0  0  0  0  0  0
  -21.1998   -7.6148   23.9710 H   0  0  0  0  0  0
  -21.1455   -6.0516   25.9069 H   0  0  0  0  0  0
  -22.0635   -2.7626   23.2808 H   0  0  0  0  0  0
  -22.4137  -11.9904   22.4843 H   0  0  0  0  0  0
  -21.1038  -13.1134   22.2539 H   0  0  0  0  0  0
  -24.6346  -15.8302   20.5220 H   0  0  0  0  0  0
  -26.2488  -15.6435   20.0580 H   0  0  0  0  0  0
  -26.7090  -32.5410   23.1049 H   0  0  0  0  0  0
  -25.0102  -33.9680   25.0394 H   0  0  0  0  0  0
  -22.7197  -31.2872   21.3796 H   0  0  0  0  0  0
  -23.3750  -35.9631   23.3320 H   0  0  0  0  0  0
  -24.3574  -36.8895   22.2064 H   0  0  0  0  0  0
  -23.7356  -37.6488   23.6680 H   0  0  0  0  0  0
  -26.1327  -31.5371   20.6301 H   0  0  0  0  0  0
  -26.8444  -30.8030   22.0366 H   0  0  0  0  0  0
  -28.1324  -28.9358   21.2050 H   0  0  0  0  0  0
  -25.9729  -25.9212   18.9841 H   0  0  0  0  0  0
  -23.9922  -27.3071   19.0026 H   0  0  0  0  0  0
  -23.8044  -30.5783   19.3979 H   0  0  0  0  0  0
  -22.7881  -29.2327   19.8327 H   0  0  0  0  0  0
  -25.1366  -36.1837   25.0784 H   0  0  0  0  0  0
  -20.9992  -28.3276   24.1299 H   0  0  0  0  0  0
  -20.5604  -26.2208   23.3592 H   0  0  0  0  0  0
  -21.6627  -26.7275   22.1189 H   0  0  0  0  0  0
  -19.6766  -25.6140   21.1245 H   0  0  0  0  0  0
  -19.6678  -27.3034   20.6699 H   0  0  0  0  0  0
  -17.4190  -26.6739   21.3926 H   0  0  0  0  0  0
  -18.0229  -26.0010   22.8876 H   0  0  0  0  0  0
  -19.7966  -30.7195   24.2208 H   0  0  0  0  0  0
  -17.5056  -31.6217   24.5168 H   0  0  0  0  0  0
  -15.5401  -30.2976   23.7633 H   0  0  0  0  0  0
  -15.8640  -28.0825   22.7043 H   0  0  0  0  0  0
  -24.5927  -30.7064   25.7689 H   0  0  0  0  0  0
  -24.9011  -32.2866   26.4838 H   0  0  0  0  0  0
  -25.8084  -30.8817   27.0144 H   0  0  0  0  0  0
  -26.3009  -29.6602   24.1347 H   0  0  0  0  0  0
  -27.4198  -29.7317   25.4756 H   0  0  0  0  0  0
  -27.8849  -30.4195   23.9402 H   0  0  0  0  0  0
  -27.2604  -33.3606   26.2031 H   0  0  0  0  0  0
  -28.3872  -32.6916   25.0307 H   0  0  0  0  0  0
  -28.0709  -31.8474   26.5400 H   0  0  0  0  0  0
  -28.2592  -38.0088   24.7439 H   0  0  0  0  0  0
  -28.1061  -36.2604   24.6380 H   0  0  0  0  0  0
  -27.2240  -37.1560   25.8849 H   0  0  0  0  0  0
  -20.9292  -29.8791   21.6908 H   0  0  0  0  0  0
  -26.0155  -38.2763   24.1378 H   0  0  0  0  0  0
  -32.5933  -19.2992   22.0427 H   0  0  0  0  0  0
  -30.9271  -21.0279   21.7449 H   0  0  0  0  0  0
  -32.1450  -16.9576   21.4954 H   0  0  0  0  0  0
  -28.2491  -18.0658   20.0656 H   0  0  0  0  0  0
  -25.9862  -23.7371   19.4852 H   0  0  0  0  0  0
  -26.1166  -24.4120   21.0799 H   0  0  0  0  0  0
  -25.7736  -22.3003   22.1253 H   0  0  0  0  0  0
  -24.5475  -22.5310   20.9123 H   0  0  0  0  0  0
  -27.0271  -19.3655   20.9131 H   0  0  0  0  0  0
  -27.1303  -20.5972   22.1207 H   0  0  0  0  0  0
  -30.8383  -22.9113   20.7389 H   0  0  0  0  0  0
  -30.3328  -23.3997   19.1414 H   0  0  0  0  0  0
  -30.6714  -21.7361   19.4225 H   0  0  0  0  0  0
  -28.0066  -25.1141   20.7318 H   0  0  0  0  0  0
  -27.8396  -25.0165   18.8355 H   0  0  0  0  0  0
  -28.8235  -15.6182   20.7704 H   0  0  0  0  0  0
  1 25  1  0  0  0
  1 30  2  0  0  0
  1 86  1  0  0  0
  2  3  1  0  0  0
  2 25  1  0  0  0
  2 88  1  0  0  0
  2 89  1  0  0  0
  3  4  1  0  0  0
  3 90  1  0  0  0
  3 91  1  0  0  0
  4  5  1  0  0  0
  4 92  1  0  0  0
  4 93  1  0  0  0
  5  6  1  0  0  0
  5 26  1  0  0  0
  5 94  1  0  0  0
  6 25  1  0  0  0
  6 95  1  0  0  0
  6 96  1  0  0  0
  7  8  2  0  0  0
  7 26  1  0  0  0
  7 29  1  0  0  0
  8  9  1  0  0  0
  8 22  1  0  0  0
  9 10  1  0  0  0
  9 27  2  0  0  0
 10 11  2  0  0  0
 10 15  1  0  0  0
 11 12  1  0  0  0
 11 97  1  0  0  0
 12 13  2  0  0  0
 12 98  1  0  0  0
 13 14  1  0  0  0
 13 31  1  0  0  0
 14 15  2  0  0  0
 14 99  1  0  0  0
 15100  1  0  0  0
 16 17  2  0  0  0
 16 21  1  0  0  0
 16 31  1  0  0  0
 17 18  1  0  0  0
 17101  1  0  0  0
 18 19  2  0  0  0
 18102  1  0  0  0
 19 20  1  0  0  0
 19 24  1  0  0  0
 20 21  2  0  0  0
 20103  1  0  0  0
 21 23  1  0  0  0
 22 28  1  0  0  0
 22 32  2  0  0  0
 26 27  1  0  0  0
 28104  1  0  0  0
 28105  1  0  0  0
 29106  1  0  0  0
 29107  1  0  0  0
 33 34  1  0  0  0
 33 66  1  0  0  0
 33 70  2  0  0  0
 34 36  1  0  0  0
 34 59  1  0  0  0
 34108  1  0  0  0
 35 44  2  0  0  0
 35 45  1  0  0  0
 35 68  1  0  0  0
 36 56  1  0  0  0
 36109  1  0  0  0
 37 39  1  0  0  0
 37 47  1  0  0  0
 37 66  1  0  0  0
 37110  1  0  0  0
 38 43  2  0  0  0
 38 46  1  0  0  0
 38 47  1  0  0  0
 39 64  1  0  0  0
 39 67  2  0  0  0
 40 52  1  0  0  0
 40 53  2  0  0  0
 40 58  1  0  0  0
 41111  1  0  0  0
 41112  1  0  0  0
 41113  1  0  0  0
 41 48  1  0  0  0
 42 43  1  0  0  0
 42 66  1  0  0  0
 42114  1  0  0  0
 42115  1  0  0  0
 43 44  1  0  0  0
 44116  1  0  0  0
 45 46  2  0  0  0
 45117  1  0  0  0
 46118  1  0  0  0
 47119  1  0  0  0
 47120  1  0  0  0
 48 56  1  0  0  0
 48 65  1  0  0  0
 48121  1  0  0  0
 49 50  1  0  0  0
 49 53  1  0  0  0
 49 64  1  0  0  0
 49122  1  0  0  0
 50 51  1  0  0  0
 50123  1  0  0  0
 50124  1  0  0  0
 51 52  1  0  0  0
 51125  1  0  0  0
 51126  1  0  0  0
 52127  1  0  0  0
 52128  1  0  0  0
 53 54  1  0  0  0
 54 55  2  0  0  0
 54129  1  0  0  0
 55 57  1  0  0  0
 55130  1  0  0  0
 56 69  2  0  0  0
 57 58  2  0  0  0
 57131  1  0  0  0
 58132  1  0  0  0
 59 60  1  0  0  0
 59 61  1  0  0  0
 59 62  1  0  0  0
 60133  1  0  0  0
 60134  1  0  0  0
 60135  1  0  0  0
 61136  1  0  0  0
 61137  1  0  0  0
 61138  1  0  0  0
 62139  1  0  0  0
 62140  1  0  0  0
 62141  1  0  0  0
 63 65  1  0  0  0
 63142  1  0  0  0
 63143  1  0  0  0
 63144  1  0  0  0
 64145  1  0  0  0
 65146  1  0  0  0
 68 84  1  0  0  0
 71 72  2  0  0  0
 71 73  1  0  0  0
 71147  1  0  0  0
 72 75  1  0  0  0
 72148  1  0  0  0
 73 76  2  0  0  0
 73149  1  0  0  0
 74 75  2  0  0  0
 74 76  1  0  0  0
 74150  1  0  0  0
 75 85  1  0  0  0
 76 86  1  0  0  0
 77 78  2  0  0  0
 77 80  1  0  0  0
 77 84  1  0  0  0
 78 83  1  0  0  0
 78 85  1  0  0  0
 79 81  1  0  0  0
 79 82  1  0  0  0
 79 87  2  0  0  0
 80 81  1  0  0  0
 80151  1  0  0  0
 80152  1  0  0  0
 81153  1  0  0  0
 81154  1  0  0  0
 82 85  1  0  0  0
 82155  1  0  0  0
 82156  1  0  0  0
 83157  1  0  0  0
 83158  1  0  0  0
 83159  1  0  0  0
 84160  1  0  0  0
 84161  1  0  0  0
 86162  1  0  0  0
M  ISO  4   1 100  68 101  84 101  86 100
M  END
> <chiral flag>
0

> <version>
0

> <s_m_source_file>
/data/baiqing/PycharmProjects/Reinvent-master-3.2/result/LINK_invent/BTK/process_docking_weight1_custom_product_contain_oxygen_bond_distance_aromatic_linkinvent_7_9_3/rearranged_h_0151.sdf

> <i_m_source_file_index>
34

> <r_mmod_Potential_Energy-OPLS-2005>
531.7939453125

> <r_mmod_Stretch_Energy-OPLS-2005>
164.052291870117

> <r_mmod_Bend_Energy-OPLS-2005>
434.125061035156

> <r_mmod_Torsional_Energy-OPLS-2005>
223.161468505859

> <r_mmod_Improper_Torsional_Energy-OPLS-2005>
7.46631479263306

> <r_mmod_Van_der_Waal_Energy-OPLS-2005>
183.384826660156

> <r_mmod_Electrostatic_Energy-OPLS-2005>
-336.423919677734

> <r_mmod_Solvation_Energy-OPLS-2005>
-222.387145996094

> <b_mmod_Minimization_Converged-OPLS-2005>
0

> <r_mmod_RMS_Derivative-OPLS-2005>
6.64473581314087

$$$$
34
                    3D
 Structure written by MMmdl.
155164  0  0  1  0            999 V2000
  -30.6069  -14.8265   20.4384 C   0  0  0  0  0  0
  -30.4264  -12.5080   19.4849 C   0  0  0  0  0  0
  -29.5101  -12.5101   18.2424 C   0  0  0  0  0  0
  -28.0400  -12.3217   18.6605 C   0  0  0  0  0  0
  -27.6321  -13.2436   19.8411 C   0  0  2  0  0  0
  -28.6763  -13.2388   20.9773 C   0  0  0  0  0  0
  -25.2476  -13.8221   20.5718 C   0  0  0  0  0  0
  -24.1780  -13.0448   20.9217 C   0  0  0  0  0  0
  -24.6386  -11.6931   20.8749 C   0  0  0  0  0  0
  -23.9071  -10.4299   21.0405 C   0  0  0  0  0  0
  -24.3625   -9.4213   21.9180 C   0  0  0  0  0  0
  -23.6299   -8.2247   22.0751 C   0  0  0  0  0  0
  -22.4280   -8.0283   21.3542 C   0  0  0  0  0  0
  -21.9915   -9.0258   20.4644 C   0  0  0  0  0  0
  -22.7243  -10.2137   20.3054 C   0  0  0  0  0  0
  -21.6857   -6.0736   22.5277 C   0  0  0  0  0  0
  -21.4018   -6.5640   23.8211 C   0  0  0  0  0  0
  -21.3660   -5.6792   24.9173 C   0  0  0  0  0  0
  -21.6045   -4.3055   24.7223 C   0  0  0  0  0  0
  -21.8820   -3.8146   23.4343 C   0  0  0  0  0  0
  -21.9194   -4.6963   22.3400 C   0  0  0  0  0  0
  -22.7800  -13.5221   21.1875 C   0  0  0  0  0  0
  -22.1661   -4.2149   21.0976 F   0  0  0  0  0  0
  -21.5630   -3.4538   25.7735 F   0  0  0  0  0  0
  -29.9628  -13.6030   20.3757 N   0  0  0  0  0  0
  -26.2896  -12.9445   20.3263 N   0  0  0  0  0  0
  -25.9319  -11.6578   20.5744 N   0  0  0  0  0  0
  -22.0452  -12.8208   22.0433 N   0  0  0  0  0  0
  -25.4177  -15.1948   20.4174 N   0  0  0  0  0  0
  -31.8151  -14.8515   20.1773 O   0  0  0  0  0  0
  -21.6644   -6.8879   21.4239 O   0  0  0  0  0  0
  -22.3480  -14.5523   20.6717 O   0  0  0  0  0  0
  -24.6359  -31.8506   23.1947 C   0  0  0  0  0  0
  -25.9167  -32.4728   23.8307 C   0  0  1  0  0  0
  -27.2098  -27.2015   20.1541 C   0  0  0  0  0  0
  -25.5945  -33.8533   24.2226 N   0  0  0  0  0  0
  -23.4358  -30.4715   21.5388 C   0  0  2  0  0  0
  -24.8845  -28.9080   20.1122 C   0  0  0  0  0  0
  -22.7530  -29.4576   22.4893 C   0  0  0  0  0  0
  -18.0297  -28.1388   22.8483 C   0  0  0  0  0  0
  -24.1491  -36.7271   23.2643 C   0  0  0  0  0  0
  -25.9859  -30.7432   21.3866 C   0  0  0  0  0  0
  -26.0566  -29.3587   20.7341 C   0  0  0  0  0  0
  -27.2235  -28.5185   20.7434 C   0  0  0  0  0  0
  -26.0284  -26.8476   19.4711 C   0  0  0  0  0  0
  -24.8785  -27.6622   19.4665 C   0  0  0  0  0  0
  -23.6586  -29.8030   20.1564 C   0  0  0  0  0  0
  -25.4122  -36.3053   24.0320 C   0  0  1  0  0  0
  -20.5906  -28.3707   23.1255 C   0  0  2  0  0  0
  -20.6785  -26.9417   22.5407 C   0  0  0  0  0  0
  -19.5758  -26.6380   21.5214 C   0  0  0  0  0  0
  -18.1939  -26.7930   22.1625 C   0  0  0  0  0  0
  -19.1552  -28.8865   23.2863 C   0  0  0  0  0  0
  -18.9472  -30.1466   23.8881 C   0  0  0  0  0  0
  -17.6469  -30.6589   24.0561 C   0  0  0  0  0  0
  -25.9066  -34.9425   23.5078 C   0  0  0  0  0  0
  -16.5360  -29.9083   23.6334 C   0  0  0  0  0  0
  -16.7283  -28.6501   23.0355 C   0  0  0  0  0  0
  -26.4515  -31.6572   25.0719 C   0  0  0  0  0  0
  -25.3719  -31.3746   26.1429 C   0  0  0  0  0  0
  -27.0372  -30.2974   24.6258 C   0  0  0  0  0  0
  -27.6052  -32.4329   25.7501 C   0  0  0  0  0  0
  -27.5576  -37.1797   24.8468 C   0  0  0  0  0  0
  -21.4232  -29.3043   22.3636 N   0  0  0  0  0  0
  -26.4293  -37.3757   23.9403 N   0  0  0  0  0  0
  -24.7048  -31.0421   22.0951 N   0  0  0  0  0  0
  -23.4205  -28.8121   23.3017 O   0  0  0  0  0  0
  -28.2835  -26.2625   20.1580 O   0  0  0  0  0  0
  -26.5642  -34.8909   22.4650 O   0  0  0  0  0  0
  -23.5496  -32.1356   23.7208 O   0  0  0  0  0  0
  -29.3765  -18.4042   20.9154 C   0  0  0  0  0  0
  -29.7027  -18.3781   19.6265 C   0  0  0  0  0  0
  -29.0776  -20.7216   20.4565 C   0  0  0  0  0  0
  -29.4816  -16.9651   21.4801 C   0  0  0  0  0  0
  -30.0595  -16.9700   19.1733 C   0  0  0  0  0  0
  -29.1481  -25.0448   21.9844 C   0  0  0  0  0  0
  -26.7990  -24.5444   21.3409 C   0  0  0  0  0  0
  -28.7170  -23.5042   19.9783 C   0  0  0  0  0  0
  -28.2059  -24.8580   20.7844 C   0  0  0  0  0  0
  -29.0192  -19.7179   21.3993 N   0  0  0  0  0  0
  -29.8655  -16.0228   20.3425 N   0  0  0  0  0  0
  -28.7641  -22.1369   20.6858 N   0  0  0  0  0  0
  -29.6035  -19.9960   18.8864 S   0  0  0  0  0  0
  -31.4673  -12.6300   19.1798 H   0  0  0  0  0  0
  -30.3779  -11.5482   20.0012 H   0  0  0  0  0  0
  -29.8074  -11.7208   17.5507 H   0  0  0  0  0  0
  -29.6219  -13.4513   17.7019 H   0  0  0  0  0  0
  -27.9150  -11.2775   18.9498 H   0  0  0  0  0  0
  -27.3789  -12.4809   17.8075 H   0  0  0  0  0  0
  -27.6075  -14.2541   19.4326 H   0  0  0  0  0  0
  -28.7325  -12.2613   21.4584 H   0  0  0  0  0  0
  -28.3999  -13.9548   21.7532 H   0  0  0  0  0  0
  -25.2770   -9.5693   22.4756 H   0  0  0  0  0  0
  -24.0011   -7.4640   22.7472 H   0  0  0  0  0  0
  -21.0846   -8.8776   19.8952 H   0  0  0  0  0  0
  -22.3697  -10.9677   19.6167 H   0  0  0  0  0  0
  -21.2011   -7.6149   23.9714 H   0  0  0  0  0  0
  -21.1483   -6.0521   25.9076 H   0  0  0  0  0  0
  -22.0597   -2.7607   23.2842 H   0  0  0  0  0  0
  -22.4079  -11.9880   22.4830 H   0  0  0  0  0  0
  -21.1064  -13.1220   22.2633 H   0  0  0  0  0  0
  -24.6544  -15.8518   20.5379 H   0  0  0  0  0  0
  -26.2744  -15.6356   20.1073 H   0  0  0  0  0  0
  -26.7227  -32.5359   23.1037 H   0  0  0  0  0  0
  -25.0086  -33.9659   25.0368 H   0  0  0  0  0  0
  -22.7346  -31.2951   21.3891 H   0  0  0  0  0  0
  -23.3752  -35.9605   23.3312 H   0  0  0  0  0  0
  -24.3573  -36.8892   22.2055 H   0  0  0  0  0  0
  -23.7248  -37.6472   23.6670 H   0  0  0  0  0  0
  -26.1341  -31.4984   20.6137 H   0  0  0  0  0  0
  -26.8598  -30.7934   22.0243 H   0  0  0  0  0  0
  -28.1200  -28.8570   21.2436 H   0  0  0  0  0  0
  -25.9848  -25.9021   18.9504 H   0  0  0  0  0  0
  -23.9886  -27.3188   18.9570 H   0  0  0  0  0  0
  -23.7885  -30.5778   19.3999 H   0  0  0  0  0  0
  -22.7753  -29.2404   19.8491 H   0  0  0  0  0  0
  -25.1310  -36.1893   25.0813 H   0  0  0  0  0  0
  -20.9996  -28.3290   24.1378 H   0  0  0  0  0  0
  -20.5684  -26.2317   23.3620 H   0  0  0  0  0  0
  -21.6652  -26.7435   22.1202 H   0  0  0  0  0  0
  -19.6918  -25.6287   21.1253 H   0  0  0  0  0  0
  -19.6693  -27.3183   20.6738 H   0  0  0  0  0  0
  -17.4209  -26.6677   21.4027 H   0  0  0  0  0  0
  -18.0336  -26.0074   22.9023 H   0  0  0  0  0  0
  -19.7948  -30.7288   24.2240 H   0  0  0  0  0  0
  -17.5022  -31.6266   24.5167 H   0  0  0  0  0  0
  -15.5359  -30.2978   23.7667 H   0  0  0  0  0  0
  -15.8684  -28.0815   22.7076 H   0  0  0  0  0  0
  -24.5896  -30.7094   25.7756 H   0  0  0  0  0  0
  -24.8910  -32.2923   26.4824 H   0  0  0  0  0  0
  -25.8020  -30.8941   27.0225 H   0  0  0  0  0  0
  -26.2973  -29.6707   24.1264 H   0  0  0  0  0  0
  -27.4005  -29.7260   25.4810 H   0  0  0  0  0  0
  -27.8875  -30.4225   23.9549 H   0  0  0  0  0  0
  -27.2650  -33.3644   26.2040 H   0  0  0  0  0  0
  -28.3885  -32.6868   25.0346 H   0  0  0  0  0  0
  -28.0693  -31.8480   26.5452 H   0  0  0  0  0  0
  -28.2603  -38.0085   24.7498 H   0  0  0  0  0  0
  -28.1064  -36.2615   24.6322 H   0  0  0  0  0  0
  -27.2290  -37.1476   25.8871 H   0  0  0  0  0  0
  -20.9426  -29.8759   21.6828 H   0  0  0  0  0  0
  -26.0167  -38.2832   24.1392 H   0  0  0  0  0  0
  -28.5320  -16.6436   21.9083 H   0  0  0  0  0  0
  -30.2301  -16.9127   22.2719 H   0  0  0  0  0  0
  -31.0890  -16.9442   18.8126 H   0  0  0  0  0  0
  -29.4184  -16.6592   18.3477 H   0  0  0  0  0  0
  -28.8292  -25.8764   22.6135 H   0  0  0  0  0  0
  -30.1653  -25.2551   21.6530 H   0  0  0  0  0  0
  -29.1868  -24.1563   22.6147 H   0  0  0  0  0  0
  -26.8119  -23.6553   21.9715 H   0  0  0  0  0  0
  -26.0846  -24.3407   20.5446 H   0  0  0  0  0  0
  -26.4080  -25.3551   21.9566 H   0  0  0  0  0  0
  -29.7211  -23.6972   19.5979 H   0  0  0  0  0  0
  -28.0956  -23.3852   19.0896 H   0  0  0  0  0  0
  -28.4898  -22.2609   21.6539 H   0  0  0  0  0  0
  1 25  1  0  0  0
  1 30  2  0  0  0
  1 81  1  0  0  0
  2  3  1  0  0  0
  2 25  1  0  0  0
  2 84  1  0  0  0
  2 85  1  0  0  0
  3  4  1  0  0  0
  3 86  1  0  0  0
  3 87  1  0  0  0
  4  5  1  0  0  0
  4 88  1  0  0  0
  4 89  1  0  0  0
  5  6  1  0  0  0
  5 26  1  0  0  0
  5 90  1  0  0  0
  6 25  1  0  0  0
  6 91  1  0  0  0
  6 92  1  0  0  0
  7  8  2  0  0  0
  7 26  1  0  0  0
  7 29  1  0  0  0
  8  9  1  0  0  0
  8 22  1  0  0  0
  9 10  1  0  0  0
  9 27  2  0  0  0
 10 11  2  0  0  0
 10 15  1  0  0  0
 11 12  1  0  0  0
 11 93  1  0  0  0
 12 13  2  0  0  0
 12 94  1  0  0  0
 13 14  1  0  0  0
 13 31  1  0  0  0
 14 15  2  0  0  0
 14 95  1  0  0  0
 15 96  1  0  0  0
 16 17  2  0  0  0
 16 21  1  0  0  0
 16 31  1  0  0  0
 17 18  1  0  0  0
 17 97  1  0  0  0
 18 19  2  0  0  0
 18 98  1  0  0  0
 19 20  1  0  0  0
 19 24  1  0  0  0
 20 21  2  0  0  0
 20 99  1  0  0  0
 21 23  1  0  0  0
 22 28  1  0  0  0
 22 32  2  0  0  0
 26 27  1  0  0  0
 28100  1  0  0  0
 28101  1  0  0  0
 29102  1  0  0  0
 29103  1  0  0  0
 33 34  1  0  0  0
 33 66  1  0  0  0
 33 70  2  0  0  0
 34 36  1  0  0  0
 34 59  1  0  0  0
 34104  1  0  0  0
 35 44  2  0  0  0
 35 45  1  0  0  0
 35 68  1  0  0  0
 36 56  1  0  0  0
 36105  1  0  0  0
 37 39  1  0  0  0
 37 47  1  0  0  0
 37 66  1  0  0  0
 37106  1  0  0  0
 38 43  2  0  0  0
 38 46  1  0  0  0
 38 47  1  0  0  0
 39 64  1  0  0  0
 39 67  2  0  0  0
 40 52  1  0  0  0
 40 53  2  0  0  0
 40 58  1  0  0  0
 41107  1  0  0  0
 41108  1  0  0  0
 41109  1  0  0  0
 41 48  1  0  0  0
 42 43  1  0  0  0
 42 66  1  0  0  0
 42110  1  0  0  0
 42111  1  0  0  0
 43 44  1  0  0  0
 44112  1  0  0  0
 45 46  2  0  0  0
 45113  1  0  0  0
 46114  1  0  0  0
 47115  1  0  0  0
 47116  1  0  0  0
 48 56  1  0  0  0
 48 65  1  0  0  0
 48117  1  0  0  0
 49 50  1  0  0  0
 49 53  1  0  0  0
 49 64  1  0  0  0
 49118  1  0  0  0
 50 51  1  0  0  0
 50119  1  0  0  0
 50120  1  0  0  0
 51 52  1  0  0  0
 51121  1  0  0  0
 51122  1  0  0  0
 52123  1  0  0  0
 52124  1  0  0  0
 53 54  1  0  0  0
 54 55  2  0  0  0
 54125  1  0  0  0
 55 57  1  0  0  0
 55126  1  0  0  0
 56 69  2  0  0  0
 57 58  2  0  0  0
 57127  1  0  0  0
 58128  1  0  0  0
 59 60  1  0  0  0
 59 61  1  0  0  0
 59 62  1  0  0  0
 60129  1  0  0  0
 60130  1  0  0  0
 60131  1  0  0  0
 61132  1  0  0  0
 61133  1  0  0  0
 61134  1  0  0  0
 62135  1  0  0  0
 62136  1  0  0  0
 62137  1  0  0  0
 63 65  1  0  0  0
 63138  1  0  0  0
 63139  1  0  0  0
 63140  1  0  0  0
 64141  1  0  0  0
 65142  1  0  0  0
 68 79  1  0  0  0
 71 72  2  0  0  0
 71 74  1  0  0  0
 71 80  1  0  0  0
 72 75  1  0  0  0
 72 83  1  0  0  0
 73 80  2  0  0  0
 73 82  1  0  0  0
 73 83  1  0  0  0
 74 81  1  0  0  0
 74143  1  0  0  0
 74144  1  0  0  0
 75 81  1  0  0  0
 75145  1  0  0  0
 75146  1  0  0  0
 76147  1  0  0  0
 76148  1  0  0  0
 76149  1  0  0  0
 76 79  1  0  0  0
 77 79  1  0  0  0
 77150  1  0  0  0
 77151  1  0  0  0
 77152  1  0  0  0
 78 79  1  0  0  0
 78 82  1  0  0  0
 78153  1  0  0  0
 78154  1  0  0  0
 82155  1  0  0  0
M  ISO  4   1 100  68 101  79 101  81 100
M  END
> <chiral flag>
0

> <version>
0

> <s_m_source_file>
/data/baiqing/PycharmProjects/Reinvent-master-3.2/result/LINK_invent/BTK/process_docking_weight1_custom_product_contain_oxygen_bond_distance_aromatic_linkinvent_7_9_3/rearranged_h_0151.sdf

> <i_m_source_file_index>
35

> <r_mmod_Potential_Energy-OPLS-2005>
321.290740966797

> <r_mmod_Stretch_Energy-OPLS-2005>
162.988830566406

> <r_mmod_Bend_Energy-OPLS-2005>
277.245452880859

> <r_mmod_Torsional_Energy-OPLS-2005>
290.749877929688

> <r_mmod_Improper_Torsional_Energy-OPLS-2005>
16.5186748504639

> <r_mmod_Van_der_Waal_Energy-OPLS-2005>
108.935729980469

> <r_mmod_Electrostatic_Energy-OPLS-2005>
-455.358093261719

> <r_mmod_Solvation_Energy-OPLS-2005>
-205.727554321289

> <b_mmod_Minimization_Converged-OPLS-2005>
0

> <r_mmod_RMS_Derivative-OPLS-2005>
0.451504319906235

$$$$
35
                    3D
 Structure written by MMmdl.
161170  0  0  1  0            999 V2000
  -30.5848  -14.5765   20.5726 C   0  0  0  0  0  0
  -30.4528  -12.3707   19.4295 C   0  0  0  0  0  0
  -29.5067  -12.5241   18.2150 C   0  0  0  0  0  0
  -28.0264  -12.3587   18.6225 C   0  0  0  0  0  0
  -27.6617  -13.1924   19.8784 C   0  0  2  0  0  0
  -28.7030  -12.9513   20.9953 C   0  0  0  0  0  0
  -25.2587  -13.8117   20.5627 C   0  0  0  0  0  0
  -24.1839  -13.0417   20.9190 C   0  0  0  0  0  0
  -24.6376  -11.6880   20.8749 C   0  0  0  0  0  0
  -23.9040  -10.4274   21.0415 C   0  0  0  0  0  0
  -24.3602   -9.4195   21.9187 C   0  0  0  0  0  0
  -23.6283   -8.2233   22.0753 C   0  0  0  0  0  0
  -22.4258   -8.0277   21.3550 C   0  0  0  0  0  0
  -21.9898   -9.0246   20.4643 C   0  0  0  0  0  0
  -22.7223  -10.2125   20.3057 C   0  0  0  0  0  0
  -21.6848   -6.0734   22.5287 C   0  0  0  0  0  0
  -21.4010   -6.5641   23.8220 C   0  0  0  0  0  0
  -21.3658   -5.6793   24.9190 C   0  0  0  0  0  0
  -21.6040   -4.3053   24.7235 C   0  0  0  0  0  0
  -21.8822   -3.8148   23.4355 C   0  0  0  0  0  0
  -21.9183   -4.6962   22.3412 C   0  0  0  0  0  0
  -22.7867  -13.5235   21.1854 C   0  0  0  0  0  0
  -22.1654   -4.2146   21.0989 F   0  0  0  0  0  0
  -21.5626   -3.4539   25.7750 F   0  0  0  0  0  0
  -30.0257  -13.3330   20.4597 N   0  0  0  0  0  0
  -26.3001  -12.9246   20.3343 N   0  0  0  0  0  0
  -25.9290  -11.6424   20.5770 N   0  0  0  0  0  0
  -22.0508  -12.8222   22.0412 N   0  0  0  0  0  0
  -25.4317  -15.1825   20.3921 N   0  0  0  0  0  0
  -31.7010  -14.8504   20.1149 O   0  0  0  0  0  0
  -21.6629   -6.8875   21.4249 O   0  0  0  0  0  0
  -22.3562  -14.5548   20.6710 O   0  0  0  0  0  0
  -24.6214  -31.8645   23.2043 C   0  0  0  0  0  0
  -25.9080  -32.4801   23.8386 C   0  0  1  0  0  0
  -27.2408  -27.3821   20.1097 C   0  0  0  0  0  0
  -25.5925  -33.8599   24.2312 N   0  0  0  0  0  0
  -23.4128  -30.4827   21.5475 C   0  0  2  0  0  0
  -24.8626  -28.9357   20.1194 C   0  0  0  0  0  0
  -22.7446  -29.4628   22.4987 C   0  0  0  0  0  0
  -18.0282  -28.1320   22.8477 C   0  0  0  0  0  0
  -24.1500  -36.7296   23.2636 C   0  0  0  0  0  0
  -25.9452  -30.8144   21.3636 C   0  0  0  0  0  0
  -26.0264  -29.4414   20.7150 C   0  0  0  0  0  0
  -27.2219  -28.6759   20.6978 C   0  0  0  0  0  0
  -26.0608  -26.9025   19.5073 C   0  0  0  0  0  0
  -24.8784  -27.6690   19.5080 C   0  0  0  0  0  0
  -23.6245  -29.8055   20.1667 C   0  0  0  0  0  0
  -25.4116  -36.3082   24.0328 C   0  0  1  0  0  0
  -20.5882  -28.3637   23.1290 C   0  0  2  0  0  0
  -20.6760  -26.9366   22.5399 C   0  0  0  0  0  0
  -19.5737  -26.6345   21.5180 C   0  0  0  0  0  0
  -18.1914  -26.7871   22.1595 C   0  0  0  0  0  0
  -19.1532  -28.8797   23.2877 C   0  0  0  0  0  0
  -18.9458  -30.1406   23.8879 C   0  0  0  0  0  0
  -17.6462  -30.6539   24.0523 C   0  0  0  0  0  0
  -25.9036  -34.9454   23.5110 C   0  0  0  0  0  0
  -16.5350  -29.9028   23.6303 C   0  0  0  0  0  0
  -16.7276  -28.6449   23.0317 C   0  0  0  0  0  0
  -26.4482  -31.6573   25.0725 C   0  0  0  0  0  0
  -25.3704  -31.3680   26.1437 C   0  0  0  0  0  0
  -27.0318  -30.3021   24.6106 C   0  0  0  0  0  0
  -27.6073  -32.4280   25.7470 C   0  0  0  0  0  0
  -27.5587  -37.1802   24.8471 C   0  0  0  0  0  0
  -21.4167  -29.3016   22.3708 N   0  0  0  0  0  0
  -26.4294  -37.3767   23.9411 N   0  0  0  0  0  0
  -24.6782  -31.0688   22.0974 N   0  0  0  0  0  0
  -23.4181  -28.8181   23.3068 O   0  0  0  0  0  0
  -28.3836  -26.5953   20.0663 O   0  0  0  0  0  0
  -26.5590  -34.8921   22.4669 O   0  0  0  0  0  0
  -23.5397  -32.1432   23.7403 O   0  0  0  0  0  0
  -30.4260  -17.9717   20.7220 C   0  0  0  0  0  0
  -28.2821  -17.3665   21.4228 C   0  0  0  0  0  0
  -29.5202  -16.9005   21.0643 C   0  0  0  0  0  0
  -29.8684  -19.2488   20.8717 C   0  0  0  0  0  0
  -28.2294  -23.2824   19.2085 C   0  0  0  0  0  0
  -28.7956  -21.8277   19.2575 C   0  0  0  0  0  0
  -29.5329  -22.9924   21.1909 C   0  0  0  0  0  0
  -29.0615  -24.1118   20.2164 C   0  0  2  0  0  0
  -31.9312  -20.5419   20.1314 C   0  0  0  0  0  0
  -28.3784  -25.3784   20.8698 C   0  0  0  0  0  0
  -30.5590  -20.6287   20.8179 C   0  0  1  0  0  0
  -29.7509  -15.4754   21.1628 N   0  0  0  0  0  0
  -29.8585  -21.8631   20.2837 N   0  3  1  0  0  0
  -30.2398  -24.5774   19.5755 O   0  0  0  0  0  0
  -28.2037  -19.1082   21.3913 S   0  0  0  0  0  0
  -31.4876  -12.5354   19.1247 H   0  0  0  0  0  0
  -30.4156  -11.3539   19.8231 H   0  0  0  0  0  0
  -29.7650  -11.8000   17.4407 H   0  0  0  0  0  0
  -29.6477  -13.5104   17.7699 H   0  0  0  0  0  0
  -27.8482  -11.3002   18.8169 H   0  0  0  0  0  0
  -27.3749  -12.6278   17.7905 H   0  0  0  0  0  0
  -27.7086  -14.2418   19.5873 H   0  0  0  0  0  0
  -28.7101  -11.8976   21.2813 H   0  0  0  0  0  0
  -28.4369  -13.4842   21.9091 H   0  0  0  0  0  0
  -25.2749   -9.5666   22.4758 H   0  0  0  0  0  0
  -23.9991   -7.4617   22.7464 H   0  0  0  0  0  0
  -21.0837   -8.8758   19.8946 H   0  0  0  0  0  0
  -22.3685  -10.9663   19.6162 H   0  0  0  0  0  0
  -21.2014   -7.6148   23.9731 H   0  0  0  0  0  0
  -21.1474   -6.0522   25.9089 H   0  0  0  0  0  0
  -22.0600   -2.7607   23.2862 H   0  0  0  0  0  0
  -22.4115  -11.9864   22.4769 H   0  0  0  0  0  0
  -21.1132  -13.1252   22.2639 H   0  0  0  0  0  0
  -24.6438  -15.8190   20.4392 H   0  0  0  0  0  0
  -26.2397  -15.5896   19.9375 H   0  0  0  0  0  0
  -26.7146  -32.5505   23.1156 H   0  0  0  0  0  0
  -25.0123  -33.9757   25.0487 H   0  0  0  0  0  0
  -22.7035  -31.2987   21.4026 H   0  0  0  0  0  0
  -23.3753  -35.9642   23.3298 H   0  0  0  0  0  0
  -24.3606  -36.8921   22.2053 H   0  0  0  0  0  0
  -23.7270  -37.6505   23.6652 H   0  0  0  0  0  0
  -26.0599  -31.5762   20.5904 H   0  0  0  0  0  0
  -26.8296  -30.8749   21.9845 H   0  0  0  0  0  0
  -28.1269  -29.0672   21.1445 H   0  0  0  0  0  0
  -26.0609  -25.9323   19.0322 H   0  0  0  0  0  0
  -23.9852  -27.2766   19.0401 H   0  0  0  0  0  0
  -23.7296  -30.5739   19.4009 H   0  0  0  0  0  0
  -22.7487  -29.2220   19.8766 H   0  0  0  0  0  0
  -25.1291  -36.1924   25.0820 H   0  0  0  0  0  0
  -20.9964  -28.3186   24.1417 H   0  0  0  0  0  0
  -20.5617  -26.2253   23.3601 H   0  0  0  0  0  0
  -21.6635  -26.7371   22.1218 H   0  0  0  0  0  0
  -19.6904  -25.6248   21.1220 H   0  0  0  0  0  0
  -19.6658  -27.3143   20.6692 H   0  0  0  0  0  0
  -17.4190  -26.6615   21.3992 H   0  0  0  0  0  0
  -18.0325  -25.9988   22.8969 H   0  0  0  0  0  0
  -19.7935  -30.7213   24.2239 H   0  0  0  0  0  0
  -17.5004  -31.6219   24.5120 H   0  0  0  0  0  0
  -15.5325  -30.2907   23.7633 H   0  0  0  0  0  0
  -15.8684  -28.0755   22.7033 H   0  0  0  0  0  0
  -24.5948  -30.6939   25.7773 H   0  0  0  0  0  0
  -24.8784  -32.2818   26.4785 H   0  0  0  0  0  0
  -25.8033  -30.8942   27.0257 H   0  0  0  0  0  0
  -26.2880  -29.6768   24.1161 H   0  0  0  0  0  0
  -27.4099  -29.7273   25.4569 H   0  0  0  0  0  0
  -27.8706  -30.4363   23.9274 H   0  0  0  0  0  0
  -27.2751  -33.3636   26.1984 H   0  0  0  0  0  0
  -28.3903  -32.6738   25.0276 H   0  0  0  0  0  0
  -28.0696  -31.8411   26.5414 H   0  0  0  0  0  0
  -28.2587  -38.0107   24.7504 H   0  0  0  0  0  0
  -28.1081  -36.2636   24.6287 H   0  0  0  0  0  0
  -27.2299  -37.1448   25.8869 H   0  0  0  0  0  0
  -20.9336  -29.8780   21.6958 H   0  0  0  0  0  0
  -26.0170  -38.2849   24.1375 H   0  0  0  0  0  0
  -31.4525  -17.7741   20.4505 H   0  0  0  0  0  0
  -27.4036  -16.8122   21.7365 H   0  0  0  0  0  0
  -27.1845  -23.2659   19.5214 H   0  0  0  0  0  0
  -28.2525  -23.7008   18.2008 H   0  0  0  0  0  0
  -29.2161  -21.5247   18.2971 H   0  0  0  0  0  0
  -28.0024  -21.1271   19.5104 H   0  0  0  0  0  0
  -28.7349  -22.7015   21.8766 H   0  0  0  0  0  0
  -30.3931  -23.2989   21.7890 H   0  0  0  0  0  0
  -32.5802  -19.8205   20.6277 H   0  0  0  0  0  0
  -32.4518  -21.4999   20.1617 H   0  0  0  0  0  0
  -31.8395  -20.2451   19.0857 H   0  0  0  0  0  0
  -28.9251  -25.6313   21.7778 H   0  0  0  0  0  0
  -27.3712  -25.1262   21.2054 H   0  0  0  0  0  0
  -30.7819  -20.8725   21.8589 H   0  0  0  0  0  0
  -28.9631  -14.9822   21.5532 H   0  0  0  0  0  0
  -30.6040  -22.3122   19.7677 H   0  0  0  0  0  0
  -30.0118  -25.4087   19.1647 H   0  0  0  0  0  0
  1 25  1  0  0  0
  1 30  2  0  0  0
  1 82  1  0  0  0
  2  3  1  0  0  0
  2 25  1  0  0  0
  2 86  1  0  0  0
  2 87  1  0  0  0
  3  4  1  0  0  0
  3 88  1  0  0  0
  3 89  1  0  0  0
  4  5  1  0  0  0
  4 90  1  0  0  0
  4 91  1  0  0  0
  5  6  1  0  0  0
  5 26  1  0  0  0
  5 92  1  0  0  0
  6 25  1  0  0  0
  6 93  1  0  0  0
  6 94  1  0  0  0
  7  8  2  0  0  0
  7 26  1  0  0  0
  7 29  1  0  0  0
  8  9  1  0  0  0
  8 22  1  0  0  0
  9 10  1  0  0  0
  9 27  2  0  0  0
 10 11  2  0  0  0
 10 15  1  0  0  0
 11 12  1  0  0  0
 11 95  1  0  0  0
 12 13  2  0  0  0
 12 96  1  0  0  0
 13 14  1  0  0  0
 13 31  1  0  0  0
 14 15  2  0  0  0
 14 97  1  0  0  0
 15 98  1  0  0  0
 16 17  2  0  0  0
 16 21  1  0  0  0
 16 31  1  0  0  0
 17 18  1  0  0  0
 17 99  1  0  0  0
 18 19  2  0  0  0
 18100  1  0  0  0
 19 20  1  0  0  0
 19 24  1  0  0  0
 20 21  2  0  0  0
 20101  1  0  0  0
 21 23  1  0  0  0
 22 28  1  0  0  0
 22 32  2  0  0  0
 26 27  1  0  0  0
 28102  1  0  0  0
 28103  1  0  0  0
 29104  1  0  0  0
 29105  1  0  0  0
 33 34  1  0  0  0
 33 66  1  0  0  0
 33 70  2  0  0  0
 34 36  1  0  0  0
 34 59  1  0  0  0
 34106  1  0  0  0
 35 44  2  0  0  0
 35 45  1  0  0  0
 35 68  1  0  0  0
 36 56  1  0  0  0
 36107  1  0  0  0
 37 39  1  0  0  0
 37 47  1  0  0  0
 37 66  1  0  0  0
 37108  1  0  0  0
 38 43  2  0  0  0
 38 46  1  0  0  0
 38 47  1  0  0  0
 39 64  1  0  0  0
 39 67  2  0  0  0
 40 52  1  0  0  0
 40 53  2  0  0  0
 40 58  1  0  0  0
 41109  1  0  0  0
 41110  1  0  0  0
 41111  1  0  0  0
 41 48  1  0  0  0
 42 43  1  0  0  0
 42 66  1  0  0  0
 42112  1  0  0  0
 42113  1  0  0  0
 43 44  1  0  0  0
 44114  1  0  0  0
 45 46  2  0  0  0
 45115  1  0  0  0
 46116  1  0  0  0
 47117  1  0  0  0
 47118  1  0  0  0
 48 56  1  0  0  0
 48 65  1  0  0  0
 48119  1  0  0  0
 49 50  1  0  0  0
 49 53  1  0  0  0
 49 64  1  0  0  0
 49120  1  0  0  0
 50 51  1  0  0  0
 50121  1  0  0  0
 50122  1  0  0  0
 51 52  1  0  0  0
 51123  1  0  0  0
 51124  1  0  0  0
 52125  1  0  0  0
 52126  1  0  0  0
 53 54  1  0  0  0
 54 55  2  0  0  0
 54127  1  0  0  0
 55 57  1  0  0  0
 55128  1  0  0  0
 56 69  2  0  0  0
 57 58  2  0  0  0
 57129  1  0  0  0
 58130  1  0  0  0
 59 60  1  0  0  0
 59 61  1  0  0  0
 59 62  1  0  0  0
 60131  1  0  0  0
 60132  1  0  0  0
 60133  1  0  0  0
 61134  1  0  0  0
 61135  1  0  0  0
 61136  1  0  0  0
 62137  1  0  0  0
 62138  1  0  0  0
 62139  1  0  0  0
 63 65  1  0  0  0
 63140  1  0  0  0
 63141  1  0  0  0
 63142  1  0  0  0
 64143  1  0  0  0
 65144  1  0  0  0
 68 80  1  0  0  0
 71 73  1  0  0  0
 71 74  2  0  0  0
 71145  1  0  0  0
 72 73  2  0  0  0
 72 85  1  0  0  0
 72146  1  0  0  0
 73 82  1  0  0  0
 74 81  1  0  0  0
 74 85  1  0  0  0
 75 76  1  0  0  0
 75 78  1  0  0  0
 75147  1  0  0  0
 75148  1  0  0  0
 76149  1  0  0  0
 76150  1  0  0  0
 76 83  1  0  0  0
 77 78  1  0  0  0
 77 83  1  0  0  0
 77151  1  0  0  0
 77152  1  0  0  0
 78 80  1  0  0  0
 78 84  1  0  0  0
 79153  1  0  0  0
 79154  1  0  0  0
 79155  1  0  0  0
 79 81  1  0  0  0
 80156  1  0  0  0
 80157  1  0  0  0
 81 83  1  0  0  0
 81158  1  0  0  0
 82159  1  0  0  0
 83160  1  0  0  0
 84161  1  0  0  0
M  CHG  1  83   1
M  ISO  4   1 100  68 101  80 101  82 100
M  END
> <chiral flag>
0

> <version>
0

> <s_m_source_file>
/data/baiqing/PycharmProjects/Reinvent-master-3.2/result/LINK_invent/BTK/process_docking_weight1_custom_product_contain_oxygen_bond_distance_aromatic_linkinvent_7_9_3/rearranged_h_0151.sdf

> <i_m_source_file_index>
36

> <r_mmod_Potential_Energy-OPLS-2005>
-51.0449028015137

> <r_mmod_Stretch_Energy-OPLS-2005>
56.5900840759277

> <r_mmod_Bend_Energy-OPLS-2005>
202.113571166992

> <r_mmod_Torsional_Energy-OPLS-2005>
331.512023925781

> <r_mmod_Improper_Torsional_Energy-OPLS-2005>
5.50672960281372

> <r_mmod_Van_der_Waal_Energy-OPLS-2005>
115.651634216309

> <r_mmod_Electrostatic_Energy-OPLS-2005>
-369.056976318359

> <r_mmod_Solvation_Energy-OPLS-2005>
-422.322814941406

> <b_mmod_Minimization_Converged-OPLS-2005>
0

> <r_mmod_RMS_Derivative-OPLS-2005>
2.67397260665894

$$$$
36
                    3D
 Structure written by MMmdl.
160169  0  0  1  0            999 V2000
  -30.5579  -14.8071   20.4661 C   0  0  0  0  0  0
  -30.4482  -12.4928   19.4849 C   0  0  0  0  0  0
  -29.5204  -12.5315   18.2475 C   0  0  0  0  0  0
  -28.0481  -12.3351   18.6574 C   0  0  0  0  0  0
  -27.6476  -13.2312   19.8589 C   0  0  2  0  0  0
  -28.6908  -13.1561   20.9961 C   0  0  0  0  0  0
  -25.2549  -13.8206   20.5726 C   0  0  0  0  0  0
  -24.1827  -13.0452   20.9212 C   0  0  0  0  0  0
  -24.6415  -11.6925   20.8745 C   0  0  0  0  0  0
  -23.9089  -10.4303   21.0410 C   0  0  0  0  0  0
  -24.3634   -9.4211   21.9192 C   0  0  0  0  0  0
  -23.6300   -8.2250   22.0760 C   0  0  0  0  0  0
  -22.4279   -8.0298   21.3551 C   0  0  0  0  0  0
  -21.9923   -9.0275   20.4653 C   0  0  0  0  0  0
  -22.7261  -10.2149   20.3059 C   0  0  0  0  0  0
  -21.6856   -6.0745   22.5283 C   0  0  0  0  0  0
  -21.4013   -6.5642   23.8218 C   0  0  0  0  0  0
  -21.3659   -5.6791   24.9178 C   0  0  0  0  0  0
  -21.6048   -4.3055   24.7224 C   0  0  0  0  0  0
  -21.8815   -3.8147   23.4341 C   0  0  0  0  0  0
  -21.9192   -4.6969   22.3401 C   0  0  0  0  0  0
  -22.7849  -13.5244   21.1874 C   0  0  0  0  0  0
  -22.1666   -4.2160   21.0975 F   0  0  0  0  0  0
  -21.5629   -3.4536   25.7732 F   0  0  0  0  0  0
  -29.9923  -13.5440   20.4293 N   0  0  0  0  0  0
  -26.2976  -12.9403   20.3306 N   0  0  0  0  0  0
  -25.9344  -11.6548   20.5748 N   0  0  0  0  0  0
  -22.0481  -12.8228   22.0411 N   0  0  0  0  0  0
  -25.4259  -15.1936   20.4203 N   0  0  0  0  0  0
  -31.7175  -14.9632   20.0694 O   0  0  0  0  0  0
  -21.6638   -6.8894   21.4246 O   0  0  0  0  0  0
  -22.3545  -14.5570   20.6749 O   0  0  0  0  0  0
  -24.6380  -31.8519   23.1952 C   0  0  0  0  0  0
  -25.9187  -32.4734   23.8307 C   0  0  1  0  0  0
  -27.2130  -27.2030   20.1329 C   0  0  0  0  0  0
  -25.5968  -33.8534   24.2234 N   0  0  0  0  0  0
  -23.4367  -30.4763   21.5407 C   0  0  2  0  0  0
  -24.8837  -28.9218   20.1075 C   0  0  0  0  0  0
  -22.7540  -29.4587   22.4888 C   0  0  0  0  0  0
  -18.0308  -28.1393   22.8477 C   0  0  0  0  0  0
  -24.1496  -36.7265   23.2637 C   0  0  0  0  0  0
  -25.9888  -30.7465   21.3853 C   0  0  0  0  0  0
  -26.0600  -29.3659   20.7241 C   0  0  0  0  0  0
  -27.2258  -28.5214   20.7253 C   0  0  0  0  0  0
  -26.0175  -26.8631   19.4624 C   0  0  0  0  0  0
  -24.8709  -27.6786   19.4647 C   0  0  0  0  0  0
  -23.6578  -29.8157   20.1561 C   0  0  0  0  0  0
  -25.4123  -36.3050   24.0321 C   0  0  1  0  0  0
  -20.5912  -28.3714   23.1248 C   0  0  2  0  0  0
  -20.6802  -26.9429   22.5401 C   0  0  0  0  0  0
  -19.5772  -26.6381   21.5215 C   0  0  0  0  0  0
  -18.1954  -26.7931   22.1625 C   0  0  0  0  0  0
  -19.1559  -28.8867   23.2857 C   0  0  0  0  0  0
  -18.9478  -30.1466   23.8882 C   0  0  0  0  0  0
  -17.6476  -30.6591   24.0557 C   0  0  0  0  0  0
  -25.9073  -34.9429   23.5079 C   0  0  0  0  0  0
  -16.5368  -29.9087   23.6326 C   0  0  0  0  0  0
  -16.7290  -28.6500   23.0353 C   0  0  0  0  0  0
  -26.4528  -31.6571   25.0717 C   0  0  0  0  0  0
  -25.3723  -31.3753   26.1417 C   0  0  0  0  0  0
  -27.0386  -30.2976   24.6248 C   0  0  0  0  0  0
  -27.6066  -32.4318   25.7504 C   0  0  0  0  0  0
  -27.5578  -37.1793   24.8468 C   0  0  0  0  0  0
  -21.4238  -29.3054   22.3626 N   0  0  0  0  0  0
  -26.4290  -37.3760   23.9408 N   0  0  0  0  0  0
  -24.7073  -31.0433   22.0962 N   0  0  0  0  0  0
  -23.4210  -28.8127   23.3004 O   0  0  0  0  0  0
  -28.2817  -26.2511   20.2099 O   0  0  0  0  0  0
  -26.5641  -34.8912   22.4647 O   0  0  0  0  0  0
  -23.5518  -32.1367   23.7219 O   0  0  0  0  0  0
  -30.1962  -18.4129   20.7779 C   0  0  0  0  0  0
  -29.3016  -19.5573   20.4953 C   0  0  0  0  0  0
  -28.1414  -18.9456   20.0748 C   0  0  0  0  0  0
  -29.5284  -17.2084   20.5014 C   0  0  0  0  0  0
  -29.5370  -21.0751   20.8109 C   0  0  0  0  0  0
  -27.7588  -23.9657   18.9998 C   0  0  0  0  0  0
  -27.9664  -22.4325   19.2470 C   0  0  0  0  0  0
  -29.2646  -23.7325   20.7432 C   0  0  0  0  0  0
  -28.0602  -24.7238   20.3257 C   0  0  2  0  0  0
  -26.7701  -19.4130   19.7192 C   0  0  0  0  0  0
  -26.9522  -24.5072   21.3865 C   0  0  0  0  0  0
  -28.9684  -22.2826   20.3151 N   0  0  0  0  0  0
  -29.7496  -15.8627   20.8884 N   0  0  0  0  0  0
  -30.4551  -21.2577   21.7711 N   0  3  0  0  0  0
  -28.2756  -17.5649   20.0805 O   0  0  0  0  0  0
  -31.4861  -12.6387   19.1822 H   0  0  0  0  0  0
  -30.4123  -11.5123   19.9619 H   0  0  0  0  0  0
  -29.8135  -11.7680   17.5258 H   0  0  0  0  0  0
  -29.6323  -13.4900   17.7384 H   0  0  0  0  0  0
  -27.9127  -11.2849   18.9204 H   0  0  0  0  0  0
  -27.3915  -12.5232   17.8071 H   0  0  0  0  0  0
  -27.6434  -14.2544   19.4825 H   0  0  0  0  0  0
  -28.7384  -12.1481   21.4105 H   0  0  0  0  0  0
  -28.4058  -13.8046   21.8251 H   0  0  0  0  0  0
  -25.2784   -9.5679   22.4763 H   0  0  0  0  0  0
  -23.9998   -7.4638   22.7483 H   0  0  0  0  0  0
  -21.0851   -8.8815   19.8964 H   0  0  0  0  0  0
  -22.3740  -10.9692   19.6161 H   0  0  0  0  0  0
  -21.2007   -7.6150   23.9731 H   0  0  0  0  0  0
  -21.1488   -6.0516   25.9086 H   0  0  0  0  0  0
  -22.0592   -2.7609   23.2838 H   0  0  0  0  0  0
  -22.4074  -11.9861   22.4763 H   0  0  0  0  0  0
  -21.1109  -13.1272   22.2633 H   0  0  0  0  0  0
  -24.6630  -15.8475   20.5587 H   0  0  0  0  0  0
  -26.2790  -15.6421   20.1096 H   0  0  0  0  0  0
  -26.7247  -32.5362   23.1032 H   0  0  0  0  0  0
  -25.0128  -33.9663   25.0391 H   0  0  0  0  0  0
  -22.7358  -31.3012   21.3956 H   0  0  0  0  0  0
  -23.3764  -35.9592   23.3295 H   0  0  0  0  0  0
  -24.3586  -36.8896   22.2053 H   0  0  0  0  0  0
  -23.7250  -37.6463   23.6669 H   0  0  0  0  0  0
  -26.1378  -31.5071   20.6177 H   0  0  0  0  0  0
  -26.8616  -30.7922   22.0241 H   0  0  0  0  0  0
  -28.1205  -28.8543   21.2334 H   0  0  0  0  0  0
  -25.9201  -25.9277   18.9480 H   0  0  0  0  0  0
  -23.9745  -27.3343   18.9674 H   0  0  0  0  0  0
  -23.7901  -30.5965   19.4058 H   0  0  0  0  0  0
  -22.7725  -29.2585   19.8435 H   0  0  0  0  0  0
  -25.1307  -36.1886   25.0813 H   0  0  0  0  0  0
  -21.0006  -28.3309   24.1369 H   0  0  0  0  0  0
  -20.5731  -26.2329   23.3617 H   0  0  0  0  0  0
  -21.6667  -26.7470   22.1176 H   0  0  0  0  0  0
  -19.6943  -25.6287   21.1267 H   0  0  0  0  0  0
  -19.6709  -27.3176   20.6735 H   0  0  0  0  0  0
  -17.4228  -26.6674   21.4028 H   0  0  0  0  0  0
  -18.0354  -26.0082   22.9028 H   0  0  0  0  0  0
  -19.7958  -30.7282   24.2247 H   0  0  0  0  0  0
  -17.5036  -31.6269   24.5170 H   0  0  0  0  0  0
  -15.5368  -30.2988   23.7663 H   0  0  0  0  0  0
  -15.8689  -28.0818   22.7078 H   0  0  0  0  0  0
  -24.5904  -30.7096   25.7740 H   0  0  0  0  0  0
  -24.8908  -32.2937   26.4783 H   0  0  0  0  0  0
  -25.8012  -30.8966   27.0228 H   0  0  0  0  0  0
  -26.2993  -29.6701   24.1251 H   0  0  0  0  0  0
  -27.4028  -29.7262   25.4796 H   0  0  0  0  0  0
  -27.8888  -30.4229   23.9538 H   0  0  0  0  0  0
  -27.2667  -33.3630   26.2045 H   0  0  0  0  0  0
  -28.3905  -32.6852   25.0355 H   0  0  0  0  0  0
  -28.0697  -31.8459   26.5454 H   0  0  0  0  0  0
  -28.2592  -38.0093   24.7508 H   0  0  0  0  0  0
  -28.1080  -36.2623   24.6302 H   0  0  0  0  0  0
  -27.2294  -37.1447   25.8871 H   0  0  0  0  0  0
  -20.9440  -29.8762   21.6810 H   0  0  0  0  0  0
  -26.0163  -38.2832   24.1405 H   0  0  0  0  0  0
  -31.1840  -18.4665   21.2114 H   0  0  0  0  0  0
  -26.7483  -24.1161   18.6316 H   0  0  0  0  0  0
  -28.4352  -24.3040   18.2133 H   0  0  0  0  0  0
  -28.2706  -21.9102   18.3398 H   0  0  0  0  0  0
  -27.0224  -22.0153   19.5851 H   0  0  0  0  0  0
  -29.4466  -23.7853   21.8166 H   0  0  0  0  0  0
  -30.1860  -24.0430   20.2496 H   0  0  0  0  0  0
  -26.4006  -20.1315   20.4502 H   0  0  0  0  0  0
  -26.0633  -18.5829   19.7122 H   0  0  0  0  0  0
  -26.7534  -19.8641   18.7271 H   0  0  0  0  0  0
  -26.8426  -23.4597   21.6663 H   0  0  0  0  0  0
  -25.9684  -24.8303   21.0546 H   0  0  0  0  0  0
  -27.1846  -25.0539   22.3008 H   0  0  0  0  0  0
  -28.9092  -15.4584   21.2709 H   0  0  0  0  0  0
  -30.8775  -20.4584   22.2174 H   0  0  0  0  0  0
  -30.7340  -22.1746   22.0820 H   0  0  0  0  0  0
  1 25  1  0  0  0
  1 30  2  0  0  0
  1 83  1  0  0  0
  2  3  1  0  0  0
  2 25  1  0  0  0
  2 86  1  0  0  0
  2 87  1  0  0  0
  3  4  1  0  0  0
  3 88  1  0  0  0
  3 89  1  0  0  0
  4  5  1  0  0  0
  4 90  1  0  0  0
  4 91  1  0  0  0
  5  6  1  0  0  0
  5 26  1  0  0  0
  5 92  1  0  0  0
  6 25  1  0  0  0
  6 93  1  0  0  0
  6 94  1  0  0  0
  7  8  2  0  0  0
  7 26  1  0  0  0
  7 29  1  0  0  0
  8  9  1  0  0  0
  8 22  1  0  0  0
  9 10  1  0  0  0
  9 27  2  0  0  0
 10 11  2  0  0  0
 10 15  1  0  0  0
 11 12  1  0  0  0
 11 95  1  0  0  0
 12 13  2  0  0  0
 12 96  1  0  0  0
 13 14  1  0  0  0
 13 31  1  0  0  0
 14 15  2  0  0  0
 14 97  1  0  0  0
 15 98  1  0  0  0
 16 17  2  0  0  0
 16 21  1  0  0  0
 16 31  1  0  0  0
 17 18  1  0  0  0
 17 99  1  0  0  0
 18 19  2  0  0  0
 18100  1  0  0  0
 19 20  1  0  0  0
 19 24  1  0  0  0
 20 21  2  0  0  0
 20101  1  0  0  0
 21 23  1  0  0  0
 22 28  1  0  0  0
 22 32  2  0  0  0
 26 27  1  0  0  0
 28102  1  0  0  0
 28103  1  0  0  0
 29104  1  0  0  0
 29105  1  0  0  0
 33 34  1  0  0  0
 33 66  1  0  0  0
 33 70  2  0  0  0
 34 36  1  0  0  0
 34 59  1  0  0  0
 34106  1  0  0  0
 35 44  2  0  0  0
 35 45  1  0  0  0
 35 68  1  0  0  0
 36 56  1  0  0  0
 36107  1  0  0  0
 37 39  1  0  0  0
 37 47  1  0  0  0
 37 66  1  0  0  0
 37108  1  0  0  0
 38 43  2  0  0  0
 38 46  1  0  0  0
 38 47  1  0  0  0
 39 64  1  0  0  0
 39 67  2  0  0  0
 40 52  1  0  0  0
 40 53  2  0  0  0
 40 58  1  0  0  0
 41109  1  0  0  0
 41110  1  0  0  0
 41111  1  0  0  0
 41 48  1  0  0  0
 42 43  1  0  0  0
 42 66  1  0  0  0
 42112  1  0  0  0
 42113  1  0  0  0
 43 44  1  0  0  0
 44114  1  0  0  0
 45 46  2  0  0  0
 45115  1  0  0  0
 46116  1  0  0  0
 47117  1  0  0  0
 47118  1  0  0  0
 48 56  1  0  0  0
 48 65  1  0  0  0
 48119  1  0  0  0
 49 50  1  0  0  0
 49 53  1  0  0  0
 49 64  1  0  0  0
 49120  1  0  0  0
 50 51  1  0  0  0
 50121  1  0  0  0
 50122  1  0  0  0
 51 52  1  0  0  0
 51123  1  0  0  0
 51124  1  0  0  0
 52125  1  0  0  0
 52126  1  0  0  0
 53 54  1  0  0  0
 54 55  2  0  0  0
 54127  1  0  0  0
 55 57  1  0  0  0
 55128  1  0  0  0
 56 69  2  0  0  0
 57 58  2  0  0  0
 57129  1  0  0  0
 58130  1  0  0  0
 59 60  1  0  0  0
 59 61  1  0  0  0
 59 62  1  0  0  0
 60131  1  0  0  0
 60132  1  0  0  0
 60133  1  0  0  0
 61134  1  0  0  0
 61135  1  0  0  0
 61136  1  0  0  0
 62137  1  0  0  0
 62138  1  0  0  0
 62139  1  0  0  0
 63 65  1  0  0  0
 63140  1  0  0  0
 63141  1  0  0  0
 63142  1  0  0  0
 64143  1  0  0  0
 65144  1  0  0  0
 68 79  1  0  0  0
 71 72  1  0  0  0
 71 74  2  0  0  0
 71145  1  0  0  0
 72 73  2  0  0  0
 72 75  1  0  0  0
 73 80  1  0  0  0
 73 85  1  0  0  0
 74 83  1  0  0  0
 74 85  1  0  0  0
 75 82  1  0  0  0
 75 84  2  0  0  0
 76 77  1  0  0  0
 76 79  1  0  0  0
 76146  1  0  0  0
 76147  1  0  0  0
 77 82  1  0  0  0
 77148  1  0  0  0
 77149  1  0  0  0
 78 79  1  0  0  0
 78 82  1  0  0  0
 78150  1  0  0  0
 78151  1  0  0  0
 79 81  1  0  0  0
 80152  1  0  0  0
 80153  1  0  0  0
 80154  1  0  0  0
 81155  1  0  0  0
 81156  1  0  0  0
 81157  1  0  0  0
 83158  1  0  0  0
 84159  1  0  0  0
 84160  1  0  0  0
M  CHG  1  84   1
M  ISO  4   1 100  68 101  79 101  83 100
M  END
> <chiral flag>
0

> <version>
0

> <s_m_source_file>
/data/baiqing/PycharmProjects/Reinvent-master-3.2/result/LINK_invent/BTK/process_docking_weight1_custom_product_contain_oxygen_bond_distance_aromatic_linkinvent_7_9_3/rearranged_h_0151.sdf

> <i_m_source_file_index>
37

> <r_mmod_Potential_Energy-OPLS-2005>
223.120819091797

> <r_mmod_Stretch_Energy-OPLS-2005>
159.012115478516

> <r_mmod_Bend_Energy-OPLS-2005>
271.052673339844

> <r_mmod_Torsional_Energy-OPLS-2005>
303.192108154297

> <r_mmod_Improper_Torsional_Energy-OPLS-2005>
8.36906051635742

> <r_mmod_Van_der_Waal_Energy-OPLS-2005>
119.286682128906

> <r_mmod_Electrostatic_Energy-OPLS-2005>
-309.102325439453

> <r_mmod_Solvation_Energy-OPLS-2005>
-449.205078125

> <b_mmod_Minimization_Converged-OPLS-2005>
0

> <r_mmod_RMS_Derivative-OPLS-2005>
1.59033131599426

$$$$
37
                    3D
 Structure written by MMmdl.
152161  0  0  1  0            999 V2000
  -30.5974  -14.8198   20.4144 C   0  0  0  0  0  0
  -30.4338  -12.5038   19.4669 C   0  0  0  0  0  0
  -29.5078  -12.4794   18.2310 C   0  0  0  0  0  0
  -28.0362  -12.3088   18.6545 C   0  0  0  0  0  0
  -27.6315  -13.2365   19.8319 C   0  0  2  0  0  0
  -28.6805  -13.2311   20.9623 C   0  0  0  0  0  0
  -25.2499  -13.8219   20.5700 C   0  0  0  0  0  0
  -24.1793  -13.0455   20.9195 C   0  0  0  0  0  0
  -24.6395  -11.6933   20.8746 C   0  0  0  0  0  0
  -23.9080  -10.4303   21.0405 C   0  0  0  0  0  0
  -24.3635   -9.4213   21.9185 C   0  0  0  0  0  0
  -23.6314   -8.2249   22.0762 C   0  0  0  0  0  0
  -22.4289   -8.0288   21.3552 C   0  0  0  0  0  0
  -21.9926   -9.0253   20.4646 C   0  0  0  0  0  0
  -22.7258  -10.2137   20.3059 C   0  0  0  0  0  0
  -21.6854   -6.0748   22.5273 C   0  0  0  0  0  0
  -21.4006   -6.5646   23.8210 C   0  0  0  0  0  0
  -21.3659   -5.6805   24.9167 C   0  0  0  0  0  0
  -21.6040   -4.3063   24.7221 C   0  0  0  0  0  0
  -21.8826   -3.8162   23.4343 C   0  0  0  0  0  0
  -21.9192   -4.6977   22.3400 C   0  0  0  0  0  0
  -22.7810  -13.5219   21.1861 C   0  0  0  0  0  0
  -22.1661   -4.2165   21.0982 F   0  0  0  0  0  0
  -21.5623   -3.4552   25.7734 F   0  0  0  0  0  0
  -29.9626  -13.5942   20.3530 N   0  0  0  0  0  0
  -26.2901  -12.9421   20.3238 N   0  0  0  0  0  0
  -25.9323  -11.6557   20.5759 N   0  0  0  0  0  0
  -22.0470  -12.8205   22.0403 N   0  0  0  0  0  0
  -25.4230  -15.1947   20.4157 N   0  0  0  0  0  0
  -31.8223  -14.8579   20.2573 O   0  0  0  0  0  0
  -21.6649   -6.8888   21.4242 O   0  0  0  0  0  0
  -22.3490  -14.5526   20.6712 O   0  0  0  0  0  0
  -24.6321  -31.8557   23.1952 C   0  0  0  0  0  0
  -25.9146  -32.4757   23.8304 C   0  0  1  0  0  0
  -27.2189  -27.2470   20.1436 C   0  0  0  0  0  0
  -25.5944  -33.8559   24.2241 N   0  0  0  0  0  0
  -23.4286  -30.4760   21.5376 C   0  0  2  0  0  0
  -24.8792  -28.9125   20.1172 C   0  0  0  0  0  0
  -22.7484  -29.4612   22.4897 C   0  0  0  0  0  0
  -18.0284  -28.1382   22.8475 C   0  0  0  0  0  0
  -24.1503  -36.7273   23.2633 C   0  0  0  0  0  0
  -25.9751  -30.7656   21.3747 C   0  0  0  0  0  0
  -26.0510  -29.3825   20.7234 C   0  0  0  0  0  0
  -27.2278  -28.5635   20.7217 C   0  0  0  0  0  0
  -26.0263  -26.8389   19.5161 C   0  0  0  0  0  0
  -24.8714  -27.6476   19.5051 C   0  0  0  0  0  0
  -23.6512  -29.8041   20.1568 C   0  0  0  0  0  0
  -25.4127  -36.3063   24.0321 C   0  0  1  0  0  0
  -20.5886  -28.3711   23.1265 C   0  0  2  0  0  0
  -20.6784  -26.9419   22.5420 C   0  0  0  0  0  0
  -19.5770  -26.6371   21.5220 C   0  0  0  0  0  0
  -18.1931  -26.7914   22.1612 C   0  0  0  0  0  0
  -19.1533  -28.8854   23.2864 C   0  0  0  0  0  0
  -18.9467  -30.1430   23.8921 C   0  0  0  0  0  0
  -17.6481  -30.6588   24.0563 C   0  0  0  0  0  0
  -25.9066  -34.9436   23.5074 C   0  0  0  0  0  0
  -16.5371  -29.9094   23.6327 C   0  0  0  0  0  0
  -16.7272  -28.6502   23.0362 C   0  0  0  0  0  0
  -26.4526  -31.6566   25.0681 C   0  0  0  0  0  0
  -25.3739  -31.3715   26.1387 C   0  0  0  0  0  0
  -27.0372  -30.2984   24.6158 C   0  0  0  0  0  0
  -27.6087  -32.4293   25.7472 C   0  0  0  0  0  0
  -27.5593  -37.1773   24.8449 C   0  0  0  0  0  0
  -21.4193  -29.3061   22.3653 N   0  0  0  0  0  0
  -26.4298  -37.3765   23.9412 N   0  0  0  0  0  0
  -24.6977  -31.0502   22.0936 N   0  0  0  0  0  0
  -23.4173  -28.8168   23.3006 O   0  0  0  0  0  0
  -28.3132  -26.3534   20.1178 O   0  0  0  0  0  0
  -26.5619  -34.8914   22.4634 O   0  0  0  0  0  0
  -23.5466  -32.1421   23.7210 O   0  0  0  0  0  0
  -29.4441  -20.0345   21.1382 C   0  0  0  0  0  0
  -29.4295  -18.6720   20.5558 C   0  0  0  0  0  0
  -28.9107  -18.7409   19.3010 C   0  0  0  0  0  0
  -28.9526  -21.1077   20.3577 C   0  0  0  0  0  0
  -28.3843  -23.6262   20.0396 C   0  0  0  0  0  0
  -29.8682  -17.2467   21.1207 C   0  0  0  0  0  0
  -28.7594  -17.5232   18.4477 C   0  0  0  0  0  0
  -29.8103  -16.4313   18.7947 C   0  0  0  0  0  0
  -28.2197  -25.0259   20.8349 C   0  0  0  0  0  0
  -29.8461  -15.9975   20.2165 N   0  0  0  0  0  0
  -28.8211  -22.4753   20.7047 N   0  0  0  0  0  0
  -28.0886  -23.6017   18.8418 O   0  0  0  0  0  0
  -28.4854  -20.3921   18.8149 S   0  0  0  0  0  0
  -31.4666  -12.6524   19.1508 H   0  0  0  0  0  0
  -30.4140  -11.5460   19.9891 H   0  0  0  0  0  0
  -29.7964  -11.6677   17.5624 H   0  0  0  0  0  0
  -29.6241  -13.3945   17.6522 H   0  0  0  0  0  0
  -27.9014  -11.2656   18.9439 H   0  0  0  0  0  0
  -27.3767  -12.4721   17.8003 H   0  0  0  0  0  0
  -27.6060  -14.2452   19.4190 H   0  0  0  0  0  0
  -28.7392  -12.2551   21.4461 H   0  0  0  0  0  0
  -28.4081  -13.9501   21.7362 H   0  0  0  0  0  0
  -25.2778   -9.5683   22.4762 H   0  0  0  0  0  0
  -24.0012   -7.4645   22.7493 H   0  0  0  0  0  0
  -21.0855   -8.8780   19.8953 H   0  0  0  0  0  0
  -22.3719  -10.9677   19.6171 H   0  0  0  0  0  0
  -21.2001   -7.6154   23.9714 H   0  0  0  0  0  0
  -21.1461   -6.0532   25.9072 H   0  0  0  0  0  0
  -22.0605   -2.7626   23.2844 H   0  0  0  0  0  0
  -22.4123  -11.9864   22.4764 H   0  0  0  0  0  0
  -21.1081  -13.1199   22.2625 H   0  0  0  0  0  0
  -24.6659  -15.8558   20.5473 H   0  0  0  0  0  0
  -26.2885  -15.6341   20.1306 H   0  0  0  0  0  0
  -26.7200  -32.5430   23.1027 H   0  0  0  0  0  0
  -25.0130  -33.9702   25.0424 H   0  0  0  0  0  0
  -22.7254  -31.2977   21.3816 H   0  0  0  0  0  0
  -23.3800  -35.9571   23.3272 H   0  0  0  0  0  0
  -24.3619  -36.8940   22.2056 H   0  0  0  0  0  0
  -23.7222  -37.6445   23.6699 H   0  0  0  0  0  0
  -26.1014  -31.5242   20.6016 H   0  0  0  0  0  0
  -26.8550  -30.8255   22.0030 H   0  0  0  0  0  0
  -28.1271  -28.9231   21.2032 H   0  0  0  0  0  0
  -25.9854  -25.8688   19.0409 H   0  0  0  0  0  0
  -23.9732  -27.2804   19.0271 H   0  0  0  0  0  0
  -23.7820  -30.5793   19.4002 H   0  0  0  0  0  0
  -22.7715  -29.2371   19.8484 H   0  0  0  0  0  0
  -25.1310  -36.1911   25.0819 H   0  0  0  0  0  0
  -20.9958  -28.3305   24.1400 H   0  0  0  0  0  0
  -20.5699  -26.2325   23.3641 H   0  0  0  0  0  0
  -21.6647  -26.7448   22.1214 H   0  0  0  0  0  0
  -19.6951  -25.6282   21.1251 H   0  0  0  0  0  0
  -19.6719  -27.3185   20.6761 H   0  0  0  0  0  0
  -17.4209  -26.6685   21.3991 H   0  0  0  0  0  0
  -18.0293  -26.0045   22.8998 H   0  0  0  0  0  0
  -19.7948  -30.7190   24.2346 H   0  0  0  0  0  0
  -17.5052  -31.6277   24.5131 H   0  0  0  0  0  0
  -15.5373  -30.3021   23.7619 H   0  0  0  0  0  0
  -15.8671  -28.0821   22.7109 H   0  0  0  0  0  0
  -24.5970  -30.7004   25.7712 H   0  0  0  0  0  0
  -24.8868  -32.2876   26.4730 H   0  0  0  0  0  0
  -25.8040  -30.8965   27.0212 H   0  0  0  0  0  0
  -26.2943  -29.6712   24.1211 H   0  0  0  0  0  0
  -27.4102  -29.7261   25.4664 H   0  0  0  0  0  0
  -27.8805  -30.4274   23.9369 H   0  0  0  0  0  0
  -27.2722  -33.3621   26.2010 H   0  0  0  0  0  0
  -28.3929  -32.6790   25.0312 H   0  0  0  0  0  0
  -28.0717  -31.8429   26.5421 H   0  0  0  0  0  0
  -28.2534  -38.0136   24.7559 H   0  0  0  0  0  0
  -28.1151  -36.2658   24.6193 H   0  0  0  0  0  0
  -27.2311  -37.1317   25.8847 H   0  0  0  0  0  0
  -20.9376  -29.8814   21.6905 H   0  0  0  0  0  0
  -26.0178  -38.2830   24.1484 H   0  0  0  0  0  0
  -29.8188  -20.1858   22.1414 H   0  0  0  0  0  0
  -29.2155  -17.0036   21.9603 H   0  0  0  0  0  0
  -30.8646  -17.3294   21.5553 H   0  0  0  0  0  0
  -28.8410  -17.7932   17.3934 H   0  0  0  0  0  0
  -27.7560  -17.1179   18.5788 H   0  0  0  0  0  0
  -30.8016  -16.8152   18.5414 H   0  0  0  0  0  0
  -29.6472  -15.5784   18.1377 H   0  0  0  0  0  0
  -29.0152  -25.0419   21.5788 H   0  0  0  0  0  0
  -27.2952  -24.9895   21.4116 H   0  0  0  0  0  0
  -29.0738  -22.6760   21.6626 H   0  0  0  0  0  0
  1 25  1  0  0  0
  1 30  2  0  0  0
  1 80  1  0  0  0
  2  3  1  0  0  0
  2 25  1  0  0  0
  2 84  1  0  0  0
  2 85  1  0  0  0
  3  4  1  0  0  0
  3 86  1  0  0  0
  3 87  1  0  0  0
  4  5  1  0  0  0
  4 88  1  0  0  0
  4 89  1  0  0  0
  5  6  1  0  0  0
  5 26  1  0  0  0
  5 90  1  0  0  0
  6 25  1  0  0  0
  6 91  1  0  0  0
  6 92  1  0  0  0
  7  8  2  0  0  0
  7 26  1  0  0  0
  7 29  1  0  0  0
  8  9  1  0  0  0
  8 22  1  0  0  0
  9 10  1  0  0  0
  9 27  2  0  0  0
 10 11  2  0  0  0
 10 15  1  0  0  0
 11 12  1  0  0  0
 11 93  1  0  0  0
 12 13  2  0  0  0
 12 94  1  0  0  0
 13 14  1  0  0  0
 13 31  1  0  0  0
 14 15  2  0  0  0
 14 95  1  0  0  0
 15 96  1  0  0  0
 16 17  2  0  0  0
 16 21  1  0  0  0
 16 31  1  0  0  0
 17 18  1  0  0  0
 17 97  1  0  0  0
 18 19  2  0  0  0
 18 98  1  0  0  0
 19 20  1  0  0  0
 19 24  1  0  0  0
 20 21  2  0  0  0
 20 99  1  0  0  0
 21 23  1  0  0  0
 22 28  1  0  0  0
 22 32  2  0  0  0
 26 27  1  0  0  0
 28100  1  0  0  0
 28101  1  0  0  0
 29102  1  0  0  0
 29103  1  0  0  0
 33 34  1  0  0  0
 33 66  1  0  0  0
 33 70  2  0  0  0
 34 36  1  0  0  0
 34 59  1  0  0  0
 34104  1  0  0  0
 35 44  2  0  0  0
 35 45  1  0  0  0
 35 68  1  0  0  0
 36 56  1  0  0  0
 36105  1  0  0  0
 37 39  1  0  0  0
 37 47  1  0  0  0
 37 66  1  0  0  0
 37106  1  0  0  0
 38 43  2  0  0  0
 38 46  1  0  0  0
 38 47  1  0  0  0
 39 64  1  0  0  0
 39 67  2  0  0  0
 40 52  1  0  0  0
 40 53  2  0  0  0
 40 58  1  0  0  0
 41107  1  0  0  0
 41108  1  0  0  0
 41109  1  0  0  0
 41 48  1  0  0  0
 42 43  1  0  0  0
 42 66  1  0  0  0
 42110  1  0  0  0
 42111  1  0  0  0
 43 44  1  0  0  0
 44112  1  0  0  0
 45 46  2  0  0  0
 45113  1  0  0  0
 46114  1  0  0  0
 47115  1  0  0  0
 47116  1  0  0  0
 48 56  1  0  0  0
 48 65  1  0  0  0
 48117  1  0  0  0
 49 50  1  0  0  0
 49 53  1  0  0  0
 49 64  1  0  0  0
 49118  1  0  0  0
 50 51  1  0  0  0
 50119  1  0  0  0
 50120  1  0  0  0
 51 52  1  0  0  0
 51121  1  0  0  0
 51122  1  0  0  0
 52123  1  0  0  0
 52124  1  0  0  0
 53 54  1  0  0  0
 54 55  2  0  0  0
 54125  1  0  0  0
 55 57  1  0  0  0
 55126  1  0  0  0
 56 69  2  0  0  0
 57 58  2  0  0  0
 57127  1  0  0  0
 58128  1  0  0  0
 59 60  1  0  0  0
 59 61  1  0  0  0
 59 62  1  0  0  0
 60129  1  0  0  0
 60130  1  0  0  0
 60131  1  0  0  0
 61132  1  0  0  0
 61133  1  0  0  0
 61134  1  0  0  0
 62135  1  0  0  0
 62136  1  0  0  0
 62137  1  0  0  0
 63 65  1  0  0  0
 63138  1  0  0  0
 63139  1  0  0  0
 63140  1  0  0  0
 64141  1  0  0  0
 65142  1  0  0  0
 68 79  1  0  0  0
 71 72  1  0  0  0
 71 74  2  0  0  0
 71143  1  0  0  0
 72 73  2  0  0  0
 72 76  1  0  0  0
 73 77  1  0  0  0
 73 83  1  0  0  0
 74 81  1  0  0  0
 74 83  1  0  0  0
 75 79  1  0  0  0
 75 81  1  0  0  0
 75 82  2  0  0  0
 76 80  1  0  0  0
 76144  1  0  0  0
 76145  1  0  0  0
 77 78  1  0  0  0
 77146  1  0  0  0
 77147  1  0  0  0
 78 80  1  0  0  0
 78148  1  0  0  0
 78149  1  0  0  0
 79150  1  0  0  0
 79151  1  0  0  0
 81152  1  0  0  0
M  ISO  4   1 100  68 101  79 101  80 100
M  END
> <chiral flag>
0

> <version>
0

> <s_m_source_file>
/data/baiqing/PycharmProjects/Reinvent-master-3.2/result/LINK_invent/BTK/process_docking_weight1_custom_product_contain_oxygen_bond_distance_aromatic_linkinvent_7_9_3/rearranged_h_0151.sdf

> <i_m_source_file_index>
38

> <r_mmod_Potential_Energy-OPLS-2005>
337.126007080078

> <r_mmod_Stretch_Energy-OPLS-2005>
139.611389160156

> <r_mmod_Bend_Energy-OPLS-2005>
192.847778320312

> <r_mmod_Torsional_Energy-OPLS-2005>
321.474731445312

> <r_mmod_Improper_Torsional_Energy-OPLS-2005>
16.0421257019043

> <r_mmod_Van_der_Waal_Energy-OPLS-2005>
110.946060180664

> <r_mmod_Electrostatic_Energy-OPLS-2005>
-322.807678222656

> <r_mmod_Solvation_Energy-OPLS-2005>
-233.504119873047

> <b_mmod_Minimization_Converged-OPLS-2005>
0

> <r_mmod_RMS_Derivative-OPLS-2005>
3.35100889205933

$$$$
38
                    3D
 Structure written by MMmdl.
170181  0  0  1  0            999 V2000
  -30.6000  -14.6775   20.5095 C   0  0  0  0  0  0
  -30.4493  -12.4198   19.4557 C   0  0  0  0  0  0
  -29.5136  -12.5177   18.2285 C   0  0  0  0  0  0
  -28.0371  -12.3458   18.6400 C   0  0  0  0  0  0
  -27.6563  -13.2161   19.8665 C   0  0  2  0  0  0
  -28.7020  -13.0705   20.9957 C   0  0  0  0  0  0
  -25.2578  -13.8166   20.5687 C   0  0  0  0  0  0
  -24.1841  -13.0437   20.9192 C   0  0  0  0  0  0
  -24.6405  -11.6906   20.8741 C   0  0  0  0  0  0
  -23.9069  -10.4291   21.0405 C   0  0  0  0  0  0
  -24.3618   -9.4206   21.9183 C   0  0  0  0  0  0
  -23.6293   -8.2242   22.0754 C   0  0  0  0  0  0
  -22.4275   -8.0282   21.3544 C   0  0  0  0  0  0
  -21.9911   -9.0256   20.4646 C   0  0  0  0  0  0
  -22.7240  -10.2135   20.3055 C   0  0  0  0  0  0
  -21.6853   -6.0736   22.5279 C   0  0  0  0  0  0
  -21.4013   -6.5640   23.8212 C   0  0  0  0  0  0
  -21.3660   -5.6793   24.9174 C   0  0  0  0  0  0
  -21.6044   -4.3055   24.7225 C   0  0  0  0  0  0
  -21.8820   -3.8147   23.4346 C   0  0  0  0  0  0
  -21.9192   -4.6964   22.3402 C   0  0  0  0  0  0
  -22.7862  -13.5232   21.1853 C   0  0  0  0  0  0
  -22.1662   -4.2149   21.0980 F   0  0  0  0  0  0
  -21.5629   -3.4538   25.7737 F   0  0  0  0  0  0
  -30.0156  -13.4359   20.4375 N   0  0  0  0  0  0
  -26.3008  -12.9344   20.3327 N   0  0  0  0  0  0
  -25.9335  -11.6500   20.5757 N   0  0  0  0  0  0
  -22.0500  -12.8227   22.0407 N   0  0  0  0  0  0
  -25.4296  -15.1886   20.4088 N   0  0  0  0  0  0
  -31.7455  -14.8759   20.0953 O   0  0  0  0  0  0
  -21.6639   -6.8879   21.4242 O   0  0  0  0  0  0
  -22.3550  -14.5538   20.6699 O   0  0  0  0  0  0
  -24.6303  -31.8587   23.2039 C   0  0  0  0  0  0
  -25.9139  -32.4773   23.8369 C   0  0  1  0  0  0
  -27.2176  -27.2829   20.1105 C   0  0  0  0  0  0
  -25.5945  -33.8576   24.2287 N   0  0  0  0  0  0
  -23.4254  -30.4858   21.5475 C   0  0  2  0  0  0
  -24.8715  -28.9469   20.1085 C   0  0  0  0  0  0
  -22.7499  -29.4623   22.4923 C   0  0  0  0  0  0
  -18.0292  -28.1387   22.8486 C   0  0  0  0  0  0
  -24.1491  -36.7288   23.2638 C   0  0  0  0  0  0
  -25.9732  -30.7751   21.3863 C   0  0  0  0  0  0
  -26.0444  -29.4024   20.7238 C   0  0  0  0  0  0
  -27.2179  -28.5810   20.7223 C   0  0  0  0  0  0
  -26.0209  -26.9133   19.4440 C   0  0  0  0  0  0
  -24.8642  -27.7079   19.4599 C   0  0  0  0  0  0
  -23.6422  -29.8302   20.1607 C   0  0  0  0  0  0
  -25.4117  -36.3080   24.0328 C   0  0  1  0  0  0
  -20.5897  -28.3699   23.1268 C   0  0  2  0  0  0
  -20.6782  -26.9418   22.5404 C   0  0  0  0  0  0
  -19.5754  -26.6385   21.5212 C   0  0  0  0  0  0
  -18.1935  -26.7930   22.1625 C   0  0  0  0  0  0
  -19.1545  -28.8860   23.2872 C   0  0  0  0  0  0
  -18.9466  -30.1460   23.8892 C   0  0  0  0  0  0
  -17.6464  -30.6588   24.0562 C   0  0  0  0  0  0
  -25.9056  -34.9449   23.5105 C   0  0  0  0  0  0
  -16.5356  -29.9085   23.6332 C   0  0  0  0  0  0
  -16.7278  -28.6502   23.0356 C   0  0  0  0  0  0
  -26.4508  -31.6587   25.0748 C   0  0  0  0  0  0
  -25.3730  -31.3733   26.1465 C   0  0  0  0  0  0
  -27.0355  -30.3002   24.6236 C   0  0  0  0  0  0
  -27.6064  -32.4327   25.7518 C   0  0  0  0  0  0
  -27.5579  -37.1803   24.8467 C   0  0  0  0  0  0
  -21.4209  -29.3050   22.3660 N   0  0  0  0  0  0
  -26.4294  -37.3775   23.9407 N   0  0  0  0  0  0
  -24.6951  -31.0568   22.1016 N   0  0  0  0  0  0
  -23.4206  -28.8149   23.3005 O   0  0  0  0  0  0
  -28.3002  -26.3692   20.1843 O   0  0  0  0  0  0
  -26.5619  -34.8915   22.4668 O   0  0  0  0  0  0
  -23.5455  -32.1408   23.7338 O   0  0  0  0  0  0
  -28.7255  -17.8896   21.4032 C   0  0  0  0  0  0
  -30.7403  -17.9734   20.1473 C   0  0  0  0  0  0
  -28.6223  -19.3077   21.3087 C   0  0  0  0  0  0
  -29.7900  -17.1601   20.8193 C   0  0  0  0  0  0
  -29.6009  -20.0326   20.5731 C   0  0  0  0  0  0
  -28.8813  -23.6962   20.1691 C   0  0  0  0  0  0
  -28.5766  -22.3792   19.9536 C   0  0  0  0  0  0
  -30.2313  -23.7709   20.8392 C   0  0  0  0  0  0
  -26.5245  -21.2344   17.3596 C   0  0  0  0  0  0
  -27.6634  -21.0828   23.0127 C   0  0  0  0  0  0
  -27.1909  -19.7237   23.4668 C   0  0  0  0  0  0
  -26.9390  -22.5891   17.9394 C   0  0  0  0  0  0
  -27.5060  -20.6012   18.3486 C   0  0  0  0  0  0
  -30.6722  -22.2716   20.9394 C   0  0  0  0  0  0
  -27.4673  -19.9755   22.0006 C   0  0  0  0  0  0
  -27.3328  -21.8522   19.2322 C   0  0  0  0  0  0
  -28.0047  -24.9577   19.7884 C   0  0  0  0  0  0
  -30.6502  -19.3418   20.0380 N   0  0  0  0  0  0
  -29.5707  -21.4719   20.3965 N   0  0  0  0  0  0
  -29.7823  -15.6916   20.9434 N   0  0  0  0  0  0
  -31.4874  -12.5636   19.1510 H   0  0  0  0  0  0
  -30.4032  -11.4234   19.8977 H   0  0  0  0  0  0
  -29.7845  -11.7653   17.4867 H   0  0  0  0  0  0
  -29.6463  -13.4859   17.7430 H   0  0  0  0  0  0
  -27.8801  -11.2921   18.8736 H   0  0  0  0  0  0
  -27.3811  -12.5708   17.7982 H   0  0  0  0  0  0
  -27.6739  -14.2514   19.5260 H   0  0  0  0  0  0
  -28.7241  -12.0442   21.3654 H   0  0  0  0  0  0
  -28.4367  -13.6857   21.8567 H   0  0  0  0  0  0
  -25.2765   -9.5681   22.4755 H   0  0  0  0  0  0
  -24.0003   -7.4633   22.7473 H   0  0  0  0  0  0
  -21.0842   -8.8775   19.8952 H   0  0  0  0  0  0
  -22.3700  -10.9674   19.6164 H   0  0  0  0  0  0
  -21.2006   -7.6148   23.9716 H   0  0  0  0  0  0
  -21.1481   -6.0523   25.9078 H   0  0  0  0  0  0
  -22.0599   -2.7609   23.2846 H   0  0  0  0  0  0
  -22.4114  -11.9888   22.4798 H   0  0  0  0  0  0
  -21.1117  -13.1254   22.2607 H   0  0  0  0  0  0
  -24.6570  -15.8386   20.5031 H   0  0  0  0  0  0
  -26.2671  -15.6210   20.0413 H   0  0  0  0  0  0
  -26.7204  -32.5429   23.1111 H   0  0  0  0  0  0
  -25.0099  -33.9722   25.0437 H   0  0  0  0  0  0
  -22.7209  -31.3083   21.4073 H   0  0  0  0  0  0
  -23.3752  -35.9621   23.3308 H   0  0  0  0  0  0
  -24.3579  -36.8901   22.2051 H   0  0  0  0  0  0
  -23.7245  -37.6493   23.6654 H   0  0  0  0  0  0
  -26.1156  -31.5390   20.6206 H   0  0  0  0  0  0
  -26.8496  -30.8181   22.0210 H   0  0  0  0  0  0
  -28.1100  -28.9215   21.2293 H   0  0  0  0  0  0
  -25.9245  -25.9851   18.9028 H   0  0  0  0  0  0
  -23.9709  -27.3586   18.9602 H   0  0  0  0  0  0
  -23.7658  -30.6115   19.4099 H   0  0  0  0  0  0
  -22.7607  -29.2649   19.8529 H   0  0  0  0  0  0
  -25.1297  -36.1934   25.0821 H   0  0  0  0  0  0
  -20.9989  -28.3276   24.1388 H   0  0  0  0  0  0
  -20.5689  -26.2309   23.3608 H   0  0  0  0  0  0
  -21.6649  -26.7448   22.1194 H   0  0  0  0  0  0
  -19.6917  -25.6295   21.1245 H   0  0  0  0  0  0
  -19.6689  -27.3192   20.6738 H   0  0  0  0  0  0
  -17.4205  -26.6677   21.4029 H   0  0  0  0  0  0
  -18.0336  -26.0073   22.9023 H   0  0  0  0  0  0
  -19.7942  -30.7278   24.2260 H   0  0  0  0  0  0
  -17.5019  -31.6269   24.5164 H   0  0  0  0  0  0
  -15.5356  -30.2985   23.7660 H   0  0  0  0  0  0
  -15.8679  -28.0817   22.7076 H   0  0  0  0  0  0
  -24.5912  -30.7074   25.7792 H   0  0  0  0  0  0
  -24.8911  -32.2900   26.4877 H   0  0  0  0  0  0
  -25.8047  -30.8922   27.0251 H   0  0  0  0  0  0
  -26.2944  -29.6749   24.1245 H   0  0  0  0  0  0
  -27.4015  -29.7266   25.4762 H   0  0  0  0  0  0
  -27.8834  -30.4272   23.9502 H   0  0  0  0  0  0
  -27.2676  -33.3633   26.2082 H   0  0  0  0  0  0
  -28.3880  -32.6876   25.0348 H   0  0  0  0  0  0
  -28.0725  -31.8460   26.5444 H   0  0  0  0  0  0
  -28.2601  -38.0096   24.7507 H   0  0  0  0  0  0
  -28.1072  -36.2626   24.6303 H   0  0  0  0  0  0
  -27.2295  -37.1465   25.8870 H   0  0  0  0  0  0
  -20.9389  -29.8783   21.6878 H   0  0  0  0  0  0
  -26.0175  -38.2852   24.1401 H   0  0  0  0  0  0
  -27.9601  -17.3521   21.9446 H   0  0  0  0  0  0
  -31.5963  -17.5261   19.6651 H   0  0  0  0  0  0
  -30.1393  -24.2331   21.8226 H   0  0  0  0  0  0
  -30.9264  -24.3589   20.2391 H   0  0  0  0  0  0
  -26.7741  -21.0884   16.3079 H   0  0  0  0  0  0
  -25.4838  -20.9802   17.5694 H   0  0  0  0  0  0
  -28.6809  -21.3697   23.2709 H   0  0  0  0  0  0
  -26.9342  -21.8907   23.0249 H   0  0  0  0  0  0
  -26.1524  -19.6471   23.7839 H   0  0  0  0  0  0
  -27.8974  -19.1186   24.0320 H   0  0  0  0  0  0
  -26.1230  -23.3051   18.0451 H   0  0  0  0  0  0
  -27.7891  -23.0188   17.4053 H   0  0  0  0  0  0
  -28.5085  -20.4976   17.9280 H   0  0  0  0  0  0
  -27.1581  -19.6688   18.7944 H   0  0  0  0  0  0
  -30.8731  -21.9872   21.9733 H   0  0  0  0  0  0
  -31.5795  -22.0901   20.3620 H   0  0  0  0  0  0
  -26.5979  -20.0157   21.3483 H   0  0  0  0  0  0
  -26.4766  -21.7789   19.9049 H   0  0  0  0  0  0
  -27.0260  -24.6801   20.1813 H   0  0  0  0  0  0
  -27.9341  -24.9640   18.7016 H   0  0  0  0  0  0
  -28.9293  -15.3213   21.3358 H   0  0  0  0  0  0
  1 25  1  0  0  0
  1 30  2  0  0  0
  1 90  1  0  0  0
  2  3  1  0  0  0
  2 25  1  0  0  0
  2 91  1  0  0  0
  2 92  1  0  0  0
  3  4  1  0  0  0
  3 93  1  0  0  0
  3 94  1  0  0  0
  4  5  1  0  0  0
  4 95  1  0  0  0
  4 96  1  0  0  0
  5  6  1  0  0  0
  5 26  1  0  0  0
  5 97  1  0  0  0
  6 25  1  0  0  0
  6 98  1  0  0  0
  6 99  1  0  0  0
  7  8  2  0  0  0
  7 26  1  0  0  0
  7 29  1  0  0  0
  8  9  1  0  0  0
  8 22  1  0  0  0
  9 10  1  0  0  0
  9 27  2  0  0  0
 10 11  2  0  0  0
 10 15  1  0  0  0
 11 12  1  0  0  0
 11100  1  0  0  0
 12 13  2  0  0  0
 12101  1  0  0  0
 13 14  1  0  0  0
 13 31  1  0  0  0
 14 15  2  0  0  0
 14102  1  0  0  0
 15103  1  0  0  0
 16 17  2  0  0  0
 16 21  1  0  0  0
 16 31  1  0  0  0
 17 18  1  0  0  0
 17104  1  0  0  0
 18 19  2  0  0  0
 18105  1  0  0  0
 19 20  1  0  0  0
 19 24  1  0  0  0
 20 21  2  0  0  0
 20106  1  0  0  0
 21 23  1  0  0  0
 22 28  1  0  0  0
 22 32  2  0  0  0
 26 27  1  0  0  0
 28107  1  0  0  0
 28108  1  0  0  0
 29109  1  0  0  0
 29110  1  0  0  0
 33 34  1  0  0  0
 33 66  1  0  0  0
 33 70  2  0  0  0
 34 36  1  0  0  0
 34 59  1  0  0  0
 34111  1  0  0  0
 35 44  2  0  0  0
 35 45  1  0  0  0
 35 68  1  0  0  0
 36 56  1  0  0  0
 36112  1  0  0  0
 37 39  1  0  0  0
 37 47  1  0  0  0
 37 66  1  0  0  0
 37113  1  0  0  0
 38 43  2  0  0  0
 38 46  1  0  0  0
 38 47  1  0  0  0
 39 64  1  0  0  0
 39 67  2  0  0  0
 40 52  1  0  0  0
 40 53  2  0  0  0
 40 58  1  0  0  0
 41114  1  0  0  0
 41115  1  0  0  0
 41116  1  0  0  0
 41 48  1  0  0  0
 42 43  1  0  0  0
 42 66  1  0  0  0
 42117  1  0  0  0
 42118  1  0  0  0
 43 44  1  0  0  0
 44119  1  0  0  0
 45 46  2  0  0  0
 45120  1  0  0  0
 46121  1  0  0  0
 47122  1  0  0  0
 47123  1  0  0  0
 48 56  1  0  0  0
 48 65  1  0  0  0
 48124  1  0  0  0
 49 50  1  0  0  0
 49 53  1  0  0  0
 49 64  1  0  0  0
 49125  1  0  0  0
 50 51  1  0  0  0
 50126  1  0  0  0
 50127  1  0  0  0
 51 52  1  0  0  0
 51128  1  0  0  0
 51129  1  0  0  0
 52130  1  0  0  0
 52131  1  0  0  0
 53 54  1  0  0  0
 54 55  2  0  0  0
 54132  1  0  0  0
 55 57  1  0  0  0
 55133  1  0  0  0
 56 69  2  0  0  0
 57 58  2  0  0  0
 57134  1  0  0  0
 58135  1  0  0  0
 59 60  1  0  0  0
 59 61  1  0  0  0
 59 62  1  0  0  0
 60136  1  0  0  0
 60137  1  0  0  0
 60138  1  0  0  0
 61139  1  0  0  0
 61140  1  0  0  0
 61141  1  0  0  0
 62142  1  0  0  0
 62143  1  0  0  0
 62144  1  0  0  0
 63 65  1  0  0  0
 63145  1  0  0  0
 63146  1  0  0  0
 63147  1  0  0  0
 64148  1  0  0  0
 65149  1  0  0  0
 68 87  1  0  0  0
 71 73  2  0  0  0
 71 74  1  0  0  0
 71150  1  0  0  0
 72 74  2  0  0  0
 72 88  1  0  0  0
 72151  1  0  0  0
 73 75  1  0  0  0
 73 85  1  0  0  0
 74 90  1  0  0  0
 75 88  2  0  0  0
 75 89  1  0  0  0
 76 77  2  0  0  0
 76 78  1  0  0  0
 76 87  1  0  0  0
 77 89  1  0  0  0
 77 86  1  0  0  0
 78 84  1  0  0  0
 78152  1  0  0  0
 78153  1  0  0  0
 79 82  1  0  0  0
 79 83  1  0  0  0
 79154  1  0  0  0
 79155  1  0  0  0
 80 81  1  0  0  0
 80 85  1  0  0  0
 80156  1  0  0  0
 80157  1  0  0  0
 81 85  1  0  0  0
 81158  1  0  0  0
 81159  1  0  0  0
 82 86  1  0  0  0
 82160  1  0  0  0
 82161  1  0  0  0
 83 86  1  0  0  0
 83162  1  0  0  0
 83163  1  0  0  0
 84 89  1  0  0  0
 84164  1  0  0  0
 84165  1  0  0  0
 85166  1  0  0  0
 86167  1  0  0  0
 87168  1  0  0  0
 87169  1  0  0  0
 90170  1  0  0  0
M  ISO  4   1 100  68 101  87 101  90 100
M  END
> <chiral flag>
0

> <version>
0

> <s_m_source_file>
/data/baiqing/PycharmProjects/Reinvent-master-3.2/result/LINK_invent/BTK/process_docking_weight1_custom_product_contain_oxygen_bond_distance_aromatic_linkinvent_7_9_3/rearranged_h_0151.sdf

> <i_m_source_file_index>
39

> <r_mmod_Potential_Energy-OPLS-2005>
48.8365249633789

> <r_mmod_Stretch_Energy-OPLS-2005>
91.7238006591797

> <r_mmod_Bend_Energy-OPLS-2005>
244.223968505859

> <r_mmod_Torsional_Energy-OPLS-2005>
282.047058105469

> <r_mmod_Improper_Torsional_Energy-OPLS-2005>
3.91465067863464

> <r_mmod_Van_der_Waal_Energy-OPLS-2005>
137.542633056641

> <r_mmod_Electrostatic_Energy-OPLS-2005>
-561.033813476562

> <r_mmod_Solvation_Energy-OPLS-2005>
-217.421356201172

> <b_mmod_Minimization_Converged-OPLS-2005>
0

> <r_mmod_RMS_Derivative-OPLS-2005>
0.183009669184685

$$$$
39
                    3D
 Structure written by MMmdl.
149157  0  0  1  0            999 V2000
  -30.2832  -15.5804   20.3341 C   0  0  0  0  0  0
  -30.4385  -13.0260   19.5562 C   0  0  0  0  0  0
  -29.5605  -12.6518   18.3263 C   0  0  0  0  0  0
  -28.1239  -12.3068   18.7519 C   0  0  0  0  0  0
  -27.6019  -13.3034   19.8117 C   0  0  2  0  0  0
  -28.6155  -13.5955   20.9402 C   0  0  0  0  0  0
  -25.2356  -13.8281   20.5765 C   0  0  0  0  0  0
  -24.1733  -13.0439   20.9259 C   0  0  0  0  0  0
  -24.6424  -11.6947   20.8735 C   0  0  0  0  0  0
  -23.9118  -10.4296   21.0386 C   0  0  0  0  0  0
  -24.3655   -9.4209   21.9171 C   0  0  0  0  0  0
  -23.6318   -8.2250   22.0752 C   0  0  0  0  0  0
  -22.4298   -8.0288   21.3543 C   0  0  0  0  0  0
  -21.9939   -9.0260   20.4639 C   0  0  0  0  0  0
  -22.7280  -10.2133   20.3042 C   0  0  0  0  0  0
  -21.6860   -6.0738   22.5279 C   0  0  0  0  0  0
  -21.4017   -6.5639   23.8211 C   0  0  0  0  0  0
  -21.3665   -5.6793   24.9173 C   0  0  0  0  0  0
  -21.6047   -4.3056   24.7223 C   0  0  0  0  0  0
  -21.8820   -3.8147   23.4345 C   0  0  0  0  0  0
  -21.9197   -4.6965   22.3401 C   0  0  0  0  0  0
  -22.7745  -13.5171   21.1906 C   0  0  0  0  0  0
  -22.1663   -4.2151   21.0977 F   0  0  0  0  0  0
  -21.5632   -3.4538   25.7735 F   0  0  0  0  0  0
  -29.8166  -14.1964   20.3195 N   0  0  0  0  0  0
  -26.2794  -12.9601   20.3174 N   0  0  0  0  0  0
  -25.9367  -11.6677   20.5651 N   0  0  0  0  0  0
  -22.0410  -12.8147   22.0459 N   0  0  0  0  0  0
  -25.3987  -15.2022   20.4247 N   0  0  0  0  0  0
  -31.5083  -15.5581   20.1051 O   0  0  0  0  0  0
  -21.6652   -6.8886   21.4244 O   0  0  0  0  0  0
  -22.3414  -14.5468   20.6743 O   0  0  0  0  0  0
  -24.6820  -31.8014   23.1525 C   0  0  0  0  0  0
  -25.9409  -32.4475   23.8067 C   0  0  1  0  0  0
  -27.2288  -26.7223   20.2137 C   0  0  0  0  0  0
  -25.5992  -33.8300   24.1958 N   0  0  0  0  0  0
  -23.5076  -30.4030   21.5061 C   0  0  2  0  0  0
  -24.9653  -28.7466   20.1181 C   0  0  0  0  0  0
  -22.7758  -29.4321   22.4719 C   0  0  0  0  0  0
  -18.0338  -28.1421   22.8463 C   0  0  0  0  0  0
  -24.1492  -36.7152   23.2653 C   0  0  0  0  0  0
  -26.0870  -30.5408   21.4142 C   0  0  0  0  0  0
  -26.1535  -29.1076   20.7639 C   0  0  0  0  0  0
  -27.2708  -28.1230   20.7784 C   0  0  0  0  0  0
  -26.0074  -26.5634   19.5118 C   0  0  0  0  0  0
  -24.9299  -27.4997   19.4688 C   0  0  0  0  0  0
  -23.7604  -29.6992   20.1414 C   0  0  0  0  0  0
  -25.4144  -36.2901   24.0284 C   0  0  1  0  0  0
  -20.5973  -28.3777   23.1150 C   0  0  2  0  0  0
  -20.6802  -26.9439   22.5408 C   0  0  0  0  0  0
  -19.5776  -26.6374   21.5222 C   0  0  0  0  0  0
  -18.1959  -26.7950   22.1625 C   0  0  0  0  0  0
  -19.1604  -28.8925   23.2787 C   0  0  0  0  0  0
  -18.9508  -30.1510   23.8831 C   0  0  0  0  0  0
  -17.6498  -30.6606   24.0551 C   0  0  0  0  0  0
  -25.9122  -34.9290   23.4957 C   0  0  0  0  0  0
  -16.5389  -29.9086   23.6352 C   0  0  0  0  0  0
  -16.7318  -28.6507   23.0375 C   0  0  0  0  0  0
  -26.4596  -31.6504   25.0682 C   0  0  0  0  0  0
  -25.3667  -31.3816   26.1300 C   0  0  0  0  0  0
  -27.0527  -30.2845   24.6568 C   0  0  0  0  0  0
  -27.6047  -32.4363   25.7498 C   0  0  0  0  0  0
  -27.5565  -37.1734   24.8468 C   0  0  0  0  0  0
  -21.4409  -29.3025   22.3468 N   0  0  0  0  0  0
  -26.4272  -37.3662   23.9408 N   0  0  0  0  0  0
  -24.7822  -30.9476   22.0771 N   0  0  0  0  0  0
  -23.4207  -28.7927   23.3061 O   0  0  0  0  0  0
  -28.2049  -25.5220   20.2938 O   0  0  0  0  0  0
  -26.5764  -34.8866   22.4574 O   0  0  0  0  0  0
  -23.5843  -32.1080   23.6487 O   0  0  0  0  0  0
  -28.7548  -20.2842   20.2156 C   0  0  0  0  0  0
  -29.6199  -17.6004   21.9874 C   0  0  0  0  0  0
  -29.3924  -17.2170   20.5174 C   0  0  1  0  0  0
  -30.5336  -18.7700   21.5488 C   0  0  2  0  0  0
  -30.7182  -19.9757   22.4676 C   0  0  0  0  0  0
  -29.0062  -22.1223   20.3820 C   0  0  0  0  0  0
  -28.0317  -23.7800   20.1535 C   0  0  0  0  0  0
  -29.6619  -18.9185   20.3817 N   0  0  0  0  0  0
  -27.5881  -20.0235   19.9195 O   0  0  0  0  0  0
  -31.4410  -13.2770   19.2081 H   0  0  0  0  0  0
  -30.5734  -12.1618   20.2087 H   0  0  0  0  0  0
  -30.0020  -11.8177   17.7793 H   0  0  0  0  0  0
  -29.5402  -13.4962   17.6357 H   0  0  0  0  0  0
  -28.1312  -11.2994   19.1694 H   0  0  0  0  0  0
  -27.4616  -12.2780   17.8859 H   0  0  0  0  0  0
  -27.4786  -14.2380   19.2630 H   0  0  0  0  0  0
  -28.8470  -12.6979   21.5153 H   0  0  0  0  0  0
  -28.1907  -14.3109   21.6462 H   0  0  0  0  0  0
  -25.2801   -9.5685   22.4749 H   0  0  0  0  0  0
  -24.0024   -7.4641   22.7478 H   0  0  0  0  0  0
  -21.0868   -8.8781   19.8943 H   0  0  0  0  0  0
  -22.3739  -10.9670   19.6147 H   0  0  0  0  0  0
  -21.2006   -7.6147   23.9716 H   0  0  0  0  0  0
  -21.1487   -6.0519   25.9076 H   0  0  0  0  0  0
  -22.0595   -2.7608   23.2844 H   0  0  0  0  0  0
  -22.4060  -11.9835   22.4866 H   0  0  0  0  0  0
  -21.1013  -13.1137   22.2648 H   0  0  0  0  0  0
  -24.6312  -15.8541   20.5457 H   0  0  0  0  0  0
  -26.2472  -15.6472   20.1005 H   0  0  0  0  0  0
  -26.7488  -32.4955   23.0778 H   0  0  0  0  0  0
  -25.0055  -33.9342   25.0054 H   0  0  0  0  0  0
  -22.8321  -31.2395   21.3166 H   0  0  0  0  0  0
  -23.3777  -35.9457   23.3270 H   0  0  0  0  0  0
  -24.3556  -36.8856   22.2076 H   0  0  0  0  0  0
  -23.7227  -37.6309   23.6756 H   0  0  0  0  0  0
  -26.2886  -31.2678   20.6266 H   0  0  0  0  0  0
  -26.9381  -30.6072   22.0794 H   0  0  0  0  0  0
  -28.1664  -28.4055   21.3140 H   0  0  0  0  0  0
  -25.8469  -25.6180   19.0133 H   0  0  0  0  0  0
  -24.0323  -27.2146   18.9377 H   0  0  0  0  0  0
  -23.9329  -30.4586   19.3781 H   0  0  0  0  0  0
  -22.8659  -29.1629   19.8195 H   0  0  0  0  0  0
  -25.1352  -36.1669   25.0774 H   0  0  0  0  0  0
  -21.0056  -28.3403   24.1276 H   0  0  0  0  0  0
  -20.5670  -26.2401   23.3668 H   0  0  0  0  0  0
  -21.6662  -26.7382   22.1223 H   0  0  0  0  0  0
  -19.6927  -25.6266   21.1297 H   0  0  0  0  0  0
  -19.6719  -27.3146   20.6723 H   0  0  0  0  0  0
  -17.4230  -26.6706   21.4026 H   0  0  0  0  0  0
  -18.0339  -26.0107   22.9033 H   0  0  0  0  0  0
  -19.7983  -30.7347   24.2168 H   0  0  0  0  0  0
  -17.5047  -31.6280   24.5164 H   0  0  0  0  0  0
  -15.5385  -30.2966   23.7713 H   0  0  0  0  0  0
  -15.8720  -28.0799   22.7131 H   0  0  0  0  0  0
  -24.5868  -30.7153   25.7595 H   0  0  0  0  0  0
  -24.8841  -32.3037   26.4545 H   0  0  0  0  0  0
  -25.7846  -30.9092   27.0198 H   0  0  0  0  0  0
  -26.3242  -29.6466   24.1555 H   0  0  0  0  0  0
  -27.3956  -29.7283   25.5303 H   0  0  0  0  0  0
  -27.9221  -30.3976   24.0090 H   0  0  0  0  0  0
  -27.2588  -33.3731   26.1881 H   0  0  0  0  0  0
  -28.3956  -32.6822   25.0398 H   0  0  0  0  0  0
  -28.0610  -31.8625   26.5575 H   0  0  0  0  0  0
  -28.2554  -38.0056   24.7517 H   0  0  0  0  0  0
  -28.1089  -36.2578   24.6296 H   0  0  0  0  0  0
  -27.2278  -37.1370   25.8870 H   0  0  0  0  0  0
  -20.9711  -29.8672   21.6532 H   0  0  0  0  0  0
  -26.0102  -38.2709   24.1426 H   0  0  0  0  0  0
  -30.1437  -16.8556   22.5888 H   0  0  0  0  0  0
  -28.7063  -17.9163   22.4956 H   0  0  0  0  0  0
  -28.3361  -17.0216   20.3302 H   0  0  0  0  0  0
  -31.5002  -18.3884   21.2099 H   0  0  0  0  0  0
  -29.7758  -20.3253   22.8897 H   0  0  0  0  0  0
  -31.2012  -20.8060   21.9523 H   0  0  0  0  0  0
  -31.3588  -19.7186   23.3116 H   0  0  0  0  0  0
  -29.9043  -22.2702   19.7838 H   0  0  0  0  0  0
  -29.3628  -22.2035   21.4067 H   0  0  0  0  0  0
  -27.1412  -23.6117   20.7591 H   0  0  0  0  0  0
  -27.6580  -23.6915   19.1333 H   0  0  0  0  0  0
  1 25  1  0  0  0
  1 30  2  0  0  0
  1 73  1  0  0  0
  2  3  1  0  0  0
  2 25  1  0  0  0
  2 80  1  0  0  0
  2 81  1  0  0  0
  3  4  1  0  0  0
  3 82  1  0  0  0
  3 83  1  0  0  0
  4  5  1  0  0  0
  4 84  1  0  0  0
  4 85  1  0  0  0
  5  6  1  0  0  0
  5 26  1  0  0  0
  5 86  1  0  0  0
  6 25  1  0  0  0
  6 87  1  0  0  0
  6 88  1  0  0  0
  7  8  2  0  0  0
  7 26  1  0  0  0
  7 29  1  0  0  0
  8  9  1  0  0  0
  8 22  1  0  0  0
  9 10  1  0  0  0
  9 27  2  0  0  0
 10 11  2  0  0  0
 10 15  1  0  0  0
 11 12  1  0  0  0
 11 89  1  0  0  0
 12 13  2  0  0  0
 12 90  1  0  0  0
 13 14  1  0  0  0
 13 31  1  0  0  0
 14 15  2  0  0  0
 14 91  1  0  0  0
 15 92  1  0  0  0
 16 17  2  0  0  0
 16 21  1  0  0  0
 16 31  1  0  0  0
 17 18  1  0  0  0
 17 93  1  0  0  0
 18 19  2  0  0  0
 18 94  1  0  0  0
 19 20  1  0  0  0
 19 24  1  0  0  0
 20 21  2  0  0  0
 20 95  1  0  0  0
 21 23  1  0  0  0
 22 28  1  0  0  0
 22 32  2  0  0  0
 26 27  1  0  0  0
 28 96  1  0  0  0
 28 97  1  0  0  0
 29 98  1  0  0  0
 29 99  1  0  0  0
 33 34  1  0  0  0
 33 66  1  0  0  0
 33 70  2  0  0  0
 34 36  1  0  0  0
 34 59  1  0  0  0
 34100  1  0  0  0
 35 44  2  0  0  0
 35 45  1  0  0  0
 35 68  1  0  0  0
 36 56  1  0  0  0
 36101  1  0  0  0
 37 39  1  0  0  0
 37 47  1  0  0  0
 37 66  1  0  0  0
 37102  1  0  0  0
 38 43  2  0  0  0
 38 46  1  0  0  0
 38 47  1  0  0  0
 39 64  1  0  0  0
 39 67  2  0  0  0
 40 52  1  0  0  0
 40 53  2  0  0  0
 40 58  1  0  0  0
 41103  1  0  0  0
 41104  1  0  0  0
 41105  1  0  0  0
 41 48  1  0  0  0
 42 43  1  0  0  0
 42 66  1  0  0  0
 42106  1  0  0  0
 42107  1  0  0  0
 43 44  1  0  0  0
 44108  1  0  0  0
 45 46  2  0  0  0
 45109  1  0  0  0
 46110  1  0  0  0
 47111  1  0  0  0
 47112  1  0  0  0
 48 56  1  0  0  0
 48 65  1  0  0  0
 48113  1  0  0  0
 49 50  1  0  0  0
 49 53  1  0  0  0
 49 64  1  0  0  0
 49114  1  0  0  0
 50 51  1  0  0  0
 50115  1  0  0  0
 50116  1  0  0  0
 51 52  1  0  0  0
 51117  1  0  0  0
 51118  1  0  0  0
 52119  1  0  0  0
 52120  1  0  0  0
 53 54  1  0  0  0
 54 55  2  0  0  0
 54121  1  0  0  0
 55 57  1  0  0  0
 55122  1  0  0  0
 56 69  2  0  0  0
 57 58  2  0  0  0
 57123  1  0  0  0
 58124  1  0  0  0
 59 60  1  0  0  0
 59 61  1  0  0  0
 59 62  1  0  0  0
 60125  1  0  0  0
 60126  1  0  0  0
 60127  1  0  0  0
 61128  1  0  0  0
 61129  1  0  0  0
 61130  1  0  0  0
 62131  1  0  0  0
 62132  1  0  0  0
 62133  1  0  0  0
 63 65  1  0  0  0
 63134  1  0  0  0
 63135  1  0  0  0
 63136  1  0  0  0
 64137  1  0  0  0
 65138  1  0  0  0
 68 77  1  0  0  0
 71 76  1  0  0  0
 71 78  1  0  0  0
 71 79  2  0  0  0
 72 73  1  0  0  0
 72 74  1  0  0  0
 72139  1  0  0  0
 72140  1  0  0  0
 73 78  1  0  0  0
 73141  1  0  0  0
 74 75  1  0  0  0
 74 78  1  0  0  0
 74142  1  0  0  0
 75143  1  0  0  0
 75144  1  0  0  0
 75145  1  0  0  0
 76 77  1  0  0  0
 76146  1  0  0  0
 76147  1  0  0  0
 77148  1  0  0  0
 77149  1  0  0  0
M  ISO  4   1 100  68 101  73 100  77 101
M  END
> <chiral flag>
0

> <version>
0

> <s_m_source_file>
/data/baiqing/PycharmProjects/Reinvent-master-3.2/result/LINK_invent/BTK/process_docking_weight1_custom_product_contain_oxygen_bond_distance_aromatic_linkinvent_7_9_3/rearranged_h_0151.sdf

> <i_m_source_file_index>
40

> <r_mmod_Potential_Energy-OPLS-2005>
2337.5615234375

> <r_mmod_Stretch_Energy-OPLS-2005>
1103.01379394531

> <r_mmod_Bend_Energy-OPLS-2005>
646.869384765625

> <r_mmod_Torsional_Energy-OPLS-2005>
203.009262084961

> <r_mmod_Improper_Torsional_Energy-OPLS-2005>
8.28455448150635

> <r_mmod_Van_der_Waal_Energy-OPLS-2005>
109.896591186523

> <r_mmod_Electrostatic_Energy-OPLS-2005>
-339.257659912109

> <r_mmod_Solvation_Energy-OPLS-2005>
-230.527069091797

> <b_mmod_Minimization_Converged-OPLS-2005>
0

> <r_mmod_RMS_Derivative-OPLS-2005>
0.641278684139252

$$$$
40
                    3D
 Structure written by MMmdl.
154163  0  0  1  0            999 V2000
  -30.6190  -14.7357   20.4610 C   0  0  0  0  0  0
  -30.4318  -12.4467   19.4691 C   0  0  0  0  0  0
  -29.5018  -12.5023   18.2361 C   0  0  0  0  0  0
  -28.0285  -12.3317   18.6547 C   0  0  0  0  0  0
  -27.6436  -13.2278   19.8632 C   0  0  2  0  0  0
  -28.6955  -13.1546   20.9932 C   0  0  0  0  0  0
  -25.2514  -13.8181   20.5735 C   0  0  0  0  0  0
  -24.1802  -13.0432   20.9230 C   0  0  0  0  0  0
  -24.6382  -11.6905   20.8775 C   0  0  0  0  0  0
  -23.9049  -10.4285   21.0409 C   0  0  0  0  0  0
  -24.3608   -9.4200   21.9176 C   0  0  0  0  0  0
  -23.6302   -8.2237   22.0737 C   0  0  0  0  0  0
  -22.4279   -8.0268   21.3542 C   0  0  0  0  0  0
  -21.9911   -9.0232   20.4647 C   0  0  0  0  0  0
  -22.7225  -10.2130   20.3057 C   0  0  0  0  0  0
  -21.6841   -6.0737   22.5289 C   0  0  0  0  0  0
  -21.3997   -6.5640   23.8215 C   0  0  0  0  0  0
  -21.3671   -5.6802   24.9186 C   0  0  0  0  0  0
  -21.6064   -4.3067   24.7240 C   0  0  0  0  0  0
  -21.8814   -3.8153   23.4357 C   0  0  0  0  0  0
  -21.9180   -4.6967   22.3419 C   0  0  0  0  0  0
  -22.7831  -13.5205   21.1897 C   0  0  0  0  0  0
  -22.1647   -4.2153   21.0994 F   0  0  0  0  0  0
  -21.5659   -3.4550   25.7748 F   0  0  0  0  0  0
  -29.9946  -13.5074   20.4039 N   0  0  0  0  0  0
  -26.2935  -12.9379   20.3357 N   0  0  0  0  0  0
  -25.9315  -11.6531   20.5841 N   0  0  0  0  0  0
  -22.0494  -12.8175   22.0455 N   0  0  0  0  0  0
  -25.4206  -15.1888   20.4097 N   0  0  0  0  0  0
  -31.8122  -14.8243   20.1541 O   0  0  0  0  0  0
  -21.6654   -6.8862   21.4238 O   0  0  0  0  0  0
  -22.3521  -14.5508   20.6740 O   0  0  0  0  0  0
  -24.6333  -31.8574   23.1979 C   0  0  0  0  0  0
  -25.9170  -32.4743   23.8331 C   0  0  1  0  0  0
  -27.2068  -27.2388   20.1076 C   0  0  0  0  0  0
  -25.5991  -33.8555   24.2254 N   0  0  0  0  0  0
  -23.4289  -30.4817   21.5466 C   0  0  2  0  0  0
  -24.8692  -28.9304   20.1083 C   0  0  0  0  0  0
  -22.7500  -29.4616   22.4919 C   0  0  0  0  0  0
  -18.0289  -28.1399   22.8487 C   0  0  0  0  0  0
  -24.1508  -36.7274   23.2645 C   0  0  0  0  0  0
  -25.9797  -30.7554   21.3872 C   0  0  0  0  0  0
  -26.0433  -29.3788   20.7230 C   0  0  0  0  0  0
  -27.2112  -28.5450   20.7165 C   0  0  0  0  0  0
  -26.0050  -26.8734   19.4535 C   0  0  0  0  0  0
  -24.8579  -27.6855   19.4663 C   0  0  0  0  0  0
  -23.6448  -29.8229   20.1609 C   0  0  0  0  0  0
  -25.4142  -36.3073   24.0321 C   0  0  1  0  0  0
  -20.5906  -28.3724   23.1277 C   0  0  2  0  0  0
  -20.6794  -26.9445   22.5426 C   0  0  0  0  0  0
  -19.5780  -26.6384   21.5235 C   0  0  0  0  0  0
  -18.1950  -26.7942   22.1603 C   0  0  0  0  0  0
  -19.1549  -28.8867   23.2877 C   0  0  0  0  0  0
  -18.9463  -30.1466   23.8901 C   0  0  0  0  0  0
  -17.6465  -30.6600   24.0554 C   0  0  0  0  0  0
  -25.9083  -34.9436   23.5068 C   0  0  0  0  0  0
  -16.5352  -29.9092   23.6345 C   0  0  0  0  0  0
  -16.7271  -28.6507   23.0370 C   0  0  0  0  0  0
  -26.4510  -31.6585   25.0733 C   0  0  0  0  0  0
  -25.3707  -31.3788   26.1444 C   0  0  0  0  0  0
  -27.0324  -30.2974   24.6275 C   0  0  0  0  0  0
  -27.6110  -32.4288   25.7473 C   0  0  0  0  0  0
  -27.5591  -37.1800   24.8455 C   0  0  0  0  0  0
  -21.4207  -29.3055   22.3650 N   0  0  0  0  0  0
  -26.4305  -37.3779   23.9389 N   0  0  0  0  0  0
  -24.7006  -31.0510   22.0985 N   0  0  0  0  0  0
  -23.4192  -28.8175   23.3037 O   0  0  0  0  0  0
  -28.3071  -26.3402   20.1841 O   0  0  0  0  0  0
  -26.5659  -34.8913   22.4633 O   0  0  0  0  0  0
  -23.5491  -32.1417   23.7279 O   0  0  0  0  0  0
  -29.0958  -18.3970   20.5525 C   0  0  0  0  0  0
  -31.3653  -17.8753   20.6171 C   0  0  0  0  0  0
  -30.1057  -17.3246   20.5947 C   0  0  0  0  0  0
  -29.5719  -19.7259   20.5486 C   0  0  0  0  0  0
  -28.5698  -21.7172   21.9818 C   0  0  0  0  0  0
  -28.0515  -23.1522   21.7073 C   0  0  0  0  0  0
  -28.7903  -21.1124   20.5840 C   0  0  1  0  0  0
  -28.8970  -23.6527   20.5182 C   0  0  2  0  0  0
  -28.2647  -24.9057   19.6851 C   0  0  0  0  0  0
  -29.8250  -15.8614   20.6522 N   0  0  0  0  0  0
  -29.2342  -22.3392   19.7922 N   0  3  0  0  0  0
  -31.3251  -19.6420   20.5874 S   0  0  0  0  0  0
  -31.4712  -12.5650   19.1591 H   0  0  0  0  0  0
  -30.3797  -11.4689   19.9498 H   0  0  0  0  0  0
  -29.7776  -11.7271   17.5182 H   0  0  0  0  0  0
  -29.6288  -13.4593   17.7230 H   0  0  0  0  0  0
  -27.8792  -11.2831   18.9146 H   0  0  0  0  0  0
  -27.3648  -12.5326   17.8142 H   0  0  0  0  0  0
  -27.6419  -14.2540   19.4968 H   0  0  0  0  0  0
  -28.7358  -12.1562   21.4351 H   0  0  0  0  0  0
  -28.4393  -13.8352   21.8075 H   0  0  0  0  0  0
  -25.2736   -9.5713   22.4773 H   0  0  0  0  0  0
  -24.0041   -7.4623   22.7428 H   0  0  0  0  0  0
  -21.0855   -8.8728   19.8948 H   0  0  0  0  0  0
  -22.3630  -10.9679   19.6208 H   0  0  0  0  0  0
  -21.1969   -7.6152   23.9720 H   0  0  0  0  0  0
  -21.1505   -6.0537   25.9089 H   0  0  0  0  0  0
  -22.0584   -2.7616   23.2849 H   0  0  0  0  0  0
  -22.4122  -11.9822   22.4821 H   0  0  0  0  0  0
  -21.1137  -13.1219   22.2728 H   0  0  0  0  0  0
  -24.6534  -15.8416   20.5235 H   0  0  0  0  0  0
  -26.2560  -15.6248   20.0425 H   0  0  0  0  0  0
  -26.7243  -32.5354   23.1081 H   0  0  0  0  0  0
  -25.0128  -33.9712   25.0396 H   0  0  0  0  0  0
  -22.7276  -31.3071   21.4052 H   0  0  0  0  0  0
  -23.3777  -35.9590   23.3279 H   0  0  0  0  0  0
  -24.3609  -36.8928   22.2062 H   0  0  0  0  0  0
  -23.7236  -37.6454   23.6684 H   0  0  0  0  0  0
  -26.1357  -31.5186   20.6242 H   0  0  0  0  0  0
  -26.8525  -30.7899   22.0279 H   0  0  0  0  0  0
  -28.1071  -28.8883   21.2176 H   0  0  0  0  0  0
  -25.8868  -25.9466   18.9188 H   0  0  0  0  0  0
  -23.9620  -27.3370   18.9720 H   0  0  0  0  0  0
  -23.7704  -30.6059   19.4119 H   0  0  0  0  0  0
  -22.7586  -29.2675   19.8489 H   0  0  0  0  0  0
  -25.1330  -36.1916   25.0819 H   0  0  0  0  0  0
  -20.9986  -28.3303   24.1404 H   0  0  0  0  0  0
  -20.5723  -26.2331   23.3635 H   0  0  0  0  0  0
  -21.6661  -26.7488   22.1198 H   0  0  0  0  0  0
  -19.6951  -25.6285   21.1289 H   0  0  0  0  0  0
  -19.6742  -27.3171   20.6757 H   0  0  0  0  0  0
  -17.4240  -26.6721   21.3982 H   0  0  0  0  0  0
  -18.0308  -26.0080   22.8987 H   0  0  0  0  0  0
  -19.7947  -30.7281   24.2278 H   0  0  0  0  0  0
  -17.5021  -31.6290   24.5135 H   0  0  0  0  0  0
  -15.5353  -30.2990   23.7681 H   0  0  0  0  0  0
  -15.8671  -28.0818   22.7102 H   0  0  0  0  0  0
  -24.5813  -30.7253   25.7726 H   0  0  0  0  0  0
  -24.8998  -32.2990   26.4914 H   0  0  0  0  0  0
  -25.7960  -30.8861   27.0199 H   0  0  0  0  0  0
  -26.2901  -29.6722   24.1296 H   0  0  0  0  0  0
  -27.3948  -29.7263   25.4837 H   0  0  0  0  0  0
  -27.8835  -30.4200   23.9570 H   0  0  0  0  0  0
  -27.2783  -33.3599   26.2078 H   0  0  0  0  0  0
  -28.3899  -32.6821   25.0263 H   0  0  0  0  0  0
  -28.0807  -31.8376   26.5347 H   0  0  0  0  0  0
  -28.2621  -38.0095   24.7490 H   0  0  0  0  0  0
  -28.1082  -36.2611   24.6285 H   0  0  0  0  0  0
  -27.2309  -37.1462   25.8869 H   0  0  0  0  0  0
  -20.9399  -29.8741   21.6828 H   0  0  0  0  0  0
  -26.0173  -38.2850   24.1380 H   0  0  0  0  0  0
  -28.0405  -18.1532   20.5519 H   0  0  0  0  0  0
  -32.3230  -17.3679   20.6595 H   0  0  0  0  0  0
  -27.8823  -21.1282   22.5915 H   0  0  0  0  0  0
  -29.5193  -21.7667   22.5169 H   0  0  0  0  0  0
  -28.1310  -23.8046   22.5769 H   0  0  0  0  0  0
  -26.9964  -23.1067   21.4230 H   0  0  0  0  0  0
  -27.7925  -20.8978   20.1962 H   0  0  0  0  0  0
  -29.8510  -23.9996   20.9172 H   0  0  0  0  0  0
  -27.2631  -24.5842   19.4212 H   0  0  0  0  0  0
  -28.7907  -24.9451   18.7300 H   0  0  0  0  0  0
  -28.8560  -15.6295   20.8051 H   0  0  0  0  0  0
  -28.8206  -22.2975   18.8736 H   0  0  0  0  0  0
  -30.2326  -22.2934   19.6712 H   0  0  0  0  0  0
  1 25  1  0  0  0
  1 30  2  0  0  0
  1 80  1  0  0  0
  2  3  1  0  0  0
  2 25  1  0  0  0
  2 83  1  0  0  0
  2 84  1  0  0  0
  3  4  1  0  0  0
  3 85  1  0  0  0
  3 86  1  0  0  0
  4  5  1  0  0  0
  4 87  1  0  0  0
  4 88  1  0  0  0
  5  6  1  0  0  0
  5 26  1  0  0  0
  5 89  1  0  0  0
  6 25  1  0  0  0
  6 90  1  0  0  0
  6 91  1  0  0  0
  7  8  2  0  0  0
  7 26  1  0  0  0
  7 29  1  0  0  0
  8  9  1  0  0  0
  8 22  1  0  0  0
  9 10  1  0  0  0
  9 27  2  0  0  0
 10 11  2  0  0  0
 10 15  1  0  0  0
 11 12  1  0  0  0
 11 92  1  0  0  0
 12 13  2  0  0  0
 12 93  1  0  0  0
 13 14  1  0  0  0
 13 31  1  0  0  0
 14 15  2  0  0  0
 14 94  1  0  0  0
 15 95  1  0  0  0
 16 17  2  0  0  0
 16 21  1  0  0  0
 16 31  1  0  0  0
 17 18  1  0  0  0
 17 96  1  0  0  0
 18 19  2  0  0  0
 18 97  1  0  0  0
 19 20  1  0  0  0
 19 24  1  0  0  0
 20 21  2  0  0  0
 20 98  1  0  0  0
 21 23  1  0  0  0
 22 28  1  0  0  0
 22 32  2  0  0  0
 26 27  1  0  0  0
 28 99  1  0  0  0
 28100  1  0  0  0
 29101  1  0  0  0
 29102  1  0  0  0
 33 34  1  0  0  0
 33 66  1  0  0  0
 33 70  2  0  0  0
 34 36  1  0  0  0
 34 59  1  0  0  0
 34103  1  0  0  0
 35 44  2  0  0  0
 35 45  1  0  0  0
 35 68  1  0  0  0
 36 56  1  0  0  0
 36104  1  0  0  0
 37 39  1  0  0  0
 37 47  1  0  0  0
 37 66  1  0  0  0
 37105  1  0  0  0
 38 43  2  0  0  0
 38 46  1  0  0  0
 38 47  1  0  0  0
 39 64  1  0  0  0
 39 67  2  0  0  0
 40 52  1  0  0  0
 40 53  2  0  0  0
 40 58  1  0  0  0
 41106  1  0  0  0
 41107  1  0  0  0
 41108  1  0  0  0
 41 48  1  0  0  0
 42 43  1  0  0  0
 42 66  1  0  0  0
 42109  1  0  0  0
 42110  1  0  0  0
 43 44  1  0  0  0
 44111  1  0  0  0
 45 46  2  0  0  0
 45112  1  0  0  0
 46113  1  0  0  0
 47114  1  0  0  0
 47115  1  0  0  0
 48 56  1  0  0  0
 48 65  1  0  0  0
 48116  1  0  0  0
 49 50  1  0  0  0
 49 53  1  0  0  0
 49 64  1  0  0  0
 49117  1  0  0  0
 50 51  1  0  0  0
 50118  1  0  0  0
 50119  1  0  0  0
 51 52  1  0  0  0
 51120  1  0  0  0
 51121  1  0  0  0
 52122  1  0  0  0
 52123  1  0  0  0
 53 54  1  0  0  0
 54 55  2  0  0  0
 54124  1  0  0  0
 55 57  1  0  0  0
 55125  1  0  0  0
 56 69  2  0  0  0
 57 58  2  0  0  0
 57126  1  0  0  0
 58127  1  0  0  0
 59 60  1  0  0  0
 59 61  1  0  0  0
 59 62  1  0  0  0
 60128  1  0  0  0
 60129  1  0  0  0
 60130  1  0  0  0
 61131  1  0  0  0
 61132  1  0  0  0
 61133  1  0  0  0
 62134  1  0  0  0
 62135  1  0  0  0
 62136  1  0  0  0
 63 65  1  0  0  0
 63137  1  0  0  0
 63138  1  0  0  0
 63139  1  0  0  0
 64140  1  0  0  0
 65141  1  0  0  0
 68 79  1  0  0  0
 71 73  1  0  0  0
 71 74  2  0  0  0
 71142  1  0  0  0
 72 73  2  0  0  0
 72 82  1  0  0  0
 72143  1  0  0  0
 73 80  1  0  0  0
 74 82  1  0  0  0
 74 77  1  0  0  0
 75 76  1  0  0  0
 75 77  1  0  0  0
 75144  1  0  0  0
 75145  1  0  0  0
 76 78  1  0  0  0
 76146  1  0  0  0
 76147  1  0  0  0
 77 81  1  0  0  0
 77148  1  0  0  0
 78 79  1  0  0  0
 78 81  1  0  0  0
 78149  1  0  0  0
 79150  1  0  0  0
 79151  1  0  0  0
 80152  1  0  0  0
 81153  1  0  0  0
 81154  1  0  0  0
M  CHG  1  81   1
M  ISO  4   1 100  68 101  79 101  80 100
M  END
> <chiral flag>
0

> <version>
0

> <s_m_source_file>
/data/baiqing/PycharmProjects/Reinvent-master-3.2/result/LINK_invent/BTK/process_docking_weight1_custom_product_contain_oxygen_bond_distance_aromatic_linkinvent_7_9_3/rearranged_h_0151.sdf

> <i_m_source_file_index>
41

> <r_mmod_Potential_Energy-OPLS-2005>
80.7949829101562

> <r_mmod_Stretch_Energy-OPLS-2005>
125.540832519531

> <r_mmod_Bend_Energy-OPLS-2005>
208.057586669922

> <r_mmod_Torsional_Energy-OPLS-2005>
250.860366821289

> <r_mmod_Improper_Torsional_Energy-OPLS-2005>
5.00006484985352

> <r_mmod_Van_der_Waal_Energy-OPLS-2005>
116.271591186523

> <r_mmod_Electrostatic_Energy-OPLS-2005>
-258.6162109375

> <r_mmod_Solvation_Energy-OPLS-2005>
-454.778045654297

> <b_mmod_Minimization_Converged-OPLS-2005>
0

> <r_mmod_RMS_Derivative-OPLS-2005>
4.03763294219971

$$$$
41
                    3D
 Structure written by MMmdl.
157166  0  0  1  0            999 V2000
  -30.5804  -14.8112   20.3998 C   0  0  0  0  0  0
  -30.4415  -12.4745   19.5007 C   0  0  0  0  0  0
  -29.5243  -12.4356   18.2571 C   0  0  0  0  0  0
  -28.0410  -12.3138   18.6594 C   0  0  0  0  0  0
  -27.6406  -13.2367   19.8421 C   0  0  2  0  0  0
  -28.6821  -13.2077   20.9804 C   0  0  0  0  0  0
  -25.2513  -13.8213   20.5680 C   0  0  0  0  0  0
  -24.1806  -13.0456   20.9201 C   0  0  0  0  0  0
  -24.6399  -11.6936   20.8752 C   0  0  0  0  0  0
  -23.9076  -10.4307   21.0413 C   0  0  0  0  0  0
  -24.3620   -9.4217   21.9189 C   0  0  0  0  0  0
  -23.6296   -8.2250   22.0754 C   0  0  0  0  0  0
  -22.4282   -8.0287   21.3539 C   0  0  0  0  0  0
  -21.9917   -9.0266   20.4647 C   0  0  0  0  0  0
  -22.7248  -10.2145   20.3062 C   0  0  0  0  0  0
  -21.6858   -6.0737   22.5272 C   0  0  0  0  0  0
  -21.4020   -6.5641   23.8205 C   0  0  0  0  0  0
  -21.3662   -5.6791   24.9165 C   0  0  0  0  0  0
  -21.6044   -4.3053   24.7217 C   0  0  0  0  0  0
  -21.8822   -3.8147   23.4336 C   0  0  0  0  0  0
  -21.9194   -4.6963   22.3394 C   0  0  0  0  0  0
  -22.7828  -13.5237   21.1858 C   0  0  0  0  0  0
  -22.1663   -4.2147   21.0973 F   0  0  0  0  0  0
  -21.5628   -3.4538   25.7732 F   0  0  0  0  0  0
  -29.9769  -13.5672   20.3925 N   0  0  0  0  0  0
  -26.2939  -12.9431   20.3250 N   0  0  0  0  0  0
  -25.9333  -11.6573   20.5764 N   0  0  0  0  0  0
  -22.0467  -12.8231   22.0410 N   0  0  0  0  0  0
  -25.4214  -15.1934   20.4092 N   0  0  0  0  0  0
  -31.7792  -14.8897   20.1165 O   0  0  0  0  0  0
  -21.6644   -6.8882   21.4236 O   0  0  0  0  0  0
  -22.3518  -14.5547   20.6710 O   0  0  0  0  0  0
  -24.6341  -31.8522   23.1952 C   0  0  0  0  0  0
  -25.9157  -32.4732   23.8308 C   0  0  1  0  0  0
  -27.2230  -27.2341   20.1300 C   0  0  0  0  0  0
  -25.5945  -33.8536   24.2233 N   0  0  0  0  0  0
  -23.4328  -30.4737   21.5380 C   0  0  2  0  0  0
  -24.8814  -28.9178   20.1043 C   0  0  0  0  0  0
  -22.7522  -29.4585   22.4883 C   0  0  0  0  0  0
  -18.0298  -28.1393   22.8481 C   0  0  0  0  0  0
  -24.1495  -36.7272   23.2641 C   0  0  0  0  0  0
  -25.9805  -30.7559   21.3796 C   0  0  0  0  0  0
  -26.0528  -29.3768   20.7193 C   0  0  0  0  0  0
  -27.2225  -28.5462   20.7234 C   0  0  0  0  0  0
  -26.0252  -26.8486   19.4849 C   0  0  0  0  0  0
  -24.8748  -27.6634   19.4752 C   0  0  0  0  0  0
  -23.6533  -29.8078   20.1536 C   0  0  0  0  0  0
  -25.4123  -36.3052   24.0322 C   0  0  1  0  0  0
  -20.5905  -28.3706   23.1260 C   0  0  2  0  0  0
  -20.6784  -26.9420   22.5409 C   0  0  0  0  0  0
  -19.5762  -26.6384   21.5212 C   0  0  0  0  0  0
  -18.1942  -26.7935   22.1620 C   0  0  0  0  0  0
  -19.1552  -28.8866   23.2867 C   0  0  0  0  0  0
  -18.9469  -30.1463   23.8890 C   0  0  0  0  0  0
  -17.6467  -30.6591   24.0557 C   0  0  0  0  0  0
  -25.9065  -34.9425   23.5080 C   0  0  0  0  0  0
  -16.5360  -29.9084   23.6331 C   0  0  0  0  0  0
  -16.7283  -28.6502   23.0355 C   0  0  0  0  0  0
  -26.4515  -31.6567   25.0711 C   0  0  0  0  0  0
  -25.3726  -31.3717   26.1421 C   0  0  0  0  0  0
  -27.0363  -30.2978   24.6220 C   0  0  0  0  0  0
  -27.6066  -32.4309   25.7490 C   0  0  0  0  0  0
  -27.5580  -37.1794   24.8465 C   0  0  0  0  0  0
  -21.4225  -29.3044   22.3638 N   0  0  0  0  0  0
  -26.4292  -37.3757   23.9406 N   0  0  0  0  0  0
  -24.7016  -31.0464   22.0936 N   0  0  0  0  0  0
  -23.4208  -28.8133   23.3002 O   0  0  0  0  0  0
  -28.3007  -26.3135   20.2458 O   0  0  0  0  0  0
  -26.5642  -34.8909   22.4651 O   0  0  0  0  0  0
  -23.5483  -32.1359   23.7229 O   0  0  0  0  0  0
  -29.9377  -18.5596   17.7296 C   0  0  0  0  0  0
  -29.6442  -19.7817   18.3492 C   0  0  0  0  0  0
  -29.5034  -18.6131   20.4675 C   0  0  0  0  0  0
  -29.9936  -17.3441   18.4387 C   0  0  0  0  0  0
  -29.3936  -19.8859   19.7323 C   0  0  0  0  0  0
  -29.8161  -17.3048   19.8542 C   0  0  0  0  0  0
  -28.6284  -23.7431   20.1528 C   0  0  0  0  0  0
  -28.2782  -25.0055   19.6604 C   0  0  0  0  0  0
  -29.0686  -23.3240   21.5477 C   0  0  0  0  0  0
  -28.6717  -22.4056   19.3489 C   0  0  0  0  0  0
  -29.3499  -21.7695   21.5409 C   0  0  0  0  0  0
  -30.1486  -16.0975   17.5864 C   0  0  0  0  0  0
  -29.0404  -21.2298   20.2138 N   0  0  0  0  0  0
  -29.7942  -15.9642   20.5519 N   0  0  0  0  0  0
  -31.4801  -12.6057   19.1920 H   0  0  0  0  0  0
  -30.4083  -11.5207   20.0292 H   0  0  0  0  0  0
  -29.7966  -11.5859   17.6289 H   0  0  0  0  0  0
  -29.6838  -13.3130   17.6371 H   0  0  0  0  0  0
  -27.8738  -11.2731   18.9381 H   0  0  0  0  0  0
  -27.3981  -12.5009   17.7990 H   0  0  0  0  0  0
  -27.6264  -14.2494   19.4389 H   0  0  0  0  0  0
  -28.7281  -12.2222   21.4468 H   0  0  0  0  0  0
  -28.4088  -13.9087   21.7704 H   0  0  0  0  0  0
  -25.2755   -9.5700   22.4772 H   0  0  0  0  0  0
  -24.0000   -7.4648   22.7482 H   0  0  0  0  0  0
  -21.0840   -8.8799   19.8959 H   0  0  0  0  0  0
  -22.3702  -10.9691   19.6178 H   0  0  0  0  0  0
  -21.2019   -7.6150   23.9708 H   0  0  0  0  0  0
  -21.1479   -6.0519   25.9068 H   0  0  0  0  0  0
  -22.0599   -2.7609   23.2833 H   0  0  0  0  0  0
  -22.4074  -11.9886   22.4793 H   0  0  0  0  0  0
  -21.1095  -13.1281   22.2628 H   0  0  0  0  0  0
  -24.6541  -15.8476   20.5187 H   0  0  0  0  0  0
  -26.2691  -15.6323   20.0731 H   0  0  0  0  0  0
  -26.7223  -32.5371   23.1044 H   0  0  0  0  0  0
  -25.0082  -33.9666   25.0373 H   0  0  0  0  0  0
  -22.7307  -31.2969   21.3901 H   0  0  0  0  0  0
  -23.3758  -35.9603   23.3295 H   0  0  0  0  0  0
  -24.3587  -36.8905   22.2057 H   0  0  0  0  0  0
  -23.7251  -37.6470   23.6674 H   0  0  0  0  0  0
  -26.1260  -31.5170   20.6115 H   0  0  0  0  0  0
  -26.8551  -30.8023   22.0170 H   0  0  0  0  0  0
  -28.1141  -28.8871   21.2305 H   0  0  0  0  0  0
  -25.9400  -25.8799   19.0160 H   0  0  0  0  0  0
  -23.9769  -27.3049   18.9907 H   0  0  0  0  0  0
  -23.7811  -30.5848   19.3989 H   0  0  0  0  0  0
  -22.7706  -29.2438   19.8470 H   0  0  0  0  0  0
  -25.1307  -36.1887   25.0814 H   0  0  0  0  0  0
  -21.0002  -28.3289   24.1380 H   0  0  0  0  0  0
  -20.5682  -26.2317   23.3617 H   0  0  0  0  0  0
  -21.6651  -26.7442   22.1205 H   0  0  0  0  0  0
  -19.6925  -25.6290   21.1256 H   0  0  0  0  0  0
  -19.6706  -27.3181   20.6730 H   0  0  0  0  0  0
  -17.4214  -26.6683   21.4020 H   0  0  0  0  0  0
  -18.0340  -26.0079   22.9018 H   0  0  0  0  0  0
  -19.7944  -30.7278   24.2267 H   0  0  0  0  0  0
  -17.5020  -31.6272   24.5155 H   0  0  0  0  0  0
  -15.5359  -30.2981   23.7660 H   0  0  0  0  0  0
  -15.8685  -28.0814   22.7080 H   0  0  0  0  0  0
  -24.5923  -30.7047   25.7739 H   0  0  0  0  0  0
  -24.8891  -32.2879   26.4821 H   0  0  0  0  0  0
  -25.8037  -30.8914   27.0214 H   0  0  0  0  0  0
  -26.2949  -29.6716   24.1246 H   0  0  0  0  0  0
  -27.4030  -29.7256   25.4751 H   0  0  0  0  0  0
  -27.8835  -30.4236   23.9474 H   0  0  0  0  0  0
  -27.2683  -33.3622   26.2046 H   0  0  0  0  0  0
  -28.3896  -32.6847   25.0331 H   0  0  0  0  0  0
  -28.0715  -31.8442   26.5426 H   0  0  0  0  0  0
  -28.2589  -38.0098   24.7509 H   0  0  0  0  0  0
  -28.1085  -36.2627   24.6293 H   0  0  0  0  0  0
  -27.2299  -37.1439   25.8869 H   0  0  0  0  0  0
  -20.9416  -29.8757   21.6831 H   0  0  0  0  0  0
  -26.0164  -38.2828   24.1405 H   0  0  0  0  0  0
  -30.0819  -18.5629   16.6583 H   0  0  0  0  0  0
  -29.6025  -20.6442   17.7026 H   0  0  0  0  0  0
  -29.3092  -18.6348   21.5298 H   0  0  0  0  0  0
  -28.0048  -25.0857   18.6177 H   0  0  0  0  0  0
  -28.2786  -23.5672   22.2592 H   0  0  0  0  0  0
  -29.9577  -23.8827   21.8421 H   0  0  0  0  0  0
  -29.4083  -22.5447   18.5577 H   0  0  0  0  0  0
  -27.7059  -22.2337   18.8711 H   0  0  0  0  0  0
  -28.7471  -21.2658   22.2979 H   0  0  0  0  0  0
  -30.3963  -21.5719   21.7801 H   0  0  0  0  0  0
  -30.0987  -16.3228   16.5208 H   0  0  0  0  0  0
  -29.3279  -15.4168   17.7999 H   0  0  0  0  0  0
  -31.1034  -15.6037   17.7589 H   0  0  0  0  0  0
  -28.9312  -15.7804   21.0412 H   0  0  0  0  0  0
  1 25  1  0  0  0
  1 30  2  0  0  0
  1 84  1  0  0  0
  2  3  1  0  0  0
  2 25  1  0  0  0
  2 85  1  0  0  0
  2 86  1  0  0  0
  3  4  1  0  0  0
  3 87  1  0  0  0
  3 88  1  0  0  0
  4  5  1  0  0  0
  4 89  1  0  0  0
  4 90  1  0  0  0
  5  6  1  0  0  0
  5 26  1  0  0  0
  5 91  1  0  0  0
  6 25  1  0  0  0
  6 92  1  0  0  0
  6 93  1  0  0  0
  7  8  2  0  0  0
  7 26  1  0  0  0
  7 29  1  0  0  0
  8  9  1  0  0  0
  8 22  1  0  0  0
  9 10  1  0  0  0
  9 27  2  0  0  0
 10 11  2  0  0  0
 10 15  1  0  0  0
 11 12  1  0  0  0
 11 94  1  0  0  0
 12 13  2  0  0  0
 12 95  1  0  0  0
 13 14  1  0  0  0
 13 31  1  0  0  0
 14 15  2  0  0  0
 14 96  1  0  0  0
 15 97  1  0  0  0
 16 17  2  0  0  0
 16 21  1  0  0  0
 16 31  1  0  0  0
 17 18  1  0  0  0
 17 98  1  0  0  0
 18 19  2  0  0  0
 18 99  1  0  0  0
 19 20  1  0  0  0
 19 24  1  0  0  0
 20 21  2  0  0  0
 20100  1  0  0  0
 21 23  1  0  0  0
 22 28  1  0  0  0
 22 32  2  0  0  0
 26 27  1  0  0  0
 28101  1  0  0  0
 28102  1  0  0  0
 29103  1  0  0  0
 29104  1  0  0  0
 33 34  1  0  0  0
 33 66  1  0  0  0
 33 70  2  0  0  0
 34 36  1  0  0  0
 34 59  1  0  0  0
 34105  1  0  0  0
 35 44  2  0  0  0
 35 45  1  0  0  0
 35 68  1  0  0  0
 36 56  1  0  0  0
 36106  1  0  0  0
 37 39  1  0  0  0
 37 47  1  0  0  0
 37 66  1  0  0  0
 37107  1  0  0  0
 38 43  2  0  0  0
 38 46  1  0  0  0
 38 47  1  0  0  0
 39 64  1  0  0  0
 39 67  2  0  0  0
 40 52  1  0  0  0
 40 53  2  0  0  0
 40 58  1  0  0  0
 41108  1  0  0  0
 41109  1  0  0  0
 41110  1  0  0  0
 41 48  1  0  0  0
 42 43  1  0  0  0
 42 66  1  0  0  0
 42111  1  0  0  0
 42112  1  0  0  0
 43 44  1  0  0  0
 44113  1  0  0  0
 45 46  2  0  0  0
 45114  1  0  0  0
 46115  1  0  0  0
 47116  1  0  0  0
 47117  1  0  0  0
 48 56  1  0  0  0
 48 65  1  0  0  0
 48118  1  0  0  0
 49 50  1  0  0  0
 49 53  1  0  0  0
 49 64  1  0  0  0
 49119  1  0  0  0
 50 51  1  0  0  0
 50120  1  0  0  0
 50121  1  0  0  0
 51 52  1  0  0  0
 51122  1  0  0  0
 51123  1  0  0  0
 52124  1  0  0  0
 52125  1  0  0  0
 53 54  1  0  0  0
 54 55  2  0  0  0
 54126  1  0  0  0
 55 57  1  0  0  0
 55127  1  0  0  0
 56 69  2  0  0  0
 57 58  2  0  0  0
 57128  1  0  0  0
 58129  1  0  0  0
 59 60  1  0  0  0
 59 61  1  0  0  0
 59 62  1  0  0  0
 60130  1  0  0  0
 60131  1  0  0  0
 60132  1  0  0  0
 61133  1  0  0  0
 61134  1  0  0  0
 61135  1  0  0  0
 62136  1  0  0  0
 62137  1  0  0  0
 62138  1  0  0  0
 63 65  1  0  0  0
 63139  1  0  0  0
 63140  1  0  0  0
 63141  1  0  0  0
 64142  1  0  0  0
 65143  1  0  0  0
 68 78  1  0  0  0
 71 72  2  0  0  0
 71 74  1  0  0  0
 71144  1  0  0  0
 72 75  1  0  0  0
 72145  1  0  0  0
 73 75  2  0  0  0
 73 76  1  0  0  0
 73146  1  0  0  0
 74 76  2  0  0  0
 74 82  1  0  0  0
 75 83  1  0  0  0
 76 84  1  0  0  0
 77 78  2  0  0  0
 77 79  1  0  0  0
 77 80  1  0  0  0
 78147  1  0  0  0
 79 81  1  0  0  0
 79148  1  0  0  0
 79149  1  0  0  0
 80 83  1  0  0  0
 80150  1  0  0  0
 80151  1  0  0  0
 81 83  1  0  0  0
 81152  1  0  0  0
 81153  1  0  0  0
 82154  1  0  0  0
 82155  1  0  0  0
 82156  1  0  0  0
 84157  1  0  0  0
M  ISO  4   1 100  68 101  78 101  84 100
M  END
> <chiral flag>
0

> <version>
0

> <s_m_source_file>
/data/baiqing/PycharmProjects/Reinvent-master-3.2/result/LINK_invent/BTK/process_docking_weight1_custom_product_contain_oxygen_bond_distance_aromatic_linkinvent_7_9_3/rearranged_h_0151.sdf

> <i_m_source_file_index>
42

> <r_mmod_Potential_Energy-OPLS-2005>
300.867797851562

> <r_mmod_Stretch_Energy-OPLS-2005>
141.337173461914

> <r_mmod_Bend_Energy-OPLS-2005>
216.196975708008

> <r_mmod_Torsional_Energy-OPLS-2005>
269.725830078125

> <r_mmod_Improper_Torsional_Energy-OPLS-2005>
6.57728576660156

> <r_mmod_Van_der_Waal_Energy-OPLS-2005>
141.128860473633

> <r_mmod_Electrostatic_Energy-OPLS-2005>
-361.104522705078

> <r_mmod_Solvation_Energy-OPLS-2005>
-229.141311645508

> <b_mmod_Minimization_Converged-OPLS-2005>
0

> <r_mmod_RMS_Derivative-OPLS-2005>
0.853066027164459

$$$$
42
                    3D
 Structure written by MMmdl.
157166  0  0  1  0            999 V2000
  -30.6526  -14.6889   20.4659 C   0  0  0  0  0  0
  -30.4203  -12.4203   19.4671 C   0  0  0  0  0  0
  -29.5032  -12.5003   18.2290 C   0  0  0  0  0  0
  -28.0284  -12.3369   18.6414 C   0  0  0  0  0  0
  -27.6415  -13.2312   19.8499 C   0  0  2  0  0  0
  -28.6863  -13.1576   20.9854 C   0  0  0  0  0  0
  -25.2511  -13.8204   20.5689 C   0  0  0  0  0  0
  -24.1800  -13.0441   20.9216 C   0  0  0  0  0  0
  -24.6399  -11.6927   20.8756 C   0  0  0  0  0  0
  -23.9075  -10.4296   21.0411 C   0  0  0  0  0  0
  -24.3630   -9.4212   21.9188 C   0  0  0  0  0  0
  -23.6305   -8.2248   22.0756 C   0  0  0  0  0  0
  -22.4284   -8.0290   21.3549 C   0  0  0  0  0  0
  -21.9924   -9.0261   20.4641 C   0  0  0  0  0  0
  -22.7253  -10.2141   20.3053 C   0  0  0  0  0  0
  -21.6854   -6.0746   22.5280 C   0  0  0  0  0  0
  -21.4011   -6.5645   23.8215 C   0  0  0  0  0  0
  -21.3657   -5.6795   24.9174 C   0  0  0  0  0  0
  -21.6044   -4.3061   24.7222 C   0  0  0  0  0  0
  -21.8817   -3.8156   23.4342 C   0  0  0  0  0  0
  -21.9192   -4.6972   22.3400 C   0  0  0  0  0  0
  -22.7825  -13.5221   21.1874 C   0  0  0  0  0  0
  -22.1662   -4.2161   21.0976 F   0  0  0  0  0  0
  -21.5627   -3.4541   25.7737 F   0  0  0  0  0  0
  -29.9930  -13.4847   20.4021 N   0  0  0  0  0  0
  -26.2933  -12.9409   20.3275 N   0  0  0  0  0  0
  -25.9322  -11.6552   20.5753 N   0  0  0  0  0  0
  -22.0467  -12.8198   22.0422 N   0  0  0  0  0  0
  -25.4165  -15.1929   20.4096 N   0  0  0  0  0  0
  -31.8380  -14.7415   20.1311 O   0  0  0  0  0  0
  -21.6642   -6.8894   21.4247 O   0  0  0  0  0  0
  -22.3508  -14.5531   20.6726 O   0  0  0  0  0  0
  -24.6254  -31.8604   23.2008 C   0  0  0  0  0  0
  -25.9106  -32.4785   23.8353 C   0  0  1  0  0  0
  -27.2335  -27.3243   20.1351 C   0  0  0  0  0  0
  -25.5927  -33.8583   24.2285 N   0  0  0  0  0  0
  -23.4207  -30.4804   21.5425 C   0  0  2  0  0  0
  -24.8732  -28.9319   20.1126 C   0  0  0  0  0  0
  -22.7480  -29.4615   22.4935 C   0  0  0  0  0  0
  -18.0292  -28.1374   22.8494 C   0  0  0  0  0  0
  -24.1488  -36.7295   23.2644 C   0  0  0  0  0  0
  -25.9582  -30.7967   21.3682 C   0  0  0  0  0  0
  -26.0394  -29.4191   20.7186 C   0  0  0  0  0  0
  -27.2265  -28.6277   20.7185 C   0  0  0  0  0  0
  -26.0519  -26.8886   19.4981 C   0  0  0  0  0  0
  -24.8809  -27.6717   19.4908 C   0  0  0  0  0  0
  -23.6392  -29.8103   20.1589 C   0  0  0  0  0  0
  -25.4101  -36.3083   24.0337 C   0  0  1  0  0  0
  -20.5886  -28.3687   23.1277 C   0  0  2  0  0  0
  -20.6772  -26.9410   22.5408 C   0  0  0  0  0  0
  -19.5746  -26.6386   21.5204 C   0  0  0  0  0  0
  -18.1931  -26.7926   22.1615 C   0  0  0  0  0  0
  -19.1546  -28.8843   23.2881 C   0  0  0  0  0  0
  -18.9466  -30.1443   23.8903 C   0  0  0  0  0  0
  -17.6469  -30.6582   24.0563 C   0  0  0  0  0  0
  -25.9041  -34.9457   23.5105 C   0  0  0  0  0  0
  -16.5360  -29.9079   23.6319 C   0  0  0  0  0  0
  -16.7278  -28.6495   23.0348 C   0  0  0  0  0  0
  -26.4495  -31.6585   25.0713 C   0  0  0  0  0  0
  -25.3731  -31.3706   26.1441 C   0  0  0  0  0  0
  -27.0343  -30.3022   24.6125 C   0  0  0  0  0  0
  -27.6066  -32.4315   25.7480 C   0  0  0  0  0  0
  -27.5577  -37.1799   24.8462 C   0  0  0  0  0  0
  -21.4190  -29.3046   22.3680 N   0  0  0  0  0  0
  -26.4292  -37.3762   23.9406 N   0  0  0  0  0  0
  -24.6865  -31.0629   22.0947 N   0  0  0  0  0  0
  -23.4202  -28.8160   23.3022 O   0  0  0  0  0  0
  -28.3430  -26.4709   20.1557 O   0  0  0  0  0  0
  -26.5616  -34.8938   22.4678 O   0  0  0  0  0  0
  -23.5418  -32.1408   23.7333 O   0  0  0  0  0  0
  -31.2120  -20.0191   20.6152 C   0  0  0  0  0  0
  -29.4080  -18.3827   20.4950 C   0  0  0  0  0  0
  -31.6883  -17.6237   20.8392 C   0  0  0  0  0  0
  -29.8332  -19.7722   20.4712 C   0  0  0  0  0  0
  -32.1233  -18.9646   20.7984 C   0  0  0  0  0  0
  -30.3268  -17.2698   20.6620 C   0  0  0  0  0  0
  -29.0354  -21.7289   18.8791 C   0  0  0  0  0  0
  -28.4780  -23.1850   18.9627 C   0  0  0  0  0  0
  -28.8940  -21.0250   20.2503 C   0  0  2  0  0  0
  -28.9878  -23.8644   20.2484 C   0  0  1  0  0  0
  -28.1478  -25.1291   20.7552 C   0  0  0  0  0  0
  -33.4782  -19.2572   20.9266 N   0  0  0  0  0  0
  -29.9138  -15.8428   20.6799 N   0  0  0  0  0  0
  -29.1253  -22.4353   21.4405 S   0  0  0  0  0  0
  -31.4635  -12.5201   19.1625 H   0  0  0  0  0  0
  -30.3429  -11.4418   19.9438 H   0  0  0  0  0  0
  -29.7755  -11.7315   17.5044 H   0  0  0  0  0  0
  -29.6410  -13.4584   17.7263 H   0  0  0  0  0  0
  -27.8734  -11.2869   18.8946 H   0  0  0  0  0  0
  -27.3731  -12.5443   17.7939 H   0  0  0  0  0  0
  -27.6389  -14.2544   19.4750 H   0  0  0  0  0  0
  -28.7073  -12.1622   21.4329 H   0  0  0  0  0  0
  -28.4311  -13.8510   21.7882 H   0  0  0  0  0  0
  -25.2769   -9.5689   22.4770 H   0  0  0  0  0  0
  -24.0008   -7.4641   22.7474 H   0  0  0  0  0  0
  -21.0860   -8.8783   19.8943 H   0  0  0  0  0  0
  -22.3713  -10.9686   19.6167 H   0  0  0  0  0  0
  -21.2007   -7.6155   23.9722 H   0  0  0  0  0  0
  -21.1477   -6.0525   25.9079 H   0  0  0  0  0  0
  -22.0600   -2.7619   23.2836 H   0  0  0  0  0  0
  -22.4084  -11.9847   22.4779 H   0  0  0  0  0  0
  -21.1083  -13.1214   22.2628 H   0  0  0  0  0  0
  -24.6428  -15.8405   20.5176 H   0  0  0  0  0  0
  -26.2549  -15.6359   20.0573 H   0  0  0  0  0  0
  -26.7188  -32.5474   23.1126 H   0  0  0  0  0  0
  -25.0049  -33.9714   25.0419 H   0  0  0  0  0  0
  -22.7147  -31.2994   21.3958 H   0  0  0  0  0  0
  -23.3747  -35.9632   23.3299 H   0  0  0  0  0  0
  -24.3570  -36.8925   22.2061 H   0  0  0  0  0  0
  -23.7258  -37.6502   23.6667 H   0  0  0  0  0  0
  -26.0755  -31.5558   20.5935 H   0  0  0  0  0  0
  -26.8419  -30.8597   21.9911 H   0  0  0  0  0  0
  -28.1247  -28.9956   21.1965 H   0  0  0  0  0  0
  -26.0328  -25.9234   19.0118 H   0  0  0  0  0  0
  -23.9911  -27.2925   19.0076 H   0  0  0  0  0  0
  -23.7558  -30.5836   19.3994 H   0  0  0  0  0  0
  -22.7612  -29.2348   19.8605 H   0  0  0  0  0  0
  -25.1283  -36.1946   25.0830 H   0  0  0  0  0  0
  -20.9983  -28.3280   24.1397 H   0  0  0  0  0  0
  -20.5662  -26.2304   23.3608 H   0  0  0  0  0  0
  -21.6648  -26.7436   22.1204 H   0  0  0  0  0  0
  -19.6908  -25.6293   21.1238 H   0  0  0  0  0  0
  -19.6681  -27.3199   20.6736 H   0  0  0  0  0  0
  -17.4195  -26.6680   21.4024 H   0  0  0  0  0  0
  -18.0323  -26.0055   22.9002 H   0  0  0  0  0  0
  -19.7943  -30.7248   24.2295 H   0  0  0  0  0  0
  -17.5025  -31.6269   24.5166 H   0  0  0  0  0  0
  -15.5356  -30.2988   23.7639 H   0  0  0  0  0  0
  -15.8674  -28.0822   22.7048 H   0  0  0  0  0  0
  -24.5920  -30.7036   25.7777 H   0  0  0  0  0  0
  -24.8892  -32.2852   26.4877 H   0  0  0  0  0  0
  -25.8066  -30.8894   27.0220 H   0  0  0  0  0  0
  -26.2905  -29.6752   24.1190 H   0  0  0  0  0  0
  -27.4118  -29.7295   25.4612 H   0  0  0  0  0  0
  -27.8740  -30.4323   23.9289 H   0  0  0  0  0  0
  -27.2698  -33.3643   26.2018 H   0  0  0  0  0  0
  -28.3893  -32.6823   25.0308 H   0  0  0  0  0  0
  -28.0696  -31.8447   26.5420 H   0  0  0  0  0  0
  -28.2591  -38.0106   24.7511 H   0  0  0  0  0  0
  -28.1087  -36.2632   24.6284 H   0  0  0  0  0  0
  -27.2295  -37.1458   25.8872 H   0  0  0  0  0  0
  -20.9369  -29.8802   21.6923 H   0  0  0  0  0  0
  -26.0182  -38.2845   24.1407 H   0  0  0  0  0  0
  -31.5719  -21.0386   20.5777 H   0  0  0  0  0  0
  -28.3549  -18.1711   20.3749 H   0  0  0  0  0  0
  -32.4357  -16.8637   21.0069 H   0  0  0  0  0  0
  -30.0906  -21.7851   18.6076 H   0  0  0  0  0  0
  -28.5439  -21.1550   18.0939 H   0  0  0  0  0  0
  -27.3880  -23.1515   18.9855 H   0  0  0  0  0  0
  -28.7517  -23.7685   18.0818 H   0  0  0  0  0  0
  -27.8597  -20.6979   20.3655 H   0  0  0  0  0  0
  -30.0132  -24.1966   20.0771 H   0  0  0  0  0  0
  -28.3890  -25.2659   21.8099 H   0  0  0  0  0  0
  -27.0944  -24.8484   20.7640 H   0  0  0  0  0  0
  -33.7994  -20.1281   20.5135 H   0  0  0  0  0  0
  -34.1316  -18.4983   20.7595 H   0  0  0  0  0  0
  -28.9270  -15.6800   20.8045 H   0  0  0  0  0  0
  1 25  1  0  0  0
  1 30  2  0  0  0
  1 83  1  0  0  0
  2  3  1  0  0  0
  2 25  1  0  0  0
  2 85  1  0  0  0
  2 86  1  0  0  0
  3  4  1  0  0  0
  3 87  1  0  0  0
  3 88  1  0  0  0
  4  5  1  0  0  0
  4 89  1  0  0  0
  4 90  1  0  0  0
  5  6  1  0  0  0
  5 26  1  0  0  0
  5 91  1  0  0  0
  6 25  1  0  0  0
  6 92  1  0  0  0
  6 93  1  0  0  0
  7  8  2  0  0  0
  7 26  1  0  0  0
  7 29  1  0  0  0
  8  9  1  0  0  0
  8 22  1  0  0  0
  9 10  1  0  0  0
  9 27  2  0  0  0
 10 11  2  0  0  0
 10 15  1  0  0  0
 11 12  1  0  0  0
 11 94  1  0  0  0
 12 13  2  0  0  0
 12 95  1  0  0  0
 13 14  1  0  0  0
 13 31  1  0  0  0
 14 15  2  0  0  0
 14 96  1  0  0  0
 15 97  1  0  0  0
 16 17  2  0  0  0
 16 21  1  0  0  0
 16 31  1  0  0  0
 17 18  1  0  0  0
 17 98  1  0  0  0
 18 19  2  0  0  0
 18 99  1  0  0  0
 19 20  1  0  0  0
 19 24  1  0  0  0
 20 21  2  0  0  0
 20100  1  0  0  0
 21 23  1  0  0  0
 22 28  1  0  0  0
 22 32  2  0  0  0
 26 27  1  0  0  0
 28101  1  0  0  0
 28102  1  0  0  0
 29103  1  0  0  0
 29104  1  0  0  0
 33 34  1  0  0  0
 33 66  1  0  0  0
 33 70  2  0  0  0
 34 36  1  0  0  0
 34 59  1  0  0  0
 34105  1  0  0  0
 35 44  2  0  0  0
 35 45  1  0  0  0
 35 68  1  0  0  0
 36 56  1  0  0  0
 36106  1  0  0  0
 37 39  1  0  0  0
 37 47  1  0  0  0
 37 66  1  0  0  0
 37107  1  0  0  0
 38 43  2  0  0  0
 38 46  1  0  0  0
 38 47  1  0  0  0
 39 64  1  0  0  0
 39 67  2  0  0  0
 40 52  1  0  0  0
 40 53  2  0  0  0
 40 58  1  0  0  0
 41108  1  0  0  0
 41109  1  0  0  0
 41110  1  0  0  0
 41 48  1  0  0  0
 42 43  1  0  0  0
 42 66  1  0  0  0
 42111  1  0  0  0
 42112  1  0  0  0
 43 44  1  0  0  0
 44113  1  0  0  0
 45 46  2  0  0  0
 45114  1  0  0  0
 46115  1  0  0  0
 47116  1  0  0  0
 47117  1  0  0  0
 48 56  1  0  0  0
 48 65  1  0  0  0
 48118  1  0  0  0
 49 50  1  0  0  0
 49 53  1  0  0  0
 49 64  1  0  0  0
 49119  1  0  0  0
 50 51  1  0  0  0
 50120  1  0  0  0
 50121  1  0  0  0
 51 52  1  0  0  0
 51122  1  0  0  0
 51123  1  0  0  0
 52124  1  0  0  0
 52125  1  0  0  0
 53 54  1  0  0  0
 54 55  2  0  0  0
 54126  1  0  0  0
 55 57  1  0  0  0
 55127  1  0  0  0
 56 69  2  0  0  0
 57 58  2  0  0  0
 57128  1  0  0  0
 58129  1  0  0  0
 59 60  1  0  0  0
 59 61  1  0  0  0
 59 62  1  0  0  0
 60130  1  0  0  0
 60131  1  0  0  0
 60132  1  0  0  0
 61133  1  0  0  0
 61134  1  0  0  0
 61135  1  0  0  0
 62136  1  0  0  0
 62137  1  0  0  0
 62138  1  0  0  0
 63 65  1  0  0  0
 63139  1  0  0  0
 63140  1  0  0  0
 63141  1  0  0  0
 64142  1  0  0  0
 65143  1  0  0  0
 68 81  1  0  0  0
 71 74  2  0  0  0
 71 75  1  0  0  0
 71144  1  0  0  0
 72 74  1  0  0  0
 72 76  2  0  0  0
 72145  1  0  0  0
 73 75  2  0  0  0
 73 76  1  0  0  0
 73146  1  0  0  0
 74 79  1  0  0  0
 75 82  1  0  0  0
 76 83  1  0  0  0
 77 78  1  0  0  0
 77 79  1  0  0  0
 77147  1  0  0  0
 77148  1  0  0  0
 78 80  1  0  0  0
 78149  1  0  0  0
 78150  1  0  0  0
 79 84  1  0  0  0
 79151  1  0  0  0
 80 81  1  0  0  0
 80 84  1  0  0  0
 80152  1  0  0  0
 81153  1  0  0  0
 81154  1  0  0  0
 82155  1  0  0  0
 82156  1  0  0  0
 83157  1  0  0  0
M  ISO  4   1 100  68 101  81 101  83 100
M  END
> <chiral flag>
0

> <version>
0

> <s_m_source_file>
/data/baiqing/PycharmProjects/Reinvent-master-3.2/result/LINK_invent/BTK/process_docking_weight1_custom_product_contain_oxygen_bond_distance_aromatic_linkinvent_7_9_3/rearranged_h_0151.sdf

> <i_m_source_file_index>
43

> <r_mmod_Potential_Energy-OPLS-2005>
124.762245178223

> <r_mmod_Stretch_Energy-OPLS-2005>
91.348503112793

> <r_mmod_Bend_Energy-OPLS-2005>
149.526000976562

> <r_mmod_Torsional_Energy-OPLS-2005>
263.321380615234

> <r_mmod_Improper_Torsional_Energy-OPLS-2005>
9.24144649505615

> <r_mmod_Van_der_Waal_Energy-OPLS-2005>
138.43586730957

> <r_mmod_Electrostatic_Energy-OPLS-2005>
-364.236236572266

> <r_mmod_Solvation_Energy-OPLS-2005>
-221.167388916016

> <b_mmod_Minimization_Converged-OPLS-2005>
0

> <r_mmod_RMS_Derivative-OPLS-2005>
2.29689049720764

$$$$
43
                    3D
 Structure written by MMmdl.
153162  0  0  1  0            999 V2000
  -30.5264  -14.8492   20.4466 C   0  0  0  0  0  0
  -30.4556  -12.5202   19.4804 C   0  0  0  0  0  0
  -29.5222  -12.5223   18.2456 C   0  0  0  0  0  0
  -28.0509  -12.3220   18.6627 C   0  0  0  0  0  0
  -27.6440  -13.2282   19.8540 C   0  0  2  0  0  0
  -28.6907  -13.1703   20.9888 C   0  0  0  0  0  0
  -25.2521  -13.8184   20.5678 C   0  0  0  0  0  0
  -24.1809  -13.0437   20.9208 C   0  0  0  0  0  0
  -24.6404  -11.6914   20.8767 C   0  0  0  0  0  0
  -23.9083  -10.4292   21.0421 C   0  0  0  0  0  0
  -24.3628   -9.4199   21.9194 C   0  0  0  0  0  0
  -23.6291   -8.2239   22.0758 C   0  0  0  0  0  0
  -22.4274   -8.0285   21.3543 C   0  0  0  0  0  0
  -21.9922   -9.0268   20.4650 C   0  0  0  0  0  0
  -22.7260  -10.2141   20.3060 C   0  0  0  0  0  0
  -21.6850   -6.0736   22.5281 C   0  0  0  0  0  0
  -21.4016   -6.5643   23.8217 C   0  0  0  0  0  0
  -21.3653   -5.6792   24.9180 C   0  0  0  0  0  0
  -21.6043   -4.3055   24.7227 C   0  0  0  0  0  0
  -21.8816   -3.8148   23.4347 C   0  0  0  0  0  0
  -21.9195   -4.6966   22.3407 C   0  0  0  0  0  0
  -22.7830  -13.5224   21.1871 C   0  0  0  0  0  0
  -22.1655   -4.2157   21.0979 F   0  0  0  0  0  0
  -21.5631   -3.4533   25.7735 F   0  0  0  0  0  0
  -29.9818  -13.5753   20.4113 N   0  0  0  0  0  0
  -26.2951  -12.9380   20.3294 N   0  0  0  0  0  0
  -25.9337  -11.6532   20.5773 N   0  0  0  0  0  0
  -22.0475  -12.8212   22.0425 N   0  0  0  0  0  0
  -25.4203  -15.1908   20.4032 N   0  0  0  0  0  0
  -31.7032  -15.0102   20.1011 O   0  0  0  0  0  0
  -21.6630   -6.8882   21.4239 O   0  0  0  0  0  0
  -22.3521  -14.5538   20.6727 O   0  0  0  0  0  0
  -24.6388  -31.8489   23.1922 C   0  0  0  0  0  0
  -25.9176  -32.4726   23.8291 C   0  0  1  0  0  0
  -27.2200  -27.1852   20.1231 C   0  0  0  0  0  0
  -25.5946  -33.8528   24.2205 N   0  0  0  0  0  0
  -23.4389  -30.4731   21.5362 C   0  0  2  0  0  0
  -24.8849  -28.9099   20.1047 C   0  0  0  0  0  0
  -22.7530  -29.4585   22.4854 C   0  0  0  0  0  0
  -18.0301  -28.1405   22.8491 C   0  0  0  0  0  0
  -24.1490  -36.7256   23.2641 C   0  0  0  0  0  0
  -25.9921  -30.7354   21.3838 C   0  0  0  0  0  0
  -26.0608  -29.3531   20.7215 C   0  0  0  0  0  0
  -27.2238  -28.5042   20.7211 C   0  0  0  0  0  0
  -26.0108  -26.8306   19.4798 C   0  0  0  0  0  0
  -24.8707  -27.6586   19.4740 C   0  0  0  0  0  0
  -23.6609  -29.8085   20.1521 C   0  0  0  0  0  0
  -25.4123  -36.3040   24.0324 C   0  0  1  0  0  0
  -20.5914  -28.3724   23.1239 C   0  0  2  0  0  0
  -20.6792  -26.9432   22.5397 C   0  0  0  0  0  0
  -19.5767  -26.6383   21.5211 C   0  0  0  0  0  0
  -18.1942  -26.7943   22.1619 C   0  0  0  0  0  0
  -19.1561  -28.8876   23.2866 C   0  0  0  0  0  0
  -18.9492  -30.1478   23.8884 C   0  0  0  0  0  0
  -17.6492  -30.6603   24.0579 C   0  0  0  0  0  0
  -25.9078  -34.9424   23.5065 C   0  0  0  0  0  0
  -16.5380  -29.9111   23.6338 C   0  0  0  0  0  0
  -16.7289  -28.6530   23.0353 C   0  0  0  0  0  0
  -26.4510  -31.6578   25.0706 C   0  0  0  0  0  0
  -25.3706  -31.3778   26.1414 C   0  0  0  0  0  0
  -27.0370  -30.2991   24.6238 C   0  0  0  0  0  0
  -27.6047  -32.4330   25.7480 C   0  0  0  0  0  0
  -27.5574  -37.1780   24.8469 C   0  0  0  0  0  0
  -21.4226  -29.3066   22.3609 N   0  0  0  0  0  0
  -26.4280  -37.3754   23.9420 N   0  0  0  0  0  0
  -24.7099  -31.0392   22.0934 N   0  0  0  0  0  0
  -23.4198  -28.8117   23.2968 O   0  0  0  0  0  0
  -28.2998  -26.2462   20.2274 O   0  0  0  0  0  0
  -26.5658  -34.8908   22.4638 O   0  0  0  0  0  0
  -23.5520  -32.1330   23.7175 O   0  0  0  0  0  0
  -29.9249  -18.3971   19.8711 C   0  0  0  0  0  0
  -28.8733  -19.7476   21.4735 C   0  0  0  0  0  0
  -29.5000  -19.7890   20.2609 C   0  0  0  0  0  0
  -29.6175  -17.3313   20.7536 C   0  0  0  0  0  0
  -28.5865  -23.4489   20.2825 C   0  0  0  0  0  0
  -29.7505  -21.0859   19.4229 C   0  0  0  0  0  0
  -29.5649  -24.8423   18.6168 C   0  0  0  0  0  0
  -29.8394  -23.3534   18.3142 C   0  0  0  0  0  0
  -28.3547  -24.8734   19.5326 C   0  0  2  0  0  0
  -29.3813  -22.4821   19.4378 N   0  0  0  0  0  0
  -29.6452  -15.9053   20.7179 N   0  0  0  0  0  0
  -30.5459  -20.7458   18.3874 N   0  3  0  0  0  0
  -28.1025  -23.1479   21.3815 O   0  0  0  0  0  0
  -28.7776  -18.0970   22.1050 S   0  0  0  0  0  0
  -31.4883  -12.6889   19.1712 H   0  0  0  0  0  0
  -30.4472  -11.5462   19.9723 H   0  0  0  0  0  0
  -29.8221  -11.7415   17.5451 H   0  0  0  0  0  0
  -29.6241  -13.4683   17.7109 H   0  0  0  0  0  0
  -27.9308  -11.2746   18.9416 H   0  0  0  0  0  0
  -27.3880  -12.4889   17.8133 H   0  0  0  0  0  0
  -27.6334  -14.2460   19.4641 H   0  0  0  0  0  0
  -28.7556  -12.1648   21.4077 H   0  0  0  0  0  0
  -28.4059  -13.8220   21.8162 H   0  0  0  0  0  0
  -25.2776   -9.5667   22.4771 H   0  0  0  0  0  0
  -24.0004   -7.4619   22.7470 H   0  0  0  0  0  0
  -21.0856   -8.8784   19.8948 H   0  0  0  0  0  0
  -22.3725  -10.9678   19.6165 H   0  0  0  0  0  0
  -21.2002   -7.6151   23.9728 H   0  0  0  0  0  0
  -21.1477   -6.0517   25.9084 H   0  0  0  0  0  0
  -22.0602   -2.7612   23.2841 H   0  0  0  0  0  0
  -22.4077  -11.9860   22.4796 H   0  0  0  0  0  0
  -21.1103  -13.1246   22.2642 H   0  0  0  0  0  0
  -24.6460  -15.8392   20.4933 H   0  0  0  0  0  0
  -26.2548  -15.6275   20.0328 H   0  0  0  0  0  0
  -26.7233  -32.5333   23.1014 H   0  0  0  0  0  0
  -25.0086  -33.9667   25.0344 H   0  0  0  0  0  0
  -22.7393  -31.2986   21.3883 H   0  0  0  0  0  0
  -23.3765  -35.9572   23.3289 H   0  0  0  0  0  0
  -24.3571  -36.8882   22.2052 H   0  0  0  0  0  0
  -23.7221  -37.6441   23.6685 H   0  0  0  0  0  0
  -26.1436  -31.4915   20.6125 H   0  0  0  0  0  0
  -26.8648  -30.7808   22.0228 H   0  0  0  0  0  0
  -28.1186  -28.8381   21.2271 H   0  0  0  0  0  0
  -25.8726  -25.8758   19.0054 H   0  0  0  0  0  0
  -23.9675  -27.3081   18.9924 H   0  0  0  0  0  0
  -23.7948  -30.5874   19.4015 H   0  0  0  0  0  0
  -22.7734  -29.2546   19.8397 H   0  0  0  0  0  0
  -25.1305  -36.1857   25.0816 H   0  0  0  0  0  0
  -21.0040  -28.3305   24.1350 H   0  0  0  0  0  0
  -20.5687  -26.2340   23.3610 H   0  0  0  0  0  0
  -21.6662  -26.7435   22.1191 H   0  0  0  0  0  0
  -19.6945  -25.6293   21.1241 H   0  0  0  0  0  0
  -19.6709  -27.3195   20.6750 H   0  0  0  0  0  0
  -17.4217  -26.6687   21.4019 H   0  0  0  0  0  0
  -18.0352  -26.0087   22.9022 H   0  0  0  0  0  0
  -19.7975  -30.7306   24.2214 H   0  0  0  0  0  0
  -17.5062  -31.6283   24.5193 H   0  0  0  0  0  0
  -15.5389  -30.3029   23.7691 H   0  0  0  0  0  0
  -15.8677  -28.0872   22.7064 H   0  0  0  0  0  0
  -24.5905  -30.7095   25.7745 H   0  0  0  0  0  0
  -24.8889  -32.2968   26.4756 H   0  0  0  0  0  0
  -25.7999  -30.9013   27.0235 H   0  0  0  0  0  0
  -26.2971  -29.6722   24.1254 H   0  0  0  0  0  0
  -27.4025  -29.7268   25.4775 H   0  0  0  0  0  0
  -27.8859  -30.4250   23.9518 H   0  0  0  0  0  0
  -27.2667  -33.3685   26.1951 H   0  0  0  0  0  0
  -28.3922  -32.6782   25.0343 H   0  0  0  0  0  0
  -28.0640  -31.8508   26.5479 H   0  0  0  0  0  0
  -28.2575  -38.0095   24.7535 H   0  0  0  0  0  0
  -28.1075  -36.2618   24.6267 H   0  0  0  0  0  0
  -27.2293  -37.1390   25.8872 H   0  0  0  0  0  0
  -20.9414  -29.8796   21.6826 H   0  0  0  0  0  0
  -26.0141  -38.2807   24.1461 H   0  0  0  0  0  0
  -30.4095  -18.2080   18.9244 H   0  0  0  0  0  0
  -28.4467  -20.5677   22.0378 H   0  0  0  0  0  0
  -29.3845  -25.4066   17.7015 H   0  0  0  0  0  0
  -30.4296  -25.2922   19.1075 H   0  0  0  0  0  0
  -30.9040  -23.2312   18.1187 H   0  0  0  0  0  0
  -29.3011  -23.0562   17.4129 H   0  0  0  0  0  0
  -27.4881  -24.7014   18.9031 H   0  0  0  0  0  0
  -28.7873  -15.5122   21.0749 H   0  0  0  0  0  0
  -30.8750  -19.7974   18.3040 H   0  0  0  0  0  0
  -30.8535  -21.4092   17.6950 H   0  0  0  0  0  0
  1 25  1  0  0  0
  1 30  2  0  0  0
  1 81  1  0  0  0
  2  3  1  0  0  0
  2 25  1  0  0  0
  2 85  1  0  0  0
  2 86  1  0  0  0
  3  4  1  0  0  0
  3 87  1  0  0  0
  3 88  1  0  0  0
  4  5  1  0  0  0
  4 89  1  0  0  0
  4 90  1  0  0  0
  5  6  1  0  0  0
  5 26  1  0  0  0
  5 91  1  0  0  0
  6 25  1  0  0  0
  6 92  1  0  0  0
  6 93  1  0  0  0
  7  8  2  0  0  0
  7 26  1  0  0  0
  7 29  1  0  0  0
  8  9  1  0  0  0
  8 22  1  0  0  0
  9 10  1  0  0  0
  9 27  2  0  0  0
 10 11  2  0  0  0
 10 15  1  0  0  0
 11 12  1  0  0  0
 11 94  1  0  0  0
 12 13  2  0  0  0
 12 95  1  0  0  0
 13 14  1  0  0  0
 13 31  1  0  0  0
 14 15  2  0  0  0
 14 96  1  0  0  0
 15 97  1  0  0  0
 16 17  2  0  0  0
 16 21  1  0  0  0
 16 31  1  0  0  0
 17 18  1  0  0  0
 17 98  1  0  0  0
 18 19  2  0  0  0
 18 99  1  0  0  0
 19 20  1  0  0  0
 19 24  1  0  0  0
 20 21  2  0  0  0
 20100  1  0  0  0
 21 23  1  0  0  0
 22 28  1  0  0  0
 22 32  2  0  0  0
 26 27  1  0  0  0
 28101  1  0  0  0
 28102  1  0  0  0
 29103  1  0  0  0
 29104  1  0  0  0
 33 34  1  0  0  0
 33 66  1  0  0  0
 33 70  2  0  0  0
 34 36  1  0  0  0
 34 59  1  0  0  0
 34105  1  0  0  0
 35 44  2  0  0  0
 35 45  1  0  0  0
 35 68  1  0  0  0
 36 56  1  0  0  0
 36106  1  0  0  0
 37 39  1  0  0  0
 37 47  1  0  0  0
 37 66  1  0  0  0
 37107  1  0  0  0
 38 43  2  0  0  0
 38 46  1  0  0  0
 38 47  1  0  0  0
 39 64  1  0  0  0
 39 67  2  0  0  0
 40 52  1  0  0  0
 40 53  2  0  0  0
 40 58  1  0  0  0
 41108  1  0  0  0
 41109  1  0  0  0
 41110  1  0  0  0
 41 48  1  0  0  0
 42 43  1  0  0  0
 42 66  1  0  0  0
 42111  1  0  0  0
 42112  1  0  0  0
 43 44  1  0  0  0
 44113  1  0  0  0
 45 46  2  0  0  0
 45114  1  0  0  0
 46115  1  0  0  0
 47116  1  0  0  0
 47117  1  0  0  0
 48 56  1  0  0  0
 48 65  1  0  0  0
 48118  1  0  0  0
 49 50  1  0  0  0
 49 53  1  0  0  0
 49 64  1  0  0  0
 49119  1  0  0  0
 50 51  1  0  0  0
 50120  1  0  0  0
 50121  1  0  0  0
 51 52  1  0  0  0
 51122  1  0  0  0
 51123  1  0  0  0
 52124  1  0  0  0
 52125  1  0  0  0
 53 54  1  0  0  0
 54 55  2  0  0  0
 54126  1  0  0  0
 55 57  1  0  0  0
 55127  1  0  0  0
 56 69  2  0  0  0
 57 58  2  0  0  0
 57128  1  0  0  0
 58129  1  0  0  0
 59 60  1  0  0  0
 59 61  1  0  0  0
 59 62  1  0  0  0
 60130  1  0  0  0
 60131  1  0  0  0
 60132  1  0  0  0
 61133  1  0  0  0
 61134  1  0  0  0
 61135  1  0  0  0
 62136  1  0  0  0
 62137  1  0  0  0
 62138  1  0  0  0
 63 65  1  0  0  0
 63139  1  0  0  0
 63140  1  0  0  0
 63141  1  0  0  0
 64142  1  0  0  0
 65143  1  0  0  0
 68 79  1  0  0  0
 71 73  1  0  0  0
 71 74  2  0  0  0
 71144  1  0  0  0
 72 73  2  0  0  0
 72 84  1  0  0  0
 72145  1  0  0  0
 73 76  1  0  0  0
 74 81  1  0  0  0
 74 84  1  0  0  0
 75 79  1  0  0  0
 75 80  1  0  0  0
 75 83  2  0  0  0
 76 80  1  0  0  0
 76 82  2  0  0  0
 77 78  1  0  0  0
 77 79  1  0  0  0
 77146  1  0  0  0
 77147  1  0  0  0
 78 80  1  0  0  0
 78148  1  0  0  0
 78149  1  0  0  0
 79150  1  0  0  0
 81151  1  0  0  0
 82152  1  0  0  0
 82153  1  0  0  0
M  CHG  1  82   1
M  ISO  4   1 100  68 101  79 101  81 100
M  END
> <chiral flag>
0

> <version>
0

> <s_m_source_file>
/data/baiqing/PycharmProjects/Reinvent-master-3.2/result/LINK_invent/BTK/process_docking_weight1_custom_product_contain_oxygen_bond_distance_aromatic_linkinvent_7_9_3/rearranged_h_0151.sdf

> <i_m_source_file_index>
44

> <r_mmod_Potential_Energy-OPLS-2005>
283.763092041016

> <r_mmod_Stretch_Energy-OPLS-2005>
183.651321411133

> <r_mmod_Bend_Energy-OPLS-2005>
337.513366699219

> <r_mmod_Torsional_Energy-OPLS-2005>
250.141143798828

> <r_mmod_Improper_Torsional_Energy-OPLS-2005>
5.44586277008057

> <r_mmod_Van_der_Waal_Energy-OPLS-2005>
124.745300292969

> <r_mmod_Electrostatic_Energy-OPLS-2005>
-254.903442382812

> <r_mmod_Solvation_Energy-OPLS-2005>
-502.315368652344

> <b_mmod_Minimization_Converged-OPLS-2005>
0

> <r_mmod_RMS_Derivative-OPLS-2005>
1.91824173927307

$$$$
44
                    3D
 Structure written by MMmdl.
163172  0  0  1  0            999 V2000
  -30.5988  -14.7753   20.4532 C   0  0  0  0  0  0
  -30.4323  -12.4639   19.4949 C   0  0  0  0  0  0
  -29.5224  -12.5332   18.2480 C   0  0  0  0  0  0
  -28.0439  -12.3561   18.6493 C   0  0  0  0  0  0
  -27.6460  -13.2427   19.8612 C   0  0  2  0  0  0
  -28.6895  -13.1678   21.0001 C   0  0  0  0  0  0
  -25.2494  -13.8230   20.5736 C   0  0  0  0  0  0
  -24.1788  -13.0462   20.9226 C   0  0  0  0  0  0
  -24.6391  -11.6933   20.8749 C   0  0  0  0  0  0
  -23.9077  -10.4297   21.0396 C   0  0  0  0  0  0
  -24.3619   -9.4218   21.9187 C   0  0  0  0  0  0
  -23.6298   -8.2251   22.0760 C   0  0  0  0  0  0
  -22.4288   -8.0287   21.3548 C   0  0  0  0  0  0
  -21.9916   -9.0258   20.4662 C   0  0  0  0  0  0
  -22.7226  -10.2140   20.3053 C   0  0  0  0  0  0
  -21.6858   -6.0756   22.5279 C   0  0  0  0  0  0
  -21.4024   -6.5657   23.8215 C   0  0  0  0  0  0
  -21.3665   -5.6800   24.9173 C   0  0  0  0  0  0
  -21.6039   -4.3066   24.7217 C   0  0  0  0  0  0
  -21.8812   -3.8159   23.4329 C   0  0  0  0  0  0
  -21.9177   -4.6984   22.3391 C   0  0  0  0  0  0
  -22.7797  -13.5249   21.1840 C   0  0  0  0  0  0
  -22.1642   -4.2174   21.0971 F   0  0  0  0  0  0
  -21.5614   -3.4545   25.7726 F   0  0  0  0  0  0
  -29.9947  -13.5306   20.4297 N   0  0  0  0  0  0
  -26.2941  -12.9463   20.3323 N   0  0  0  0  0  0
  -25.9335  -11.6592   20.5769 N   0  0  0  0  0  0
  -22.0387  -12.8282   22.0390 N   0  0  0  0  0  0
  -25.4183  -15.1948   20.4181 N   0  0  0  0  0  0
  -31.7627  -14.8875   20.0574 O   0  0  0  0  0  0
  -21.6639   -6.8890   21.4242 O   0  0  0  0  0  0
  -22.3510  -14.5544   20.6637 O   0  0  0  0  0  0
  -24.6331  -31.8510   23.1967 C   0  0  0  0  0  0
  -25.9151  -32.4726   23.8305 C   0  0  1  0  0  0
  -27.2311  -27.2315   20.1352 C   0  0  0  0  0  0
  -25.5954  -33.8528   24.2248 N   0  0  0  0  0  0
  -23.4316  -30.4750   21.5368 C   0  0  2  0  0  0
  -24.8836  -28.9126   20.1151 C   0  0  0  0  0  0
  -22.7495  -29.4604   22.4851 C   0  0  0  0  0  0
  -18.0308  -28.1373   22.8465 C   0  0  0  0  0  0
  -24.1509  -36.7272   23.2632 C   0  0  0  0  0  0
  -25.9819  -30.7553   21.3810 C   0  0  0  0  0  0
  -26.0575  -29.3757   20.7212 C   0  0  0  0  0  0
  -27.2348  -28.5516   20.7135 C   0  0  0  0  0  0
  -26.0277  -26.8436   19.5005 C   0  0  0  0  0  0
  -24.8754  -27.6547   19.4956 C   0  0  0  0  0  0
  -23.6540  -29.8031   20.1565 C   0  0  0  0  0  0
  -25.4132  -36.3041   24.0310 C   0  0  1  0  0  0
  -20.5911  -28.3702   23.1230 C   0  0  2  0  0  0
  -20.6806  -26.9411   22.5384 C   0  0  0  0  0  0
  -19.5796  -26.6365   21.5183 C   0  0  0  0  0  0
  -18.1969  -26.7923   22.1592 C   0  0  0  0  0  0
  -19.1557  -28.8848   23.2863 C   0  0  0  0  0  0
  -18.9482  -30.1450   23.8881 C   0  0  0  0  0  0
  -17.6480  -30.6589   24.0533 C   0  0  0  0  0  0
  -25.9057  -34.9409   23.5071 C   0  0  0  0  0  0
  -16.5367  -29.9071   23.6323 C   0  0  0  0  0  0
  -16.7288  -28.6478   23.0360 C   0  0  0  0  0  0
  -26.4516  -31.6568   25.0713 C   0  0  0  0  0  0
  -25.3734  -31.3733   26.1428 C   0  0  0  0  0  0
  -27.0356  -30.2968   24.6250 C   0  0  0  0  0  0
  -27.6040  -32.4333   25.7514 C   0  0  0  0  0  0
  -27.5587  -37.1799   24.8456 C   0  0  0  0  0  0
  -21.4198  -29.3051   22.3594 N   0  0  0  0  0  0
  -26.4303  -37.3743   23.9389 N   0  0  0  0  0  0
  -24.7006  -31.0466   22.0934 N   0  0  0  0  0  0
  -23.4170  -28.8112   23.2948 O   0  0  0  0  0  0
  -28.3235  -26.3200   20.2013 O   0  0  0  0  0  0
  -26.5608  -34.8875   22.4628 O   0  0  0  0  0  0
  -23.5487  -32.1317   23.7271 O   0  0  0  0  0  0
  -29.3374  -18.9297   18.9045 C   0  0  0  0  0  0
  -29.4450  -17.5003   19.0148 C   0  0  0  0  0  0
  -29.6641  -19.5249   20.1013 C   0  0  0  0  0  0
  -29.8208  -17.2018   20.2955 C   0  0  0  0  0  0
  -30.2972  -23.4182   19.4911 C   0  0  0  0  0  0
  -30.4226  -21.8821   19.2409 C   0  0  0  0  0  0
  -28.6880  -22.1107   20.7132 C   0  0  0  0  0  0
  -29.1406  -23.6489   20.4892 C   0  0  2  0  0  0
  -29.9111  -21.0741   20.4774 C   0  0  1  0  0  0
  -30.4544  -20.8237   22.9346 C   0  0  0  0  0  0
  -32.2485  -20.5396   21.2849 C   0  0  0  0  0  0
  -28.0731  -24.8265   20.0843 C   0  0  0  0  0  0
  -29.8495  -15.8930   20.8217 N   0  0  0  0  0  0
  -30.9339  -21.1832   21.5746 N   0  3  0  0  0  0
  -29.8963  -18.4360   20.9976 O   0  0  0  0  0  0
  -31.4816  -12.5642   19.2094 H   0  0  0  0  0  0
  -30.3554  -11.4868   19.9748 H   0  0  0  0  0  0
  -29.8180  -11.7721   17.5230 H   0  0  0  0  0  0
  -29.6550  -13.4953   17.7492 H   0  0  0  0  0  0
  -27.8951  -11.3056   18.8986 H   0  0  0  0  0  0
  -27.3930  -12.5660   17.7983 H   0  0  0  0  0  0
  -27.6446  -14.2686   19.4914 H   0  0  0  0  0  0
  -28.7263  -12.1644   21.4295 H   0  0  0  0  0  0
  -28.4256  -13.8391   21.8185 H   0  0  0  0  0  0
  -25.2755   -9.5715   22.4769 H   0  0  0  0  0  0
  -24.0009   -7.4658   22.7495 H   0  0  0  0  0  0
  -21.0835   -8.8765   19.8991 H   0  0  0  0  0  0
  -22.3663  -10.9676   19.6157 H   0  0  0  0  0  0
  -21.2047   -7.6176   23.9735 H   0  0  0  0  0  0
  -21.1488   -6.0535   25.9084 H   0  0  0  0  0  0
  -22.0587   -2.7627   23.2810 H   0  0  0  0  0  0
  -22.3994  -11.9992   22.4869 H   0  0  0  0  0  0
  -21.0997  -13.1340   22.2535 H   0  0  0  0  0  0
  -24.6520  -15.8486   20.5392 H   0  0  0  0  0  0
  -26.2667  -15.6344   20.0865 H   0  0  0  0  0  0
  -26.7178  -32.5368   23.0998 H   0  0  0  0  0  0
  -25.0135  -33.9684   25.0416 H   0  0  0  0  0  0
  -22.7286  -31.2975   21.3850 H   0  0  0  0  0  0
  -23.3765  -35.9614   23.3291 H   0  0  0  0  0  0
  -24.3580  -36.8911   22.2046 H   0  0  0  0  0  0
  -23.7282  -37.6472   23.6666 H   0  0  0  0  0  0
  -26.1327  -31.5169   20.6143 H   0  0  0  0  0  0
  -26.8515  -30.7967   22.0245 H   0  0  0  0  0  0
  -28.1349  -28.9057   21.1954 H   0  0  0  0  0  0
  -25.9469  -25.8825   19.0153 H   0  0  0  0  0  0
  -23.9725  -27.2940   19.0223 H   0  0  0  0  0  0
  -23.7743  -30.5726   19.3925 H   0  0  0  0  0  0
  -22.7731  -29.2328   19.8573 H   0  0  0  0  0  0
  -25.1329  -36.1860   25.0803 H   0  0  0  0  0  0
  -21.0039  -28.3300   24.1338 H   0  0  0  0  0  0
  -20.5709  -26.2301   23.3587 H   0  0  0  0  0  0
  -21.6673  -26.7428   22.1187 H   0  0  0  0  0  0
  -19.6963  -25.6261   21.1259 H   0  0  0  0  0  0
  -19.6769  -27.3125   20.6676 H   0  0  0  0  0  0
  -17.4243  -26.6655   21.3990 H   0  0  0  0  0  0
  -18.0390  -26.0060   22.8991 H   0  0  0  0  0  0
  -19.7951  -30.7266   24.2264 H   0  0  0  0  0  0
  -17.5027  -31.6273   24.5113 H   0  0  0  0  0  0
  -15.5368  -30.2956   23.7675 H   0  0  0  0  0  0
  -15.8685  -28.0777   22.7105 H   0  0  0  0  0  0
  -24.5903  -30.7096   25.7751 H   0  0  0  0  0  0
  -24.8940  -32.2912   26.4837 H   0  0  0  0  0  0
  -25.8047  -30.8903   27.0207 H   0  0  0  0  0  0
  -26.2934  -29.6717   24.1274 H   0  0  0  0  0  0
  -27.3985  -29.7242   25.4798 H   0  0  0  0  0  0
  -27.8844  -30.4202   23.9519 H   0  0  0  0  0  0
  -27.2606  -33.3635   26.2049 H   0  0  0  0  0  0
  -28.3879  -32.6906   25.0379 H   0  0  0  0  0  0
  -28.0659  -31.8485   26.5482 H   0  0  0  0  0  0
  -28.2584  -38.0118   24.7481 H   0  0  0  0  0  0
  -28.1112  -36.2633   24.6309 H   0  0  0  0  0  0
  -27.2283  -37.1458   25.8855 H   0  0  0  0  0  0
  -20.9370  -29.8715   21.6755 H   0  0  0  0  0  0
  -26.0177  -38.2814   24.1379 H   0  0  0  0  0  0
  -29.0765  -19.4736   18.0078 H   0  0  0  0  0  0
  -29.2451  -16.7792   18.2339 H   0  0  0  0  0  0
  -30.1410  -23.9486   18.5503 H   0  0  0  0  0  0
  -31.2270  -23.8108   19.9065 H   0  0  0  0  0  0
  -31.4129  -21.5983   18.8867 H   0  0  0  0  0  0
  -29.7648  -21.6658   18.3960 H   0  0  0  0  0  0
  -27.9232  -21.8954   19.9654 H   0  0  0  0  0  0
  -28.1823  -21.9666   21.6677 H   0  0  0  0  0  0
  -29.5865  -23.9668   21.4337 H   0  0  0  0  0  0
  -29.5670  -21.3821   23.2275 H   0  0  0  0  0  0
  -31.2241  -21.0566   23.6700 H   0  0  0  0  0  0
  -30.2390  -19.7623   23.0309 H   0  0  0  0  0  0
  -32.7528  -20.9974   20.4362 H   0  0  0  0  0  0
  -32.1668  -19.4733   21.0785 H   0  0  0  0  0  0
  -32.9324  -20.6407   22.1275 H   0  0  0  0  0  0
  -27.1803  -24.6272   20.6779 H   0  0  0  0  0  0
  -27.7803  -24.6311   19.0520 H   0  0  0  0  0  0
  -29.0045  -15.6395   21.3077 H   0  0  0  0  0  0
  -31.1408  -22.1661   21.6371 H   0  0  0  0  0  0
  1 25  1  0  0  0
  1 30  2  0  0  0
  1 83  1  0  0  0
  2  3  1  0  0  0
  2 25  1  0  0  0
  2 86  1  0  0  0
  2 87  1  0  0  0
  3  4  1  0  0  0
  3 88  1  0  0  0
  3 89  1  0  0  0
  4  5  1  0  0  0
  4 90  1  0  0  0
  4 91  1  0  0  0
  5  6  1  0  0  0
  5 26  1  0  0  0
  5 92  1  0  0  0
  6 25  1  0  0  0
  6 93  1  0  0  0
  6 94  1  0  0  0
  7  8  2  0  0  0
  7 26  1  0  0  0
  7 29  1  0  0  0
  8  9  1  0  0  0
  8 22  1  0  0  0
  9 10  1  0  0  0
  9 27  2  0  0  0
 10 11  2  0  0  0
 10 15  1  0  0  0
 11 12  1  0  0  0
 11 95  1  0  0  0
 12 13  2  0  0  0
 12 96  1  0  0  0
 13 14  1  0  0  0
 13 31  1  0  0  0
 14 15  2  0  0  0
 14 97  1  0  0  0
 15 98  1  0  0  0
 16 17  2  0  0  0
 16 21  1  0  0  0
 16 31  1  0  0  0
 17 18  1  0  0  0
 17 99  1  0  0  0
 18 19  2  0  0  0
 18100  1  0  0  0
 19 20  1  0  0  0
 19 24  1  0  0  0
 20 21  2  0  0  0
 20101  1  0  0  0
 21 23  1  0  0  0
 22 28  1  0  0  0
 22 32  2  0  0  0
 26 27  1  0  0  0
 28102  1  0  0  0
 28103  1  0  0  0
 29104  1  0  0  0
 29105  1  0  0  0
 33 34  1  0  0  0
 33 66  1  0  0  0
 33 70  2  0  0  0
 34 36  1  0  0  0
 34 59  1  0  0  0
 34106  1  0  0  0
 35 44  2  0  0  0
 35 45  1  0  0  0
 35 68  1  0  0  0
 36 56  1  0  0  0
 36107  1  0  0  0
 37 39  1  0  0  0
 37 47  1  0  0  0
 37 66  1  0  0  0
 37108  1  0  0  0
 38 43  2  0  0  0
 38 46  1  0  0  0
 38 47  1  0  0  0
 39 64  1  0  0  0
 39 67  2  0  0  0
 40 52  1  0  0  0
 40 53  2  0  0  0
 40 58  1  0  0  0
 41109  1  0  0  0
 41110  1  0  0  0
 41111  1  0  0  0
 41 48  1  0  0  0
 42 43  1  0  0  0
 42 66  1  0  0  0
 42112  1  0  0  0
 42113  1  0  0  0
 43 44  1  0  0  0
 44114  1  0  0  0
 45 46  2  0  0  0
 45115  1  0  0  0
 46116  1  0  0  0
 47117  1  0  0  0
 47118  1  0  0  0
 48 56  1  0  0  0
 48 65  1  0  0  0
 48119  1  0  0  0
 49 50  1  0  0  0
 49 53  1  0  0  0
 49 64  1  0  0  0
 49120  1  0  0  0
 50 51  1  0  0  0
 50121  1  0  0  0
 50122  1  0  0  0
 51 52  1  0  0  0
 51123  1  0  0  0
 51124  1  0  0  0
 52125  1  0  0  0
 52126  1  0  0  0
 53 54  1  0  0  0
 54 55  2  0  0  0
 54127  1  0  0  0
 55 57  1  0  0  0
 55128  1  0  0  0
 56 69  2  0  0  0
 57 58  2  0  0  0
 57129  1  0  0  0
 58130  1  0  0  0
 59 60  1  0  0  0
 59 61  1  0  0  0
 59 62  1  0  0  0
 60131  1  0  0  0
 60132  1  0  0  0
 60133  1  0  0  0
 61134  1  0  0  0
 61135  1  0  0  0
 61136  1  0  0  0
 62137  1  0  0  0
 62138  1  0  0  0
 62139  1  0  0  0
 63 65  1  0  0  0
 63140  1  0  0  0
 63141  1  0  0  0
 63142  1  0  0  0
 64143  1  0  0  0
 65144  1  0  0  0
 68 82  1  0  0  0
 71 72  1  0  0  0
 71 73  2  0  0  0
 71145  1  0  0  0
 72 74  2  0  0  0
 72146  1  0  0  0
 73 85  1  0  0  0
 73 79  1  0  0  0
 74 83  1  0  0  0
 74 85  1  0  0  0
 75 76  1  0  0  0
 75 78  1  0  0  0
 75147  1  0  0  0
 75148  1  0  0  0
 76 79  1  0  0  0
 76149  1  0  0  0
 76150  1  0  0  0
 77 78  1  0  0  0
 77 79  1  0  0  0
 77151  1  0  0  0
 77152  1  0  0  0
 78 82  1  0  0  0
 78153  1  0  0  0
 79 84  1  0  0  0
 80154  1  0  0  0
 80155  1  0  0  0
 80156  1  0  0  0
 80 84  1  0  0  0
 81 84  1  0  0  0
 81157  1  0  0  0
 81158  1  0  0  0
 81159  1  0  0  0
 82160  1  0  0  0
 82161  1  0  0  0
 83162  1  0  0  0
 84163  1  0  0  0
M  CHG  1  84   1
M  ISO  4   1 100  68 101  82 101  83 100
M  END
> <chiral flag>
0

> <version>
0

> <s_m_source_file>
/data/baiqing/PycharmProjects/Reinvent-master-3.2/result/LINK_invent/BTK/process_docking_weight1_custom_product_contain_oxygen_bond_distance_aromatic_linkinvent_7_9_3/rearranged_h_0151.sdf

> <i_m_source_file_index>
45

> <r_mmod_Potential_Energy-OPLS-2005>
179.311645507812

> <r_mmod_Stretch_Energy-OPLS-2005>
150.677627563477

> <r_mmod_Bend_Energy-OPLS-2005>
234.832061767578

> <r_mmod_Torsional_Energy-OPLS-2005>
319.433563232422

> <r_mmod_Improper_Torsional_Energy-OPLS-2005>
5.95092058181763

> <r_mmod_Van_der_Waal_Energy-OPLS-2005>
122.730461120605

> <r_mmod_Electrostatic_Energy-OPLS-2005>
-319.354064941406

> <r_mmod_Solvation_Energy-OPLS-2005>
-434.324615478516

> <b_mmod_Minimization_Converged-OPLS-2005>
0

> <r_mmod_RMS_Derivative-OPLS-2005>
3.77656149864197

$$$$
45
                    3D
 Structure written by MMmdl.
158167  0  0  1  0            999 V2000
  -30.5765  -14.8089   20.3783 C   0  0  0  0  0  0
  -30.4343  -12.4683   19.5000 C   0  0  0  0  0  0
  -29.5239  -12.4842   18.2513 C   0  0  0  0  0  0
  -28.0486  -12.3012   18.6622 C   0  0  0  0  0  0
  -27.6394  -13.2274   19.8373 C   0  0  2  0  0  0
  -28.6791  -13.2086   20.9785 C   0  0  0  0  0  0
  -25.2509  -13.8163   20.5705 C   0  0  0  0  0  0
  -24.1811  -13.0411   20.9203 C   0  0  0  0  0  0
  -24.6342  -11.6881   20.8686 C   0  0  0  0  0  0
  -23.8985  -10.4276   21.0338 C   0  0  0  0  0  0
  -24.3539   -9.4213   21.9135 C   0  0  0  0  0  0
  -23.6243   -8.2228   22.0721 C   0  0  0  0  0  0
  -22.4236   -8.0232   21.3506 C   0  0  0  0  0  0
  -21.9842   -9.0195   20.4622 C   0  0  0  0  0  0
  -22.7130  -10.2097   20.3007 C   0  0  0  0  0  0
  -21.6843   -6.0688   22.5256 C   0  0  0  0  0  0
  -21.4014   -6.5610   23.8183 C   0  0  0  0  0  0
  -21.3673   -5.6765   24.9164 C   0  0  0  0  0  0
  -21.6053   -4.3019   24.7203 C   0  0  0  0  0  0
  -21.8829   -3.8098   23.4328 C   0  0  0  0  0  0
  -21.9203   -4.6921   22.3379 C   0  0  0  0  0  0
  -22.7818  -13.5225   21.1854 C   0  0  0  0  0  0
  -22.1675   -4.2104   21.0955 F   0  0  0  0  0  0
  -21.5638   -3.4514   25.7722 F   0  0  0  0  0  0
  -29.9803  -13.5600   20.3971 N   0  0  0  0  0  0
  -26.2903  -12.9351   20.3194 N   0  0  0  0  0  0
  -25.9269  -11.6492   20.5638 N   0  0  0  0  0  0
  -22.0461  -12.8232   22.0417 N   0  0  0  0  0  0
  -25.4279  -15.1883   20.4175 N   0  0  0  0  0  0
  -31.7559  -14.8991   20.0216 O   0  0  0  0  0  0
  -21.6605   -6.8825   21.4210 O   0  0  0  0  0  0
  -22.3511  -14.5509   20.6685 O   0  0  0  0  0  0
  -24.6310  -31.8564   23.2039 C   0  0  0  0  0  0
  -25.9167  -32.4750   23.8316 C   0  0  1  0  0  0
  -27.1917  -27.2525   20.0939 C   0  0  0  0  0  0
  -25.5981  -33.8548   24.2254 N   0  0  0  0  0  0
  -23.4208  -30.4900   21.5474 C   0  0  2  0  0  0
  -24.8598  -28.9430   20.1048 C   0  0  0  0  0  0
  -22.7470  -29.4639   22.4910 C   0  0  0  0  0  0
  -18.0280  -28.1418   22.8493 C   0  0  0  0  0  0
  -24.1494  -36.7250   23.2633 C   0  0  0  0  0  0
  -25.9711  -30.7623   21.3882 C   0  0  0  0  0  0
  -26.0364  -29.3876   20.7218 C   0  0  0  0  0  0
  -27.2015  -28.5518   20.7160 C   0  0  0  0  0  0
  -25.9912  -26.8931   19.4387 C   0  0  0  0  0  0
  -24.8431  -27.7020   19.4575 C   0  0  0  0  0  0
  -23.6353  -29.8353   20.1591 C   0  0  0  0  0  0
  -25.4114  -36.3027   24.0325 C   0  0  1  0  0  0
  -20.5885  -28.3709   23.1313 C   0  0  2  0  0  0
  -20.6791  -26.9431   22.5454 C   0  0  0  0  0  0
  -19.5780  -26.6411   21.5242 C   0  0  0  0  0  0
  -18.1936  -26.7969   22.1615 C   0  0  0  0  0  0
  -19.1534  -28.8868   23.2906 C   0  0  0  0  0  0
  -18.9455  -30.1479   23.8910 C   0  0  0  0  0  0
  -17.6452  -30.6606   24.0568 C   0  0  0  0  0  0
  -25.9076  -34.9426   23.5077 C   0  0  0  0  0  0
  -16.5346  -29.9108   23.6348 C   0  0  0  0  0  0
  -16.7265  -28.6544   23.0349 C   0  0  0  0  0  0
  -26.4561  -31.6564   25.0680 C   0  0  0  0  0  0
  -25.3782  -31.3783   26.1409 C   0  0  0  0  0  0
  -27.0383  -30.2934   24.6228 C   0  0  0  0  0  0
  -27.6109  -32.4312   25.7433 C   0  0  0  0  0  0
  -27.5608  -37.1734   24.8435 C   0  0  0  0  0  0
  -21.4177  -29.3040   22.3659 N   0  0  0  0  0  0
  -26.4261  -37.3755   23.9462 N   0  0  0  0  0  0
  -24.6930  -31.0551   22.1014 N   0  0  0  0  0  0
  -23.4205  -28.8160   23.2963 O   0  0  0  0  0  0
  -28.2636  -26.3214   20.1372 O   0  0  0  0  0  0
  -26.5638  -34.8906   22.4637 O   0  0  0  0  0  0
  -23.5482  -32.1372   23.7396 O   0  0  0  0  0  0
  -29.2160  -19.1465   18.3521 C   0  0  0  0  0  0
  -29.3412  -19.6348   19.6452 C   0  0  0  0  0  0
  -29.7492  -17.2653   19.9618 C   0  0  0  0  0  0
  -28.9284  -23.0431   21.4464 C   0  0  0  0  0  0
  -29.4411  -21.5666   21.3831 C   0  0  0  0  0  0
  -28.7214  -22.2538   19.2498 C   0  0  0  0  0  0
  -29.0100  -23.6318   20.0197 C   0  0  2  0  0  0
  -28.8887  -19.9060   17.1042 C   0  0  0  0  0  0
  -30.4405  -24.1074   19.7034 C   0  0  0  0  0  0
  -28.0143  -24.8882   19.7187 C   0  0  0  0  0  0
  -29.6164  -18.5170   20.5357 N   0  0  0  0  0  0
  -29.1958  -21.0572   20.0384 N   0  0  0  0  0  0
  -29.8201  -15.9469   20.6565 N   0  0  0  0  0  0
  -29.4864  -17.3992   18.2264 S   0  0  0  0  0  0
  -31.4827  -12.5779   19.2134 H   0  0  0  0  0  0
  -30.3661  -11.5052   20.0097 H   0  0  0  0  0  0
  -29.8236  -11.6951   17.5576 H   0  0  0  0  0  0
  -29.6449  -13.4261   17.7140 H   0  0  0  0  0  0
  -27.9226  -11.2598   18.9612 H   0  0  0  0  0  0
  -27.3915  -12.4561   17.8079 H   0  0  0  0  0  0
  -27.6239  -14.2355   19.4176 H   0  0  0  0  0  0
  -28.7259  -12.2275   21.4556 H   0  0  0  0  0  0
  -28.3933  -13.9152   21.7568 H   0  0  0  0  0  0
  -25.2693   -9.5740   22.4688 H   0  0  0  0  0  0
  -23.9973   -7.4632   22.7424 H   0  0  0  0  0  0
  -21.0780   -8.8645   19.8954 H   0  0  0  0  0  0
  -22.3512  -10.9591   19.6100 H   0  0  0  0  0  0
  -21.1986   -7.6117   23.9677 H   0  0  0  0  0  0
  -21.1516   -6.0490   25.9077 H   0  0  0  0  0  0
  -22.0606   -2.7548   23.2792 H   0  0  0  0  0  0
  -22.4072  -11.9917   22.4874 H   0  0  0  0  0  0
  -21.1071  -13.1254   22.2575 H   0  0  0  0  0  0
  -24.6618  -15.8433   20.5400 H   0  0  0  0  0  0
  -26.2665  -15.6220   20.0538 H   0  0  0  0  0  0
  -26.7188  -32.5407   23.1007 H   0  0  0  0  0  0
  -25.0133  -33.9710   25.0396 H   0  0  0  0  0  0
  -22.7125  -31.3114   21.4143 H   0  0  0  0  0  0
  -23.3786  -35.9541   23.3160 H   0  0  0  0  0  0
  -24.3615  -36.9011   22.2078 H   0  0  0  0  0  0
  -23.7194  -37.6382   23.6746 H   0  0  0  0  0  0
  -26.1206  -31.5282   20.6261 H   0  0  0  0  0  0
  -26.8463  -30.7948   22.0253 H   0  0  0  0  0  0
  -28.0904  -28.8838   21.2344 H   0  0  0  0  0  0
  -25.8892  -25.9606   18.9062 H   0  0  0  0  0  0
  -23.9453  -27.3582   18.9612 H   0  0  0  0  0  0
  -23.7577  -30.6171   19.4089 H   0  0  0  0  0  0
  -22.7475  -29.2782   19.8552 H   0  0  0  0  0  0
  -25.1283  -36.1801   25.0813 H   0  0  0  0  0  0
  -21.0003  -28.3295   24.1422 H   0  0  0  0  0  0
  -20.5727  -26.2299   23.3642 H   0  0  0  0  0  0
  -21.6666  -26.7499   22.1228 H   0  0  0  0  0  0
  -19.6958  -25.6323   21.1266 H   0  0  0  0  0  0
  -19.6757  -27.3223   20.6776 H   0  0  0  0  0  0
  -17.4247  -26.6747   21.3973 H   0  0  0  0  0  0
  -18.0280  -26.0108   22.9001 H   0  0  0  0  0  0
  -19.7926  -30.7305   24.2278 H   0  0  0  0  0  0
  -17.5010  -31.6288   24.5169 H   0  0  0  0  0  0
  -15.5344  -30.3017   23.7700 H   0  0  0  0  0  0
  -15.8658  -28.0896   22.7027 H   0  0  0  0  0  0
  -24.5944  -30.7133   25.7770 H   0  0  0  0  0  0
  -24.9004  -32.2999   26.4743 H   0  0  0  0  0  0
  -25.8120  -30.9026   27.0214 H   0  0  0  0  0  0
  -26.2968  -29.6637   24.1304 H   0  0  0  0  0  0
  -27.4030  -29.7257   25.4801 H   0  0  0  0  0  0
  -27.8873  -30.4090   23.9480 H   0  0  0  0  0  0
  -27.2693  -33.3604   26.2000 H   0  0  0  0  0  0
  -28.3929  -32.6897   25.0276 H   0  0  0  0  0  0
  -28.0754  -31.8429   26.5357 H   0  0  0  0  0  0
  -28.2514  -38.0138   24.7618 H   0  0  0  0  0  0
  -28.1210  -36.2683   24.6035 H   0  0  0  0  0  0
  -27.2383  -37.1109   25.8842 H   0  0  0  0  0  0
  -20.9336  -29.8696   21.6820 H   0  0  0  0  0  0
  -26.0102  -38.2785   24.1575 H   0  0  0  0  0  0
  -29.4771  -23.6385   22.1781 H   0  0  0  0  0  0
  -27.8873  -23.0337   21.7720 H   0  0  0  0  0  0
  -28.9462  -20.9497   22.1337 H   0  0  0  0  0  0
  -30.5126  -21.5187   21.5736 H   0  0  0  0  0  0
  -29.1723  -22.2896   18.2586 H   0  0  0  0  0  0
  -27.6464  -22.1416   19.0935 H   0  0  0  0  0  0
  -27.9315  -20.4231   17.1989 H   0  0  0  0  0  0
  -28.8115  -19.2427   16.2418 H   0  0  0  0  0  0
  -29.6684  -20.6348   16.8787 H   0  0  0  0  0  0
  -31.1775  -23.3213   19.8707 H   0  0  0  0  0  0
  -30.7128  -24.9553   20.3356 H   0  0  0  0  0  0
  -30.5339  -24.4337   18.6661 H   0  0  0  0  0  0
  -27.0424  -24.5707   20.0956 H   0  0  0  0  0  0
  -27.8952  -24.9367   18.6344 H   0  0  0  0  0  0
  -28.9842  -15.7462   21.1828 H   0  0  0  0  0  0
  1 25  1  0  0  0
  1 30  2  0  0  0
  1 83  1  0  0  0
  2  3  1  0  0  0
  2 25  1  0  0  0
  2 85  1  0  0  0
  2 86  1  0  0  0
  3  4  1  0  0  0
  3 87  1  0  0  0
  3 88  1  0  0  0
  4  5  1  0  0  0
  4 89  1  0  0  0
  4 90  1  0  0  0
  5  6  1  0  0  0
  5 26  1  0  0  0
  5 91  1  0  0  0
  6 25  1  0  0  0
  6 92  1  0  0  0
  6 93  1  0  0  0
  7  8  2  0  0  0
  7 26  1  0  0  0
  7 29  1  0  0  0
  8  9  1  0  0  0
  8 22  1  0  0  0
  9 10  1  0  0  0
  9 27  2  0  0  0
 10 11  2  0  0  0
 10 15  1  0  0  0
 11 12  1  0  0  0
 11 94  1  0  0  0
 12 13  2  0  0  0
 12 95  1  0  0  0
 13 14  1  0  0  0
 13 31  1  0  0  0
 14 15  2  0  0  0
 14 96  1  0  0  0
 15 97  1  0  0  0
 16 17  2  0  0  0
 16 21  1  0  0  0
 16 31  1  0  0  0
 17 18  1  0  0  0
 17 98  1  0  0  0
 18 19  2  0  0  0
 18 99  1  0  0  0
 19 20  1  0  0  0
 19 24  1  0  0  0
 20 21  2  0  0  0
 20100  1  0  0  0
 21 23  1  0  0  0
 22 28  1  0  0  0
 22 32  2  0  0  0
 26 27  1  0  0  0
 28101  1  0  0  0
 28102  1  0  0  0
 29103  1  0  0  0
 29104  1  0  0  0
 33 34  1  0  0  0
 33 66  1  0  0  0
 33 70  2  0  0  0
 34 36  1  0  0  0
 34 59  1  0  0  0
 34105  1  0  0  0
 35 44  2  0  0  0
 35 45  1  0  0  0
 35 68  1  0  0  0
 36 56  1  0  0  0
 36106  1  0  0  0
 37 39  1  0  0  0
 37 47  1  0  0  0
 37 66  1  0  0  0
 37107  1  0  0  0
 38 43  2  0  0  0
 38 46  1  0  0  0
 38 47  1  0  0  0
 39 64  1  0  0  0
 39 67  2  0  0  0
 40 52  1  0  0  0
 40 53  2  0  0  0
 40 58  1  0  0  0
 41108  1  0  0  0
 41109  1  0  0  0
 41110  1  0  0  0
 41 48  1  0  0  0
 42 43  1  0  0  0
 42 66  1  0  0  0
 42111  1  0  0  0
 42112  1  0  0  0
 43 44  1  0  0  0
 44113  1  0  0  0
 45 46  2  0  0  0
 45114  1  0  0  0
 46115  1  0  0  0
 47116  1  0  0  0
 47117  1  0  0  0
 48 56  1  0  0  0
 48 65  1  0  0  0
 48118  1  0  0  0
 49 50  1  0  0  0
 49 53  1  0  0  0
 49 64  1  0  0  0
 49119  1  0  0  0
 50 51  1  0  0  0
 50120  1  0  0  0
 50121  1  0  0  0
 51 52  1  0  0  0
 51122  1  0  0  0
 51123  1  0  0  0
 52124  1  0  0  0
 52125  1  0  0  0
 53 54  1  0  0  0
 54 55  2  0  0  0
 54126  1  0  0  0
 55 57  1  0  0  0
 55127  1  0  0  0
 56 69  2  0  0  0
 57 58  2  0  0  0
 57128  1  0  0  0
 58129  1  0  0  0
 59 60  1  0  0  0
 59 61  1  0  0  0
 59 62  1  0  0  0
 60130  1  0  0  0
 60131  1  0  0  0
 60132  1  0  0  0
 61133  1  0  0  0
 61134  1  0  0  0
 61135  1  0  0  0
 62136  1  0  0  0
 62137  1  0  0  0
 62138  1  0  0  0
 63 65  1  0  0  0
 63139  1  0  0  0
 63140  1  0  0  0
 63141  1  0  0  0
 64142  1  0  0  0
 65143  1  0  0  0
 68 80  1  0  0  0
 71 72  2  0  0  0
 71 78  1  0  0  0
 71 84  1  0  0  0
 72 81  1  0  0  0
 72 82  1  0  0  0
 73 81  2  0  0  0
 73 83  1  0  0  0
 73 84  1  0  0  0
 74 75  1  0  0  0
 74 77  1  0  0  0
 74144  1  0  0  0
 74145  1  0  0  0
 75 82  1  0  0  0
 75146  1  0  0  0
 75147  1  0  0  0
 76 77  1  0  0  0
 76 82  1  0  0  0
 76148  1  0  0  0
 76149  1  0  0  0
 77 79  1  0  0  0
 77 80  1  0  0  0
 78150  1  0  0  0
 78151  1  0  0  0
 78152  1  0  0  0
 79153  1  0  0  0
 79154  1  0  0  0
 79155  1  0  0  0
 80156  1  0  0  0
 80157  1  0  0  0
 83158  1  0  0  0
M  ISO  4   1 100  68 101  80 101  83 100
M  END
> <chiral flag>
0

> <version>
0

> <s_m_source_file>
/data/baiqing/PycharmProjects/Reinvent-master-3.2/result/LINK_invent/BTK/process_docking_weight1_custom_product_contain_oxygen_bond_distance_aromatic_linkinvent_7_9_3/rearranged_h_0151.sdf

> <i_m_source_file_index>
46

> <r_mmod_Potential_Energy-OPLS-2005>
203.452209472656

> <r_mmod_Stretch_Energy-OPLS-2005>
130.2373046875

> <r_mmod_Bend_Energy-OPLS-2005>
207.663360595703

> <r_mmod_Torsional_Energy-OPLS-2005>
299.97119140625

> <r_mmod_Improper_Torsional_Energy-OPLS-2005>
5.45863676071167

> <r_mmod_Van_der_Waal_Energy-OPLS-2005>
116.718284606934

> <r_mmod_Electrostatic_Energy-OPLS-2005>
-437.305450439453

> <r_mmod_Solvation_Energy-OPLS-2005>
-230.521530151367

> <b_mmod_Minimization_Converged-OPLS-2005>
0

> <r_mmod_RMS_Derivative-OPLS-2005>
5.13182306289673

$$$$
46
                    3D
 Structure written by MMmdl.
162171  0  0  1  0            999 V2000
  -30.6182  -14.6214   20.5311 C   0  0  0  0  0  0
  -30.4463  -12.3888   19.4413 C   0  0  0  0  0  0
  -29.5103  -12.5195   18.2177 C   0  0  0  0  0  0
  -28.0321  -12.3568   18.6267 C   0  0  0  0  0  0
  -27.6582  -13.2128   19.8654 C   0  0  2  0  0  0
  -28.7026  -13.0314   20.9901 C   0  0  0  0  0  0
  -25.2573  -13.8157   20.5675 C   0  0  0  0  0  0
  -24.1825  -13.0430   20.9158 C   0  0  0  0  0  0
  -24.6385  -11.6898   20.8698 C   0  0  0  0  0  0
  -23.9046  -10.4283   21.0384 C   0  0  0  0  0  0
  -24.3601   -9.4210   21.9173 C   0  0  0  0  0  0
  -23.6281   -8.2246   22.0754 C   0  0  0  0  0  0
  -22.4257   -8.0274   21.3552 C   0  0  0  0  0  0
  -21.9888   -9.0241   20.4651 C   0  0  0  0  0  0
  -22.7212  -10.2120   20.3047 C   0  0  0  0  0  0
  -21.6848   -6.0726   22.5274 C   0  0  0  0  0  0
  -21.4019   -6.5627   23.8208 C   0  0  0  0  0  0
  -21.3660   -5.6782   24.9167 C   0  0  0  0  0  0
  -21.6037   -4.3043   24.7218 C   0  0  0  0  0  0
  -21.8819   -3.8136   23.4338 C   0  0  0  0  0  0
  -21.9196   -4.6956   22.3396 C   0  0  0  0  0  0
  -22.7848  -13.5242   21.1821 C   0  0  0  0  0  0
  -22.1666   -4.2149   21.0974 F   0  0  0  0  0  0
  -21.5627   -3.4526   25.7730 F   0  0  0  0  0  0
  -30.0247  -13.3876   20.4418 N   0  0  0  0  0  0
  -26.3005  -12.9335   20.3299 N   0  0  0  0  0  0
  -25.9311  -11.6491   20.5698 N   0  0  0  0  0  0
  -22.0478  -12.8255   22.0384 N   0  0  0  0  0  0
  -25.4279  -15.1887   20.4134 N   0  0  0  0  0  0
  -31.7473  -14.8382   20.0786 O   0  0  0  0  0  0
  -21.6629   -6.8867   21.4240 O   0  0  0  0  0  0
  -22.3527  -14.5542   20.6661 O   0  0  0  0  0  0
  -24.6244  -31.8612   23.2041 C   0  0  0  0  0  0
  -25.9097  -32.4784   23.8370 C   0  0  1  0  0  0
  -27.2343  -27.3452   20.1059 C   0  0  0  0  0  0
  -25.5916  -33.8580   24.2286 N   0  0  0  0  0  0
  -23.4173  -30.4853   21.5474 C   0  0  2  0  0  0
  -24.8636  -28.9427   20.1141 C   0  0  0  0  0  0
  -22.7471  -29.4627   22.4958 C   0  0  0  0  0  0
  -18.0287  -28.1404   22.8494 C   0  0  0  0  0  0
  -24.1485  -36.7305   23.2636 C   0  0  0  0  0  0
  -25.9567  -30.7987   21.3718 C   0  0  0  0  0  0
  -26.0317  -29.4291   20.7139 C   0  0  0  0  0  0
  -27.2207  -28.6427   20.6981 C   0  0  0  0  0  0
  -26.0365  -26.9004   19.4978 C   0  0  0  0  0  0
  -24.8669  -27.6828   19.4988 C   0  0  0  0  0  0
  -23.6293  -29.8200   20.1630 C   0  0  0  0  0  0
  -25.4106  -36.3084   24.0326 C   0  0  1  0  0  0
  -20.5892  -28.3698   23.1307 C   0  0  2  0  0  0
  -20.6778  -26.9422   22.5427 C   0  0  0  0  0  0
  -19.5747  -26.6404   21.5232 C   0  0  0  0  0  0
  -18.1926  -26.7949   22.1639 C   0  0  0  0  0  0
  -19.1541  -28.8867   23.2893 C   0  0  0  0  0  0
  -18.9461  -30.1475   23.8899 C   0  0  0  0  0  0
  -17.6459  -30.6599   24.0578 C   0  0  0  0  0  0
  -25.9045  -34.9452   23.5102 C   0  0  0  0  0  0
  -16.5351  -29.9098   23.6343 C   0  0  0  0  0  0
  -16.7276  -28.6525   23.0347 C   0  0  0  0  0  0
  -26.4480  -31.6598   25.0740 C   0  0  0  0  0  0
  -25.3707  -31.3766   26.1472 C   0  0  0  0  0  0
  -27.0309  -30.3010   24.6198 C   0  0  0  0  0  0
  -27.6034  -32.4345   25.7516 C   0  0  0  0  0  0
  -27.5581  -37.1807   24.8453 C   0  0  0  0  0  0
  -21.4184  -29.3045   22.3694 N   0  0  0  0  0  0
  -26.4284  -37.3781   23.9410 N   0  0  0  0  0  0
  -24.6846  -31.0650   22.0981 N   0  0  0  0  0  0
  -23.4204  -28.8155   23.3019 O   0  0  0  0  0  0
  -28.3776  -26.5348   20.1251 O   0  0  0  0  0  0
  -26.5619  -34.8914   22.4675 O   0  0  0  0  0  0
  -23.5410  -32.1400   23.7380 O   0  0  0  0  0  0
  -30.5084  -17.9782   20.1739 C   0  0  0  0  0  0
  -29.0121  -17.7162   21.9429 C   0  0  0  0  0  0
  -29.8233  -17.0538   21.0547 C   0  0  0  0  0  0
  -30.2282  -19.3298   20.4257 C   0  0  0  0  0  0
  -30.8316  -20.5345   19.8027 C   0  0  0  0  0  0
  -30.2206  -24.4280   21.5929 C   0  0  0  0  0  0
  -30.3902  -24.2054   19.0626 C   0  0  0  0  0  0
  -31.1791  -22.8803   19.0271 C   0  0  0  0  0  0
  -29.1371  -22.5484   20.2095 C   0  0  0  0  0  0
  -29.4544  -24.1093   20.2812 C   0  0  1  0  0  0
  -30.7277  -25.8479   21.8285 C   0  0  0  0  0  0
  -28.1935  -25.0714   20.1420 C   0  0  0  0  0  0
  -30.3761  -21.8521   19.7314 N   0  0  0  0  0  0
  -29.8257  -15.5961   21.0669 N   0  0  0  0  0  0
  -32.0283  -20.2867   19.2366 N   0  3  0  0  0  0
  -30.4586  -23.5568   22.4343 O   0  0  0  0  0  0
  -29.1004  -19.4561   21.7532 S   0  0  0  0  0  0
  -31.4857  -12.5234   19.1381 H   0  0  0  0  0  0
  -30.3878  -11.3848   19.8644 H   0  0  0  0  0  0
  -29.7725  -11.7806   17.4596 H   0  0  0  0  0  0
  -29.6520  -13.4958   17.7507 H   0  0  0  0  0  0
  -27.8625  -11.3015   18.8433 H   0  0  0  0  0  0
  -27.3809  -12.6020   17.7868 H   0  0  0  0  0  0
  -27.6884  -14.2538   19.5434 H   0  0  0  0  0  0
  -28.7081  -11.9966   21.3352 H   0  0  0  0  0  0
  -28.4373  -13.6243   21.8657 H   0  0  0  0  0  0
  -25.2751   -9.5686   22.4741 H   0  0  0  0  0  0
  -23.9990   -7.4633   22.7470 H   0  0  0  0  0  0
  -21.0821   -8.8737   19.8960 H   0  0  0  0  0  0
  -22.3662  -10.9643   19.6142 H   0  0  0  0  0  0
  -21.2019   -7.6135   23.9710 H   0  0  0  0  0  0
  -21.1487   -6.0509   25.9068 H   0  0  0  0  0  0
  -22.0606   -2.7603   23.2826 H   0  0  0  0  0  0
  -22.4080  -11.9931   22.4809 H   0  0  0  0  0  0
  -21.1099  -13.1300   22.2574 H   0  0  0  0  0  0
  -24.6580  -15.8405   20.5206 H   0  0  0  0  0  0
  -26.2838  -15.6330   20.1051 H   0  0  0  0  0  0
  -26.7165  -32.5466   23.1121 H   0  0  0  0  0  0
  -25.0041  -33.9727   25.0415 H   0  0  0  0  0  0
  -22.7110  -31.3062   21.4060 H   0  0  0  0  0  0
  -23.3739  -35.9648   23.3289 H   0  0  0  0  0  0
  -24.3578  -36.8938   22.2054 H   0  0  0  0  0  0
  -23.7251  -37.6505   23.6671 H   0  0  0  0  0  0
  -26.0884  -31.5634   20.6048 H   0  0  0  0  0  0
  -26.8359  -30.8456   22.0021 H   0  0  0  0  0  0
  -28.1199  -29.0153   21.1672 H   0  0  0  0  0  0
  -25.9728  -25.9408   19.0087 H   0  0  0  0  0  0
  -23.9705  -27.3049   19.0252 H   0  0  0  0  0  0
  -23.7447  -30.5945   19.4040 H   0  0  0  0  0  0
  -22.7495  -29.2467   19.8654 H   0  0  0  0  0  0
  -25.1283  -36.1931   25.0819 H   0  0  0  0  0  0
  -20.9996  -28.3267   24.1426 H   0  0  0  0  0  0
  -20.5721  -26.2288   23.3613 H   0  0  0  0  0  0
  -21.6642  -26.7475   22.1199 H   0  0  0  0  0  0
  -19.6902  -25.6317   21.1255 H   0  0  0  0  0  0
  -19.6689  -27.3221   20.6765 H   0  0  0  0  0  0
  -17.4205  -26.6720   21.4028 H   0  0  0  0  0  0
  -18.0303  -26.0092   22.9034 H   0  0  0  0  0  0
  -19.7926  -30.7307   24.2261 H   0  0  0  0  0  0
  -17.5005  -31.6278   24.5185 H   0  0  0  0  0  0
  -15.5350  -30.2999   23.7668 H   0  0  0  0  0  0
  -15.8677  -28.0854   22.7048 H   0  0  0  0  0  0
  -24.5859  -30.7128   25.7825 H   0  0  0  0  0  0
  -24.8918  -32.2947   26.4892 H   0  0  0  0  0  0
  -25.8028  -30.8960   27.0255 H   0  0  0  0  0  0
  -26.2883  -29.6791   24.1177 H   0  0  0  0  0  0
  -27.3933  -29.7248   25.4723 H   0  0  0  0  0  0
  -27.8794  -30.4277   23.9464 H   0  0  0  0  0  0
  -27.2620  -33.3630   26.2107 H   0  0  0  0  0  0
  -28.3843  -32.6938   25.0355 H   0  0  0  0  0  0
  -28.0699  -31.8465   26.5427 H   0  0  0  0  0  0
  -28.2584  -38.0117   24.7521 H   0  0  0  0  0  0
  -28.1092  -36.2652   24.6249 H   0  0  0  0  0  0
  -27.2308  -37.1430   25.8857 H   0  0  0  0  0  0
  -20.9355  -29.8751   21.6892 H   0  0  0  0  0  0
  -26.0155  -38.2852   24.1422 H   0  0  0  0  0  0
  -31.1797  -17.6265   19.4037 H   0  0  0  0  0  0
  -28.3639  -17.3097   22.7112 H   0  0  0  0  0  0
  -29.8196  -24.3186   18.1404 H   0  0  0  0  0  0
  -31.0638  -25.0602   19.1110 H   0  0  0  0  0  0
  -32.1346  -22.9951   19.5411 H   0  0  0  0  0  0
  -31.3799  -22.5842   17.9965 H   0  0  0  0  0  0
  -28.3333  -22.3527   19.4993 H   0  0  0  0  0  0
  -28.8127  -22.1594   21.1727 H   0  0  0  0  0  0
  -31.0063  -26.3339   20.8950 H   0  0  0  0  0  0
  -31.6017  -25.8348   22.4785 H   0  0  0  0  0  0
  -29.9539  -26.4454   22.3080 H   0  0  0  0  0  0
  -27.4862  -24.8288   20.9369 H   0  0  0  0  0  0
  -27.7075  -24.7810   19.2120 H   0  0  0  0  0  0
  -29.0156  -15.1924   21.5099 H   0  0  0  0  0  0
  -32.4336  -19.3654   19.2918 H   0  0  0  0  0  0
  -32.5620  -21.0052   18.7732 H   0  0  0  0  0  0
  1 25  1  0  0  0
  1 30  2  0  0  0
  1 84  1  0  0  0
  2  3  1  0  0  0
  2 25  1  0  0  0
  2 88  1  0  0  0
  2 89  1  0  0  0
  3  4  1  0  0  0
  3 90  1  0  0  0
  3 91  1  0  0  0
  4  5  1  0  0  0
  4 92  1  0  0  0
  4 93  1  0  0  0
  5  6  1  0  0  0
  5 26  1  0  0  0
  5 94  1  0  0  0
  6 25  1  0  0  0
  6 95  1  0  0  0
  6 96  1  0  0  0
  7  8  2  0  0  0
  7 26  1  0  0  0
  7 29  1  0  0  0
  8  9  1  0  0  0
  8 22  1  0  0  0
  9 10  1  0  0  0
  9 27  2  0  0  0
 10 11  2  0  0  0
 10 15  1  0  0  0
 11 12  1  0  0  0
 11 97  1  0  0  0
 12 13  2  0  0  0
 12 98  1  0  0  0
 13 14  1  0  0  0
 13 31  1  0  0  0
 14 15  2  0  0  0
 14 99  1  0  0  0
 15100  1  0  0  0
 16 17  2  0  0  0
 16 21  1  0  0  0
 16 31  1  0  0  0
 17 18  1  0  0  0
 17101  1  0  0  0
 18 19  2  0  0  0
 18102  1  0  0  0
 19 20  1  0  0  0
 19 24  1  0  0  0
 20 21  2  0  0  0
 20103  1  0  0  0
 21 23  1  0  0  0
 22 28  1  0  0  0
 22 32  2  0  0  0
 26 27  1  0  0  0
 28104  1  0  0  0
 28105  1  0  0  0
 29106  1  0  0  0
 29107  1  0  0  0
 33 34  1  0  0  0
 33 66  1  0  0  0
 33 70  2  0  0  0
 34 36  1  0  0  0
 34 59  1  0  0  0
 34108  1  0  0  0
 35 44  2  0  0  0
 35 45  1  0  0  0
 35 68  1  0  0  0
 36 56  1  0  0  0
 36109  1  0  0  0
 37 39  1  0  0  0
 37 47  1  0  0  0
 37 66  1  0  0  0
 37110  1  0  0  0
 38 43  2  0  0  0
 38 46  1  0  0  0
 38 47  1  0  0  0
 39 64  1  0  0  0
 39 67  2  0  0  0
 40 52  1  0  0  0
 40 53  2  0  0  0
 40 58  1  0  0  0
 41111  1  0  0  0
 41112  1  0  0  0
 41113  1  0  0  0
 41 48  1  0  0  0
 42 43  1  0  0  0
 42 66  1  0  0  0
 42114  1  0  0  0
 42115  1  0  0  0
 43 44  1  0  0  0
 44116  1  0  0  0
 45 46  2  0  0  0
 45117  1  0  0  0
 46118  1  0  0  0
 47119  1  0  0  0
 47120  1  0  0  0
 48 56  1  0  0  0
 48 65  1  0  0  0
 48121  1  0  0  0
 49 50  1  0  0  0
 49 53  1  0  0  0
 49 64  1  0  0  0
 49122  1  0  0  0
 50 51  1  0  0  0
 50123  1  0  0  0
 50124  1  0  0  0
 51 52  1  0  0  0
 51125  1  0  0  0
 51126  1  0  0  0
 52127  1  0  0  0
 52128  1  0  0  0
 53 54  1  0  0  0
 54 55  2  0  0  0
 54129  1  0  0  0
 55 57  1  0  0  0
 55130  1  0  0  0
 56 69  2  0  0  0
 57 58  2  0  0  0
 57131  1  0  0  0
 58132  1  0  0  0
 59 60  1  0  0  0
 59 61  1  0  0  0
 59 62  1  0  0  0
 60133  1  0  0  0
 60134  1  0  0  0
 60135  1  0  0  0
 61136  1  0  0  0
 61137  1  0  0  0
 61138  1  0  0  0
 62139  1  0  0  0
 62140  1  0  0  0
 62141  1  0  0  0
 63 65  1  0  0  0
 63142  1  0  0  0
 63143  1  0  0  0
 63144  1  0  0  0
 64145  1  0  0  0
 65146  1  0  0  0
 68 82  1  0  0  0
 71 73  1  0  0  0
 71 74  2  0  0  0
 71147  1  0  0  0
 72 73  2  0  0  0
 72 87  1  0  0  0
 72148  1  0  0  0
 73 84  1  0  0  0
 74 75  1  0  0  0
 74 87  1  0  0  0
 75 83  1  0  0  0
 75 85  2  0  0  0
 76 81  1  0  0  0
 76 86  2  0  0  0
 76 80  1  0  0  0
 77 78  1  0  0  0
 77 80  1  0  0  0
 77149  1  0  0  0
 77150  1  0  0  0
 78 83  1  0  0  0
 78151  1  0  0  0
 78152  1  0  0  0
 79 80  1  0  0  0
 79 83  1  0  0  0
 79153  1  0  0  0
 79154  1  0  0  0
 80 82  1  0  0  0
 81155  1  0  0  0
 81156  1  0  0  0
 81157  1  0  0  0
 82158  1  0  0  0
 82159  1  0  0  0
 84160  1  0  0  0
 85161  1  0  0  0
 85162  1  0  0  0
M  CHG  1  85   1
M  ISO  4   1 100  68 101  82 101  84 100
M  END
> <chiral flag>
0

> <version>
0

> <s_m_source_file>
/data/baiqing/PycharmProjects/Reinvent-master-3.2/result/LINK_invent/BTK/process_docking_weight1_custom_product_contain_oxygen_bond_distance_aromatic_linkinvent_7_9_3/rearranged_h_0151.sdf

> <i_m_source_file_index>
47

> <r_mmod_Potential_Energy-OPLS-2005>
-50.0984840393066

> <r_mmod_Stretch_Energy-OPLS-2005>
75.6571884155273

> <r_mmod_Bend_Energy-OPLS-2005>
192.296783447266

> <r_mmod_Torsional_Energy-OPLS-2005>
259.533386230469

> <r_mmod_Improper_Torsional_Energy-OPLS-2005>
3.24318480491638

> <r_mmod_Van_der_Waal_Energy-OPLS-2005>
134.407684326172

> <r_mmod_Electrostatic_Energy-OPLS-2005>
-309.364379882812

> <r_mmod_Solvation_Energy-OPLS-2005>
-444.732177734375

> <b_mmod_Minimization_Converged-OPLS-2005>
0

> <r_mmod_RMS_Derivative-OPLS-2005>
1.91205179691315

$$$$
47
                    3D
 Structure written by MMmdl.
162171  0  0  1  0            999 V2000
  -30.6094  -14.7801   20.4271 C   0  0  0  0  0  0
  -30.4244  -12.4767   19.4729 C   0  0  0  0  0  0
  -29.5103  -12.5185   18.2277 C   0  0  0  0  0  0
  -28.0297  -12.3556   18.6314 C   0  0  0  0  0  0
  -27.6359  -13.2434   19.8413 C   0  0  2  0  0  0
  -28.6819  -13.1962   20.9775 C   0  0  0  0  0  0
  -25.2496  -13.8203   20.5670 C   0  0  0  0  0  0
  -24.1817  -13.0447   20.9198 C   0  0  0  0  0  0
  -24.6420  -11.6926   20.8719 C   0  0  0  0  0  0
  -23.9081  -10.4275   21.0379 C   0  0  0  0  0  0
  -24.3621   -9.4198   21.9170 C   0  0  0  0  0  0
  -23.6294   -8.2241   22.0749 C   0  0  0  0  0  0
  -22.4288   -8.0243   21.3523 C   0  0  0  0  0  0
  -21.9897   -9.0228   20.4652 C   0  0  0  0  0  0
  -22.7233  -10.2114   20.3051 C   0  0  0  0  0  0
  -21.6869   -6.0696   22.5256 C   0  0  0  0  0  0
  -21.4042   -6.5611   23.8183 C   0  0  0  0  0  0
  -21.3657   -5.6776   24.9135 C   0  0  0  0  0  0
  -21.6046   -4.3029   24.7219 C   0  0  0  0  0  0
  -21.8830   -3.8118   23.4334 C   0  0  0  0  0  0
  -21.9206   -4.6924   22.3386 C   0  0  0  0  0  0
  -22.7825  -13.5202   21.1810 C   0  0  0  0  0  0
  -22.1680   -4.2100   21.0973 F   0  0  0  0  0  0
  -21.5606   -3.4531   25.7734 F   0  0  0  0  0  0
  -29.9757  -13.5554   20.3857 N   0  0  0  0  0  0
  -26.2911  -12.9441   20.3222 N   0  0  0  0  0  0
  -25.9354  -11.6565   20.5745 N   0  0  0  0  0  0
  -22.0517  -12.8213   22.0399 N   0  0  0  0  0  0
  -25.4112  -15.1941   20.4061 N   0  0  0  0  0  0
  -31.8116  -14.8209   20.1567 O   0  0  0  0  0  0
  -21.6656   -6.8837   21.4209 O   0  0  0  0  0  0
  -22.3507  -14.5476   20.6592 O   0  0  0  0  0  0
  -24.6274  -31.8567   23.2004 C   0  0  0  0  0  0
  -25.9134  -32.4747   23.8313 C   0  0  1  0  0  0
  -27.2345  -27.2882   20.0934 C   0  0  0  0  0  0
  -25.5954  -33.8556   24.2211 N   0  0  0  0  0  0
  -23.4212  -30.4747   21.5466 C   0  0  2  0  0  0
  -24.8660  -28.9114   20.1238 C   0  0  0  0  0  0
  -22.7471  -29.4624   22.4996 C   0  0  0  0  0  0
  -18.0287  -28.1426   22.8471 C   0  0  0  0  0  0
  -24.1501  -36.7263   23.2623 C   0  0  0  0  0  0
  -25.9672  -30.7659   21.3838 C   0  0  0  0  0  0
  -26.0402  -29.3943   20.7152 C   0  0  0  0  0  0
  -27.2229  -28.5926   20.6887 C   0  0  0  0  0  0
  -26.0344  -26.8614   19.4853 C   0  0  0  0  0  0
  -24.8651  -27.6496   19.5057 C   0  0  0  0  0  0
  -23.6381  -29.7945   20.1699 C   0  0  0  0  0  0
  -25.4142  -36.3034   24.0281 C   0  0  1  0  0  0
  -20.5867  -28.3741   23.1278 C   0  0  2  0  0  0
  -20.6805  -26.9485   22.5373 C   0  0  0  0  0  0
  -19.5798  -26.6430   21.5181 C   0  0  0  0  0  0
  -18.1963  -26.7969   22.1595 C   0  0  0  0  0  0
  -19.1530  -28.8908   23.2861 C   0  0  0  0  0  0
  -18.9451  -30.1496   23.8900 C   0  0  0  0  0  0
  -17.6453  -30.6627   24.0574 C   0  0  0  0  0  0
  -25.9081  -34.9423   23.5034 C   0  0  0  0  0  0
  -16.5352  -29.9112   23.6349 C   0  0  0  0  0  0
  -16.7265  -28.6524   23.0360 C   0  0  0  0  0  0
  -26.4487  -31.6599   25.0723 C   0  0  0  0  0  0
  -25.3693  -31.3814   26.1430 C   0  0  0  0  0  0
  -27.0314  -30.2981   24.6276 C   0  0  0  0  0  0
  -27.6011  -32.4382   25.7503 C   0  0  0  0  0  0
  -27.5583  -37.1799   24.8460 C   0  0  0  0  0  0
  -21.4190  -29.3075   22.3691 N   0  0  0  0  0  0
  -26.4314  -37.3748   23.9375 N   0  0  0  0  0  0
  -24.6906  -31.0516   22.0987 N   0  0  0  0  0  0
  -23.4161  -28.8173   23.3107 O   0  0  0  0  0  0
  -28.3760  -26.4638   20.1432 O   0  0  0  0  0  0
  -26.5625  -34.8888   22.4580 O   0  0  0  0  0  0
  -23.5436  -32.1387   23.7328 O   0  0  0  0  0  0
  -30.7651  -20.0927   19.3361 C   0  0  0  0  0  0
  -29.3074  -18.5357   20.5266 C   0  0  0  0  0  0
  -31.3140  -17.6984   19.4505 C   0  0  0  0  0  0
  -29.5895  -19.9058   20.0913 C   0  0  0  0  0  0
  -31.6100  -19.0158   19.0265 C   0  0  0  0  0  0
  -30.1575  -17.3814   20.2123 C   0  0  0  0  0  0
  -28.6762  -21.1377   20.2397 C   0  0  0  0  0  0
  -30.0986  -23.7394   22.1105 C   0  0  0  0  0  0
  -28.6036  -24.1245   22.0240 C   0  0  0  0  0  0
  -30.3812  -22.8394   20.8972 C   0  0  0  0  0  0
  -28.1917  -23.7628   20.5956 C   0  0  2  0  0  0
  -28.4586  -25.0504   19.6407 C   0  0  0  0  0  0
  -29.0408  -22.4816   20.4084 N   0  0  0  0  0  0
  -32.7579  -19.2635   18.2690 N   0  0  0  0  0  0
  -29.8583  -15.9505   20.5778 N   0  0  0  0  0  0
  -27.3717  -20.8955   20.1643 N   0  3  0  0  0  0
  -31.4654  -12.5993   19.1705 H   0  0  0  0  0  0
  -30.3663  -11.5054   19.9674 H   0  0  0  0  0  0
  -29.7957  -11.7439   17.5127 H   0  0  0  0  0  0
  -29.6458  -13.4690   17.7063 H   0  0  0  0  0  0
  -27.8605  -11.3044   18.8711 H   0  0  0  0  0  0
  -27.3873  -12.5741   17.7769 H   0  0  0  0  0  0
  -27.6210  -14.2634   19.4576 H   0  0  0  0  0  0
  -28.7341  -12.2071   21.4382 H   0  0  0  0  0  0
  -28.4193  -13.8925   21.7773 H   0  0  0  0  0  0
  -25.2770   -9.5681   22.4745 H   0  0  0  0  0  0
  -23.9994   -7.4641   22.7499 H   0  0  0  0  0  0
  -21.0812   -8.8748   19.9000 H   0  0  0  0  0  0
  -22.3670  -10.9629   19.6169 H   0  0  0  0  0  0
  -21.2080   -7.6133   23.9656 H   0  0  0  0  0  0
  -21.1463   -6.0520   25.9037 H   0  0  0  0  0  0
  -22.0629   -2.7574   23.2859 H   0  0  0  0  0  0
  -22.4155  -11.9929   22.4845 H   0  0  0  0  0  0
  -21.1107  -13.1215   22.2571 H   0  0  0  0  0  0
  -24.6324  -15.8351   20.5050 H   0  0  0  0  0  0
  -26.2436  -15.6352   20.0361 H   0  0  0  0  0  0
  -26.7198  -32.5352   23.1041 H   0  0  0  0  0  0
  -25.0173  -33.9723   25.0394 H   0  0  0  0  0  0
  -22.7209  -31.2995   21.3983 H   0  0  0  0  0  0
  -23.3755  -35.9612   23.3309 H   0  0  0  0  0  0
  -24.3552  -36.8875   22.2033 H   0  0  0  0  0  0
  -23.7303  -37.6475   23.6660 H   0  0  0  0  0  0
  -26.1197  -31.5349   20.6272 H   0  0  0  0  0  0
  -26.8411  -30.8000   22.0228 H   0  0  0  0  0  0
  -28.1284  -28.9634   21.1508 H   0  0  0  0  0  0
  -25.9703  -25.9033   18.9961 H   0  0  0  0  0  0
  -23.9591  -27.2672   19.0574 H   0  0  0  0  0  0
  -23.7766  -30.5656   19.4143 H   0  0  0  0  0  0
  -22.7541  -29.2332   19.8597 H   0  0  0  0  0  0
  -25.1351  -36.1847   25.0785 H   0  0  0  0  0  0
  -20.9940  -28.3336   24.1411 H   0  0  0  0  0  0
  -20.5782  -26.2355   23.3560 H   0  0  0  0  0  0
  -21.6659  -26.7605   22.1124 H   0  0  0  0  0  0
  -19.6980  -25.6329   21.1234 H   0  0  0  0  0  0
  -19.6716  -27.3215   20.6692 H   0  0  0  0  0  0
  -17.4219  -26.6675   21.4011 H   0  0  0  0  0  0
  -18.0429  -26.0111   22.9011 H   0  0  0  0  0  0
  -19.7911  -30.7307   24.2273 H   0  0  0  0  0  0
  -17.5005  -31.6296   24.5188 H   0  0  0  0  0  0
  -15.5351  -30.3020   23.7698 H   0  0  0  0  0  0
  -15.8648  -28.0846   22.7108 H   0  0  0  0  0  0
  -24.5842  -30.7188   25.7781 H   0  0  0  0  0  0
  -24.8897  -32.3018   26.4799 H   0  0  0  0  0  0
  -25.7966  -30.9022   27.0254 H   0  0  0  0  0  0
  -26.2907  -29.6759   24.1241 H   0  0  0  0  0  0
  -27.3870  -29.7241   25.4858 H   0  0  0  0  0  0
  -27.8862  -30.4199   23.9611 H   0  0  0  0  0  0
  -27.2575  -33.3707   26.2008 H   0  0  0  0  0  0
  -28.3848  -32.6934   25.0356 H   0  0  0  0  0  0
  -28.0648  -31.8568   26.5483 H   0  0  0  0  0  0
  -28.2600  -38.0093   24.7471 H   0  0  0  0  0  0
  -28.1072  -36.2612   24.6348 H   0  0  0  0  0  0
  -27.2257  -37.1516   25.8850 H   0  0  0  0  0  0
  -20.9444  -29.8689   21.6756 H   0  0  0  0  0  0
  -26.0154  -38.2805   24.1377 H   0  0  0  0  0  0
  -31.0139  -21.0757   18.9628 H   0  0  0  0  0  0
  -28.3980  -18.3717   21.0876 H   0  0  0  0  0  0
  -31.9947  -16.9248   19.1376 H   0  0  0  0  0  0
  -30.3131  -23.2060   23.0390 H   0  0  0  0  0  0
  -30.7291  -24.6278   22.0804 H   0  0  0  0  0  0
  -28.4271  -25.1705   22.2776 H   0  0  0  0  0  0
  -28.0141  -23.5335   22.7227 H   0  0  0  0  0  0
  -31.0016  -21.9884   21.1812 H   0  0  0  0  0  0
  -30.9165  -23.3916   20.1245 H   0  0  0  0  0  0
  -27.1241  -23.5440   20.5693 H   0  0  0  0  0  0
  -27.8563  -24.9489   18.7385 H   0  0  0  0  0  0
  -29.4771  -24.9681   19.2599 H   0  0  0  0  0  0
  -33.2210  -18.4670   17.8406 H   0  0  0  0  0  0
  -32.7683  -20.0867   17.6755 H   0  0  0  0  0  0
  -28.9147  -15.7893   20.8979 H   0  0  0  0  0  0
  -27.0673  -19.9433   20.0493 H   0  0  0  0  0  0
  -26.6703  -21.6110   20.2402 H   0  0  0  0  0  0
  1 25  1  0  0  0
  1 30  2  0  0  0
  1 85  1  0  0  0
  2  3  1  0  0  0
  2 25  1  0  0  0
  2 87  1  0  0  0
  2 88  1  0  0  0
  3  4  1  0  0  0
  3 89  1  0  0  0
  3 90  1  0  0  0
  4  5  1  0  0  0
  4 91  1  0  0  0
  4 92  1  0  0  0
  5  6  1  0  0  0
  5 26  1  0  0  0
  5 93  1  0  0  0
  6 25  1  0  0  0
  6 94  1  0  0  0
  6 95  1  0  0  0
  7  8  2  0  0  0
  7 26  1  0  0  0
  7 29  1  0  0  0
  8  9  1  0  0  0
  8 22  1  0  0  0
  9 10  1  0  0  0
  9 27  2  0  0  0
 10 11  2  0  0  0
 10 15  1  0  0  0
 11 12  1  0  0  0
 11 96  1  0  0  0
 12 13  2  0  0  0
 12 97  1  0  0  0
 13 14  1  0  0  0
 13 31  1  0  0  0
 14 15  2  0  0  0
 14 98  1  0  0  0
 15 99  1  0  0  0
 16 17  2  0  0  0
 16 21  1  0  0  0
 16 31  1  0  0  0
 17 18  1  0  0  0
 17100  1  0  0  0
 18 19  2  0  0  0
 18101  1  0  0  0
 19 20  1  0  0  0
 19 24  1  0  0  0
 20 21  2  0  0  0
 20102  1  0  0  0
 21 23  1  0  0  0
 22 28  1  0  0  0
 22 32  2  0  0  0
 26 27  1  0  0  0
 28103  1  0  0  0
 28104  1  0  0  0
 29105  1  0  0  0
 29106  1  0  0  0
 33 34  1  0  0  0
 33 66  1  0  0  0
 33 70  2  0  0  0
 34 36  1  0  0  0
 34 59  1  0  0  0
 34107  1  0  0  0
 35 44  2  0  0  0
 35 45  1  0  0  0
 35 68  1  0  0  0
 36 56  1  0  0  0
 36108  1  0  0  0
 37 39  1  0  0  0
 37 47  1  0  0  0
 37 66  1  0  0  0
 37109  1  0  0  0
 38 43  2  0  0  0
 38 46  1  0  0  0
 38 47  1  0  0  0
 39 64  1  0  0  0
 39 67  2  0  0  0
 40 52  1  0  0  0
 40 53  2  0  0  0
 40 58  1  0  0  0
 41110  1  0  0  0
 41111  1  0  0  0
 41112  1  0  0  0
 41 48  1  0  0  0
 42 43  1  0  0  0
 42 66  1  0  0  0
 42113  1  0  0  0
 42114  1  0  0  0
 43 44  1  0  0  0
 44115  1  0  0  0
 45 46  2  0  0  0
 45116  1  0  0  0
 46117  1  0  0  0
 47118  1  0  0  0
 47119  1  0  0  0
 48 56  1  0  0  0
 48 65  1  0  0  0
 48120  1  0  0  0
 49 50  1  0  0  0
 49 53  1  0  0  0
 49 64  1  0  0  0
 49121  1  0  0  0
 50 51  1  0  0  0
 50122  1  0  0  0
 50123  1  0  0  0
 51 52  1  0  0  0
 51124  1  0  0  0
 51125  1  0  0  0
 52126  1  0  0  0
 52127  1  0  0  0
 53 54  1  0  0  0
 54 55  2  0  0  0
 54128  1  0  0  0
 55 57  1  0  0  0
 55129  1  0  0  0
 56 69  2  0  0  0
 57 58  2  0  0  0
 57130  1  0  0  0
 58131  1  0  0  0
 59 60  1  0  0  0
 59 61  1  0  0  0
 59 62  1  0  0  0
 60132  1  0  0  0
 60133  1  0  0  0
 60134  1  0  0  0
 61135  1  0  0  0
 61136  1  0  0  0
 61137  1  0  0  0
 62138  1  0  0  0
 62139  1  0  0  0
 62140  1  0  0  0
 63 65  1  0  0  0
 63141  1  0  0  0
 63142  1  0  0  0
 63143  1  0  0  0
 64144  1  0  0  0
 65145  1  0  0  0
 68 82  1  0  0  0
 71 74  2  0  0  0
 71 75  1  0  0  0
 71146  1  0  0  0
 72 74  1  0  0  0
 72 76  2  0  0  0
 72147  1  0  0  0
 73 75  2  0  0  0
 73 76  1  0  0  0
 73148  1  0  0  0
 74 77  1  0  0  0
 75 84  1  0  0  0
 76 85  1  0  0  0
 77 83  1  0  0  0
 77 86  2  0  0  0
 78 79  1  0  0  0
 78 80  1  0  0  0
 78149  1  0  0  0
 78150  1  0  0  0
 79 81  1  0  0  0
 79151  1  0  0  0
 79152  1  0  0  0
 80 83  1  0  0  0
 80153  1  0  0  0
 80154  1  0  0  0
 81 82  1  0  0  0
 81 83  1  0  0  0
 81155  1  0  0  0
 82156  1  0  0  0
 82157  1  0  0  0
 84158  1  0  0  0
 84159  1  0  0  0
 85160  1  0  0  0
 86161  1  0  0  0
 86162  1  0  0  0
M  CHG  1  86   1
M  ISO  4   1 100  68 101  82 101  85 100
M  END
> <chiral flag>
0

> <version>
0

> <s_m_source_file>
/data/baiqing/PycharmProjects/Reinvent-master-3.2/result/LINK_invent/BTK/process_docking_weight1_custom_product_contain_oxygen_bond_distance_aromatic_linkinvent_7_9_3/rearranged_h_0151.sdf

> <i_m_source_file_index>
48

> <r_mmod_Potential_Energy-OPLS-2005>
94.3344345092773

> <r_mmod_Stretch_Energy-OPLS-2005>
136.25178527832

> <r_mmod_Bend_Energy-OPLS-2005>
229.474822998047

> <r_mmod_Torsional_Energy-OPLS-2005>
295.032409667969

> <r_mmod_Improper_Torsional_Energy-OPLS-2005>
9.65689086914062

> <r_mmod_Van_der_Waal_Energy-OPLS-2005>
144.053482055664

> <r_mmod_Electrostatic_Energy-OPLS-2005>
-389.770385742188

> <r_mmod_Solvation_Energy-OPLS-2005>
-414.670227050781

> <b_mmod_Minimization_Converged-OPLS-2005>
0

> <r_mmod_RMS_Derivative-OPLS-2005>
5.64206075668335

$$$$
48
                    3D
 Structure written by MMmdl.
156165  0  0  1  0            999 V2000
  -30.5336  -14.7812   20.4886 C   0  0  0  0  0  0
  -30.4607  -12.4830   19.4659 C   0  0  0  0  0  0
  -29.5211  -12.5304   18.2364 C   0  0  0  0  0  0
  -28.0462  -12.3396   18.6479 C   0  0  0  0  0  0
  -27.6524  -13.2193   19.8629 C   0  0  2  0  0  0
  -28.6994  -13.0992   20.9935 C   0  0  0  0  0  0
  -25.2551  -13.8149   20.5668 C   0  0  0  0  0  0
  -24.1826  -13.0419   20.9188 C   0  0  0  0  0  0
  -24.6403  -11.6893   20.8738 C   0  0  0  0  0  0
  -23.9068  -10.4281   21.0406 C   0  0  0  0  0  0
  -24.3616   -9.4198   21.9186 C   0  0  0  0  0  0
  -23.6288   -8.2237   22.0757 C   0  0  0  0  0  0
  -22.4271   -8.0277   21.3546 C   0  0  0  0  0  0
  -21.9907   -9.0252   20.4649 C   0  0  0  0  0  0
  -22.7239  -10.2128   20.3057 C   0  0  0  0  0  0
  -21.6852   -6.0732   22.5279 C   0  0  0  0  0  0
  -21.4014   -6.5637   23.8212 C   0  0  0  0  0  0
  -21.3657   -5.6791   24.9174 C   0  0  0  0  0  0
  -21.6044   -4.3054   24.7226 C   0  0  0  0  0  0
  -21.8821   -3.8145   23.4347 C   0  0  0  0  0  0
  -21.9195   -4.6961   22.3403 C   0  0  0  0  0  0
  -22.7850  -13.5221   21.1852 C   0  0  0  0  0  0
  -22.1663   -4.2147   21.0980 F   0  0  0  0  0  0
  -21.5628   -3.4537   25.7739 F   0  0  0  0  0  0
  -30.0010  -13.5068   20.4330 N   0  0  0  0  0  0
  -26.2989  -12.9338   20.3312 N   0  0  0  0  0  0
  -25.9336  -11.6493   20.5754 N   0  0  0  0  0  0
  -22.0490  -12.8222   22.0412 N   0  0  0  0  0  0
  -25.4233  -15.1863   20.4051 N   0  0  0  0  0  0
  -31.6835  -14.9961   20.0886 O   0  0  0  0  0  0
  -21.6636   -6.8874   21.4241 O   0  0  0  0  0  0
  -22.3539  -14.5530   20.6701 O   0  0  0  0  0  0
  -24.6338  -31.8523   23.1952 C   0  0  0  0  0  0
  -25.9150  -32.4739   23.8313 C   0  0  1  0  0  0
  -27.2285  -27.2405   20.1405 C   0  0  0  0  0  0
  -25.5933  -33.8541   24.2236 N   0  0  0  0  0  0
  -23.4330  -30.4724   21.5387 C   0  0  2  0  0  0
  -24.8835  -28.9114   20.1139 C   0  0  0  0  0  0
  -22.7519  -29.4585   22.4900 C   0  0  0  0  0  0
  -18.0295  -28.1389   22.8481 C   0  0  0  0  0  0
  -24.1490  -36.7277   23.2641 C   0  0  0  0  0  0
  -25.9802  -30.7591   21.3782 C   0  0  0  0  0  0
  -26.0557  -29.3780   20.7232 C   0  0  0  0  0  0
  -27.2328  -28.5575   20.7202 C   0  0  0  0  0  0
  -26.0352  -26.8466   19.4986 C   0  0  0  0  0  0
  -24.8793  -27.6542   19.4888 C   0  0  0  0  0  0
  -23.6545  -29.8012   20.1573 C   0  0  0  0  0  0
  -25.4118  -36.3059   24.0324 C   0  0  1  0  0  0
  -20.5901  -28.3703   23.1261 C   0  0  2  0  0  0
  -20.6781  -26.9416   22.5408 C   0  0  0  0  0  0
  -19.5757  -26.6382   21.5211 C   0  0  0  0  0  0
  -18.1938  -26.7930   22.1623 C   0  0  0  0  0  0
  -19.1550  -28.8863   23.2865 C   0  0  0  0  0  0
  -18.9469  -30.1462   23.8886 C   0  0  0  0  0  0
  -17.6468  -30.6588   24.0561 C   0  0  0  0  0  0
  -25.9060  -34.9431   23.5086 C   0  0  0  0  0  0
  -16.5359  -29.9084   23.6332 C   0  0  0  0  0  0
  -16.7282  -28.6503   23.0351 C   0  0  0  0  0  0
  -26.4508  -31.6574   25.0715 C   0  0  0  0  0  0
  -25.3722  -31.3735   26.1430 C   0  0  0  0  0  0
  -27.0361  -30.2986   24.6224 C   0  0  0  0  0  0
  -27.6055  -32.4323   25.7493 C   0  0  0  0  0  0
  -27.5578  -37.1794   24.8465 C   0  0  0  0  0  0
  -21.4222  -29.3043   22.3645 N   0  0  0  0  0  0
  -26.4289  -37.3762   23.9409 N   0  0  0  0  0  0
  -24.7014  -31.0466   22.0938 N   0  0  0  0  0  0
  -23.4203  -28.8133   23.3018 O   0  0  0  0  0  0
  -28.3193  -26.3325   20.1571 O   0  0  0  0  0  0
  -26.5637  -34.8914   22.4659 O   0  0  0  0  0  0
  -23.5481  -32.1352   23.7232 O   0  0  0  0  0  0
  -29.8930  -18.3928   20.4275 C   0  0  0  0  0  0
  -27.9121  -19.2078   21.3459 C   0  0  0  0  0  0
  -29.0406  -19.6007   20.6833 C   0  0  0  0  0  0
  -29.3775  -17.1481   20.8910 C   0  0  0  0  0  0
  -30.2301  -23.2608   20.2309 C   0  0  0  0  0  0
  -30.4730  -21.7211   20.0366 C   0  0  0  0  0  0
  -28.2151  -22.1361   20.5440 C   0  0  0  0  0  0
  -28.7304  -23.5436   19.9719 C   0  0  2  0  0  0
  -28.4489  -23.6012   18.4589 C   0  0  0  0  0  0
  -28.0945  -24.9093   20.6311 C   0  0  0  0  0  0
  -29.2212  -21.0313   20.3413 N   0  0  0  0  0  0
  -29.6504  -15.7599   20.9230 N   0  0  0  0  0  0
  -27.8532  -17.5000   21.6729 S   0  0  0  0  0  0
  -31.4934  -12.6552   19.1577 H   0  0  0  0  0  0
  -30.4467  -11.4931   19.9246 H   0  0  0  0  0  0
  -29.8088  -11.7679   17.5113 H   0  0  0  0  0  0
  -29.6344  -13.4898   17.7294 H   0  0  0  0  0  0
  -27.9048  -11.2868   18.8952 H   0  0  0  0  0  0
  -27.3881  -12.5443   17.8027 H   0  0  0  0  0  0
  -27.6588  -14.2498   19.5079 H   0  0  0  0  0  0
  -28.7486  -12.0733   21.3620 H   0  0  0  0  0  0
  -28.4165  -13.7037   21.8565 H   0  0  0  0  0  0
  -25.2761   -9.5672   22.4761 H   0  0  0  0  0  0
  -23.9994   -7.4628   22.7477 H   0  0  0  0  0  0
  -21.0838   -8.8773   19.8955 H   0  0  0  0  0  0
  -22.3699  -10.9667   19.6165 H   0  0  0  0  0  0
  -21.2005   -7.6145   23.9713 H   0  0  0  0  0  0
  -21.1477   -6.0521   25.9076 H   0  0  0  0  0  0
  -22.0603   -2.7607   23.2848 H   0  0  0  0  0  0
  -22.4099  -11.9880   22.4796 H   0  0  0  0  0  0
  -21.1112  -13.1256   22.2621 H   0  0  0  0  0  0
  -24.6540  -15.8378   20.5151 H   0  0  0  0  0  0
  -26.2685  -15.6279   20.0671 H   0  0  0  0  0  0
  -26.7218  -32.5386   23.1055 H   0  0  0  0  0  0
  -25.0073  -33.9671   25.0377 H   0  0  0  0  0  0
  -22.7307  -31.2949   21.3882 H   0  0  0  0  0  0
  -23.3754  -35.9607   23.3298 H   0  0  0  0  0  0
  -24.3579  -36.8907   22.2057 H   0  0  0  0  0  0
  -23.7244  -37.6475   23.6673 H   0  0  0  0  0  0
  -26.1209  -31.5176   20.6069 H   0  0  0  0  0  0
  -26.8564  -30.8104   22.0131 H   0  0  0  0  0  0
  -28.1320  -28.9127   21.2040 H   0  0  0  0  0  0
  -25.9869  -25.8848   19.0079 H   0  0  0  0  0  0
  -23.9843  -27.2925   19.0016 H   0  0  0  0  0  0
  -23.7822  -30.5750   19.3994 H   0  0  0  0  0  0
  -22.7728  -29.2351   19.8515 H   0  0  0  0  0  0
  -25.1302  -36.1901   25.0817 H   0  0  0  0  0  0
  -20.9992  -28.3285   24.1382 H   0  0  0  0  0  0
  -20.5675  -26.2315   23.3617 H   0  0  0  0  0  0
  -21.6650  -26.7433   22.1206 H   0  0  0  0  0  0
  -19.6920  -25.6290   21.1248 H   0  0  0  0  0  0
  -19.6695  -27.3187   20.6736 H   0  0  0  0  0  0
  -17.4207  -26.6674   21.4025 H   0  0  0  0  0  0
  -18.0339  -26.0074   22.9022 H   0  0  0  0  0  0
  -19.7945  -30.7280   24.2251 H   0  0  0  0  0  0
  -17.5022  -31.6266   24.5167 H   0  0  0  0  0  0
  -15.5358  -30.2982   23.7660 H   0  0  0  0  0  0
  -15.8683  -28.0819   22.7069 H   0  0  0  0  0  0
  -24.5903  -30.7076   25.7758 H   0  0  0  0  0  0
  -24.8906  -32.2907   26.4829 H   0  0  0  0  0  0
  -25.8032  -30.8931   27.0223 H   0  0  0  0  0  0
  -26.2952  -29.6723   24.1240 H   0  0  0  0  0  0
  -27.4021  -29.7262   25.4758 H   0  0  0  0  0  0
  -27.8839  -30.4248   23.9487 H   0  0  0  0  0  0
  -27.2656  -33.3632   26.2046 H   0  0  0  0  0  0
  -28.3878  -32.6870   25.0330 H   0  0  0  0  0  0
  -28.0709  -31.8465   26.5429 H   0  0  0  0  0  0
  -28.2594  -38.0092   24.7509 H   0  0  0  0  0  0
  -28.1075  -36.2622   24.6294 H   0  0  0  0  0  0
  -27.2296  -37.1448   25.8869 H   0  0  0  0  0  0
  -20.9416  -29.8757   21.6837 H   0  0  0  0  0  0
  -26.0165  -38.2835   24.1407 H   0  0  0  0  0  0
  -30.8327  -18.4843   19.9020 H   0  0  0  0  0  0
  -27.0885  -19.8220   21.6838 H   0  0  0  0  0  0
  -30.8863  -23.8626   19.6007 H   0  0  0  0  0  0
  -30.4654  -23.5229   21.2635 H   0  0  0  0  0  0
  -31.2869  -21.3651   20.6702 H   0  0  0  0  0  0
  -30.7469  -21.5077   19.0023 H   0  0  0  0  0  0
  -27.2573  -21.8657   20.0965 H   0  0  0  0  0  0
  -28.0370  -22.2311   21.6166 H   0  0  0  0  0  0
  -28.8202  -22.7183   17.9379 H   0  0  0  0  0  0
  -28.9193  -24.4744   18.0057 H   0  0  0  0  0  0
  -27.3783  -23.6680   18.2631 H   0  0  0  0  0  0
  -28.3929  -24.9157   21.6797 H   0  0  0  0  0  0
  -27.0202  -24.7350   20.6817 H   0  0  0  0  0  0
  -28.8592  -15.2689   21.3118 H   0  0  0  0  0  0
  1 25  1  0  0  0
  1 30  2  0  0  0
  1 82  1  0  0  0
  2  3  1  0  0  0
  2 25  1  0  0  0
  2 84  1  0  0  0
  2 85  1  0  0  0
  3  4  1  0  0  0
  3 86  1  0  0  0
  3 87  1  0  0  0
  4  5  1  0  0  0
  4 88  1  0  0  0
  4 89  1  0  0  0
  5  6  1  0  0  0
  5 26  1  0  0  0
  5 90  1  0  0  0
  6 25  1  0  0  0
  6 91  1  0  0  0
  6 92  1  0  0  0
  7  8  2  0  0  0
  7 26  1  0  0  0
  7 29  1  0  0  0
  8  9  1  0  0  0
  8 22  1  0  0  0
  9 10  1  0  0  0
  9 27  2  0  0  0
 10 11  2  0  0  0
 10 15  1  0  0  0
 11 12  1  0  0  0
 11 93  1  0  0  0
 12 13  2  0  0  0
 12 94  1  0  0  0
 13 14  1  0  0  0
 13 31  1  0  0  0
 14 15  2  0  0  0
 14 95  1  0  0  0
 15 96  1  0  0  0
 16 17  2  0  0  0
 16 21  1  0  0  0
 16 31  1  0  0  0
 17 18  1  0  0  0
 17 97  1  0  0  0
 18 19  2  0  0  0
 18 98  1  0  0  0
 19 20  1  0  0  0
 19 24  1  0  0  0
 20 21  2  0  0  0
 20 99  1  0  0  0
 21 23  1  0  0  0
 22 28  1  0  0  0
 22 32  2  0  0  0
 26 27  1  0  0  0
 28100  1  0  0  0
 28101  1  0  0  0
 29102  1  0  0  0
 29103  1  0  0  0
 33 34  1  0  0  0
 33 66  1  0  0  0
 33 70  2  0  0  0
 34 36  1  0  0  0
 34 59  1  0  0  0
 34104  1  0  0  0
 35 44  2  0  0  0
 35 45  1  0  0  0
 35 68  1  0  0  0
 36 56  1  0  0  0
 36105  1  0  0  0
 37 39  1  0  0  0
 37 47  1  0  0  0
 37 66  1  0  0  0
 37106  1  0  0  0
 38 43  2  0  0  0
 38 46  1  0  0  0
 38 47  1  0  0  0
 39 64  1  0  0  0
 39 67  2  0  0  0
 40 52  1  0  0  0
 40 53  2  0  0  0
 40 58  1  0  0  0
 41107  1  0  0  0
 41108  1  0  0  0
 41109  1  0  0  0
 41 48  1  0  0  0
 42 43  1  0  0  0
 42 66  1  0  0  0
 42110  1  0  0  0
 42111  1  0  0  0
 43 44  1  0  0  0
 44112  1  0  0  0
 45 46  2  0  0  0
 45113  1  0  0  0
 46114  1  0  0  0
 47115  1  0  0  0
 47116  1  0  0  0
 48 56  1  0  0  0
 48 65  1  0  0  0
 48117  1  0  0  0
 49 50  1  0  0  0
 49 53  1  0  0  0
 49 64  1  0  0  0
 49118  1  0  0  0
 50 51  1  0  0  0
 50119  1  0  0  0
 50120  1  0  0  0
 51 52  1  0  0  0
 51121  1  0  0  0
 51122  1  0  0  0
 52123  1  0  0  0
 52124  1  0  0  0
 53 54  1  0  0  0
 54 55  2  0  0  0
 54125  1  0  0  0
 55 57  1  0  0  0
 55126  1  0  0  0
 56 69  2  0  0  0
 57 58  2  0  0  0
 57127  1  0  0  0
 58128  1  0  0  0
 59 60  1  0  0  0
 59 61  1  0  0  0
 59 62  1  0  0  0
 60129  1  0  0  0
 60130  1  0  0  0
 60131  1  0  0  0
 61132  1  0  0  0
 61133  1  0  0  0
 61134  1  0  0  0
 62135  1  0  0  0
 62136  1  0  0  0
 62137  1  0  0  0
 63 65  1  0  0  0
 63138  1  0  0  0
 63139  1  0  0  0
 63140  1  0  0  0
 64141  1  0  0  0
 65142  1  0  0  0
 68 80  1  0  0  0
 71 73  1  0  0  0
 71 74  2  0  0  0
 71143  1  0  0  0
 72 73  2  0  0  0
 72 83  1  0  0  0
 72144  1  0  0  0
 73 81  1  0  0  0
 74 82  1  0  0  0
 74 83  1  0  0  0
 75 76  1  0  0  0
 75 78  1  0  0  0
 75145  1  0  0  0
 75146  1  0  0  0
 76 81  1  0  0  0
 76147  1  0  0  0
 76148  1  0  0  0
 77 78  1  0  0  0
 77 81  1  0  0  0
 77149  1  0  0  0
 77150  1  0  0  0
 78 79  1  0  0  0
 78 80  1  0  0  0
 79151  1  0  0  0
 79152  1  0  0  0
 79153  1  0  0  0
 80154  1  0  0  0
 80155  1  0  0  0
 82156  1  0  0  0
M  ISO  4   1 100  68 101  80 101  82 100
M  END
> <chiral flag>
0

> <version>
0

> <s_m_source_file>
/data/baiqing/PycharmProjects/Reinvent-master-3.2/result/LINK_invent/BTK/process_docking_weight1_custom_product_contain_oxygen_bond_distance_aromatic_linkinvent_7_9_3/rearranged_h_0151.sdf

> <i_m_source_file_index>
49

> <r_mmod_Potential_Energy-OPLS-2005>
315.3544921875

> <r_mmod_Stretch_Energy-OPLS-2005>
134.515029907227

> <r_mmod_Bend_Energy-OPLS-2005>
280.061859130859

> <r_mmod_Torsional_Energy-OPLS-2005>
301.379669189453

> <r_mmod_Improper_Torsional_Energy-OPLS-2005>
3.58579635620117

> <r_mmod_Van_der_Waal_Energy-OPLS-2005>
107.766014099121

> <r_mmod_Electrostatic_Energy-OPLS-2005>
-388.615417480469

> <r_mmod_Solvation_Energy-OPLS-2005>
-224.080444335938

> <b_mmod_Minimization_Converged-OPLS-2005>
0

> <r_mmod_RMS_Derivative-OPLS-2005>
0.285451382398605

$$$$
49
                    3D
 Structure written by MMmdl.
149157  0  0  1  0            999 V2000
  -30.5950  -14.7662   20.4727 C   0  0  0  0  0  0
  -30.4346  -12.4691   19.4799 C   0  0  0  0  0  0
  -29.5111  -12.4839   18.2390 C   0  0  0  0  0  0
  -28.0395  -12.2974   18.6585 C   0  0  0  0  0  0
  -27.6330  -13.2213   19.8363 C   0  0  2  0  0  0
  -28.6726  -13.1775   20.9767 C   0  0  0  0  0  0
  -25.2488  -13.8154   20.5637 C   0  0  0  0  0  0
  -24.1789  -13.0428   20.9205 C   0  0  0  0  0  0
  -24.6354  -11.6908   20.8756 C   0  0  0  0  0  0
  -23.9012  -10.4307   21.0404 C   0  0  0  0  0  0
  -24.3572   -9.4221   21.9183 C   0  0  0  0  0  0
  -23.6268   -8.2251   22.0747 C   0  0  0  0  0  0
  -22.4257   -8.0286   21.3532 C   0  0  0  0  0  0
  -21.9869   -9.0244   20.4634 C   0  0  0  0  0  0
  -22.7173  -10.2148   20.3057 C   0  0  0  0  0  0
  -21.6856   -6.0723   22.5266 C   0  0  0  0  0  0
  -21.4023   -6.5628   23.8202 C   0  0  0  0  0  0
  -21.3662   -5.6785   24.9161 C   0  0  0  0  0  0
  -21.6032   -4.3039   24.7201 C   0  0  0  0  0  0
  -21.8814   -3.8130   23.4326 C   0  0  0  0  0  0
  -21.9202   -4.6957   22.3386 C   0  0  0  0  0  0
  -22.7822  -13.5222   21.1832 C   0  0  0  0  0  0
  -22.1656   -4.2146   21.0965 F   0  0  0  0  0  0
  -21.5630   -3.4525   25.7710 F   0  0  0  0  0  0
  -29.9700  -13.5378   20.3958 N   0  0  0  0  0  0
  -26.2876  -12.9337   20.3157 N   0  0  0  0  0  0
  -25.9273  -11.6511   20.5726 N   0  0  0  0  0  0
  -22.0461  -12.8248   22.0392 N   0  0  0  0  0  0
  -25.4125  -15.1860   20.3952 N   0  0  0  0  0  0
  -31.7969  -14.8663   20.1866 O   0  0  0  0  0  0
  -21.6636   -6.8870   21.4226 O   0  0  0  0  0  0
  -22.3524  -14.5529   20.6693 O   0  0  0  0  0  0
  -24.6316  -31.8539   23.1936 C   0  0  0  0  0  0
  -25.9139  -32.4735   23.8289 C   0  0  1  0  0  0
  -27.2270  -27.2611   20.1539 C   0  0  0  0  0  0
  -25.5950  -33.8534   24.2228 N   0  0  0  0  0  0
  -23.4270  -30.4753   21.5348 C   0  0  2  0  0  0
  -24.8795  -28.9130   20.1106 C   0  0  0  0  0  0
  -22.7489  -29.4608   22.4886 C   0  0  0  0  0  0
  -18.0264  -28.1375   22.8454 C   0  0  0  0  0  0
  -24.1486  -36.7290   23.2627 C   0  0  0  0  0  0
  -25.9695  -30.7728   21.3660 C   0  0  0  0  0  0
  -26.0481  -29.3897   20.7194 C   0  0  0  0  0  0
  -27.2272  -28.5782   20.7243 C   0  0  0  0  0  0
  -26.0417  -26.8443   19.5185 C   0  0  0  0  0  0
  -24.8830  -27.6496   19.4928 C   0  0  0  0  0  0
  -23.6470  -29.7993   20.1529 C   0  0  0  0  0  0
  -25.4103  -36.3049   24.0302 C   0  0  1  0  0  0
  -20.5884  -28.3690   23.1241 C   0  0  2  0  0  0
  -20.6769  -26.9442   22.5305 C   0  0  0  0  0  0
  -19.5768  -26.6483   21.5082 C   0  0  0  0  0  0
  -18.1931  -26.7954   22.1509 C   0  0  0  0  0  0
  -19.1536  -28.8816   23.2877 C   0  0  0  0  0  0
  -18.9465  -30.1402   23.8923 C   0  0  0  0  0  0
  -17.6473  -30.6551   24.0568 C   0  0  0  0  0  0
  -25.9039  -34.9424   23.5061 C   0  0  0  0  0  0
  -16.5351  -29.9057   23.6343 C   0  0  0  0  0  0
  -16.7265  -28.6500   23.0325 C   0  0  0  0  0  0
  -26.4507  -31.6547   25.0666 C   0  0  0  0  0  0
  -25.3749  -31.3761   26.1416 C   0  0  0  0  0  0
  -27.0330  -30.2950   24.6150 C   0  0  0  0  0  0
  -27.6051  -32.4298   25.7470 C   0  0  0  0  0  0
  -27.5563  -37.1795   24.8451 C   0  0  0  0  0  0
  -21.4184  -29.3083   22.3672 N   0  0  0  0  0  0
  -26.4265  -37.3752   23.9392 N   0  0  0  0  0  0
  -24.6949  -31.0512   22.0906 N   0  0  0  0  0  0
  -23.4182  -28.8125   23.2988 O   0  0  0  0  0  0
  -28.3404  -26.3966   20.1437 O   0  0  0  0  0  0
  -26.5625  -34.8908   22.4634 O   0  0  0  0  0  0
  -23.5467  -32.1361   23.7244 O   0  0  0  0  0  0
  -27.8864  -18.6047   20.3803 C   0  0  0  0  0  0
  -29.2460  -18.6067   20.5687 C   0  0  0  0  0  0
  -28.8298  -20.9534   20.5089 C   0  0  0  0  0  0
  -30.1700  -17.3700   20.5705 C   0  0  0  0  0  0
  -28.3828  -23.6366   19.9513 C   0  0  0  0  0  0
  -28.2767  -25.0333   20.7793 C   0  0  0  0  0  0
  -29.7677  -19.9588   20.6560 N   0  0  0  0  0  0
  -29.0158  -22.3915   20.5681 N   0  0  0  0  0  0
  -29.7716  -16.0227   20.6265 N   0  0  0  0  0  0
  -31.4692  -17.6925   20.4873 N   0  3  0  0  0  0
  -27.2296  -20.2406   20.2595 S   0  0  0  0  0  0
  -31.4756  -12.5998   19.1823 H   0  0  0  0  0  0
  -30.3901  -11.4995   19.9789 H   0  0  0  0  0  0
  -29.8020  -11.6925   17.5448 H   0  0  0  0  0  0
  -29.6229  -13.4242   17.6967 H   0  0  0  0  0  0
  -27.9259  -11.2551   18.9633 H   0  0  0  0  0  0
  -27.3762  -12.4424   17.8053 H   0  0  0  0  0  0
  -27.6203  -14.2320   19.4273 H   0  0  0  0  0  0
  -28.7170  -12.1815   21.4212 H   0  0  0  0  0  0
  -28.3931  -13.8573   21.7832 H   0  0  0  0  0  0
  -25.2711   -9.5714   22.4766 H   0  0  0  0  0  0
  -23.9995   -7.4629   22.7456 H   0  0  0  0  0  0
  -21.0804   -8.8723   19.8920 H   0  0  0  0  0  0
  -22.3584  -10.9691   19.6192 H   0  0  0  0  0  0
  -21.2013   -7.6141   23.9692 H   0  0  0  0  0  0
  -21.1484   -6.0519   25.9067 H   0  0  0  0  0  0
  -22.0592   -2.7600   23.2810 H   0  0  0  0  0  0
  -22.4105  -11.9923   22.4782 H   0  0  0  0  0  0
  -21.1096  -13.1331   22.2598 H   0  0  0  0  0  0
  -24.5695  -15.7500   20.3747 H   0  0  0  0  0  0
  -26.1192  -15.5337   19.7638 H   0  0  0  0  0  0
  -26.7206  -32.5390   23.1035 H   0  0  0  0  0  0
  -25.0076  -33.9648   25.0363 H   0  0  0  0  0  0
  -22.7243  -31.2971   21.3822 H   0  0  0  0  0  0
  -23.3712  -35.9663   23.3276 H   0  0  0  0  0  0
  -24.3589  -36.8937   22.2050 H   0  0  0  0  0  0
  -23.7287  -37.6501   23.6671 H   0  0  0  0  0  0
  -26.0901  -31.5277   20.5889 H   0  0  0  0  0  0
  -26.8524  -30.8382   21.9916 H   0  0  0  0  0  0
  -28.1245  -28.9453   21.2007 H   0  0  0  0  0  0
  -26.0130  -25.8753   19.0379 H   0  0  0  0  0  0
  -23.9954  -27.2858   18.9922 H   0  0  0  0  0  0
  -23.7675  -30.5686   19.3908 H   0  0  0  0  0  0
  -22.7694  -29.2262   19.8492 H   0  0  0  0  0  0
  -25.1289  -36.1866   25.0795 H   0  0  0  0  0  0
  -20.9984  -28.3214   24.1359 H   0  0  0  0  0  0
  -20.5693  -26.2273   23.3461 H   0  0  0  0  0  0
  -21.6633  -26.7498   22.1069 H   0  0  0  0  0  0
  -19.6947  -25.6454   21.0981 H   0  0  0  0  0  0
  -19.6712  -27.3405   20.6709 H   0  0  0  0  0  0
  -17.4199  -26.6749   21.3879 H   0  0  0  0  0  0
  -18.0332  -26.0032   22.8836 H   0  0  0  0  0  0
  -19.7958  -30.7185   24.2294 H   0  0  0  0  0  0
  -17.5037  -31.6232   24.5163 H   0  0  0  0  0  0
  -15.5353  -30.2959   23.7640 H   0  0  0  0  0  0
  -15.8661  -28.0835   22.6991 H   0  0  0  0  0  0
  -24.5907  -30.7094   25.7791 H   0  0  0  0  0  0
  -24.8953  -32.2966   26.4769 H   0  0  0  0  0  0
  -25.8088  -30.9017   27.0226 H   0  0  0  0  0  0
  -26.2892  -29.6721   24.1169 H   0  0  0  0  0  0
  -27.3972  -29.7201   25.4666 H   0  0  0  0  0  0
  -27.8785  -30.4169   23.9389 H   0  0  0  0  0  0
  -27.2613  -33.3578   26.2058 H   0  0  0  0  0  0
  -28.3890  -32.6895   25.0343 H   0  0  0  0  0  0
  -28.0690  -31.8418   26.5411 H   0  0  0  0  0  0
  -28.2567  -38.0100   24.7475 H   0  0  0  0  0  0
  -28.1068  -36.2621   24.6282 H   0  0  0  0  0  0
  -27.2286  -37.1465   25.8859 H   0  0  0  0  0  0
  -20.9366  -29.8885   21.6950 H   0  0  0  0  0  0
  -26.0128  -38.2807   24.1428 H   0  0  0  0  0  0
  -27.2162  -17.7654   20.2762 H   0  0  0  0  0  0
  -27.3830  -23.3715   19.6077 H   0  0  0  0  0  0
  -28.9489  -23.8403   19.0420 H   0  0  0  0  0  0
  -29.1044  -25.0420   21.4878 H   0  0  0  0  0  0
  -27.3853  -24.9843   21.4081 H   0  0  0  0  0  0
  -29.8991  -22.6238   21.0125 H   0  0  0  0  0  0
  -28.7810  -15.9485   20.7557 H   0  0  0  0  0  0
  -31.7032  -18.6757   20.4767 H   0  0  0  0  0  0
  -32.1976  -16.9927   20.4323 H   0  0  0  0  0  0
  1 25  1  0  0  0
  1 30  2  0  0  0
  1 79  1  0  0  0
  2  3  1  0  0  0
  2 25  1  0  0  0
  2 82  1  0  0  0
  2 83  1  0  0  0
  3  4  1  0  0  0
  3 84  1  0  0  0
  3 85  1  0  0  0
  4  5  1  0  0  0
  4 86  1  0  0  0
  4 87  1  0  0  0
  5  6  1  0  0  0
  5 26  1  0  0  0
  5 88  1  0  0  0
  6 25  1  0  0  0
  6 89  1  0  0  0
  6 90  1  0  0  0
  7  8  2  0  0  0
  7 26  1  0  0  0
  7 29  1  0  0  0
  8  9  1  0  0  0
  8 22  1  0  0  0
  9 10  1  0  0  0
  9 27  2  0  0  0
 10 11  2  0  0  0
 10 15  1  0  0  0
 11 12  1  0  0  0
 11 91  1  0  0  0
 12 13  2  0  0  0
 12 92  1  0  0  0
 13 14  1  0  0  0
 13 31  1  0  0  0
 14 15  2  0  0  0
 14 93  1  0  0  0
 15 94  1  0  0  0
 16 17  2  0  0  0
 16 21  1  0  0  0
 16 31  1  0  0  0
 17 18  1  0  0  0
 17 95  1  0  0  0
 18 19  2  0  0  0
 18 96  1  0  0  0
 19 20  1  0  0  0
 19 24  1  0  0  0
 20 21  2  0  0  0
 20 97  1  0  0  0
 21 23  1  0  0  0
 22 28  1  0  0  0
 22 32  2  0  0  0
 26 27  1  0  0  0
 28 98  1  0  0  0
 28 99  1  0  0  0
 29100  1  0  0  0
 29101  1  0  0  0
 33 34  1  0  0  0
 33 66  1  0  0  0
 33 70  2  0  0  0
 34 36  1  0  0  0
 34 59  1  0  0  0
 34102  1  0  0  0
 35 44  2  0  0  0
 35 45  1  0  0  0
 35 68  1  0  0  0
 36 56  1  0  0  0
 36103  1  0  0  0
 37 39  1  0  0  0
 37 47  1  0  0  0
 37 66  1  0  0  0
 37104  1  0  0  0
 38 43  2  0  0  0
 38 46  1  0  0  0
 38 47  1  0  0  0
 39 64  1  0  0  0
 39 67  2  0  0  0
 40 52  1  0  0  0
 40 53  2  0  0  0
 40 58  1  0  0  0
 41105  1  0  0  0
 41106  1  0  0  0
 41107  1  0  0  0
 41 48  1  0  0  0
 42 43  1  0  0  0
 42 66  1  0  0  0
 42108  1  0  0  0
 42109  1  0  0  0
 43 44  1  0  0  0
 44110  1  0  0  0
 45 46  2  0  0  0
 45111  1  0  0  0
 46112  1  0  0  0
 47113  1  0  0  0
 47114  1  0  0  0
 48 56  1  0  0  0
 48 65  1  0  0  0
 48115  1  0  0  0
 49 50  1  0  0  0
 49 53  1  0  0  0
 49 64  1  0  0  0
 49116  1  0  0  0
 50 51  1  0  0  0
 50117  1  0  0  0
 50118  1  0  0  0
 51 52  1  0  0  0
 51119  1  0  0  0
 51120  1  0  0  0
 52121  1  0  0  0
 52122  1  0  0  0
 53 54  1  0  0  0
 54 55  2  0  0  0
 54123  1  0  0  0
 55 57  1  0  0  0
 55124  1  0  0  0
 56 69  2  0  0  0
 57 58  2  0  0  0
 57125  1  0  0  0
 58126  1  0  0  0
 59 60  1  0  0  0
 59 61  1  0  0  0
 59 62  1  0  0  0
 60127  1  0  0  0
 60128  1  0  0  0
 60129  1  0  0  0
 61130  1  0  0  0
 61131  1  0  0  0
 61132  1  0  0  0
 62133  1  0  0  0
 62134  1  0  0  0
 62135  1  0  0  0
 63 65  1  0  0  0
 63136  1  0  0  0
 63137  1  0  0  0
 63138  1  0  0  0
 64139  1  0  0  0
 65140  1  0  0  0
 68 76  1  0  0  0
 71 72  2  0  0  0
 71 81  1  0  0  0
 71141  1  0  0  0
 72 74  1  0  0  0
 72 77  1  0  0  0
 73 77  2  0  0  0
 73 78  1  0  0  0
 73 81  1  0  0  0
 74 79  1  0  0  0
 74 80  2  0  0  0
 75 76  1  0  0  0
 75 78  1  0  0  0
 75142  1  0  0  0
 75143  1  0  0  0
 76144  1  0  0  0
 76145  1  0  0  0
 78146  1  0  0  0
 79147  1  0  0  0
 80148  1  0  0  0
 80149  1  0  0  0
M  CHG  1  80   1
M  ISO  4   1 100  68 101  76 101  79 100
M  END
> <chiral flag>
0

> <version>
0

> <s_m_source_file>
/data/baiqing/PycharmProjects/Reinvent-master-3.2/result/LINK_invent/BTK/process_docking_weight1_custom_product_contain_oxygen_bond_distance_aromatic_linkinvent_7_9_3/rearranged_h_0151.sdf

> <i_m_source_file_index>
50

> <r_mmod_Potential_Energy-OPLS-2005>
-173.362319946289

> <r_mmod_Stretch_Energy-OPLS-2005>
124.672637939453

> <r_mmod_Bend_Energy-OPLS-2005>
171.745712280273

> <r_mmod_Torsional_Energy-OPLS-2005>
230.146835327148

> <r_mmod_Improper_Torsional_Energy-OPLS-2005>
9.73988819122314

> <r_mmod_Van_der_Waal_Energy-OPLS-2005>
117.531623840332

> <r_mmod_Electrostatic_Energy-OPLS-2005>
-443.285034179688

> <r_mmod_Solvation_Energy-OPLS-2005>
-473.279602050781

> <b_mmod_Minimization_Converged-OPLS-2005>
0

> <r_mmod_RMS_Derivative-OPLS-2005>
3.863929271698

$$$$
50
                    3D
 Structure written by MMmdl.
153162  0  0  1  0            999 V2000
  -30.6115  -14.7226   20.4647 C   0  0  0  0  0  0
  -30.4333  -12.4434   19.4643 C   0  0  0  0  0  0
  -29.5071  -12.5011   18.2300 C   0  0  0  0  0  0
  -28.0319  -12.3309   18.6450 C   0  0  0  0  0  0
  -27.6416  -13.2271   19.8506 C   0  0  2  0  0  0
  -28.6867  -13.1482   20.9839 C   0  0  0  0  0  0
  -25.2507  -13.8195   20.5686 C   0  0  0  0  0  0
  -24.1798  -13.0445   20.9207 C   0  0  0  0  0  0
  -24.6381  -11.6920   20.8751 C   0  0  0  0  0  0
  -23.9057  -10.4295   21.0407 C   0  0  0  0  0  0
  -24.3609   -9.4211   21.9184 C   0  0  0  0  0  0
  -23.6289   -8.2244   22.0756 C   0  0  0  0  0  0
  -22.4273   -8.0277   21.3548 C   0  0  0  0  0  0
  -21.9903   -9.0249   20.4652 C   0  0  0  0  0  0
  -22.7227  -10.2130   20.3060 C   0  0  0  0  0  0
  -21.6852   -6.0730   22.5275 C   0  0  0  0  0  0
  -21.4016   -6.5635   23.8207 C   0  0  0  0  0  0
  -21.3660   -5.6790   24.9171 C   0  0  0  0  0  0
  -21.6041   -4.3051   24.7224 C   0  0  0  0  0  0
  -21.8819   -3.8141   23.4347 C   0  0  0  0  0  0
  -21.9195   -4.6959   22.3403 C   0  0  0  0  0  0
  -22.7820  -13.5228   21.1865 C   0  0  0  0  0  0
  -22.1663   -4.2143   21.0981 F   0  0  0  0  0  0
  -21.5631   -3.4535   25.7737 F   0  0  0  0  0  0
  -29.9868  -13.4995   20.3998 N   0  0  0  0  0  0
  -26.2930  -12.9392   20.3278 N   0  0  0  0  0  0
  -25.9309  -11.6540   20.5753 N   0  0  0  0  0  0
  -22.0464  -12.8220   22.0419 N   0  0  0  0  0  0
  -25.4185  -15.1919   20.4075 N   0  0  0  0  0  0
  -31.8038  -14.8228   20.1605 O   0  0  0  0  0  0
  -21.6640   -6.8872   21.4237 O   0  0  0  0  0  0
  -22.3506  -14.5527   20.6693 O   0  0  0  0  0  0
  -24.6290  -31.8549   23.1970 C   0  0  0  0  0  0
  -25.9120  -32.4748   23.8313 C   0  0  1  0  0  0
  -27.2310  -27.2765   20.1164 C   0  0  0  0  0  0
  -25.5920  -33.8547   24.2238 N   0  0  0  0  0  0
  -23.4249  -30.4753   21.5400 C   0  0  2  0  0  0
  -24.8713  -28.9184   20.1103 C   0  0  0  0  0  0
  -22.7488  -29.4585   22.4908 C   0  0  0  0  0  0
  -18.0287  -28.1378   22.8480 C   0  0  0  0  0  0
  -24.1488  -36.7277   23.2641 C   0  0  0  0  0  0
  -25.9678  -30.7725   21.3727 C   0  0  0  0  0  0
  -26.0403  -29.3958   20.7132 C   0  0  0  0  0  0
  -27.2180  -28.5866   20.7031 C   0  0  0  0  0  0
  -26.0274  -26.8453   19.5201 C   0  0  0  0  0  0
  -24.8682  -27.6497   19.5062 C   0  0  0  0  0  0
  -23.6423  -29.8062   20.1566 C   0  0  0  0  0  0
  -25.4116  -36.3064   24.0323 C   0  0  1  0  0  0
  -20.5889  -28.3676   23.1277 C   0  0  2  0  0  0
  -20.6773  -26.9396   22.5413 C   0  0  0  0  0  0
  -19.5754  -26.6374   21.5205 C   0  0  0  0  0  0
  -18.1931  -26.7922   22.1619 C   0  0  0  0  0  0
  -19.1544  -28.8846   23.2871 C   0  0  0  0  0  0
  -18.9470  -30.1448   23.8884 C   0  0  0  0  0  0
  -17.6470  -30.6574   24.0561 C   0  0  0  0  0  0
  -25.9056  -34.9435   23.5085 C   0  0  0  0  0  0
  -16.5362  -29.9079   23.6327 C   0  0  0  0  0  0
  -16.7276  -28.6503   23.0338 C   0  0  0  0  0  0
  -26.4496  -31.6578   25.0705 C   0  0  0  0  0  0
  -25.3720  -31.3731   26.1432 C   0  0  0  0  0  0
  -27.0345  -30.2997   24.6187 C   0  0  0  0  0  0
  -27.6050  -32.4327   25.7471 C   0  0  0  0  0  0
  -27.5573  -37.1794   24.8467 C   0  0  0  0  0  0
  -21.4197  -29.3024   22.3666 N   0  0  0  0  0  0
  -26.4288  -37.3765   23.9413 N   0  0  0  0  0  0
  -24.6929  -31.0522   22.0936 N   0  0  0  0  0  0
  -23.4197  -28.8130   23.3005 O   0  0  0  0  0  0
  -28.3824  -26.4619   20.1821 O   0  0  0  0  0  0
  -26.5635  -34.8910   22.4659 O   0  0  0  0  0  0
  -23.5444  -32.1367   23.7274 O   0  0  0  0  0  0
  -29.0866  -20.5888   21.4125 C   0  0  0  0  0  0
  -29.3967  -19.1744   21.4049 C   0  0  0  0  0  0
  -29.4400  -18.4897   20.1417 C   0  0  0  0  0  0
  -29.0608  -21.1120   20.1190 C   0  0  0  0  0  0
  -30.0181  -18.0107   22.1264 C   0  0  0  0  0  0
  -30.2830  -17.3103   20.7060 C   0  0  1  0  0  0
  -28.2496  -25.0675   18.0750 C   0  0  0  0  0  0
  -28.3537  -23.6932   20.3243 C   0  0  0  0  0  0
  -28.6103  -25.1090   19.5721 C   0  0  2  0  0  0
  -28.8988  -22.4652   19.6247 N   0  0  0  0  0  0
  -29.8377  -15.8520   20.6722 N   0  0  0  0  0  0
  -29.5336  -19.7974   18.9519 S   0  0  0  0  0  0
  -31.4719  -12.5752   19.1580 H   0  0  0  0  0  0
  -30.3836  -11.4636   19.9423 H   0  0  0  0  0  0
  -29.7856  -11.7279   17.5122 H   0  0  0  0  0  0
  -29.6359  -13.4555   17.7169 H   0  0  0  0  0  0
  -27.8813  -11.2817   18.9014 H   0  0  0  0  0  0
  -27.3756  -12.5339   17.7979 H   0  0  0  0  0  0
  -27.6392  -14.2505   19.4752 H   0  0  0  0  0  0
  -28.7213  -12.1457   21.4129 H   0  0  0  0  0  0
  -28.4252  -13.8221   21.8015 H   0  0  0  0  0  0
  -25.2753   -9.5686   22.4759 H   0  0  0  0  0  0
  -23.9996   -7.4635   22.7476 H   0  0  0  0  0  0
  -21.0835   -8.8763   19.8957 H   0  0  0  0  0  0
  -22.3683  -10.9667   19.6169 H   0  0  0  0  0  0
  -21.2009   -7.6143   23.9709 H   0  0  0  0  0  0
  -21.1482   -6.0521   25.9074 H   0  0  0  0  0  0
  -22.0600   -2.7602   23.2846 H   0  0  0  0  0  0
  -22.4083  -11.9884   22.4814 H   0  0  0  0  0  0
  -21.1083  -13.1247   22.2632 H   0  0  0  0  0  0
  -24.6425  -15.8378   20.5045 H   0  0  0  0  0  0
  -26.2522  -15.6307   20.0381 H   0  0  0  0  0  0
  -26.7181  -32.5398   23.1049 H   0  0  0  0  0  0
  -25.0057  -33.9690   25.0377 H   0  0  0  0  0  0
  -22.7201  -31.2962   21.3922 H   0  0  0  0  0  0
  -23.3750  -35.9607   23.3305 H   0  0  0  0  0  0
  -24.3576  -36.8906   22.2056 H   0  0  0  0  0  0
  -23.7247  -37.6477   23.6674 H   0  0  0  0  0  0
  -26.1043  -31.5345   20.6047 H   0  0  0  0  0  0
  -26.8462  -30.8214   22.0050 H   0  0  0  0  0  0
  -28.1178  -28.9522   21.1777 H   0  0  0  0  0  0
  -25.9459  -25.8605   19.0928 H   0  0  0  0  0  0
  -23.9664  -27.2696   19.0467 H   0  0  0  0  0  0
  -23.7685  -30.5832   19.4014 H   0  0  0  0  0  0
  -22.7601  -29.2408   19.8500 H   0  0  0  0  0  0
  -25.1298  -36.1905   25.0816 H   0  0  0  0  0  0
  -20.9977  -28.3259   24.1400 H   0  0  0  0  0  0
  -20.5661  -26.2287   23.3615 H   0  0  0  0  0  0
  -21.6640  -26.7411   22.1216 H   0  0  0  0  0  0
  -19.6909  -25.6283   21.1238 H   0  0  0  0  0  0
  -19.6697  -27.3179   20.6730 H   0  0  0  0  0  0
  -17.4200  -26.6661   21.4022 H   0  0  0  0  0  0
  -18.0335  -26.0060   22.9015 H   0  0  0  0  0  0
  -19.7950  -30.7258   24.2251 H   0  0  0  0  0  0
  -17.5031  -31.6255   24.5160 H   0  0  0  0  0  0
  -15.5364  -30.2976   23.7649 H   0  0  0  0  0  0
  -15.8682  -28.0820   22.7042 H   0  0  0  0  0  0
  -24.5899  -30.7070   25.7772 H   0  0  0  0  0  0
  -24.8901  -32.2900   26.4831 H   0  0  0  0  0  0
  -25.8040  -30.8934   27.0221 H   0  0  0  0  0  0
  -26.2922  -29.6740   24.1217 H   0  0  0  0  0  0
  -27.4037  -29.7268   25.4703 H   0  0  0  0  0  0
  -27.8793  -30.4274   23.9418 H   0  0  0  0  0  0
  -27.2661  -33.3646   26.2001 H   0  0  0  0  0  0
  -28.3877  -32.6854   25.0308 H   0  0  0  0  0  0
  -28.0693  -31.8485   26.5427 H   0  0  0  0  0  0
  -28.2587  -38.0091   24.7507 H   0  0  0  0  0  0
  -28.1071  -36.2621   24.6299 H   0  0  0  0  0  0
  -27.2295  -37.1449   25.8870 H   0  0  0  0  0  0
  -20.9373  -29.8763   21.6894 H   0  0  0  0  0  0
  -26.0161  -38.2831   24.1426 H   0  0  0  0  0  0
  -29.0309  -21.1728   22.3203 H   0  0  0  0  0  0
  -29.3059  -17.4828   22.7612 H   0  0  0  0  0  0
  -30.9293  -18.2657   22.6684 H   0  0  0  0  0  0
  -31.3260  -17.4339   20.4086 H   0  0  0  0  0  0
  -28.9231  -24.4022   17.5353 H   0  0  0  0  0  0
  -28.3401  -26.0517   17.6158 H   0  0  0  0  0  0
  -27.2428  -24.6941   17.8999 H   0  0  0  0  0  0
  -27.2808  -23.5569   20.4642 H   0  0  0  0  0  0
  -28.7855  -23.7405   21.3252 H   0  0  0  0  0  0
  -29.7010  -25.1411   19.5496 H   0  0  0  0  0  0
  -29.0372  -22.5957   18.6252 H   0  0  0  0  0  0
  -28.8593  -15.6845   20.8472 H   0  0  0  0  0  0
  1 25  1  0  0  0
  1 30  2  0  0  0
  1 81  1  0  0  0
  2  3  1  0  0  0
  2 25  1  0  0  0
  2 83  1  0  0  0
  2 84  1  0  0  0
  3  4  1  0  0  0
  3 85  1  0  0  0
  3 86  1  0  0  0
  4  5  1  0  0  0
  4 87  1  0  0  0
  4 88  1  0  0  0
  5  6  1  0  0  0
  5 26  1  0  0  0
  5 89  1  0  0  0
  6 25  1  0  0  0
  6 90  1  0  0  0
  6 91  1  0  0  0
  7  8  2  0  0  0
  7 26  1  0  0  0
  7 29  1  0  0  0
  8  9  1  0  0  0
  8 22  1  0  0  0
  9 10  1  0  0  0
  9 27  2  0  0  0
 10 11  2  0  0  0
 10 15  1  0  0  0
 11 12  1  0  0  0
 11 92  1  0  0  0
 12 13  2  0  0  0
 12 93  1  0  0  0
 13 14  1  0  0  0
 13 31  1  0  0  0
 14 15  2  0  0  0
 14 94  1  0  0  0
 15 95  1  0  0  0
 16 17  2  0  0  0
 16 21  1  0  0  0
 16 31  1  0  0  0
 17 18  1  0  0  0
 17 96  1  0  0  0
 18 19  2  0  0  0
 18 97  1  0  0  0
 19 20  1  0  0  0
 19 24  1  0  0  0
 20 21  2  0  0  0
 20 98  1  0  0  0
 21 23  1  0  0  0
 22 28  1  0  0  0
 22 32  2  0  0  0
 26 27  1  0  0  0
 28 99  1  0  0  0
 28100  1  0  0  0
 29101  1  0  0  0
 29102  1  0  0  0
 33 34  1  0  0  0
 33 66  1  0  0  0
 33 70  2  0  0  0
 34 36  1  0  0  0
 34 59  1  0  0  0
 34103  1  0  0  0
 35 44  2  0  0  0
 35 45  1  0  0  0
 35 68  1  0  0  0
 36 56  1  0  0  0
 36104  1  0  0  0
 37 39  1  0  0  0
 37 47  1  0  0  0
 37 66  1  0  0  0
 37105  1  0  0  0
 38 43  2  0  0  0
 38 46  1  0  0  0
 38 47  1  0  0  0
 39 64  1  0  0  0
 39 67  2  0  0  0
 40 52  1  0  0  0
 40 53  2  0  0  0
 40 58  1  0  0  0
 41106  1  0  0  0
 41107  1  0  0  0
 41108  1  0  0  0
 41 48  1  0  0  0
 42 43  1  0  0  0
 42 66  1  0  0  0
 42109  1  0  0  0
 42110  1  0  0  0
 43 44  1  0  0  0
 44111  1  0  0  0
 45 46  2  0  0  0
 45112  1  0  0  0
 46113  1  0  0  0
 47114  1  0  0  0
 47115  1  0  0  0
 48 56  1  0  0  0
 48 65  1  0  0  0
 48116  1  0  0  0
 49 50  1  0  0  0
 49 53  1  0  0  0
 49 64  1  0  0  0
 49117  1  0  0  0
 50 51  1  0  0  0
 50118  1  0  0  0
 50119  1  0  0  0
 51 52  1  0  0  0
 51120  1  0  0  0
 51121  1  0  0  0
 52122  1  0  0  0
 52123  1  0  0  0
 53 54  1  0  0  0
 54 55  2  0  0  0
 54124  1  0  0  0
 55 57  1  0  0  0
 55125  1  0  0  0
 56 69  2  0  0  0
 57 58  2  0  0  0
 57126  1  0  0  0
 58127  1  0  0  0
 59 60  1  0  0  0
 59 61  1  0  0  0
 59 62  1  0  0  0
 60128  1  0  0  0
 60129  1  0  0  0
 60130  1  0  0  0
 61131  1  0  0  0
 61132  1  0  0  0
 61133  1  0  0  0
 62134  1  0  0  0
 62135  1  0  0  0
 62136  1  0  0  0
 63 65  1  0  0  0
 63137  1  0  0  0
 63138  1  0  0  0
 63139  1  0  0  0
 64140  1  0  0  0
 65141  1  0  0  0
 68 79  1  0  0  0
 71 72  1  0  0  0
 71 74  2  0  0  0
 71142  1  0  0  0
 72 73  2  0  0  0
 72 75  1  0  0  0
 73 76  1  0  0  0
 73 82  1  0  0  0
 74 80  1  0  0  0
 74 82  1  0  0  0
 75 76  1  0  0  0
 75143  1  0  0  0
 75144  1  0  0  0
 76 81  1  0  0  0
 76145  1  0  0  0
 77146  1  0  0  0
 77147  1  0  0  0
 77148  1  0  0  0
 77 79  1  0  0  0
 78 79  1  0  0  0
 78 80  1  0  0  0
 78149  1  0  0  0
 78150  1  0  0  0
 79151  1  0  0  0
 80152  1  0  0  0
 81153  1  0  0  0
M  ISO  4   1 100  68 101  79 101  81 100
M  END
> <chiral flag>
0

> <version>
0

> <s_m_source_file>
/data/baiqing/PycharmProjects/Reinvent-master-3.2/result/LINK_invent/BTK/process_docking_weight1_custom_product_contain_oxygen_bond_distance_aromatic_linkinvent_7_9_3/rearranged_h_0151.sdf

> <i_m_source_file_index>
51

> <r_mmod_Potential_Energy-OPLS-2005>
538.867553710938

> <r_mmod_Stretch_Energy-OPLS-2005>
116.848388671875

> <r_mmod_Bend_Energy-OPLS-2005>
571.924011230469

> <r_mmod_Torsional_Energy-OPLS-2005>
248.399063110352

> <r_mmod_Improper_Torsional_Energy-OPLS-2005>
37.1742630004883

> <r_mmod_Van_der_Waal_Energy-OPLS-2005>
114.434509277344

> <r_mmod_Electrostatic_Energy-OPLS-2005>
-404.641662597656

> <r_mmod_Solvation_Energy-OPLS-2005>
-217.865234375

> <b_mmod_Minimization_Converged-OPLS-2005>
0

> <r_mmod_RMS_Derivative-OPLS-2005>
1.11164712905884

$$$$
51
                    3D
 Structure written by MMmdl.
156165  0  0  1  0            999 V2000
  -30.5940  -14.7581   20.4762 C   0  0  0  0  0  0
  -30.4401  -12.4603   19.4686 C   0  0  0  0  0  0
  -29.5063  -12.4896   18.2355 C   0  0  0  0  0  0
  -28.0412  -12.3044   18.6647 C   0  0  0  0  0  0
  -27.6491  -13.2215   19.8514 C   0  0  2  0  0  0
  -28.6908  -13.1551   20.9886 C   0  0  0  0  0  0
  -25.2588  -13.8200   20.5688 C   0  0  0  0  0  0
  -24.1829  -13.0460   20.9202 C   0  0  0  0  0  0
  -24.6420  -11.6944   20.8774 C   0  0  0  0  0  0
  -23.9113  -10.4300   21.0433 C   0  0  0  0  0  0
  -24.3650   -9.4207   21.9210 C   0  0  0  0  0  0
  -23.6288   -8.2253   22.0781 C   0  0  0  0  0  0
  -22.4261   -8.0316   21.3582 C   0  0  0  0  0  0
  -21.9937   -9.0294   20.4684 C   0  0  0  0  0  0
  -22.7297  -10.2151   20.3089 C   0  0  0  0  0  0
  -21.6849   -6.0751   22.5273 C   0  0  0  0  0  0
  -21.4015   -6.5644   23.8219 C   0  0  0  0  0  0
  -21.3655   -5.6794   24.9183 C   0  0  0  0  0  0
  -21.6040   -4.3049   24.7223 C   0  0  0  0  0  0
  -21.8828   -3.8149   23.4337 C   0  0  0  0  0  0
  -21.9196   -4.6976   22.3404 C   0  0  0  0  0  0
  -22.7864  -13.5282   21.1807 C   0  0  0  0  0  0
  -22.1656   -4.2159   21.0980 F   0  0  0  0  0  0
  -21.5622   -3.4543   25.7736 F   0  0  0  0  0  0
  -29.9934  -13.5173   20.4148 N   0  0  0  0  0  0
  -26.2992  -12.9375   20.3307 N   0  0  0  0  0  0
  -25.9333  -11.6532   20.5790 N   0  0  0  0  0  0
  -22.0477  -12.8301   22.0359 N   0  0  0  0  0  0
  -25.4333  -15.1907   20.4056 N   0  0  0  0  0  0
  -31.7695  -14.8787   20.1131 O   0  0  0  0  0  0
  -21.6637   -6.8882   21.4233 O   0  0  0  0  0  0
  -22.3601  -14.5585   20.6629 O   0  0  0  0  0  0
  -24.6299  -31.8565   23.1938 C   0  0  0  0  0  0
  -25.9107  -32.4773   23.8343 C   0  0  1  0  0  0
  -27.2413  -27.2708   20.1743 C   0  0  0  0  0  0
  -25.5843  -33.8587   24.2245 N   0  0  0  0  0  0
  -23.4305  -30.4787   21.5330 C   0  0  2  0  0  0
  -24.8811  -28.9051   20.1214 C   0  0  0  0  0  0
  -22.7515  -29.4699   22.4901 C   0  0  0  0  0  0
  -18.0321  -28.1352   22.8272 C   0  0  0  0  0  0
  -24.1459  -36.7290   23.2653 C   0  0  0  0  0  0
  -25.9723  -30.7793   21.3629 C   0  0  0  0  0  0
  -26.0501  -29.3943   20.7251 C   0  0  0  0  0  0
  -27.2369  -28.5947   20.7247 C   0  0  0  0  0  0
  -26.0485  -26.8288   19.5624 C   0  0  0  0  0  0
  -24.8865  -27.6325   19.5223 C   0  0  0  0  0  0
  -23.6524  -29.7989   20.1545 C   0  0  0  0  0  0
  -25.4084  -36.3133   24.0359 C   0  0  1  0  0  0
  -20.5907  -28.3718   23.1160 C   0  0  2  0  0  0
  -20.6860  -26.9509   22.5093 C   0  0  0  0  0  0
  -19.5862  -26.6597   21.4907 C   0  0  0  0  0  0
  -18.1999  -26.8010   22.1227 C   0  0  0  0  0  0
  -19.1525  -28.8835   23.2804 C   0  0  0  0  0  0
  -18.9419  -30.1333   23.9045 C   0  0  0  0  0  0
  -17.6373  -30.6374   24.0761 C   0  0  0  0  0  0
  -25.9018  -34.9469   23.5113 C   0  0  0  0  0  0
  -16.5319  -29.8938   23.6284 C   0  0  0  0  0  0
  -16.7273  -28.6448   23.0134 C   0  0  0  0  0  0
  -26.4473  -31.6622   25.0734 C   0  0  0  0  0  0
  -25.3721  -31.3721   26.1465 C   0  0  0  0  0  0
  -27.0313  -30.3064   24.6155 C   0  0  0  0  0  0
  -27.6057  -32.4362   25.7473 C   0  0  0  0  0  0
  -27.5577  -37.1800   24.8491 C   0  0  0  0  0  0
  -21.4238  -29.3080   22.3543 N   0  0  0  0  0  0
  -26.4276  -37.3813   23.9435 N   0  0  0  0  0  0
  -24.6970  -31.0565   22.0894 N   0  0  0  0  0  0
  -23.4156  -28.8311   23.3095 O   0  0  0  0  0  0
  -28.3717  -26.4286   20.1580 O   0  0  0  0  0  0
  -26.5662  -34.8962   22.4724 O   0  0  0  0  0  0
  -23.5431  -32.1372   23.7205 O   0  0  0  0  0  0
  -29.1089  -18.3088   21.0089 C   0  0  0  0  0  0
  -30.3219  -19.5556   19.5013 C   0  0  0  0  0  0
  -29.3287  -19.6650   20.4479 C   0  0  0  0  0  0
  -29.8886  -17.2359   20.5276 C   0  0  0  0  0  0
  -28.7037  -23.7895   19.9737 C   0  0  0  0  0  0
  -26.4837  -21.5907   21.2128 C   0  0  0  0  0  0
  -27.1601  -21.0029   19.9733 C   0  0  0  0  0  0
  -27.6665  -21.0284   22.0018 C   0  0  0  0  0  0
  -28.5256  -21.0380   20.7097 C   0  0  0  0  0  0
  -29.3401  -22.4411   20.5890 C   0  0  0  0  0  0
  -28.3424  -25.0891   20.8371 C   0  0  0  0  0  0
  -29.8055  -15.8530   20.8179 N   0  0  0  0  0  0
  -28.5267  -23.8311   18.7491 O   0  0  0  0  0  0
  -30.9863  -17.9273   19.3498 S   0  0  0  0  0  0
  -31.4764  -12.5969   19.1498 H   0  0  0  0  0  0
  -30.3982  -11.4797   19.9503 H   0  0  0  0  0  0
  -29.7838  -11.6985   17.5376 H   0  0  0  0  0  0
  -29.6169  -13.4279   17.6910 H   0  0  0  0  0  0
  -27.9242  -11.2584   18.9585 H   0  0  0  0  0  0
  -27.3682  -12.4535   17.8215 H   0  0  0  0  0  0
  -27.6501  -14.2406   19.4630 H   0  0  0  0  0  0
  -28.7268  -12.1590   21.4279 H   0  0  0  0  0  0
  -28.4126  -13.8264   21.8013 H   0  0  0  0  0  0
  -25.2806   -9.5646   22.4785 H   0  0  0  0  0  0
  -23.9981   -7.4656   22.7526 H   0  0  0  0  0  0
  -21.0863   -8.8867   19.8990 H   0  0  0  0  0  0
  -22.3817  -10.9703   19.6183 H   0  0  0  0  0  0
  -21.2014   -7.6160   23.9724 H   0  0  0  0  0  0
  -21.1453   -6.0526   25.9089 H   0  0  0  0  0  0
  -22.0606   -2.7610   23.2856 H   0  0  0  0  0  0
  -22.4072  -11.9944   22.4739 H   0  0  0  0  0  0
  -21.1126  -13.1370   22.2547 H   0  0  0  0  0  0
  -24.6688  -15.8518   20.5137 H   0  0  0  0  0  0
  -26.2852  -15.6213   20.0632 H   0  0  0  0  0  0
  -26.7236  -32.5491   23.1160 H   0  0  0  0  0  0
  -24.9926  -33.9718   25.0335 H   0  0  0  0  0  0
  -22.7329  -31.3026   21.3802 H   0  0  0  0  0  0
  -23.3733  -35.9615   23.3310 H   0  0  0  0  0  0
  -24.3554  -36.8874   22.2076 H   0  0  0  0  0  0
  -23.7182  -37.6465   23.6660 H   0  0  0  0  0  0
  -26.0988  -31.5286   20.5767 H   0  0  0  0  0  0
  -26.8501  -30.8484   21.9946 H   0  0  0  0  0  0
  -28.1372  -28.9715   21.1834 H   0  0  0  0  0  0
  -26.0299  -25.8442   19.1241 H   0  0  0  0  0  0
  -23.9929  -27.2544   19.0452 H   0  0  0  0  0  0
  -23.7862  -30.5614   19.3887 H   0  0  0  0  0  0
  -22.7762  -29.2316   19.8472 H   0  0  0  0  0  0
  -25.1270  -36.1984   25.0858 H   0  0  0  0  0  0
  -20.9998  -28.3326   24.1272 H   0  0  0  0  0  0
  -20.5970  -26.2218   23.3181 H   0  0  0  0  0  0
  -21.6665  -26.7663   22.0640 H   0  0  0  0  0  0
  -19.7138  -25.6568   21.0796 H   0  0  0  0  0  0
  -19.6876  -27.3492   20.6504 H   0  0  0  0  0  0
  -17.4412  -26.6899   21.3458 H   0  0  0  0  0  0
  -18.0335  -26.0013   22.8461 H   0  0  0  0  0  0
  -19.7867  -30.7127   24.2573 H   0  0  0  0  0  0
  -17.4815  -31.5980   24.5473 H   0  0  0  0  0  0
  -15.5317  -30.2815   23.7507 H   0  0  0  0  0  0
  -15.8740  -28.0819   22.6634 H   0  0  0  0  0  0
  -24.5935  -30.7021   25.7781 H   0  0  0  0  0  0
  -24.8879  -32.2865   26.4929 H   0  0  0  0  0  0
  -25.8073  -30.8912   27.0233 H   0  0  0  0  0  0
  -26.2866  -29.6809   24.1223 H   0  0  0  0  0  0
  -27.4055  -29.7346   25.4647 H   0  0  0  0  0  0
  -27.8733  -30.4332   23.9341 H   0  0  0  0  0  0
  -27.2685  -33.3658   26.2060 H   0  0  0  0  0  0
  -28.3840  -32.6887   25.0271 H   0  0  0  0  0  0
  -28.0774  -31.8498   26.5354 H   0  0  0  0  0  0
  -28.2643  -38.0058   24.7541 H   0  0  0  0  0  0
  -28.1019  -36.2597   24.6310 H   0  0  0  0  0  0
  -27.2322  -37.1483   25.8901 H   0  0  0  0  0  0
  -20.9556  -29.8500   21.6387 H   0  0  0  0  0  0
  -26.0163  -38.2895   24.1370 H   0  0  0  0  0  0
  -28.3400  -18.1513   21.7479 H   0  0  0  0  0  0
  -30.6889  -20.3353   18.8433 H   0  0  0  0  0  0
  -25.5214  -21.1424   21.4553 H   0  0  0  0  0  0
  -26.4279  -22.6804   21.2154 H   0  0  0  0  0  0
  -27.0948  -21.6115   19.0695 H   0  0  0  0  0  0
  -26.8131  -19.9866   19.7679 H   0  0  0  0  0  0
  -27.4576  -20.0369   22.4084 H   0  0  0  0  0  0
  -28.0019  -21.6903   22.8024 H   0  0  0  0  0  0
  -29.7448  -22.7008   21.5694 H   0  0  0  0  0  0
  -30.2329  -22.2670   19.9954 H   0  0  0  0  0  0
  -29.0628  -25.1364   21.6589 H   0  0  0  0  0  0
  -27.3740  -24.9379   21.3142 H   0  0  0  0  0  0
  -28.9333  -15.5694   21.2366 H   0  0  0  0  0  0
  1 25  1  0  0  0
  1 30  2  0  0  0
  1 82  1  0  0  0
  2  3  1  0  0  0
  2 25  1  0  0  0
  2 85  1  0  0  0
  2 86  1  0  0  0
  3  4  1  0  0  0
  3 87  1  0  0  0
  3 88  1  0  0  0
  4  5  1  0  0  0
  4 89  1  0  0  0
  4 90  1  0  0  0
  5  6  1  0  0  0
  5 26  1  0  0  0
  5 91  1  0  0  0
  6 25  1  0  0  0
  6 92  1  0  0  0
  6 93  1  0  0  0
  7  8  2  0  0  0
  7 26  1  0  0  0
  7 29  1  0  0  0
  8  9  1  0  0  0
  8 22  1  0  0  0
  9 10  1  0  0  0
  9 27  2  0  0  0
 10 11  2  0  0  0
 10 15  1  0  0  0
 11 12  1  0  0  0
 11 94  1  0  0  0
 12 13  2  0  0  0
 12 95  1  0  0  0
 13 14  1  0  0  0
 13 31  1  0  0  0
 14 15  2  0  0  0
 14 96  1  0  0  0
 15 97  1  0  0  0
 16 17  2  0  0  0
 16 21  1  0  0  0
 16 31  1  0  0  0
 17 18  1  0  0  0
 17 98  1  0  0  0
 18 19  2  0  0  0
 18 99  1  0  0  0
 19 20  1  0  0  0
 19 24  1  0  0  0
 20 21  2  0  0  0
 20100  1  0  0  0
 21 23  1  0  0  0
 22 28  1  0  0  0
 22 32  2  0  0  0
 26 27  1  0  0  0
 28101  1  0  0  0
 28102  1  0  0  0
 29103  1  0  0  0
 29104  1  0  0  0
 33 34  1  0  0  0
 33 66  1  0  0  0
 33 70  2  0  0  0
 34 36  1  0  0  0
 34 59  1  0  0  0
 34105  1  0  0  0
 35 44  2  0  0  0
 35 45  1  0  0  0
 35 68  1  0  0  0
 36 56  1  0  0  0
 36106  1  0  0  0
 37 39  1  0  0  0
 37 47  1  0  0  0
 37 66  1  0  0  0
 37107  1  0  0  0
 38 43  2  0  0  0
 38 46  1  0  0  0
 38 47  1  0  0  0
 39 64  1  0  0  0
 39 67  2  0  0  0
 40 52  1  0  0  0
 40 53  2  0  0  0
 40 58  1  0  0  0
 41108  1  0  0  0
 41109  1  0  0  0
 41110  1  0  0  0
 41 48  1  0  0  0
 42 43  1  0  0  0
 42 66  1  0  0  0
 42111  1  0  0  0
 42112  1  0  0  0
 43 44  1  0  0  0
 44113  1  0  0  0
 45 46  2  0  0  0
 45114  1  0  0  0
 46115  1  0  0  0
 47116  1  0  0  0
 47117  1  0  0  0
 48 56  1  0  0  0
 48 65  1  0  0  0
 48118  1  0  0  0
 49 50  1  0  0  0
 49 53  1  0  0  0
 49 64  1  0  0  0
 49119  1  0  0  0
 50 51  1  0  0  0
 50120  1  0  0  0
 50121  1  0  0  0
 51 52  1  0  0  0
 51122  1  0  0  0
 51123  1  0  0  0
 52124  1  0  0  0
 52125  1  0  0  0
 53 54  1  0  0  0
 54 55  2  0  0  0
 54126  1  0  0  0
 55 57  1  0  0  0
 55127  1  0  0  0
 56 69  2  0  0  0
 57 58  2  0  0  0
 57128  1  0  0  0
 58129  1  0  0  0
 59 60  1  0  0  0
 59 61  1  0  0  0
 59 62  1  0  0  0
 60130  1  0  0  0
 60131  1  0  0  0
 60132  1  0  0  0
 61133  1  0  0  0
 61134  1  0  0  0
 61135  1  0  0  0
 62136  1  0  0  0
 62137  1  0  0  0
 62138  1  0  0  0
 63 65  1  0  0  0
 63139  1  0  0  0
 63140  1  0  0  0
 63141  1  0  0  0
 64142  1  0  0  0
 65143  1  0  0  0
 68 81  1  0  0  0
 71 73  1  0  0  0
 71 74  2  0  0  0
 71144  1  0  0  0
 72 73  2  0  0  0
 72 84  1  0  0  0
 72145  1  0  0  0
 73 79  1  0  0  0
 74 82  1  0  0  0
 74 84  1  0  0  0
 75 80  1  0  0  0
 75 81  1  0  0  0
 75 83  2  0  0  0
 76 77  1  0  0  0
 76 78  1  0  0  0
 76146  1  0  0  0
 76147  1  0  0  0
 77 79  1  0  0  0
 77148  1  0  0  0
 77149  1  0  0  0
 78 79  1  0  0  0
 78150  1  0  0  0
 78151  1  0  0  0
 79 80  1  0  0  0
 80152  1  0  0  0
 80153  1  0  0  0
 81154  1  0  0  0
 81155  1  0  0  0
 82156  1  0  0  0
M  ISO  4   1 100  68 101  81 101  82 100
M  END
> <chiral flag>
0

> <version>
0

> <s_m_source_file>
/data/baiqing/PycharmProjects/Reinvent-master-3.2/result/LINK_invent/BTK/process_docking_weight1_custom_product_contain_oxygen_bond_distance_aromatic_linkinvent_7_9_3/rearranged_h_0151.sdf

> <i_m_source_file_index>
52

> <r_mmod_Potential_Energy-OPLS-2005>
178.039352416992

> <r_mmod_Stretch_Energy-OPLS-2005>
132.569061279297

> <r_mmod_Bend_Energy-OPLS-2005>
195.718521118164

> <r_mmod_Torsional_Energy-OPLS-2005>
249.013946533203

> <r_mmod_Improper_Torsional_Energy-OPLS-2005>
4.28976011276245

> <r_mmod_Van_der_Waal_Energy-OPLS-2005>
112.793762207031

> <r_mmod_Electrostatic_Energy-OPLS-2005>
-368.417022705078

> <r_mmod_Solvation_Energy-OPLS-2005>
-230.468399047852

> <b_mmod_Minimization_Converged-OPLS-2005>
0

> <r_mmod_RMS_Derivative-OPLS-2005>
8.38315105438232

$$$$
52
                    3D
 Structure written by MMmdl.
157166  0  0  1  0            999 V2000
  -30.6315  -14.6194   20.5051 C   0  0  0  0  0  0
  -30.4394  -12.3779   19.4459 C   0  0  0  0  0  0
  -29.5114  -12.5106   18.2179 C   0  0  0  0  0  0
  -28.0317  -12.3543   18.6271 C   0  0  0  0  0  0
  -27.6577  -13.2154   19.8629 C   0  0  2  0  0  0
  -28.7026  -13.0527   20.9908 C   0  0  0  0  0  0
  -25.2584  -13.8166   20.5700 C   0  0  0  0  0  0
  -24.1839  -13.0436   20.9190 C   0  0  0  0  0  0
  -24.6392  -11.6900   20.8707 C   0  0  0  0  0  0
  -23.9047  -10.4290   21.0379 C   0  0  0  0  0  0
  -24.3598   -9.4220   21.9175 C   0  0  0  0  0  0
  -23.6287   -8.2245   22.0746 C   0  0  0  0  0  0
  -22.4268   -8.0274   21.3536 C   0  0  0  0  0  0
  -21.9899   -9.0245   20.4647 C   0  0  0  0  0  0
  -22.7210  -10.2130   20.3046 C   0  0  0  0  0  0
  -21.6851   -6.0733   22.5285 C   0  0  0  0  0  0
  -21.4012   -6.5632   23.8217 C   0  0  0  0  0  0
  -21.3658   -5.6785   24.9178 C   0  0  0  0  0  0
  -21.6044   -4.3048   24.7221 C   0  0  0  0  0  0
  -21.8816   -3.8141   23.4340 C   0  0  0  0  0  0
  -21.9198   -4.6967   22.3407 C   0  0  0  0  0  0
  -22.7864  -13.5244   21.1856 C   0  0  0  0  0  0
  -22.1668   -4.2155   21.0986 F   0  0  0  0  0  0
  -21.5626   -3.4531   25.7728 F   0  0  0  0  0  0
  -30.0221  -13.3935   20.4325 N   0  0  0  0  0  0
  -26.3007  -12.9350   20.3299 N   0  0  0  0  0  0
  -25.9324  -11.6495   20.5708 N   0  0  0  0  0  0
  -22.0473  -12.8257   22.0403 N   0  0  0  0  0  0
  -25.4289  -15.1889   20.4145 N   0  0  0  0  0  0
  -31.7827  -14.7937   20.0961 O   0  0  0  0  0  0
  -21.6637   -6.8872   21.4242 O   0  0  0  0  0  0
  -22.3559  -14.5554   20.6699 O   0  0  0  0  0  0
  -24.6247  -31.8609   23.2026 C   0  0  0  0  0  0
  -25.9104  -32.4785   23.8355 C   0  0  1  0  0  0
  -27.2362  -27.3283   20.1186 C   0  0  0  0  0  0
  -25.5926  -33.8582   24.2282 N   0  0  0  0  0  0
  -23.4193  -30.4832   21.5453 C   0  0  2  0  0  0
  -24.8700  -28.9416   20.1131 C   0  0  0  0  0  0
  -22.7467  -29.4626   22.4942 C   0  0  0  0  0  0
  -18.0289  -28.1380   22.8492 C   0  0  0  0  0  0
  -24.1495  -36.7284   23.2638 C   0  0  0  0  0  0
  -25.9603  -30.7965   21.3736 C   0  0  0  0  0  0
  -26.0384  -29.4248   20.7152 C   0  0  0  0  0  0
  -27.2239  -28.6310   20.7067 C   0  0  0  0  0  0
  -26.0394  -26.8987   19.4960 C   0  0  0  0  0  0
  -24.8725  -27.6831   19.4959 C   0  0  0  0  0  0
  -23.6345  -29.8155   20.1621 C   0  0  0  0  0  0
  -25.4113  -36.3078   24.0334 C   0  0  1  0  0  0
  -20.5887  -28.3680   23.1297 C   0  0  2  0  0  0
  -20.6779  -26.9407   22.5414 C   0  0  0  0  0  0
  -19.5754  -26.6382   21.5212 C   0  0  0  0  0  0
  -18.1930  -26.7928   22.1620 C   0  0  0  0  0  0
  -19.1539  -28.8848   23.2888 C   0  0  0  0  0  0
  -18.9464  -30.1458   23.8883 C   0  0  0  0  0  0
  -17.6462  -30.6590   24.0553 C   0  0  0  0  0  0
  -25.9045  -34.9452   23.5100 C   0  0  0  0  0  0
  -16.5352  -29.9076   23.6337 C   0  0  0  0  0  0
  -16.7277  -28.6497   23.0357 C   0  0  0  0  0  0
  -26.4488  -31.6585   25.0721 C   0  0  0  0  0  0
  -25.3718  -31.3744   26.1448 C   0  0  0  0  0  0
  -27.0321  -30.3002   24.6179 C   0  0  0  0  0  0
  -27.6060  -32.4303   25.7488 C   0  0  0  0  0  0
  -27.5586  -37.1786   24.8456 C   0  0  0  0  0  0
  -21.4180  -29.3039   22.3687 N   0  0  0  0  0  0
  -26.4286  -37.3777   23.9418 N   0  0  0  0  0  0
  -24.6866  -31.0630   22.0971 N   0  0  0  0  0  0
  -23.4194  -28.8158   23.3013 O   0  0  0  0  0  0
  -28.3610  -26.4847   20.1676 O   0  0  0  0  0  0
  -26.5598  -34.8921   22.4656 O   0  0  0  0  0  0
  -23.5412  -32.1400   23.7354 O   0  0  0  0  0  0
  -30.8829  -17.8388   20.0672 C   0  0  0  0  0  0
  -28.8601  -17.8734   21.4017 C   0  0  0  0  0  0
  -30.8021  -19.2633   19.9997 C   0  0  0  0  0  0
  -29.7826  -20.0107   20.5944 C   0  0  0  0  0  0
  -29.8941  -17.1043   20.7872 C   0  0  0  0  0  0
  -28.7891  -19.2980   21.3193 C   0  0  0  0  0  0
  -31.1082  -21.4606   19.4423 C   0  0  0  0  0  0
  -29.2933  -23.9760   20.3330 C   0  0  0  0  0  0
  -28.8843  -22.4347   20.2223 C   0  0  0  0  0  0
  -28.1308  -25.0256   20.0607 C   0  0  0  0  0  0
  -31.6945  -20.1165   19.3609 N   0  0  0  0  0  0
  -29.9707  -21.4123   20.3766 N   0  0  0  0  0  0
  -27.7627  -19.9724   21.9840 N   0  0  0  0  0  0
  -29.8332  -15.6470   20.9255 N   0  0  0  0  0  0
  -31.4825  -12.4976   19.1450 H   0  0  0  0  0  0
  -30.3628  -11.3780   19.8758 H   0  0  0  0  0  0
  -29.7707  -11.7643   17.4656 H   0  0  0  0  0  0
  -29.6654  -13.4822   17.7453 H   0  0  0  0  0  0
  -27.8598  -11.3013   18.8498 H   0  0  0  0  0  0
  -27.3828  -12.5976   17.7849 H   0  0  0  0  0  0
  -27.6806  -14.2540   19.5314 H   0  0  0  0  0  0
  -28.7085  -12.0263   21.3611 H   0  0  0  0  0  0
  -28.4484  -13.6719   21.8533 H   0  0  0  0  0  0
  -25.2730   -9.5709   22.4758 H   0  0  0  0  0  0
  -24.0001   -7.4640   22.7458 H   0  0  0  0  0  0
  -21.0827   -8.8751   19.8957 H   0  0  0  0  0  0
  -22.3649  -10.9663   19.6154 H   0  0  0  0  0  0
  -21.1997   -7.6138   23.9716 H   0  0  0  0  0  0
  -21.1484   -6.0514   25.9081 H   0  0  0  0  0  0
  -22.0594   -2.7605   23.2837 H   0  0  0  0  0  0
  -22.4040  -11.9924   22.4839 H   0  0  0  0  0  0
  -21.1092  -13.1319   22.2556 H   0  0  0  0  0  0
  -24.6582  -15.8389   20.5272 H   0  0  0  0  0  0
  -26.2758  -15.6330   20.0826 H   0  0  0  0  0  0
  -26.7176  -32.5471   23.1113 H   0  0  0  0  0  0
  -25.0073  -33.9734   25.0425 H   0  0  0  0  0  0
  -22.7121  -31.3024   21.4005 H   0  0  0  0  0  0
  -23.3764  -35.9609   23.3298 H   0  0  0  0  0  0
  -24.3591  -36.8898   22.2051 H   0  0  0  0  0  0
  -23.7247  -37.6487   23.6652 H   0  0  0  0  0  0
  -26.0901  -31.5640   20.6089 H   0  0  0  0  0  0
  -26.8398  -30.8455   22.0037 H   0  0  0  0  0  0
  -28.1187  -28.9998   21.1881 H   0  0  0  0  0  0
  -25.9708  -25.9382   19.0105 H   0  0  0  0  0  0
  -23.9771  -27.3041   19.0242 H   0  0  0  0  0  0
  -23.7443  -30.5879   19.4003 H   0  0  0  0  0  0
  -22.7589  -29.2352   19.8658 H   0  0  0  0  0  0
  -25.1291  -36.1922   25.0828 H   0  0  0  0  0  0
  -20.9983  -28.3258   24.1416 H   0  0  0  0  0  0
  -20.5698  -26.2278   23.3605 H   0  0  0  0  0  0
  -21.6647  -26.7451   22.1202 H   0  0  0  0  0  0
  -19.6912  -25.6289   21.1249 H   0  0  0  0  0  0
  -19.6698  -27.3188   20.6737 H   0  0  0  0  0  0
  -17.4207  -26.6697   21.4011 H   0  0  0  0  0  0
  -18.0318  -26.0065   22.9011 H   0  0  0  0  0  0
  -19.7941  -30.7284   24.2240 H   0  0  0  0  0  0
  -17.5018  -31.6274   24.5145 H   0  0  0  0  0  0
  -15.5351  -30.2966   23.7673 H   0  0  0  0  0  0
  -15.8680  -28.0809   22.7069 H   0  0  0  0  0  0
  -24.5886  -30.7097   25.7786 H   0  0  0  0  0  0
  -24.8914  -32.2921   26.4853 H   0  0  0  0  0  0
  -25.8035  -30.8933   27.0236 H   0  0  0  0  0  0
  -26.2895  -29.6762   24.1193 H   0  0  0  0  0  0
  -27.4000  -29.7252   25.4689 H   0  0  0  0  0  0
  -27.8778  -30.4275   23.9415 H   0  0  0  0  0  0
  -27.2691  -33.3609   26.2070 H   0  0  0  0  0  0
  -28.3873  -32.6847   25.0312 H   0  0  0  0  0  0
  -28.0727  -31.8416   26.5398 H   0  0  0  0  0  0
  -28.2578  -38.0110   24.7541 H   0  0  0  0  0  0
  -28.1106  -36.2643   24.6217 H   0  0  0  0  0  0
  -27.2316  -37.1370   25.8861 H   0  0  0  0  0  0
  -20.9342  -29.8743   21.6889 H   0  0  0  0  0  0
  -26.0166  -38.2849   24.1432 H   0  0  0  0  0  0
  -31.6955  -17.3244   19.5749 H   0  0  0  0  0  0
  -28.0973  -17.3503   21.9614 H   0  0  0  0  0  0
  -30.7857  -21.7879   18.4513 H   0  0  0  0  0  0
  -31.8547  -22.1721   19.8000 H   0  0  0  0  0  0
  -30.1012  -24.1828   19.6306 H   0  0  0  0  0  0
  -29.7082  -24.1590   21.3250 H   0  0  0  0  0  0
  -28.4200  -22.2723   19.2478 H   0  0  0  0  0  0
  -28.1012  -22.2500   20.9542 H   0  0  0  0  0  0
  -27.3111  -24.7712   20.7356 H   0  0  0  0  0  0
  -27.7824  -24.8161   19.0499 H   0  0  0  0  0  0
  -32.0971  -19.8148   18.4751 H   0  0  0  0  0  0
  -27.3307  -19.5029   22.7721 H   0  0  0  0  0  0
  -27.9344  -20.9549   22.1678 H   0  0  0  0  0  0
  -28.9675  -15.3071   21.3141 H   0  0  0  0  0  0
  1 25  1  0  0  0
  1 30  2  0  0  0
  1 84  1  0  0  0
  2  3  1  0  0  0
  2 25  1  0  0  0
  2 85  1  0  0  0
  2 86  1  0  0  0
  3  4  1  0  0  0
  3 87  1  0  0  0
  3 88  1  0  0  0
  4  5  1  0  0  0
  4 89  1  0  0  0
  4 90  1  0  0  0
  5  6  1  0  0  0
  5 26  1  0  0  0
  5 91  1  0  0  0
  6 25  1  0  0  0
  6 92  1  0  0  0
  6 93  1  0  0  0
  7  8  2  0  0  0
  7 26  1  0  0  0
  7 29  1  0  0  0
  8  9  1  0  0  0
  8 22  1  0  0  0
  9 10  1  0  0  0
  9 27  2  0  0  0
 10 11  2  0  0  0
 10 15  1  0  0  0
 11 12  1  0  0  0
 11 94  1  0  0  0
 12 13  2  0  0  0
 12 95  1  0  0  0
 13 14  1  0  0  0
 13 31  1  0  0  0
 14 15  2  0  0  0
 14 96  1  0  0  0
 15 97  1  0  0  0
 16 17  2  0  0  0
 16 21  1  0  0  0
 16 31  1  0  0  0
 17 18  1  0  0  0
 17 98  1  0  0  0
 18 19  2  0  0  0
 18 99  1  0  0  0
 19 20  1  0  0  0
 19 24  1  0  0  0
 20 21  2  0  0  0
 20100  1  0  0  0
 21 23  1  0  0  0
 22 28  1  0  0  0
 22 32  2  0  0  0
 26 27  1  0  0  0
 28101  1  0  0  0
 28102  1  0  0  0
 29103  1  0  0  0
 29104  1  0  0  0
 33 34  1  0  0  0
 33 66  1  0  0  0
 33 70  2  0  0  0
 34 36  1  0  0  0
 34 59  1  0  0  0
 34105  1  0  0  0
 35 44  2  0  0  0
 35 45  1  0  0  0
 35 68  1  0  0  0
 36 56  1  0  0  0
 36106  1  0  0  0
 37 39  1  0  0  0
 37 47  1  0  0  0
 37 66  1  0  0  0
 37107  1  0  0  0
 38 43  2  0  0  0
 38 46  1  0  0  0
 38 47  1  0  0  0
 39 64  1  0  0  0
 39 67  2  0  0  0
 40 52  1  0  0  0
 40 53  2  0  0  0
 40 58  1  0  0  0
 41108  1  0  0  0
 41109  1  0  0  0
 41110  1  0  0  0
 41 48  1  0  0  0
 42 43  1  0  0  0
 42 66  1  0  0  0
 42111  1  0  0  0
 42112  1  0  0  0
 43 44  1  0  0  0
 44113  1  0  0  0
 45 46  2  0  0  0
 45114  1  0  0  0
 46115  1  0  0  0
 47116  1  0  0  0
 47117  1  0  0  0
 48 56  1  0  0  0
 48 65  1  0  0  0
 48118  1  0  0  0
 49 50  1  0  0  0
 49 53  1  0  0  0
 49 64  1  0  0  0
 49119  1  0  0  0
 50 51  1  0  0  0
 50120  1  0  0  0
 50121  1  0  0  0
 51 52  1  0  0  0
 51122  1  0  0  0
 51123  1  0  0  0
 52124  1  0  0  0
 52125  1  0  0  0
 53 54  1  0  0  0
 54 55  2  0  0  0
 54126  1  0  0  0
 55 57  1  0  0  0
 55127  1  0  0  0
 56 69  2  0  0  0
 57 58  2  0  0  0
 57128  1  0  0  0
 58129  1  0  0  0
 59 60  1  0  0  0
 59 61  1  0  0  0
 59 62  1  0  0  0
 60130  1  0  0  0
 60131  1  0  0  0
 60132  1  0  0  0
 61133  1  0  0  0
 61134  1  0  0  0
 61135  1  0  0  0
 62136  1  0  0  0
 62137  1  0  0  0
 62138  1  0  0  0
 63 65  1  0  0  0
 63139  1  0  0  0
 63140  1  0  0  0
 63141  1  0  0  0
 64142  1  0  0  0
 65143  1  0  0  0
 68 80  1  0  0  0
 71 73  2  0  0  0
 71 75  1  0  0  0
 71144  1  0  0  0
 72 75  2  0  0  0
 72 76  1  0  0  0
 72145  1  0  0  0
 73 74  1  0  0  0
 73 81  1  0  0  0
 74 76  2  0  0  0
 74 82  1  0  0  0
 75 84  1  0  0  0
 76 83  1  0  0  0
 77 81  1  0  0  0
 77 82  1  0  0  0
 77146  1  0  0  0
 77147  1  0  0  0
 78 79  1  0  0  0
 78 80  1  0  0  0
 78148  1  0  0  0
 78149  1  0  0  0
 79 82  1  0  0  0
 79150  1  0  0  0
 79151  1  0  0  0
 80152  1  0  0  0
 80153  1  0  0  0
 81154  1  0  0  0
 83155  1  0  0  0
 83156  1  0  0  0
 84157  1  0  0  0
M  ISO  4   1 100  68 101  80 101  84 100
M  END
> <chiral flag>
0

> <version>
0

> <s_m_source_file>
/data/baiqing/PycharmProjects/Reinvent-master-3.2/result/LINK_invent/BTK/process_docking_weight1_custom_product_contain_oxygen_bond_distance_aromatic_linkinvent_7_9_3/rearranged_h_0151.sdf

> <i_m_source_file_index>
53

> <r_mmod_Potential_Energy-OPLS-2005>
82.351432800293

> <r_mmod_Stretch_Energy-OPLS-2005>
78.2993011474609

> <r_mmod_Bend_Energy-OPLS-2005>
183.073699951172

> <r_mmod_Torsional_Energy-OPLS-2005>
205.764923095703

> <r_mmod_Improper_Torsional_Energy-OPLS-2005>
15.0000514984131

> <r_mmod_Van_der_Waal_Energy-OPLS-2005>
142.911834716797

> <r_mmod_Electrostatic_Energy-OPLS-2005>
-321.435913085938

> <r_mmod_Solvation_Energy-OPLS-2005>
-264.108367919922

> <b_mmod_Minimization_Converged-OPLS-2005>
0

> <r_mmod_RMS_Derivative-OPLS-2005>
1.76144134998322

$$$$
53
                    3D
 Structure written by MMmdl.
156165  0  0  1  0            999 V2000
  -30.6112  -14.6769   20.5315 C   0  0  0  0  0  0
  -30.4317  -12.4408   19.4400 C   0  0  0  0  0  0
  -29.4954  -12.5196   18.2145 C   0  0  0  0  0  0
  -28.0207  -12.3530   18.6324 C   0  0  0  0  0  0
  -27.6459  -13.2202   19.8634 C   0  0  2  0  0  0
  -28.6913  -13.0585   20.9837 C   0  0  0  0  0  0
  -25.2544  -13.8186   20.5720 C   0  0  0  0  0  0
  -24.1793  -13.0426   20.9192 C   0  0  0  0  0  0
  -24.6381  -11.6918   20.8739 C   0  0  0  0  0  0
  -23.9046  -10.4285   21.0402 C   0  0  0  0  0  0
  -24.3593   -9.4198   21.9187 C   0  0  0  0  0  0
  -23.6277   -8.2232   22.0758 C   0  0  0  0  0  0
  -22.4269   -8.0274   21.3533 C   0  0  0  0  0  0
  -21.9891   -9.0254   20.4646 C   0  0  0  0  0  0
  -22.7218  -10.2131   20.3054 C   0  0  0  0  0  0
  -21.6849   -6.0719   22.5269 C   0  0  0  0  0  0
  -21.4016   -6.5626   23.8203 C   0  0  0  0  0  0
  -21.3661   -5.6776   24.9180 C   0  0  0  0  0  0
  -21.6060   -4.3045   24.7229 C   0  0  0  0  0  0
  -21.8811   -3.8133   23.4347 C   0  0  0  0  0  0
  -21.9185   -4.6942   22.3406 C   0  0  0  0  0  0
  -22.7822  -13.5245   21.1825 C   0  0  0  0  0  0
  -22.1657   -4.2136   21.0982 F   0  0  0  0  0  0
  -21.5619   -3.4538   25.7738 F   0  0  0  0  0  0
  -29.9820  -13.4609   20.4159 N   0  0  0  0  0  0
  -26.2952  -12.9352   20.3341 N   0  0  0  0  0  0
  -25.9304  -11.6505   20.5770 N   0  0  0  0  0  0
  -22.0452  -12.8263   22.0410 N   0  0  0  0  0  0
  -25.4264  -15.1889   20.4107 N   0  0  0  0  0  0
  -31.7863  -14.7777   20.1531 O   0  0  0  0  0  0
  -21.6635   -6.8868   21.4239 O   0  0  0  0  0  0
  -22.3513  -14.5551   20.6673 O   0  0  0  0  0  0
  -24.6234  -31.8612   23.2066 C   0  0  0  0  0  0
  -25.9066  -32.4795   23.8395 C   0  0  1  0  0  0
  -27.1940  -27.3297   20.1537 C   0  0  0  0  0  0
  -25.5879  -33.8608   24.2276 N   0  0  0  0  0  0
  -23.4160  -30.4868   21.5461 C   0  0  2  0  0  0
  -24.8624  -28.9490   20.1083 C   0  0  0  0  0  0
  -22.7459  -29.4626   22.4945 C   0  0  0  0  0  0
  -18.0276  -28.1378   22.8486 C   0  0  0  0  0  0
  -24.1478  -36.7328   23.2651 C   0  0  0  0  0  0
  -25.9537  -30.8044   21.3713 C   0  0  0  0  0  0
  -26.0285  -29.4338   20.7131 C   0  0  0  0  0  0
  -27.2094  -28.6373   20.7177 C   0  0  0  0  0  0
  -26.0222  -26.8996   19.5008 C   0  0  0  0  0  0
  -24.8603  -27.6911   19.4883 C   0  0  0  0  0  0
  -23.6283  -29.8261   20.1588 C   0  0  0  0  0  0
  -25.4108  -36.3093   24.0326 C   0  0  1  0  0  0
  -20.5870  -28.3668   23.1293 C   0  0  2  0  0  0
  -20.6742  -26.9395   22.5418 C   0  0  0  0  0  0
  -19.5721  -26.6382   21.5210 C   0  0  0  0  0  0
  -18.1903  -26.7924   22.1627 C   0  0  0  0  0  0
  -19.1523  -28.8841   23.2886 C   0  0  0  0  0  0
  -18.9457  -30.1444   23.8907 C   0  0  0  0  0  0
  -17.6457  -30.6587   24.0569 C   0  0  0  0  0  0
  -25.9018  -34.9458   23.5091 C   0  0  0  0  0  0
  -16.5343  -29.9077   23.6344 C   0  0  0  0  0  0
  -16.7265  -28.6496   23.0370 C   0  0  0  0  0  0
  -26.4467  -31.6623   25.0773 C   0  0  0  0  0  0
  -25.3698  -31.3803   26.1505 C   0  0  0  0  0  0
  -27.0324  -30.3048   24.6252 C   0  0  0  0  0  0
  -27.5996  -32.4414   25.7529 C   0  0  0  0  0  0
  -27.5565  -37.1831   24.8465 C   0  0  0  0  0  0
  -21.4175  -29.3036   22.3693 N   0  0  0  0  0  0
  -26.4293  -37.3779   23.9378 N   0  0  0  0  0  0
  -24.6809  -31.0641   22.0997 N   0  0  0  0  0  0
  -23.4180  -28.8150   23.2989 O   0  0  0  0  0  0
  -28.2492  -26.4308   20.2599 O   0  0  0  0  0  0
  -26.5630  -34.8925   22.4686 O   0  0  0  0  0  0
  -23.5383  -32.1399   23.7390 O   0  0  0  0  0  0
  -27.1472  -22.0581   21.8149 C   0  0  0  0  0  0
  -27.2979  -20.6452   22.0250 C   0  0  0  0  0  0
  -28.2015  -22.4954   21.0528 C   0  0  0  0  0  0
  -28.4625  -20.2472   21.4170 C   0  0  0  0  0  0
  -28.5454  -23.8536   20.4752 C   0  0  0  0  0  0
  -28.6832  -17.7159   22.1736 C   0  0  0  0  0  0
  -29.2910  -18.2997   19.9109 C   0  0  0  0  0  0
  -29.3978  -16.3050   22.0349 C   0  0  0  0  0  0
  -30.1617  -16.9963   19.7963 C   0  0  0  0  0  0
  -29.2283  -18.8962   21.3190 C   0  0  0  0  0  0
  -27.9064  -25.1926   21.0057 C   0  0  0  0  0  0
  -29.8444  -15.8370   20.6887 N   0  0  0  0  0  0
  -29.3746  -23.9295   19.5607 O   0  0  0  0  0  0
  -29.0013  -21.3756   20.8053 O   0  0  0  0  0  0
  -31.4630  -12.5889   19.1147 H   0  0  0  0  0  0
  -30.4083  -11.4464   19.8836 H   0  0  0  0  0  0
  -29.7666  -11.7587   17.4824 H   0  0  0  0  0  0
  -29.6275  -13.4767   17.7083 H   0  0  0  0  0  0
  -27.8651  -11.3013   18.8707 H   0  0  0  0  0  0
  -27.3632  -12.5733   17.7920 H   0  0  0  0  0  0
  -27.6672  -14.2601   19.5368 H   0  0  0  0  0  0
  -28.7382  -12.0179   21.3124 H   0  0  0  0  0  0
  -28.4215  -13.6146   21.8746 H   0  0  0  0  0  0
  -25.2724   -9.5688   22.4778 H   0  0  0  0  0  0
  -23.9973   -7.4637   22.7483 H   0  0  0  0  0  0
  -21.0813   -8.8765   19.8977 H   0  0  0  0  0  0
  -22.3649  -10.9673   19.6175 H   0  0  0  0  0  0
  -21.2017   -7.6139   23.9711 H   0  0  0  0  0  0
  -21.1493   -6.0514   25.9077 H   0  0  0  0  0  0
  -22.0593   -2.7600   23.2845 H   0  0  0  0  0  0
  -22.4019  -11.9920   22.4822 H   0  0  0  0  0  0
  -21.1082  -13.1339   22.2595 H   0  0  0  0  0  0
  -24.6581  -15.8468   20.4893 H   0  0  0  0  0  0
  -26.2911  -15.6247   20.1161 H   0  0  0  0  0  0
  -26.7132  -32.5485   23.1144 H   0  0  0  0  0  0
  -24.9954  -33.9742   25.0364 H   0  0  0  0  0  0
  -22.7077  -31.3074   21.4093 H   0  0  0  0  0  0
  -23.3682  -35.9717   23.3372 H   0  0  0  0  0  0
  -24.3542  -36.8890   22.2045 H   0  0  0  0  0  0
  -23.7282  -37.6583   23.6638 H   0  0  0  0  0  0
  -26.0838  -31.5718   20.6055 H   0  0  0  0  0  0
  -26.8329  -30.8482   22.0023 H   0  0  0  0  0  0
  -28.1066  -28.9939   21.2037 H   0  0  0  0  0  0
  -25.9842  -25.9229   19.0403 H   0  0  0  0  0  0
  -23.9638  -27.3148   19.0139 H   0  0  0  0  0  0
  -23.7441  -30.6070   19.4043 H   0  0  0  0  0  0
  -22.7466  -29.2541   19.8624 H   0  0  0  0  0  0
  -25.1280  -36.1963   25.0824 H   0  0  0  0  0  0
  -20.9977  -28.3230   24.1399 H   0  0  0  0  0  0
  -20.5620  -26.2273   23.3600 H   0  0  0  0  0  0
  -21.6606  -26.7407   22.1221 H   0  0  0  0  0  0
  -19.6865  -25.6290   21.1232 H   0  0  0  0  0  0
  -19.6647  -27.3190   20.6735 H   0  0  0  0  0  0
  -17.4164  -26.6679   21.4035 H   0  0  0  0  0  0
  -18.0317  -26.0064   22.9031 H   0  0  0  0  0  0
  -19.7943  -30.7268   24.2256 H   0  0  0  0  0  0
  -17.5023  -31.6271   24.5175 H   0  0  0  0  0  0
  -15.5343  -30.2995   23.7669 H   0  0  0  0  0  0
  -15.8668  -28.0831   22.7082 H   0  0  0  0  0  0
  -24.5903  -30.7088   25.7891 H   0  0  0  0  0  0
  -24.8858  -32.2984   26.4866 H   0  0  0  0  0  0
  -25.8054  -30.9099   27.0322 H   0  0  0  0  0  0
  -26.2931  -29.6811   24.1230 H   0  0  0  0  0  0
  -27.3931  -29.7323   25.4798 H   0  0  0  0  0  0
  -27.8818  -30.4321   23.9542 H   0  0  0  0  0  0
  -27.2561  -33.3709   26.2097 H   0  0  0  0  0  0
  -28.3807  -32.7015   25.0368 H   0  0  0  0  0  0
  -28.0674  -31.8593   26.5474 H   0  0  0  0  0  0
  -28.2626  -38.0090   24.7444 H   0  0  0  0  0  0
  -28.1016  -36.2613   24.6364 H   0  0  0  0  0  0
  -27.2282  -37.1571   25.8878 H   0  0  0  0  0  0
  -20.9315  -29.8812   21.6975 H   0  0  0  0  0  0
  -26.0175  -38.2862   24.1360 H   0  0  0  0  0  0
  -26.3428  -22.6859   22.1787 H   0  0  0  0  0  0
  -26.6338  -19.9953   22.5843 H   0  0  0  0  0  0
  -28.7133  -18.0102   23.2219 H   0  0  0  0  0  0
  -27.6269  -17.5809   21.9481 H   0  0  0  0  0  0
  -28.2732  -18.1096   19.5639 H   0  0  0  0  0  0
  -29.6903  -19.0667   19.2453 H   0  0  0  0  0  0
  -28.6972  -15.5808   22.4402 H   0  0  0  0  0  0
  -30.2722  -16.2754   22.6905 H   0  0  0  0  0  0
  -31.2023  -17.2861   19.9528 H   0  0  0  0  0  0
  -30.1069  -16.6542   18.7637 H   0  0  0  0  0  0
  -30.2506  -19.0895   21.6504 H   0  0  0  0  0  0
  -28.2314  -25.3431   22.0363 H   0  0  0  0  0  0
  -26.8274  -25.0500   21.0670 H   0  0  0  0  0  0
  1 25  1  0  0  0
  1 30  2  0  0  0
  1 82  1  0  0  0
  2  3  1  0  0  0
  2 25  1  0  0  0
  2 85  1  0  0  0
  2 86  1  0  0  0
  3  4  1  0  0  0
  3 87  1  0  0  0
  3 88  1  0  0  0
  4  5  1  0  0  0
  4 89  1  0  0  0
  4 90  1  0  0  0
  5  6  1  0  0  0
  5 26  1  0  0  0
  5 91  1  0  0  0
  6 25  1  0  0  0
  6 92  1  0  0  0
  6 93  1  0  0  0
  7  8  2  0  0  0
  7 26  1  0  0  0
  7 29  1  0  0  0
  8  9  1  0  0  0
  8 22  1  0  0  0
  9 10  1  0  0  0
  9 27  2  0  0  0
 10 11  2  0  0  0
 10 15  1  0  0  0
 11 12  1  0  0  0
 11 94  1  0  0  0
 12 13  2  0  0  0
 12 95  1  0  0  0
 13 14  1  0  0  0
 13 31  1  0  0  0
 14 15  2  0  0  0
 14 96  1  0  0  0
 15 97  1  0  0  0
 16 17  2  0  0  0
 16 21  1  0  0  0
 16 31  1  0  0  0
 17 18  1  0  0  0
 17 98  1  0  0  0
 18 19  2  0  0  0
 18 99  1  0  0  0
 19 20  1  0  0  0
 19 24  1  0  0  0
 20 21  2  0  0  0
 20100  1  0  0  0
 21 23  1  0  0  0
 22 28  1  0  0  0
 22 32  2  0  0  0
 26 27  1  0  0  0
 28101  1  0  0  0
 28102  1  0  0  0
 29103  1  0  0  0
 29104  1  0  0  0
 33 34  1  0  0  0
 33 66  1  0  0  0
 33 70  2  0  0  0
 34 36  1  0  0  0
 34 59  1  0  0  0
 34105  1  0  0  0
 35 44  2  0  0  0
 35 45  1  0  0  0
 35 68  1  0  0  0
 36 56  1  0  0  0
 36106  1  0  0  0
 37 39  1  0  0  0
 37 47  1  0  0  0
 37 66  1  0  0  0
 37107  1  0  0  0
 38 43  2  0  0  0
 38 46  1  0  0  0
 38 47  1  0  0  0
 39 64  1  0  0  0
 39 67  2  0  0  0
 40 52  1  0  0  0
 40 53  2  0  0  0
 40 58  1  0  0  0
 41108  1  0  0  0
 41109  1  0  0  0
 41110  1  0  0  0
 41 48  1  0  0  0
 42 43  1  0  0  0
 42 66  1  0  0  0
 42111  1  0  0  0
 42112  1  0  0  0
 43 44  1  0  0  0
 44113  1  0  0  0
 45 46  2  0  0  0
 45114  1  0  0  0
 46115  1  0  0  0
 47116  1  0  0  0
 47117  1  0  0  0
 48 56  1  0  0  0
 48 65  1  0  0  0
 48118  1  0  0  0
 49 50  1  0  0  0
 49 53  1  0  0  0
 49 64  1  0  0  0
 49119  1  0  0  0
 50 51  1  0  0  0
 50120  1  0  0  0
 50121  1  0  0  0
 51 52  1  0  0  0
 51122  1  0  0  0
 51123  1  0  0  0
 52124  1  0  0  0
 52125  1  0  0  0
 53 54  1  0  0  0
 54 55  2  0  0  0
 54126  1  0  0  0
 55 57  1  0  0  0
 55127  1  0  0  0
 56 69  2  0  0  0
 57 58  2  0  0  0
 57128  1  0  0  0
 58129  1  0  0  0
 59 60  1  0  0  0
 59 61  1  0  0  0
 59 62  1  0  0  0
 60130  1  0  0  0
 60131  1  0  0  0
 60132  1  0  0  0
 61133  1  0  0  0
 61134  1  0  0  0
 61135  1  0  0  0
 62136  1  0  0  0
 62137  1  0  0  0
 62138  1  0  0  0
 63 65  1  0  0  0
 63139  1  0  0  0
 63140  1  0  0  0
 63141  1  0  0  0
 64142  1  0  0  0
 65143  1  0  0  0
 68 81  1  0  0  0
 71 72  1  0  0  0
 71 73  2  0  0  0
 71144  1  0  0  0
 72 74  2  0  0  0
 72145  1  0  0  0
 73 75  1  0  0  0
 73 84  1  0  0  0
 74 84  1  0  0  0
 74 80  1  0  0  0
 75 81  1  0  0  0
 75 83  2  0  0  0
 76 78  1  0  0  0
 76 80  1  0  0  0
 76146  1  0  0  0
 76147  1  0  0  0
 77 79  1  0  0  0
 77 80  1  0  0  0
 77148  1  0  0  0
 77149  1  0  0  0
 78 82  1  0  0  0
 78150  1  0  0  0
 78151  1  0  0  0
 79 82  1  0  0  0
 79152  1  0  0  0
 79153  1  0  0  0
 80154  1  0  0  0
 81155  1  0  0  0
 81156  1  0  0  0
M  ISO  4   1 100  68 101  81 101  82 100
M  END
> <chiral flag>
0

> <version>
0

> <s_m_source_file>
/data/baiqing/PycharmProjects/Reinvent-master-3.2/result/LINK_invent/BTK/process_docking_weight1_custom_product_contain_oxygen_bond_distance_aromatic_linkinvent_7_9_3/rearranged_h_0151.sdf

> <i_m_source_file_index>
54

> <r_mmod_Potential_Energy-OPLS-2005>
357.878204345703

> <r_mmod_Stretch_Energy-OPLS-2005>
83.3595962524414

> <r_mmod_Bend_Energy-OPLS-2005>
143.621597290039

> <r_mmod_Torsional_Energy-OPLS-2005>
358.651947021484

> <r_mmod_Improper_Torsional_Energy-OPLS-2005>
14.053539276123

> <r_mmod_Van_der_Waal_Energy-OPLS-2005>
122.13304901123

> <r_mmod_Electrostatic_Energy-OPLS-2005>
-209.797210693359

> <r_mmod_Solvation_Energy-OPLS-2005>
-214.584487915039

> <b_mmod_Minimization_Converged-OPLS-2005>
0

> <r_mmod_RMS_Derivative-OPLS-2005>
6.61271381378174

$$$$
54
                    3D
 Structure written by MMmdl.
148156  0  0  1  0            999 V2000
  -30.5384  -15.0206   20.4041 C   0  0  0  0  0  0
  -30.4407  -12.6402   19.5134 C   0  0  0  0  0  0
  -29.5280  -12.5355   18.2687 C   0  0  0  0  0  0
  -28.0651  -12.3022   18.6884 C   0  0  0  0  0  0
  -27.6227  -13.2520   19.8296 C   0  0  2  0  0  0
  -28.6630  -13.3341   20.9653 C   0  0  0  0  0  0
  -25.2451  -13.8208   20.5691 C   0  0  0  0  0  0
  -24.1757  -13.0434   20.9214 C   0  0  0  0  0  0
  -24.6360  -11.6929   20.8711 C   0  0  0  0  0  0
  -23.9042  -10.4303   21.0366 C   0  0  0  0  0  0
  -24.3612   -9.4253   21.9161 C   0  0  0  0  0  0
  -23.6301   -8.2260   22.0721 C   0  0  0  0  0  0
  -22.4269   -8.0285   21.3536 C   0  0  0  0  0  0
  -21.9918   -9.0248   20.4612 C   0  0  0  0  0  0
  -22.7209  -10.2143   20.3026 C   0  0  0  0  0  0
  -21.6872   -6.0698   22.5242 C   0  0  0  0  0  0
  -21.4024   -6.5598   23.8165 C   0  0  0  0  0  0
  -21.3670   -5.6761   24.9119 C   0  0  0  0  0  0
  -21.6051   -4.3021   24.7203 C   0  0  0  0  0  0
  -21.8833   -3.8101   23.4322 C   0  0  0  0  0  0
  -21.9186   -4.6917   22.3371 C   0  0  0  0  0  0
  -22.7783  -13.5213   21.1837 C   0  0  0  0  0  0
  -22.1677   -4.2091   21.0959 F   0  0  0  0  0  0
  -21.5622   -3.4532   25.7740 F   0  0  0  0  0  0
  -29.9307  -13.7592   20.3608 N   0  0  0  0  0  0
  -26.2858  -12.9447   20.3220 N   0  0  0  0  0  0
  -25.9280  -11.6577   20.5689 N   0  0  0  0  0  0
  -22.0419  -12.8221   22.0421 N   0  0  0  0  0  0
  -25.4072  -15.1950   20.4167 N   0  0  0  0  0  0
  -31.7525  -15.0398   20.1632 O   0  0  0  0  0  0
  -21.6635   -6.8872   21.4225 O   0  0  0  0  0  0
  -22.3496  -14.5527   20.6680 O   0  0  0  0  0  0
  -24.6467  -31.8403   23.1797 C   0  0  0  0  0  0
  -25.9239  -32.4650   23.8191 C   0  0  1  0  0  0
  -27.2314  -27.0872   20.1741 C   0  0  0  0  0  0
  -25.5980  -33.8461   24.2155 N   0  0  0  0  0  0
  -23.4549  -30.4528   21.5288 C   0  0  2  0  0  0
  -24.9078  -28.8637   20.1167 C   0  0  0  0  0  0
  -22.7606  -29.4514   22.4864 C   0  0  0  0  0  0
  -18.0314  -28.1407   22.8490 C   0  0  0  0  0  0
  -24.1504  -36.7216   23.2647 C   0  0  0  0  0  0
  -26.0144  -30.6973   21.3901 C   0  0  0  0  0  0
  -26.0875  -29.3004   20.7377 C   0  0  0  0  0  0
  -27.2463  -28.4310   20.7416 C   0  0  0  0  0  0
  -26.0258  -26.7624   19.5121 C   0  0  0  0  0  0
  -24.8930  -27.6083   19.4891 C   0  0  0  0  0  0
  -23.6842  -29.7723   20.1525 C   0  0  0  0  0  0
  -25.4144  -36.3003   24.0314 C   0  0  1  0  0  0
  -20.5927  -28.3729   23.1237 C   0  0  2  0  0  0
  -20.6817  -26.9438   22.5416 C   0  0  0  0  0  0
  -19.5785  -26.6395   21.5251 C   0  0  0  0  0  0
  -18.1955  -26.7947   22.1653 C   0  0  0  0  0  0
  -19.1565  -28.8898   23.2850 C   0  0  0  0  0  0
  -18.9488  -30.1500   23.8871 C   0  0  0  0  0  0
  -17.6486  -30.6597   24.0573 C   0  0  0  0  0  0
  -25.9093  -34.9373   23.5036 C   0  0  0  0  0  0
  -16.5374  -29.9077   23.6362 C   0  0  0  0  0  0
  -16.7304  -28.6499   23.0367 C   0  0  0  0  0  0
  -26.4549  -31.6525   25.0651 C   0  0  0  0  0  0
  -25.3715  -31.3723   26.1332 C   0  0  0  0  0  0
  -27.0428  -30.2902   24.6299 C   0  0  0  0  0  0
  -27.6040  -32.4294   25.7435 C   0  0  0  0  0  0
  -27.5587  -37.1765   24.8483 C   0  0  0  0  0  0
  -21.4297  -29.3021   22.3604 N   0  0  0  0  0  0
  -26.4311  -37.3717   23.9392 N   0  0  0  0  0  0
  -24.7248  -31.0189   22.0863 N   0  0  0  0  0  0
  -23.4245  -28.8140   23.3074 O   0  0  0  0  0  0
  -28.2847  -26.0860   20.2059 O   0  0  0  0  0  0
  -26.5687  -34.8896   22.4617 O   0  0  0  0  0  0
  -23.5557  -32.1333   23.6989 O   0  0  0  0  0  0
  -29.5715  -20.4710   19.6632 C   0  0  0  0  0  0
  -29.0556  -21.7055   20.3408 C   0  0  0  0  0  0
  -29.5637  -19.2614   20.4269 C   0  0  0  0  0  0
  -28.7623  -21.0931   21.5476 C   0  0  0  0  0  0
  -29.0092  -23.3076   19.9489 C   0  0  0  0  0  0
  -30.3094  -17.7625   20.3226 C   0  0  0  0  0  0
  -28.0068  -24.5447   20.4693 C   0  0  0  0  0  0
  -28.3673  -21.7420   22.7118 N   0  0  0  0  0  0
  -29.8074  -16.2543   20.5021 N   0  0  0  0  0  0
  -29.8254  -23.6594   19.0893 O   0  0  0  0  0  0
  -29.0207  -19.7052   21.6195 O   0  0  0  0  0  0
  -30.4505  -11.7066   20.0780 H   0  0  0  0  0  0
  -31.4740  -12.8042   19.2062 H   0  0  0  0  0  0
  -29.8583  -11.7249   17.6162 H   0  0  0  0  0  0
  -29.6007  -13.4520   17.6804 H   0  0  0  0  0  0
  -27.9806  -11.2661   19.0214 H   0  0  0  0  0  0
  -27.4013  -12.3965   17.8295 H   0  0  0  0  0  0
  -27.5682  -14.2410   19.3782 H   0  0  0  0  0  0
  -28.7701  -12.3767   21.4771 H   0  0  0  0  0  0
  -28.3481  -14.0550   21.7202 H   0  0  0  0  0  0
  -25.2733   -9.5727   22.4762 H   0  0  0  0  0  0
  -23.9972   -7.4652   22.7455 H   0  0  0  0  0  0
  -21.0822   -8.8734   19.8972 H   0  0  0  0  0  0
  -22.3592  -10.9666   19.6146 H   0  0  0  0  0  0
  -21.2050   -7.6108   23.9667 H   0  0  0  0  0  0
  -21.1484   -6.0474   25.9022 H   0  0  0  0  0  0
  -22.0624   -2.7557   23.2812 H   0  0  0  0  0  0
  -22.4019  -11.9922   22.4920 H   0  0  0  0  0  0
  -21.1007  -13.1239   22.2555 H   0  0  0  0  0  0
  -24.6421  -15.8517   20.5319 H   0  0  0  0  0  0
  -26.2521  -15.6368   20.0832 H   0  0  0  0  0  0
  -26.7307  -32.5234   23.0910 H   0  0  0  0  0  0
  -25.0066  -33.9559   25.0264 H   0  0  0  0  0  0
  -22.7583  -31.2797   21.3684 H   0  0  0  0  0  0
  -23.3759  -35.9552   23.3309 H   0  0  0  0  0  0
  -24.3605  -36.8868   22.2071 H   0  0  0  0  0  0
  -23.7304  -37.6422   23.6681 H   0  0  0  0  0  0
  -26.1896  -31.4522   20.6226 H   0  0  0  0  0  0
  -26.8728  -30.7355   22.0455 H   0  0  0  0  0  0
  -28.1460  -28.7683   21.2371 H   0  0  0  0  0  0
  -25.9439  -25.8085   19.0108 H   0  0  0  0  0  0
  -23.9977  -27.2696   18.9843 H   0  0  0  0  0  0
  -23.8216  -30.5450   19.3930 H   0  0  0  0  0  0
  -22.7973  -29.2144   19.8417 H   0  0  0  0  0  0
  -25.1344  -36.1804   25.0807 H   0  0  0  0  0  0
  -21.0010  -28.3325   24.1372 H   0  0  0  0  0  0
  -20.5785  -26.2343   23.3636 H   0  0  0  0  0  0
  -21.6668  -26.7505   22.1186 H   0  0  0  0  0  0
  -19.6950  -25.6308   21.1273 H   0  0  0  0  0  0
  -19.6705  -27.3215   20.6773 H   0  0  0  0  0  0
  -17.4248  -26.6726   21.4016 H   0  0  0  0  0  0
  -18.0318  -26.0090   22.9030 H   0  0  0  0  0  0
  -19.7951  -30.7328   24.2218 H   0  0  0  0  0  0
  -17.5017  -31.6277   24.5162 H   0  0  0  0  0  0
  -15.5356  -30.2963   23.7680 H   0  0  0  0  0  0
  -15.8717  -28.0805   22.7082 H   0  0  0  0  0  0
  -24.5887  -30.7097   25.7639 H   0  0  0  0  0  0
  -24.8895  -32.2888   26.4685 H   0  0  0  0  0  0
  -25.7957  -30.8929   27.0161 H   0  0  0  0  0  0
  -26.3070  -29.6570   24.1329 H   0  0  0  0  0  0
  -27.4051  -29.7249   25.4898 H   0  0  0  0  0  0
  -27.8972  -30.4104   23.9643 H   0  0  0  0  0  0
  -27.2631  -33.3626   26.1918 H   0  0  0  0  0  0
  -28.3874  -32.6825   25.0274 H   0  0  0  0  0  0
  -28.0686  -31.8499   26.5431 H   0  0  0  0  0  0
  -28.2597  -38.0060   24.7478 H   0  0  0  0  0  0
  -28.1086  -36.2572   24.6345 H   0  0  0  0  0  0
  -27.2284  -37.1477   25.8889 H   0  0  0  0  0  0
  -20.9540  -29.8654   21.6708 H   0  0  0  0  0  0
  -26.0161  -38.2782   24.1329 H   0  0  0  0  0  0
  -30.0073  -20.4945   18.6725 H   0  0  0  0  0  0
  -31.1533  -17.8108   21.0164 H   0  0  0  0  0  0
  -30.7895  -17.7532   19.3454 H   0  0  0  0  0  0
  -27.9068  -24.4111   21.5460 H   0  0  0  0  0  0
  -27.0244  -24.3082   20.0648 H   0  0  0  0  0  0
  -28.2626  -21.2408   23.5890 H   0  0  0  0  0  0
  -28.6783  -22.6930   22.8814 H   0  0  0  0  0  0
  -28.8140  -16.1525   20.6481 H   0  0  0  0  0  0
  1 25  1  0  0  0
  1 30  2  0  0  0
  1 79  1  0  0  0
  2  3  1  0  0  0
  2 25  1  0  0  0
  2 82  1  0  0  0
  2 83  1  0  0  0
  3  4  1  0  0  0
  3 84  1  0  0  0
  3 85  1  0  0  0
  4  5  1  0  0  0
  4 86  1  0  0  0
  4 87  1  0  0  0
  5  6  1  0  0  0
  5 26  1  0  0  0
  5 88  1  0  0  0
  6 25  1  0  0  0
  6 89  1  0  0  0
  6 90  1  0  0  0
  7  8  2  0  0  0
  7 26  1  0  0  0
  7 29  1  0  0  0
  8  9  1  0  0  0
  8 22  1  0  0  0
  9 10  1  0  0  0
  9 27  2  0  0  0
 10 11  2  0  0  0
 10 15  1  0  0  0
 11 12  1  0  0  0
 11 91  1  0  0  0
 12 13  2  0  0  0
 12 92  1  0  0  0
 13 14  1  0  0  0
 13 31  1  0  0  0
 14 15  2  0  0  0
 14 93  1  0  0  0
 15 94  1  0  0  0
 16 17  2  0  0  0
 16 21  1  0  0  0
 16 31  1  0  0  0
 17 18  1  0  0  0
 17 95  1  0  0  0
 18 19  2  0  0  0
 18 96  1  0  0  0
 19 20  1  0  0  0
 19 24  1  0  0  0
 20 21  2  0  0  0
 20 97  1  0  0  0
 21 23  1  0  0  0
 22 28  1  0  0  0
 22 32  2  0  0  0
 26 27  1  0  0  0
 28 98  1  0  0  0
 28 99  1  0  0  0
 29100  1  0  0  0
 29101  1  0  0  0
 33 34  1  0  0  0
 33 66  1  0  0  0
 33 70  2  0  0  0
 34 36  1  0  0  0
 34 59  1  0  0  0
 34102  1  0  0  0
 35 44  2  0  0  0
 35 45  1  0  0  0
 35 68  1  0  0  0
 36 56  1  0  0  0
 36103  1  0  0  0
 37 39  1  0  0  0
 37 47  1  0  0  0
 37 66  1  0  0  0
 37104  1  0  0  0
 38 43  2  0  0  0
 38 46  1  0  0  0
 38 47  1  0  0  0
 39 64  1  0  0  0
 39 67  2  0  0  0
 40 52  1  0  0  0
 40 53  2  0  0  0
 40 58  1  0  0  0
 41105  1  0  0  0
 41106  1  0  0  0
 41107  1  0  0  0
 41 48  1  0  0  0
 42 43  1  0  0  0
 42 66  1  0  0  0
 42108  1  0  0  0
 42109  1  0  0  0
 43 44  1  0  0  0
 44110  1  0  0  0
 45 46  2  0  0  0
 45111  1  0  0  0
 46112  1  0  0  0
 47113  1  0  0  0
 47114  1  0  0  0
 48 56  1  0  0  0
 48 65  1  0  0  0
 48115  1  0  0  0
 49 50  1  0  0  0
 49 53  1  0  0  0
 49 64  1  0  0  0
 49116  1  0  0  0
 50 51  1  0  0  0
 50117  1  0  0  0
 50118  1  0  0  0
 51 52  1  0  0  0
 51119  1  0  0  0
 51120  1  0  0  0
 52121  1  0  0  0
 52122  1  0  0  0
 53 54  1  0  0  0
 54 55  2  0  0  0
 54123  1  0  0  0
 55 57  1  0  0  0
 55124  1  0  0  0
 56 69  2  0  0  0
 57 58  2  0  0  0
 57125  1  0  0  0
 58126  1  0  0  0
 59 60  1  0  0  0
 59 61  1  0  0  0
 59 62  1  0  0  0
 60127  1  0  0  0
 60128  1  0  0  0
 60129  1  0  0  0
 61130  1  0  0  0
 61131  1  0  0  0
 61132  1  0  0  0
 62133  1  0  0  0
 62134  1  0  0  0
 62135  1  0  0  0
 63 65  1  0  0  0
 63136  1  0  0  0
 63137  1  0  0  0
 63138  1  0  0  0
 64139  1  0  0  0
 65140  1  0  0  0
 68 77  1  0  0  0
 71 72  1  0  0  0
 71 73  2  0  0  0
 71141  1  0  0  0
 72 74  2  0  0  0
 72 75  1  0  0  0
 73 76  1  0  0  0
 73 81  1  0  0  0
 74 78  1  0  0  0
 74 81  1  0  0  0
 75 77  1  0  0  0
 75 80  2  0  0  0
 76 79  1  0  0  0
 76142  1  0  0  0
 76143  1  0  0  0
 77144  1  0  0  0
 77145  1  0  0  0
 78146  1  0  0  0
 78147  1  0  0  0
 79148  1  0  0  0
M  ISO  4   1 100  68 101  77 101  79 100
M  END
> <chiral flag>
0

> <version>
0

> <s_m_source_file>
/data/baiqing/PycharmProjects/Reinvent-master-3.2/result/LINK_invent/BTK/process_docking_weight1_custom_product_contain_oxygen_bond_distance_aromatic_linkinvent_7_9_3/rearranged_h_0151.sdf

> <i_m_source_file_index>
55

> <r_mmod_Potential_Energy-OPLS-2005>
586.053466796875

> <r_mmod_Stretch_Energy-OPLS-2005>
311.561737060547

> <r_mmod_Bend_Energy-OPLS-2005>
301.876403808594

> <r_mmod_Torsional_Energy-OPLS-2005>
251.891036987305

> <r_mmod_Improper_Torsional_Energy-OPLS-2005>
10.5887966156006

> <r_mmod_Van_der_Waal_Energy-OPLS-2005>
110.068420410156

> <r_mmod_Electrostatic_Energy-OPLS-2005>
-397.857086181641

> <r_mmod_Solvation_Energy-OPLS-2005>
-243.355804443359

> <b_mmod_Minimization_Converged-OPLS-2005>
0

> <r_mmod_RMS_Derivative-OPLS-2005>
5.81409788131714

$$$$
55
                    3D
 Structure written by MMmdl.
162171  0  0  1  0            999 V2000
  -30.7057  -14.5989   20.4678 C   0  0  0  0  0  0
  -30.4249  -12.3652   19.4403 C   0  0  0  0  0  0
  -29.4927  -12.4585   18.2152 C   0  0  0  0  0  0
  -28.0228  -12.2742   18.6418 C   0  0  0  0  0  0
  -27.6356  -13.1713   19.8423 C   0  0  2  0  0  0
  -28.6959  -13.1261   20.9708 C   0  0  0  0  0  0
  -25.2560  -13.8037   20.5698 C   0  0  0  0  0  0
  -24.1799  -13.0372   20.9221 C   0  0  0  0  0  0
  -24.6326  -11.6833   20.8787 C   0  0  0  0  0  0
  -23.8998  -10.4252   21.0438 C   0  0  0  0  0  0
  -24.3574   -9.4176   21.9203 C   0  0  0  0  0  0
  -23.6266   -8.2208   22.0762 C   0  0  0  0  0  0
  -22.4249   -8.0258   21.3547 C   0  0  0  0  0  0
  -21.9872   -9.0227   20.4644 C   0  0  0  0  0  0
  -22.7189  -10.2109   20.3067 C   0  0  0  0  0  0
  -21.6841   -6.0727   22.5285 C   0  0  0  0  0  0
  -21.4003   -6.5633   23.8216 C   0  0  0  0  0  0
  -21.3650   -5.6787   24.9178 C   0  0  0  0  0  0
  -21.6042   -4.3054   24.7232 C   0  0  0  0  0  0
  -21.8823   -3.8144   23.4355 C   0  0  0  0  0  0
  -21.9189   -4.6956   22.3409 C   0  0  0  0  0  0
  -22.7838  -13.5219   21.1871 C   0  0  0  0  0  0
  -22.1661   -4.2142   21.0989 F   0  0  0  0  0  0
  -21.5624   -3.4541   25.7746 F   0  0  0  0  0  0
  -30.0130  -13.4197   20.3830 N   0  0  0  0  0  0
  -26.2909  -12.9105   20.3305 N   0  0  0  0  0  0
  -25.9229  -11.6324   20.5815 N   0  0  0  0  0  0
  -22.0459  -12.8221   22.0415 N   0  0  0  0  0  0
  -25.4291  -15.1754   20.4091 N   0  0  0  0  0  0
  -31.9105  -14.6584   20.2113 O   0  0  0  0  0  0
  -21.6621   -6.8859   21.4243 O   0  0  0  0  0  0
  -22.3549  -14.5535   20.6714 O   0  0  0  0  0  0
  -24.6181  -31.8653   23.2073 C   0  0  0  0  0  0
  -25.9059  -32.4808   23.8381 C   0  0  1  0  0  0
  -27.2377  -27.4019   20.1103 C   0  0  0  0  0  0
  -25.5901  -33.8606   24.2317 N   0  0  0  0  0  0
  -23.4087  -30.4876   21.5475 C   0  0  2  0  0  0
  -24.8590  -28.9523   20.1112 C   0  0  0  0  0  0
  -22.7435  -29.4646   22.4968 C   0  0  0  0  0  0
  -18.0283  -28.1371   22.8487 C   0  0  0  0  0  0
  -24.1494  -36.7317   23.2638 C   0  0  0  0  0  0
  -25.9412  -30.8217   21.3663 C   0  0  0  0  0  0
  -26.0207  -29.4554   20.7103 C   0  0  0  0  0  0
  -27.2154  -28.6905   20.7015 C   0  0  0  0  0  0
  -26.0608  -26.9318   19.4850 C   0  0  0  0  0  0
  -24.8763  -27.6920   19.4904 C   0  0  0  0  0  0
  -23.6199  -29.8192   20.1627 C   0  0  0  0  0  0
  -25.4116  -36.3104   24.0336 C   0  0  1  0  0  0
  -20.5875  -28.3667   23.1302 C   0  0  2  0  0  0
  -20.6774  -26.9399   22.5411 C   0  0  0  0  0  0
  -19.5753  -26.6379   21.5208 C   0  0  0  0  0  0
  -18.1931  -26.7916   22.1621 C   0  0  0  0  0  0
  -19.1531  -28.8837   23.2891 C   0  0  0  0  0  0
  -18.9454  -30.1442   23.8899 C   0  0  0  0  0  0
  -17.6458  -30.6573   24.0560 C   0  0  0  0  0  0
  -25.9042  -34.9467   23.5129 C   0  0  0  0  0  0
  -16.5348  -29.9072   23.6323 C   0  0  0  0  0  0
  -16.7271  -28.6490   23.0341 C   0  0  0  0  0  0
  -26.4480  -31.6589   25.0715 C   0  0  0  0  0  0
  -25.3742  -31.3688   26.1458 C   0  0  0  0  0  0
  -27.0316  -30.3028   24.6108 C   0  0  0  0  0  0
  -27.6052  -32.4315   25.7476 C   0  0  0  0  0  0
  -27.5588  -37.1816   24.8466 C   0  0  0  0  0  0
  -21.4159  -29.3030   22.3706 N   0  0  0  0  0  0
  -26.4308  -37.3787   23.9400 N   0  0  0  0  0  0
  -24.6739  -31.0729   22.0982 N   0  0  0  0  0  0
  -23.4192  -28.8197   23.3032 O   0  0  0  0  0  0
  -28.3743  -26.6030   20.1516 O   0  0  0  0  0  0
  -26.5605  -34.8921   22.4689 O   0  0  0  0  0  0
  -23.5368  -32.1414   23.7452 O   0  0  0  0  0  0
  -29.2423  -20.4271   20.5941 C   0  0  0  0  0  0
  -30.3990  -19.6010   20.3785 C   0  0  0  0  0  0
  -31.4511  -20.4895   20.4279 C   0  0  0  0  0  0
  -29.6766  -21.7238   20.6601 C   0  0  0  0  0  0
  -29.2683  -17.6243   19.2164 C   0  0  0  0  0  0
  -29.0302  -16.1688   19.6162 C   0  0  0  0  0  0
  -30.5528  -17.0339   21.1711 C   0  0  0  0  0  0
  -30.4549  -18.0939   20.0404 C   0  0  2  0  0  0
  -32.9266  -20.3121   20.2911 C   0  0  0  0  0  0
  -28.1367  -25.5050   22.2957 C   0  0  0  0  0  0
  -29.2804  -24.2265   20.4035 C   0  0  0  0  0  0
  -28.1974  -25.2979   20.7723 C   0  0  2  0  0  0
  -29.9935  -15.7574   20.6470 N   0  0  0  0  0  0
  -28.8647  -22.8647   20.7929 N   0  0  0  0  0  0
  -31.0254  -21.7904   20.5754 O   0  0  0  0  0  0
  -31.4653  -12.4675   19.1263 H   0  0  0  0  0  0
  -30.3496  -11.3849   19.9127 H   0  0  0  0  0  0
  -29.7623  -11.6989   17.4805 H   0  0  0  0  0  0
  -29.6204  -13.4204   17.7177 H   0  0  0  0  0  0
  -27.8832  -11.2257   18.9065 H   0  0  0  0  0  0
  -27.3591  -12.4649   17.7973 H   0  0  0  0  0  0
  -27.5852  -14.1559   19.4114 H   0  0  0  0  0  0
  -28.7097  -12.1434   21.4441 H   0  0  0  0  0  0
  -28.4478  -13.8407   21.7577 H   0  0  0  0  0  0
  -25.2722   -9.5658   22.4772 H   0  0  0  0  0  0
  -23.9979   -7.4595   22.7472 H   0  0  0  0  0  0
  -21.0808   -8.8748   19.8943 H   0  0  0  0  0  0
  -22.3662  -10.9657   19.6178 H   0  0  0  0  0  0
  -21.1998   -7.6141   23.9717 H   0  0  0  0  0  0
  -21.1459   -6.0519   25.9077 H   0  0  0  0  0  0
  -22.0610   -2.7608   23.2862 H   0  0  0  0  0  0
  -22.4058  -11.9871   22.4794 H   0  0  0  0  0  0
  -21.1085  -13.1261   22.2630 H   0  0  0  0  0  0
  -24.6677  -15.8348   20.5293 H   0  0  0  0  0  0
  -26.2862  -15.6133   20.1004 H   0  0  0  0  0  0
  -26.7132  -32.5508   23.1145 H   0  0  0  0  0  0
  -25.0045  -33.9761   25.0460 H   0  0  0  0  0  0
  -22.6985  -31.3050   21.4064 H   0  0  0  0  0  0
  -23.3753  -35.9652   23.3303 H   0  0  0  0  0  0
  -24.3589  -36.8933   22.2053 H   0  0  0  0  0  0
  -23.7254  -37.6525   23.6657 H   0  0  0  0  0  0
  -26.0612  -31.5882   20.5995 H   0  0  0  0  0  0
  -26.8261  -30.8725   21.9887 H   0  0  0  0  0  0
  -28.1093  -29.0714   21.1752 H   0  0  0  0  0  0
  -26.0507  -25.9696   18.9923 H   0  0  0  0  0  0
  -23.9860  -27.3038   19.0145 H   0  0  0  0  0  0
  -23.7242  -30.5926   19.4009 H   0  0  0  0  0  0
  -22.7449  -29.2364   19.8699 H   0  0  0  0  0  0
  -25.1298  -36.1974   25.0833 H   0  0  0  0  0  0
  -20.9970  -28.3237   24.1422 H   0  0  0  0  0  0
  -20.5674  -26.2276   23.3601 H   0  0  0  0  0  0
  -21.6645  -26.7433   22.1206 H   0  0  0  0  0  0
  -19.6917  -25.6292   21.1230 H   0  0  0  0  0  0
  -19.6695  -27.3191   20.6740 H   0  0  0  0  0  0
  -17.4205  -26.6660   21.4021 H   0  0  0  0  0  0
  -18.0340  -26.0053   22.9013 H   0  0  0  0  0  0
  -19.7930  -30.7256   24.2271 H   0  0  0  0  0  0
  -17.5007  -31.6251   24.5159 H   0  0  0  0  0  0
  -15.5348  -30.2969   23.7639 H   0  0  0  0  0  0
  -15.8676  -28.0806   22.7052 H   0  0  0  0  0  0
  -24.5906  -30.7054   25.7786 H   0  0  0  0  0  0
  -24.8939  -32.2835   26.4938 H   0  0  0  0  0  0
  -25.8085  -30.8822   27.0197 H   0  0  0  0  0  0
  -26.2860  -29.6774   24.1182 H   0  0  0  0  0  0
  -27.4106  -29.7278   25.4568 H   0  0  0  0  0  0
  -27.8690  -30.4342   23.9251 H   0  0  0  0  0  0
  -27.2672  -33.3602   26.2083 H   0  0  0  0  0  0
  -28.3840  -32.6900   25.0291 H   0  0  0  0  0  0
  -28.0748  -31.8422   26.5361 H   0  0  0  0  0  0
  -28.2621  -38.0097   24.7493 H   0  0  0  0  0  0
  -28.1068  -36.2628   24.6321 H   0  0  0  0  0  0
  -27.2296  -37.1502   25.8866 H   0  0  0  0  0  0
  -20.9332  -29.8744   21.6912 H   0  0  0  0  0  0
  -26.0199  -38.2875   24.1363 H   0  0  0  0  0  0
  -28.2087  -20.1128   20.6253 H   0  0  0  0  0  0
  -28.3622  -18.1890   19.4322 H   0  0  0  0  0  0
  -29.4604  -17.7349   18.1483 H   0  0  0  0  0  0
  -28.0342  -16.1016   20.0470 H   0  0  0  0  0  0
  -29.0783  -15.5448   18.7223 H   0  0  0  0  0  0
  -29.9366  -17.3335   22.0191 H   0  0  0  0  0  0
  -31.5741  -16.9315   21.5410 H   0  0  0  0  0  0
  -31.3397  -17.9525   19.4166 H   0  0  0  0  0  0
  -33.4678  -20.9989   20.9425 H   0  0  0  0  0  0
  -33.2470  -20.4967   19.2661 H   0  0  0  0  0  0
  -33.2252  -19.2977   20.5569 H   0  0  0  0  0  0
  -27.9556  -24.5647   22.8160 H   0  0  0  0  0  0
  -27.3335  -26.1866   22.5762 H   0  0  0  0  0  0
  -29.0718  -25.9184   22.6735 H   0  0  0  0  0  0
  -30.2383  -24.4774   20.8629 H   0  0  0  0  0  0
  -29.4413  -24.2349   19.3237 H   0  0  0  0  0  0
  -27.2435  -24.8732   20.4611 H   0  0  0  0  0  0
  -27.8627  -22.7302   20.8926 H   0  0  0  0  0  0
  1 25  1  0  0  0
  1 30  2  0  0  0
  1 83  1  0  0  0
  2  3  1  0  0  0
  2 25  1  0  0  0
  2 86  1  0  0  0
  2 87  1  0  0  0
  3  4  1  0  0  0
  3 88  1  0  0  0
  3 89  1  0  0  0
  4  5  1  0  0  0
  4 90  1  0  0  0
  4 91  1  0  0  0
  5  6  1  0  0  0
  5 26  1  0  0  0
  5 92  1  0  0  0
  6 25  1  0  0  0
  6 93  1  0  0  0
  6 94  1  0  0  0
  7  8  2  0  0  0
  7 26  1  0  0  0
  7 29  1  0  0  0
  8  9  1  0  0  0
  8 22  1  0  0  0
  9 10  1  0  0  0
  9 27  2  0  0  0
 10 11  2  0  0  0
 10 15  1  0  0  0
 11 12  1  0  0  0
 11 95  1  0  0  0
 12 13  2  0  0  0
 12 96  1  0  0  0
 13 14  1  0  0  0
 13 31  1  0  0  0
 14 15  2  0  0  0
 14 97  1  0  0  0
 15 98  1  0  0  0
 16 17  2  0  0  0
 16 21  1  0  0  0
 16 31  1  0  0  0
 17 18  1  0  0  0
 17 99  1  0  0  0
 18 19  2  0  0  0
 18100  1  0  0  0
 19 20  1  0  0  0
 19 24  1  0  0  0
 20 21  2  0  0  0
 20101  1  0  0  0
 21 23  1  0  0  0
 22 28  1  0  0  0
 22 32  2  0  0  0
 26 27  1  0  0  0
 28102  1  0  0  0
 28103  1  0  0  0
 29104  1  0  0  0
 29105  1  0  0  0
 33 34  1  0  0  0
 33 66  1  0  0  0
 33 70  2  0  0  0
 34 36  1  0  0  0
 34 59  1  0  0  0
 34106  1  0  0  0
 35 44  2  0  0  0
 35 45  1  0  0  0
 35 68  1  0  0  0
 36 56  1  0  0  0
 36107  1  0  0  0
 37 39  1  0  0  0
 37 47  1  0  0  0
 37 66  1  0  0  0
 37108  1  0  0  0
 38 43  2  0  0  0
 38 46  1  0  0  0
 38 47  1  0  0  0
 39 64  1  0  0  0
 39 67  2  0  0  0
 40 52  1  0  0  0
 40 53  2  0  0  0
 40 58  1  0  0  0
 41109  1  0  0  0
 41110  1  0  0  0
 41111  1  0  0  0
 41 48  1  0  0  0
 42 43  1  0  0  0
 42 66  1  0  0  0
 42112  1  0  0  0
 42113  1  0  0  0
 43 44  1  0  0  0
 44114  1  0  0  0
 45 46  2  0  0  0
 45115  1  0  0  0
 46116  1  0  0  0
 47117  1  0  0  0
 47118  1  0  0  0
 48 56  1  0  0  0
 48 65  1  0  0  0
 48119  1  0  0  0
 49 50  1  0  0  0
 49 53  1  0  0  0
 49 64  1  0  0  0
 49120  1  0  0  0
 50 51  1  0  0  0
 50121  1  0  0  0
 50122  1  0  0  0
 51 52  1  0  0  0
 51123  1  0  0  0
 51124  1  0  0  0
 52125  1  0  0  0
 52126  1  0  0  0
 53 54  1  0  0  0
 54 55  2  0  0  0
 54127  1  0  0  0
 55 57  1  0  0  0
 55128  1  0  0  0
 56 69  2  0  0  0
 57 58  2  0  0  0
 57129  1  0  0  0
 58130  1  0  0  0
 59 60  1  0  0  0
 59 61  1  0  0  0
 59 62  1  0  0  0
 60131  1  0  0  0
 60132  1  0  0  0
 60133  1  0  0  0
 61134  1  0  0  0
 61135  1  0  0  0
 61136  1  0  0  0
 62137  1  0  0  0
 62138  1  0  0  0
 62139  1  0  0  0
 63 65  1  0  0  0
 63140  1  0  0  0
 63141  1  0  0  0
 63142  1  0  0  0
 64143  1  0  0  0
 65144  1  0  0  0
 68 82  1  0  0  0
 71 72  1  0  0  0
 71 74  2  0  0  0
 71145  1  0  0  0
 72 73  2  0  0  0
 72 78  1  0  0  0
 73 79  1  0  0  0
 73 85  1  0  0  0
 74 84  1  0  0  0
 74 85  1  0  0  0
 75 76  1  0  0  0
 75 78  1  0  0  0
 75146  1  0  0  0
 75147  1  0  0  0
 76 83  1  0  0  0
 76148  1  0  0  0
 76149  1  0  0  0
 77 78  1  0  0  0
 77 83  1  0  0  0
 77150  1  0  0  0
 77151  1  0  0  0
 78152  1  0  0  0
 79153  1  0  0  0
 79154  1  0  0  0
 79155  1  0  0  0
 80156  1  0  0  0
 80157  1  0  0  0
 80158  1  0  0  0
 80 82  1  0  0  0
 81 82  1  0  0  0
 81 84  1  0  0  0
 81159  1  0  0  0
 81160  1  0  0  0
 82161  1  0  0  0
 84162  1  0  0  0
M  ISO  4   1 100  68 101  82 101  83 100
M  END
> <chiral flag>
0

> <version>
0

> <s_m_source_file>
/data/baiqing/PycharmProjects/Reinvent-master-3.2/result/LINK_invent/BTK/process_docking_weight1_custom_product_contain_oxygen_bond_distance_aromatic_linkinvent_7_9_3/rearranged_h_0151.sdf

> <i_m_source_file_index>
56

> <r_mmod_Potential_Energy-OPLS-2005>
152.136611938477

> <r_mmod_Stretch_Energy-OPLS-2005>
48.5438919067383

> <r_mmod_Bend_Energy-OPLS-2005>
142.57991027832

> <r_mmod_Torsional_Energy-OPLS-2005>
352.457977294922

> <r_mmod_Improper_Torsional_Energy-OPLS-2005>
9.1498851776123

> <r_mmod_Van_der_Waal_Energy-OPLS-2005>
126.274757385254

> <r_mmod_Electrostatic_Energy-OPLS-2005>
-355.802551269531

> <r_mmod_Solvation_Energy-OPLS-2005>
-210.121688842773

> <b_mmod_Minimization_Converged-OPLS-2005>
0

> <r_mmod_RMS_Derivative-OPLS-2005>
1.27288198471069

$$$$
56
                    3D
 Structure written by MMmdl.
157166  0  0  1  0            999 V2000
  -30.6286  -14.7848   20.5056 C   0  0  0  0  0  0
  -30.4433  -12.4969   19.4633 C   0  0  0  0  0  0
  -29.5118  -12.5060   18.2300 C   0  0  0  0  0  0
  -28.0417  -12.3092   18.6556 C   0  0  0  0  0  0
  -27.6399  -13.2267   19.8430 C   0  0  2  0  0  0
  -28.6896  -13.1941   20.9774 C   0  0  0  0  0  0
  -25.2496  -13.8163   20.5710 C   0  0  0  0  0  0
  -24.1781  -13.0438   20.9177 C   0  0  0  0  0  0
  -24.6336  -11.6889   20.8684 C   0  0  0  0  0  0
  -23.8987  -10.4283   21.0371 C   0  0  0  0  0  0
  -24.3569   -9.4213   21.9167 C   0  0  0  0  0  0
  -23.6273   -8.2213   22.0741 C   0  0  0  0  0  0
  -22.4266   -8.0232   21.3521 C   0  0  0  0  0  0
  -21.9855   -9.0195   20.4630 C   0  0  0  0  0  0
  -22.7141  -10.2108   20.3043 C   0  0  0  0  0  0
  -21.6859   -6.0695   22.5258 C   0  0  0  0  0  0
  -21.3999   -6.5610   23.8191 C   0  0  0  0  0  0
  -21.3675   -5.6765   24.9164 C   0  0  0  0  0  0
  -21.6046   -4.3024   24.7196 C   0  0  0  0  0  0
  -21.8835   -3.8113   23.4322 C   0  0  0  0  0  0
  -21.9185   -4.6930   22.3386 C   0  0  0  0  0  0
  -22.7798  -13.5200   21.1859 C   0  0  0  0  0  0
  -22.1674   -4.2122   21.0966 F   0  0  0  0  0  0
  -21.5647   -3.4505   25.7723 F   0  0  0  0  0  0
  -29.9856  -13.5668   20.3867 N   0  0  0  0  0  0
  -26.2923  -12.9384   20.3258 N   0  0  0  0  0  0
  -25.9266  -11.6524   20.5703 N   0  0  0  0  0  0
  -22.0431  -12.8243   22.0444 N   0  0  0  0  0  0
  -25.4205  -15.1911   20.4284 N   0  0  0  0  0  0
  -31.8304  -14.8596   20.2280 O   0  0  0  0  0  0
  -21.6636   -6.8831   21.4220 O   0  0  0  0  0  0
  -22.3518  -14.5511   20.6687 O   0  0  0  0  0  0
  -24.6293  -31.8602   23.1974 C   0  0  0  0  0  0
  -25.9114  -32.4788   23.8329 C   0  0  1  0  0  0
  -27.2229  -27.2642   20.1491 C   0  0  0  0  0  0
  -25.5950  -33.8587   24.2252 N   0  0  0  0  0  0
  -23.4268  -30.4807   21.5384 C   0  0  2  0  0  0
  -24.8768  -28.9214   20.1155 C   0  0  0  0  0  0
  -22.7498  -29.4637   22.4893 C   0  0  0  0  0  0
  -18.0307  -28.1425   22.8447 C   0  0  0  0  0  0
  -24.1499  -36.7244   23.2642 C   0  0  0  0  0  0
  -25.9728  -30.7720   21.3801 C   0  0  0  0  0  0
  -26.0468  -29.3932   20.7203 C   0  0  0  0  0  0
  -27.2233  -28.5799   20.7244 C   0  0  0  0  0  0
  -26.0351  -26.8623   19.5017 C   0  0  0  0  0  0
  -24.8749  -27.6620   19.4954 C   0  0  0  0  0  0
  -23.6488  -29.8088   20.1568 C   0  0  0  0  0  0
  -25.4137  -36.3098   24.0340 C   0  0  1  0  0  0
  -20.5893  -28.3720   23.1251 C   0  0  2  0  0  0
  -20.6801  -26.9440   22.5408 C   0  0  0  0  0  0
  -19.5806  -26.6402   21.5198 C   0  0  0  0  0  0
  -18.1967  -26.7964   22.1580 C   0  0  0  0  0  0
  -19.1551  -28.8890   23.2844 C   0  0  0  0  0  0
  -18.9486  -30.1467   23.8875 C   0  0  0  0  0  0
  -17.6496  -30.6620   24.0569 C   0  0  0  0  0  0
  -25.9078  -34.9454   23.5106 C   0  0  0  0  0  0
  -16.5384  -29.9111   23.6347 C   0  0  0  0  0  0
  -16.7294  -28.6544   23.0346 C   0  0  0  0  0  0
  -26.4485  -31.6616   25.0690 C   0  0  0  0  0  0
  -25.3691  -31.3794   26.1404 C   0  0  0  0  0  0
  -27.0305  -30.3043   24.6169 C   0  0  0  0  0  0
  -27.6135  -32.4281   25.7391 C   0  0  0  0  0  0
  -27.5603  -37.1775   24.8456 C   0  0  0  0  0  0
  -21.4212  -29.3060   22.3621 N   0  0  0  0  0  0
  -26.4315  -37.3785   23.9419 N   0  0  0  0  0  0
  -24.6953  -31.0546   22.0949 N   0  0  0  0  0  0
  -23.4199  -28.8199   23.3020 O   0  0  0  0  0  0
  -28.3290  -26.3838   20.1946 O   0  0  0  0  0  0
  -26.5606  -34.8919   22.4639 O   0  0  0  0  0  0
  -23.5442  -32.1424   23.7284 O   0  0  0  0  0  0
  -29.3335  -18.5412   20.5647 C   0  0  0  0  0  0
  -31.4127  -17.8511   21.3900 C   0  0  0  0  0  0
  -30.2197  -17.3919   20.8677 C   0  0  0  0  0  0
  -29.8586  -19.8392   20.7756 C   0  0  0  0  0  0
  -29.3398  -21.2255   20.3647 C   0  0  0  0  0  0
  -30.5600  -24.1922   22.3096 C   0  0  0  0  0  0
  -30.6140  -24.6166   20.8433 C   0  0  0  0  0  0
  -30.2400  -22.6928   22.2159 C   0  0  0  0  0  0
  -29.3905  -23.9038   20.2590 C   0  0  2  0  0  0
  -28.1403  -24.9131   20.5008 C   0  0  0  0  0  0
  -29.5183  -22.5053   20.9382 N   0  0  0  0  0  0
  -29.8673  -15.9445   20.6721 N   0  0  0  0  0  0
  -28.6268  -21.2107   19.2299 N   0  3  0  0  0  0
  -31.4743  -19.6205   21.4437 S   0  0  0  0  0  0
  -31.4759  -12.6484   19.1466 H   0  0  0  0  0  0
  -30.4190  -11.5254   19.9611 H   0  0  0  0  0  0
  -29.8085  -11.7176   17.5360 H   0  0  0  0  0  0
  -29.6151  -13.4486   17.6885 H   0  0  0  0  0  0
  -27.9286  -11.2626   18.9475 H   0  0  0  0  0  0
  -27.3719  -12.4618   17.8069 H   0  0  0  0  0  0
  -27.6235  -14.2415   19.4431 H   0  0  0  0  0  0
  -28.7461  -12.2025   21.4325 H   0  0  0  0  0  0
  -28.4096  -13.8821   21.7766 H   0  0  0  0  0  0
  -25.2709   -9.5714   22.4722 H   0  0  0  0  0  0
  -23.9992   -7.4620   22.7458 H   0  0  0  0  0  0
  -21.0773   -8.8636   19.8972 H   0  0  0  0  0  0
  -22.3515  -10.9610   19.6138 H   0  0  0  0  0  0
  -21.1987   -7.6135   23.9680 H   0  0  0  0  0  0
  -21.1509   -6.0514   25.9082 H   0  0  0  0  0  0
  -22.0611   -2.7576   23.2806 H   0  0  0  0  0  0
  -22.4078  -11.9941   22.4852 H   0  0  0  0  0  0
  -21.1025  -13.1284   22.2610 H   0  0  0  0  0  0
  -24.6585  -15.8400   20.5903 H   0  0  0  0  0  0
  -26.2795  -15.6457   20.1514 H   0  0  0  0  0  0
  -26.7150  -32.5417   23.1045 H   0  0  0  0  0  0
  -25.0148  -33.9719   25.0447 H   0  0  0  0  0  0
  -22.7240  -31.3030   21.3880 H   0  0  0  0  0  0
  -23.3823  -35.9509   23.3297 H   0  0  0  0  0  0
  -24.3627  -36.8868   22.2063 H   0  0  0  0  0  0
  -23.7162  -37.6413   23.6647 H   0  0  0  0  0  0
  -26.1130  -31.5409   20.6191 H   0  0  0  0  0  0
  -26.8486  -30.8130   22.0157 H   0  0  0  0  0  0
  -28.1141  -28.9430   21.2151 H   0  0  0  0  0  0
  -25.9828  -25.9116   18.9968 H   0  0  0  0  0  0
  -23.9770  -27.2914   19.0170 H   0  0  0  0  0  0
  -23.7782  -30.5809   19.3987 H   0  0  0  0  0  0
  -22.7661  -29.2431   19.8565 H   0  0  0  0  0  0
  -25.1343  -36.1953   25.0842 H   0  0  0  0  0  0
  -20.9977  -28.3313   24.1375 H   0  0  0  0  0  0
  -20.5683  -26.2348   23.3621 H   0  0  0  0  0  0
  -21.6684  -26.7493   22.1225 H   0  0  0  0  0  0
  -19.6988  -25.6300   21.1258 H   0  0  0  0  0  0
  -19.6786  -27.3173   20.6703 H   0  0  0  0  0  0
  -17.4265  -26.6690   21.3955 H   0  0  0  0  0  0
  -18.0381  -26.0127   22.9005 H   0  0  0  0  0  0
  -19.7970  -30.7271   24.2244 H   0  0  0  0  0  0
  -17.5082  -31.6309   24.5176 H   0  0  0  0  0  0
  -15.5371  -30.3038   23.7728 H   0  0  0  0  0  0
  -15.8692  -28.0893   22.7053 H   0  0  0  0  0  0
  -24.5855  -30.7161   25.7719 H   0  0  0  0  0  0
  -24.8844  -32.2954   26.4797 H   0  0  0  0  0  0
  -25.7978  -30.8978   27.0201 H   0  0  0  0  0  0
  -26.2874  -29.6760   24.1235 H   0  0  0  0  0  0
  -27.4062  -29.7356   25.4687 H   0  0  0  0  0  0
  -27.8732  -30.4353   23.9371 H   0  0  0  0  0  0
  -27.2919  -33.3660   26.1937 H   0  0  0  0  0  0
  -28.3940  -32.6695   25.0147 H   0  0  0  0  0  0
  -28.0779  -31.8347   26.5285 H   0  0  0  0  0  0
  -28.2650  -38.0055   24.7581 H   0  0  0  0  0  0
  -28.1089  -36.2611   24.6231 H   0  0  0  0  0  0
  -27.2318  -37.1353   25.8852 H   0  0  0  0  0  0
  -20.9409  -29.8742   21.6786 H   0  0  0  0  0  0
  -26.0215  -38.2863   24.1463 H   0  0  0  0  0  0
  -28.3446  -18.3769   20.1485 H   0  0  0  0  0  0
  -32.2806  -17.2994   21.7536 H   0  0  0  0  0  0
  -29.7768  -24.7246   22.8547 H   0  0  0  0  0  0
  -31.4997  -24.3916   22.8225 H   0  0  0  0  0  0
  -31.5257  -24.2542   20.3705 H   0  0  0  0  0  0
  -30.6040  -25.7001   20.7281 H   0  0  0  0  0  0
  -29.6864  -22.3345   23.0832 H   0  0  0  0  0  0
  -31.1896  -22.1639   22.1849 H   0  0  0  0  0  0
  -29.5292  -23.7992   19.1838 H   0  0  0  0  0  0
  -27.8159  -24.8365   21.5406 H   0  0  0  0  0  0
  -27.3045  -24.5253   19.9216 H   0  0  0  0  0  0
  -28.8792  -15.7709   20.5534 H   0  0  0  0  0  0
  -28.4597  -20.3379   18.7551 H   0  0  0  0  0  0
  -28.2428  -22.0492   18.8177 H   0  0  0  0  0  0
  1 25  1  0  0  0
  1 30  2  0  0  0
  1 82  1  0  0  0
  2  3  1  0  0  0
  2 25  1  0  0  0
  2 85  1  0  0  0
  2 86  1  0  0  0
  3  4  1  0  0  0
  3 87  1  0  0  0
  3 88  1  0  0  0
  4  5  1  0  0  0
  4 89  1  0  0  0
  4 90  1  0  0  0
  5  6  1  0  0  0
  5 26  1  0  0  0
  5 91  1  0  0  0
  6 25  1  0  0  0
  6 92  1  0  0  0
  6 93  1  0  0  0
  7  8  2  0  0  0
  7 26  1  0  0  0
  7 29  1  0  0  0
  8  9  1  0  0  0
  8 22  1  0  0  0
  9 10  1  0  0  0
  9 27  2  0  0  0
 10 11  2  0  0  0
 10 15  1  0  0  0
 11 12  1  0  0  0
 11 94  1  0  0  0
 12 13  2  0  0  0
 12 95  1  0  0  0
 13 14  1  0  0  0
 13 31  1  0  0  0
 14 15  2  0  0  0
 14 96  1  0  0  0
 15 97  1  0  0  0
 16 17  2  0  0  0
 16 21  1  0  0  0
 16 31  1  0  0  0
 17 18  1  0  0  0
 17 98  1  0  0  0
 18 19  2  0  0  0
 18 99  1  0  0  0
 19 20  1  0  0  0
 19 24  1  0  0  0
 20 21  2  0  0  0
 20100  1  0  0  0
 21 23  1  0  0  0
 22 28  1  0  0  0
 22 32  2  0  0  0
 26 27  1  0  0  0
 28101  1  0  0  0
 28102  1  0  0  0
 29103  1  0  0  0
 29104  1  0  0  0
 33 34  1  0  0  0
 33 66  1  0  0  0
 33 70  2  0  0  0
 34 36  1  0  0  0
 34 59  1  0  0  0
 34105  1  0  0  0
 35 44  2  0  0  0
 35 45  1  0  0  0
 35 68  1  0  0  0
 36 56  1  0  0  0
 36106  1  0  0  0
 37 39  1  0  0  0
 37 47  1  0  0  0
 37 66  1  0  0  0
 37107  1  0  0  0
 38 43  2  0  0  0
 38 46  1  0  0  0
 38 47  1  0  0  0
 39 64  1  0  0  0
 39 67  2  0  0  0
 40 52  1  0  0  0
 40 53  2  0  0  0
 40 58  1  0  0  0
 41108  1  0  0  0
 41109  1  0  0  0
 41110  1  0  0  0
 41 48  1  0  0  0
 42 43  1  0  0  0
 42 66  1  0  0  0
 42111  1  0  0  0
 42112  1  0  0  0
 43 44  1  0  0  0
 44113  1  0  0  0
 45 46  2  0  0  0
 45114  1  0  0  0
 46115  1  0  0  0
 47116  1  0  0  0
 47117  1  0  0  0
 48 56  1  0  0  0
 48 65  1  0  0  0
 48118  1  0  0  0
 49 50  1  0  0  0
 49 53  1  0  0  0
 49 64  1  0  0  0
 49119  1  0  0  0
 50 51  1  0  0  0
 50120  1  0  0  0
 50121  1  0  0  0
 51 52  1  0  0  0
 51122  1  0  0  0
 51123  1  0  0  0
 52124  1  0  0  0
 52125  1  0  0  0
 53 54  1  0  0  0
 54 55  2  0  0  0
 54126  1  0  0  0
 55 57  1  0  0  0
 55127  1  0  0  0
 56 69  2  0  0  0
 57 58  2  0  0  0
 57128  1  0  0  0
 58129  1  0  0  0
 59 60  1  0  0  0
 59 61  1  0  0  0
 59 62  1  0  0  0
 60130  1  0  0  0
 60131  1  0  0  0
 60132  1  0  0  0
 61133  1  0  0  0
 61134  1  0  0  0
 61135  1  0  0  0
 62136  1  0  0  0
 62137  1  0  0  0
 62138  1  0  0  0
 63 65  1  0  0  0
 63139  1  0  0  0
 63140  1  0  0  0
 63141  1  0  0  0
 64142  1  0  0  0
 65143  1  0  0  0
 68 80  1  0  0  0
 71 73  1  0  0  0
 71 74  2  0  0  0
 71144  1  0  0  0
 72 73  2  0  0  0
 72 84  1  0  0  0
 72145  1  0  0  0
 73 82  1  0  0  0
 74 75  1  0  0  0
 74 84  1  0  0  0
 75 81  1  0  0  0
 75 83  2  0  0  0
 76 77  1  0  0  0
 76 78  1  0  0  0
 76146  1  0  0  0
 76147  1  0  0  0
 77 79  1  0  0  0
 77148  1  0  0  0
 77149  1  0  0  0
 78 81  1  0  0  0
 78150  1  0  0  0
 78151  1  0  0  0
 79 80  1  0  0  0
 79 81  1  0  0  0
 79152  1  0  0  0
 80153  1  0  0  0
 80154  1  0  0  0
 82155  1  0  0  0
 83156  1  0  0  0
 83157  1  0  0  0
M  CHG  1  83   1
M  ISO  4   1 100  68 101  80 101  82 100
M  END
> <chiral flag>
0

> <version>
0

> <s_m_source_file>
/data/baiqing/PycharmProjects/Reinvent-master-3.2/result/LINK_invent/BTK/process_docking_weight1_custom_product_contain_oxygen_bond_distance_aromatic_linkinvent_7_9_3/rearranged_h_0151.sdf

> <i_m_source_file_index>
57

> <r_mmod_Potential_Energy-OPLS-2005>
223.169998168945

> <r_mmod_Stretch_Energy-OPLS-2005>
143.649124145508

> <r_mmod_Bend_Energy-OPLS-2005>
224.977386474609

> <r_mmod_Torsional_Energy-OPLS-2005>
302.421447753906

> <r_mmod_Improper_Torsional_Energy-OPLS-2005>
7.42067766189575

> <r_mmod_Van_der_Waal_Energy-OPLS-2005>
118.15552520752

> <r_mmod_Electrostatic_Energy-OPLS-2005>
-216.427017211914

> <r_mmod_Solvation_Energy-OPLS-2005>
-452.348175048828

> <b_mmod_Minimization_Converged-OPLS-2005>
0

> <r_mmod_RMS_Derivative-OPLS-2005>
7.85657167434692

$$$$
57
                    3D
 Structure written by MMmdl.
152161  0  0  1  0            999 V2000
  -30.6496  -14.7396   20.4754 C   0  0  0  0  0  0
  -30.4222  -12.4560   19.4808 C   0  0  0  0  0  0
  -29.5075  -12.5109   18.2392 C   0  0  0  0  0  0
  -28.0349  -12.3369   18.6534 C   0  0  0  0  0  0
  -27.6401  -13.2405   19.8525 C   0  0  2  0  0  0
  -28.6840  -13.1934   20.9898 C   0  0  0  0  0  0
  -25.2498  -13.8221   20.5721 C   0  0  0  0  0  0
  -24.1792  -13.0449   20.9204 C   0  0  0  0  0  0
  -24.6394  -11.6930   20.8740 C   0  0  0  0  0  0
  -23.9074  -10.4300   21.0399 C   0  0  0  0  0  0
  -24.3623   -9.4215   21.9179 C   0  0  0  0  0  0
  -23.6299   -8.2249   22.0750 C   0  0  0  0  0  0
  -22.4281   -8.0285   21.3542 C   0  0  0  0  0  0
  -21.9917   -9.0257   20.4645 C   0  0  0  0  0  0
  -22.7245  -10.2138   20.3051 C   0  0  0  0  0  0
  -21.6857   -6.0738   22.5277 C   0  0  0  0  0  0
  -21.4018   -6.5641   23.8210 C   0  0  0  0  0  0
  -21.3659   -5.6792   24.9172 C   0  0  0  0  0  0
  -21.6044   -4.3055   24.7223 C   0  0  0  0  0  0
  -21.8819   -3.8149   23.4342 C   0  0  0  0  0  0
  -21.9194   -4.6965   22.3399 C   0  0  0  0  0  0
  -22.7811  -13.5220   21.1864 C   0  0  0  0  0  0
  -22.1664   -4.2150   21.0978 F   0  0  0  0  0  0
  -21.5624   -3.4538   25.7734 F   0  0  0  0  0  0
  -29.9853  -13.5326   20.4032 N   0  0  0  0  0  0
  -26.2934  -12.9445   20.3311 N   0  0  0  0  0  0
  -25.9331  -11.6576   20.5760 N   0  0  0  0  0  0
  -22.0464  -12.8209   22.0424 N   0  0  0  0  0  0
  -25.4197  -15.1946   20.4177 N   0  0  0  0  0  0
  -31.8290  -14.7954   20.1107 O   0  0  0  0  0  0
  -21.6644   -6.8882   21.4241 O   0  0  0  0  0  0
  -22.3492  -14.5522   20.6706 O   0  0  0  0  0  0
  -24.6335  -31.8551   23.2003 C   0  0  0  0  0  0
  -25.9157  -32.4751   23.8347 C   0  0  1  0  0  0
  -27.2080  -27.2397   20.1248 C   0  0  0  0  0  0
  -25.5949  -33.8554   24.2263 N   0  0  0  0  0  0
  -23.4306  -30.4812   21.5438 C   0  0  2  0  0  0
  -24.8769  -28.9347   20.1059 C   0  0  0  0  0  0
  -22.7515  -29.4605   22.4899 C   0  0  0  0  0  0
  -18.0292  -28.1386   22.8483 C   0  0  0  0  0  0
  -24.1490  -36.7279   23.2639 C   0  0  0  0  0  0
  -25.9808  -30.7588   21.3885 C   0  0  0  0  0  0
  -26.0499  -29.3819   20.7269 C   0  0  0  0  0  0
  -27.2158  -28.5446   20.7329 C   0  0  0  0  0  0
  -26.0182  -26.8903   19.4411 C   0  0  0  0  0  0
  -24.8681  -27.6977   19.4514 C   0  0  0  0  0  0
  -23.6499  -29.8237   20.1574 C   0  0  0  0  0  0
  -25.4116  -36.3064   24.0327 C   0  0  1  0  0  0
  -20.5900  -28.3703   23.1256 C   0  0  2  0  0  0
  -20.6781  -26.9419   22.5400 C   0  0  0  0  0  0
  -19.5754  -26.6383   21.5207 C   0  0  0  0  0  0
  -18.1936  -26.7927   22.1625 C   0  0  0  0  0  0
  -19.1548  -28.8862   23.2865 C   0  0  0  0  0  0
  -18.9467  -30.1460   23.8887 C   0  0  0  0  0  0
  -17.6466  -30.6589   24.0557 C   0  0  0  0  0  0
  -25.9062  -34.9436   23.5096 C   0  0  0  0  0  0
  -16.5357  -29.9084   23.6331 C   0  0  0  0  0  0
  -16.7279  -28.6500   23.0357 C   0  0  0  0  0  0
  -26.4512  -31.6578   25.0744 C   0  0  0  0  0  0
  -25.3726  -31.3743   26.1459 C   0  0  0  0  0  0
  -27.0356  -30.2982   24.6263 C   0  0  0  0  0  0
  -27.6066  -32.4319   25.7513 C   0  0  0  0  0  0
  -27.5580  -37.1793   24.8463 C   0  0  0  0  0  0
  -21.4221  -29.3048   22.3642 N   0  0  0  0  0  0
  -26.4288  -37.3766   23.9411 N   0  0  0  0  0  0
  -24.7005  -31.0501   22.0995 N   0  0  0  0  0  0
  -23.4209  -28.8136   23.2995 O   0  0  0  0  0  0
  -28.2695  -26.2959   20.2183 O   0  0  0  0  0  0
  -26.5631  -34.8912   22.4662 O   0  0  0  0  0  0
  -23.5478  -32.1386   23.7281 O   0  0  0  0  0  0
  -29.2266  -20.3814   21.4206 C   0  0  0  0  0  0
  -29.4501  -18.9326   21.3337 C   0  0  0  0  0  0
  -29.5082  -18.4501   20.0624 C   0  0  0  0  0  0
  -29.0544  -21.0504   20.2100 C   0  0  0  0  0  0
  -28.7911  -23.6187   20.4823 C   0  0  0  0  0  0
  -29.5783  -17.9122   22.4388 C   0  0  0  0  0  0
  -29.7449  -16.9603   19.6684 C   0  0  0  0  0  0
  -30.3422  -16.5953   22.0386 C   0  0  0  0  0  0
  -27.9910  -24.8556   19.8341 C   0  0  0  0  0  0
  -29.9646  -15.9257   20.7611 N   0  0  0  0  0  0
  -28.6905  -22.3711   19.8787 N   0  0  0  0  0  0
  -29.4555  -23.7900   21.5081 O   0  0  0  0  0  0
  -29.2349  -19.8029   18.9442 S   0  0  0  0  0  0
  -31.4667  -12.5569   19.1809 H   0  0  0  0  0  0
  -30.3497  -11.4840   19.9712 H   0  0  0  0  0  0
  -29.7904  -11.7361   17.5254 H   0  0  0  0  0  0
  -29.6372  -13.4649   17.7255 H   0  0  0  0  0  0
  -27.8925  -11.2888   18.9190 H   0  0  0  0  0  0
  -27.3773  -12.5264   17.8044 H   0  0  0  0  0  0
  -27.6305  -14.2606   19.4677 H   0  0  0  0  0  0
  -28.7158  -12.2058   21.4522 H   0  0  0  0  0  0
  -28.4195  -13.8977   21.7806 H   0  0  0  0  0  0
  -25.2766   -9.5693   22.4755 H   0  0  0  0  0  0
  -24.0008   -7.4640   22.7468 H   0  0  0  0  0  0
  -21.0847   -8.8774   19.8952 H   0  0  0  0  0  0
  -22.3697  -10.9673   19.6160 H   0  0  0  0  0  0
  -21.2017   -7.6149   23.9715 H   0  0  0  0  0  0
  -21.1481   -6.0523   25.9076 H   0  0  0  0  0  0
  -22.0598   -2.7611   23.2839 H   0  0  0  0  0  0
  -22.4091  -11.9878   22.4819 H   0  0  0  0  0  0
  -21.1077  -13.1222   22.2624 H   0  0  0  0  0  0
  -24.6576  -15.8522   20.5402 H   0  0  0  0  0  0
  -26.2846  -15.6386   20.1359 H   0  0  0  0  0  0
  -26.7222  -32.5392   23.1085 H   0  0  0  0  0  0
  -25.0091  -33.9690   25.0406 H   0  0  0  0  0  0
  -22.7276  -31.3046   21.4009 H   0  0  0  0  0  0
  -23.3756  -35.9608   23.3292 H   0  0  0  0  0  0
  -24.3582  -36.8910   22.2056 H   0  0  0  0  0  0
  -23.7243  -37.6478   23.6667 H   0  0  0  0  0  0
  -26.1283  -31.5203   20.6213 H   0  0  0  0  0  0
  -26.8553  -30.8029   22.0258 H   0  0  0  0  0  0
  -28.1056  -28.8749   21.2505 H   0  0  0  0  0  0
  -25.9279  -25.9652   18.8936 H   0  0  0  0  0  0
  -23.9763  -27.3577   18.9425 H   0  0  0  0  0  0
  -23.7776  -30.6042   19.4064 H   0  0  0  0  0  0
  -22.7672  -29.2613   19.8481 H   0  0  0  0  0  0
  -25.1297  -36.1910   25.0820 H   0  0  0  0  0  0
  -20.9992  -28.3283   24.1376 H   0  0  0  0  0  0
  -20.5677  -26.2316   23.3609 H   0  0  0  0  0  0
  -21.6648  -26.7438   22.1197 H   0  0  0  0  0  0
  -19.6916  -25.6290   21.1247 H   0  0  0  0  0  0
  -19.6689  -27.3184   20.6729 H   0  0  0  0  0  0
  -17.4203  -26.6667   21.4030 H   0  0  0  0  0  0
  -18.0343  -26.0074   22.9027 H   0  0  0  0  0  0
  -19.7943  -30.7274   24.2258 H   0  0  0  0  0  0
  -17.5021  -31.6268   24.5160 H   0  0  0  0  0  0
  -15.5356  -30.2982   23.7660 H   0  0  0  0  0  0
  -15.8679  -28.0813   22.7083 H   0  0  0  0  0  0
  -24.5890  -30.7108   25.7783 H   0  0  0  0  0  0
  -24.8933  -32.2920   26.4879 H   0  0  0  0  0  0
  -25.8033  -30.8915   27.0242 H   0  0  0  0  0  0
  -26.2948  -29.6726   24.1270 H   0  0  0  0  0  0
  -27.3990  -29.7255   25.4806 H   0  0  0  0  0  0
  -27.8854  -30.4229   23.9547 H   0  0  0  0  0  0
  -27.2679  -33.3630   26.2069 H   0  0  0  0  0  0
  -28.3887  -32.6861   25.0346 H   0  0  0  0  0  0
  -28.0723  -31.8458   26.5447 H   0  0  0  0  0  0
  -28.2586  -38.0101   24.7518 H   0  0  0  0  0  0
  -28.1085  -36.2630   24.6274 H   0  0  0  0  0  0
  -27.2300  -37.1428   25.8866 H   0  0  0  0  0  0
  -20.9406  -29.8783   21.6858 H   0  0  0  0  0  0
  -26.0164  -38.2839   24.1413 H   0  0  0  0  0  0
  -29.1489  -20.8691   22.3826 H   0  0  0  0  0  0
  -28.5799  -17.6408   22.7834 H   0  0  0  0  0  0
  -30.0711  -18.3596   23.3029 H   0  0  0  0  0  0
  -30.5937  -16.9255   18.9830 H   0  0  0  0  0  0
  -28.8919  -16.6202   19.0804 H   0  0  0  0  0  0
  -30.2576  -15.8786   22.8576 H   0  0  0  0  0  0
  -31.4044  -16.8398   21.9705 H   0  0  0  0  0  0
  -26.9663  -24.6071   20.1085 H   0  0  0  0  0  0
  -28.0571  -24.7746   18.7486 H   0  0  0  0  0  0
  -28.2284  -22.4358   18.9810 H   0  0  0  0  0  0
  1 25  1  0  0  0
  1 30  2  0  0  0
  1 80  1  0  0  0
  2  3  1  0  0  0
  2 25  1  0  0  0
  2 84  1  0  0  0
  2 85  1  0  0  0
  3  4  1  0  0  0
  3 86  1  0  0  0
  3 87  1  0  0  0
  4  5  1  0  0  0
  4 88  1  0  0  0
  4 89  1  0  0  0
  5  6  1  0  0  0
  5 26  1  0  0  0
  5 90  1  0  0  0
  6 25  1  0  0  0
  6 91  1  0  0  0
  6 92  1  0  0  0
  7  8  2  0  0  0
  7 26  1  0  0  0
  7 29  1  0  0  0
  8  9  1  0  0  0
  8 22  1  0  0  0
  9 10  1  0  0  0
  9 27  2  0  0  0
 10 11  2  0  0  0
 10 15  1  0  0  0
 11 12  1  0  0  0
 11 93  1  0  0  0
 12 13  2  0  0  0
 12 94  1  0  0  0
 13 14  1  0  0  0
 13 31  1  0  0  0
 14 15  2  0  0  0
 14 95  1  0  0  0
 15 96  1  0  0  0
 16 17  2  0  0  0
 16 21  1  0  0  0
 16 31  1  0  0  0
 17 18  1  0  0  0
 17 97  1  0  0  0
 18 19  2  0  0  0
 18 98  1  0  0  0
 19 20  1  0  0  0
 19 24  1  0  0  0
 20 21  2  0  0  0
 20 99  1  0  0  0
 21 23  1  0  0  0
 22 28  1  0  0  0
 22 32  2  0  0  0
 26 27  1  0  0  0
 28100  1  0  0  0
 28101  1  0  0  0
 29102  1  0  0  0
 29103  1  0  0  0
 33 34  1  0  0  0
 33 66  1  0  0  0
 33 70  2  0  0  0
 34 36  1  0  0  0
 34 59  1  0  0  0
 34104  1  0  0  0
 35 44  2  0  0  0
 35 45  1  0  0  0
 35 68  1  0  0  0
 36 56  1  0  0  0
 36105  1  0  0  0
 37 39  1  0  0  0
 37 47  1  0  0  0
 37 66  1  0  0  0
 37106  1  0  0  0
 38 43  2  0  0  0
 38 46  1  0  0  0
 38 47  1  0  0  0
 39 64  1  0  0  0
 39 67  2  0  0  0
 40 52  1  0  0  0
 40 53  2  0  0  0
 40 58  1  0  0  0
 41107  1  0  0  0
 41108  1  0  0  0
 41109  1  0  0  0
 41 48  1  0  0  0
 42 43  1  0  0  0
 42 66  1  0  0  0
 42110  1  0  0  0
 42111  1  0  0  0
 43 44  1  0  0  0
 44112  1  0  0  0
 45 46  2  0  0  0
 45113  1  0  0  0
 46114  1  0  0  0
 47115  1  0  0  0
 47116  1  0  0  0
 48 56  1  0  0  0
 48 65  1  0  0  0
 48117  1  0  0  0
 49 50  1  0  0  0
 49 53  1  0  0  0
 49 64  1  0  0  0
 49118  1  0  0  0
 50 51  1  0  0  0
 50119  1  0  0  0
 50120  1  0  0  0
 51 52  1  0  0  0
 51121  1  0  0  0
 51122  1  0  0  0
 52123  1  0  0  0
 52124  1  0  0  0
 53 54  1  0  0  0
 54 55  2  0  0  0
 54125  1  0  0  0
 55 57  1  0  0  0
 55126  1  0  0  0
 56 69  2  0  0  0
 57 58  2  0  0  0
 57127  1  0  0  0
 58128  1  0  0  0
 59 60  1  0  0  0
 59 61  1  0  0  0
 59 62  1  0  0  0
 60129  1  0  0  0
 60130  1  0  0  0
 60131  1  0  0  0
 61132  1  0  0  0
 61133  1  0  0  0
 61134  1  0  0  0
 62135  1  0  0  0
 62136  1  0  0  0
 62137  1  0  0  0
 63 65  1  0  0  0
 63138  1  0  0  0
 63139  1  0  0  0
 63140  1  0  0  0
 64141  1  0  0  0
 65142  1  0  0  0
 68 79  1  0  0  0
 71 72  1  0  0  0
 71 74  2  0  0  0
 71143  1  0  0  0
 72 73  2  0  0  0
 72 76  1  0  0  0
 73 77  1  0  0  0
 73 83  1  0  0  0
 74 81  1  0  0  0
 74 83  1  0  0  0
 75 79  1  0  0  0
 75 81  1  0  0  0
 75 82  2  0  0  0
 76 78  1  0  0  0
 76144  1  0  0  0
 76145  1  0  0  0
 77 80  1  0  0  0
 77146  1  0  0  0
 77147  1  0  0  0
 78 80  1  0  0  0
 78148  1  0  0  0
 78149  1  0  0  0
 79150  1  0  0  0
 79151  1  0  0  0
 81152  1  0  0  0
M  ISO  4   1 100  68 101  79 101  80 100
M  END
> <chiral flag>
0

> <version>
0

> <s_m_source_file>
/data/baiqing/PycharmProjects/Reinvent-master-3.2/result/LINK_invent/BTK/process_docking_weight1_custom_product_contain_oxygen_bond_distance_aromatic_linkinvent_7_9_3/rearranged_h_0151.sdf

> <i_m_source_file_index>
58

> <r_mmod_Potential_Energy-OPLS-2005>
306.291748046875

> <r_mmod_Stretch_Energy-OPLS-2005>
120.232521057129

> <r_mmod_Bend_Energy-OPLS-2005>
196.206451416016

> <r_mmod_Torsional_Energy-OPLS-2005>
304.947631835938

> <r_mmod_Improper_Torsional_Energy-OPLS-2005>
8.36971282958984

> <r_mmod_Van_der_Waal_Energy-OPLS-2005>
125.292198181152

> <r_mmod_Electrostatic_Energy-OPLS-2005>
-311.366851806641

> <r_mmod_Solvation_Energy-OPLS-2005>
-232.941665649414

> <b_mmod_Minimization_Converged-OPLS-2005>
0

> <r_mmod_RMS_Derivative-OPLS-2005>
0.433422148227692

$$$$
58
                    3D
 Structure written by MMmdl.
166175  0  0  1  0            999 V2000
  -30.6645  -14.5569   20.5658 C   0  0  0  0  0  0
  -30.4387  -12.3503   19.4494 C   0  0  0  0  0  0
  -29.5109  -12.5082   18.2241 C   0  0  0  0  0  0
  -28.0286  -12.3661   18.6259 C   0  0  0  0  0  0
  -27.6612  -13.2136   19.8735 C   0  0  2  0  0  0
  -28.7032  -13.0169   20.9989 C   0  0  0  0  0  0
  -25.2540  -13.8123   20.5595 C   0  0  0  0  0  0
  -24.1828  -13.0402   20.9160 C   0  0  0  0  0  0
  -24.6410  -11.6880   20.8745 C   0  0  0  0  0  0
  -23.9063  -10.4285   21.0409 C   0  0  0  0  0  0
  -24.3611   -9.4201   21.9186 C   0  0  0  0  0  0
  -23.6291   -8.2242   22.0754 C   0  0  0  0  0  0
  -22.4274   -8.0280   21.3529 C   0  0  0  0  0  0
  -21.9908   -9.0257   20.4636 C   0  0  0  0  0  0
  -22.7240  -10.2142   20.3053 C   0  0  0  0  0  0
  -21.6855   -6.0739   22.5275 C   0  0  0  0  0  0
  -21.4024   -6.5649   23.8211 C   0  0  0  0  0  0
  -21.3656   -5.6797   24.9172 C   0  0  0  0  0  0
  -21.6035   -4.3060   24.7215 C   0  0  0  0  0  0
  -21.8825   -3.8148   23.4337 C   0  0  0  0  0  0
  -21.9200   -4.6965   22.3397 C   0  0  0  0  0  0
  -22.7858  -13.5215   21.1829 C   0  0  0  0  0  0
  -22.1662   -4.2149   21.0973 F   0  0  0  0  0  0
  -21.5608   -3.4552   25.7729 F   0  0  0  0  0  0
  -30.0378  -13.3461   20.4602 N   0  0  0  0  0  0
  -26.3019  -12.9331   20.3345 N   0  0  0  0  0  0
  -25.9350  -11.6484   20.5798 N   0  0  0  0  0  0
  -22.0500  -12.8245   22.0412 N   0  0  0  0  0  0
  -25.4130  -15.1822   20.3847 N   0  0  0  0  0  0
  -31.7544  -14.7929   20.0322 O   0  0  0  0  0  0
  -21.6620   -6.8883   21.4237 O   0  0  0  0  0  0
  -22.3544  -14.5506   20.6663 O   0  0  0  0  0  0
  -24.6203  -31.8668   23.2119 C   0  0  0  0  0  0
  -25.9081  -32.4814   23.8411 C   0  0  1  0  0  0
  -27.2112  -27.3690   20.0926 C   0  0  0  0  0  0
  -25.5930  -33.8614   24.2339 N   0  0  0  0  0  0
  -23.4093  -30.4964   21.5545 C   0  0  2  0  0  0
  -24.8507  -28.9705   20.1113 C   0  0  0  0  0  0
  -22.7445  -29.4662   22.4972 C   0  0  0  0  0  0
  -18.0278  -28.1377   22.8491 C   0  0  0  0  0  0
  -24.1492  -36.7316   23.2633 C   0  0  0  0  0  0
  -25.9486  -30.8097   21.3808 C   0  0  0  0  0  0
  -26.0180  -29.4424   20.7235 C   0  0  0  0  0  0
  -27.1967  -28.6457   20.7233 C   0  0  0  0  0  0
  -26.0247  -26.9666   19.4262 C   0  0  0  0  0  0
  -24.8523  -27.7331   19.4608 C   0  0  0  0  0  0
  -23.6192  -29.8447   20.1652 C   0  0  0  0  0  0
  -25.4112  -36.3104   24.0337 C   0  0  1  0  0  0
  -20.5875  -28.3680   23.1293 C   0  0  2  0  0  0
  -20.6777  -26.9413   22.5397 C   0  0  0  0  0  0
  -19.5747  -26.6387   21.5206 C   0  0  0  0  0  0
  -18.1932  -26.7922   22.1633 C   0  0  0  0  0  0
  -19.1528  -28.8846   23.2890 C   0  0  0  0  0  0
  -18.9455  -30.1452   23.8903 C   0  0  0  0  0  0
  -17.6458  -30.6590   24.0563 C   0  0  0  0  0  0
  -25.9050  -34.9470   23.5135 C   0  0  0  0  0  0
  -16.5349  -29.9093   23.6325 C   0  0  0  0  0  0
  -16.7270  -28.6503   23.0358 C   0  0  0  0  0  0
  -26.4483  -31.6591   25.0746 C   0  0  0  0  0  0
  -25.3742  -31.3725   26.1496 C   0  0  0  0  0  0
  -27.0309  -30.3016   24.6157 C   0  0  0  0  0  0
  -27.6062  -32.4308   25.7501 C   0  0  0  0  0  0
  -27.5580  -37.1815   24.8465 C   0  0  0  0  0  0
  -21.4166  -29.3048   22.3702 N   0  0  0  0  0  0
  -26.4298  -37.3782   23.9402 N   0  0  0  0  0  0
  -24.6778  -31.0729   22.1053 N   0  0  0  0  0  0
  -23.4201  -28.8190   23.3020 O   0  0  0  0  0  0
  -28.3371  -26.5408   20.1608 O   0  0  0  0  0  0
  -26.5600  -34.8911   22.4691 O   0  0  0  0  0  0
  -23.5382  -32.1453   23.7471 O   0  0  0  0  0  0
  -30.1560  -17.8672   20.3602 C   0  0  0  0  0  0
  -29.2327  -18.9778   20.1894 C   0  0  0  0  0  0
  -27.9529  -18.6654   20.5696 C   0  0  0  0  0  0
  -29.5701  -16.7440   20.9444 C   0  0  0  0  0  0
  -29.5092  -20.2502   19.4555 C   0  0  0  0  0  0
  -28.5053  -23.3294   21.3759 C   0  0  0  0  0  0
  -28.9080  -21.8341   21.3278 C   0  0  0  0  0  0
  -29.0103  -22.7801   19.1309 C   0  0  1  0  0  0
  -29.1034  -23.9965   20.1152 C   0  0  2  0  0  0
  -26.6754  -19.4044   20.3258 C   0  0  0  0  0  0
  -29.8598  -22.9457   17.8523 C   0  0  0  0  0  0
  -30.5635  -24.4239   20.3761 C   0  0  0  0  0  0
  -28.2374  -25.2019   19.5825 C   0  0  0  0  0  0
  -29.2371  -21.5256   19.9244 N   0  0  0  0  0  0
  -30.0062  -15.4883   21.2964 N   0  0  0  0  0  0
  -29.9840  -20.0884   18.2143 N   0  3  0  0  0  0
  -27.9099  -17.1095   21.3426 S   0  0  0  0  0  0
  -31.4840  -12.4614   19.1548 H   0  0  0  0  0  0
  -30.3569  -11.3461   19.8681 H   0  0  0  0  0  0
  -29.7616  -11.7633   17.4668 H   0  0  0  0  0  0
  -29.6745  -13.4832   17.7622 H   0  0  0  0  0  0
  -27.8442  -11.3115   18.8285 H   0  0  0  0  0  0
  -27.3850  -12.6302   17.7848 H   0  0  0  0  0  0
  -27.6943  -14.2582   19.5660 H   0  0  0  0  0  0
  -28.6929  -11.9836   21.3465 H   0  0  0  0  0  0
  -28.4399  -13.6124   21.8735 H   0  0  0  0  0  0
  -25.2776   -9.5678   22.4742 H   0  0  0  0  0  0
  -23.9995   -7.4648   22.7494 H   0  0  0  0  0  0
  -21.0827   -8.8789   19.8968 H   0  0  0  0  0  0
  -22.3699  -10.9679   19.6150 H   0  0  0  0  0  0
  -21.2030   -7.6156   23.9723 H   0  0  0  0  0  0
  -21.1457   -6.0518   25.9073 H   0  0  0  0  0  0
  -22.0602   -2.7609   23.2838 H   0  0  0  0  0  0
  -22.4119  -11.9909   22.4803 H   0  0  0  0  0  0
  -21.1118  -13.1277   22.2598 H   0  0  0  0  0  0
  -24.6443  -15.8352   20.4906 H   0  0  0  0  0  0
  -26.2658  -15.6267   20.0721 H   0  0  0  0  0  0
  -26.7154  -32.5506   23.1172 H   0  0  0  0  0  0
  -25.0082  -33.9768   25.0485 H   0  0  0  0  0  0
  -22.7006  -31.3161   21.4207 H   0  0  0  0  0  0
  -23.3720  -35.9687   23.3342 H   0  0  0  0  0  0
  -24.3571  -36.8874   22.2037 H   0  0  0  0  0  0
  -23.7290  -37.6559   23.6609 H   0  0  0  0  0  0
  -26.0765  -31.5753   20.6142 H   0  0  0  0  0  0
  -26.8323  -30.8550   22.0049 H   0  0  0  0  0  0
  -28.0862  -28.9980   21.2273 H   0  0  0  0  0  0
  -25.9425  -26.0594   18.8511 H   0  0  0  0  0  0
  -23.9623  -27.3741   18.9617 H   0  0  0  0  0  0
  -23.7350  -30.6277   19.4142 H   0  0  0  0  0  0
  -22.7392  -29.2746   19.8618 H   0  0  0  0  0  0
  -25.1281  -36.1979   25.0829 H   0  0  0  0  0  0
  -20.9960  -28.3243   24.1419 H   0  0  0  0  0  0
  -20.5688  -26.2291   23.3585 H   0  0  0  0  0  0
  -21.6645  -26.7455   22.1184 H   0  0  0  0  0  0
  -19.6912  -25.6303   21.1223 H   0  0  0  0  0  0
  -19.6680  -27.3200   20.6738 H   0  0  0  0  0  0
  -17.4192  -26.6653   21.4046 H   0  0  0  0  0  0
  -18.0348  -26.0064   22.9033 H   0  0  0  0  0  0
  -19.7938  -30.7252   24.2285 H   0  0  0  0  0  0
  -17.5019  -31.6268   24.5170 H   0  0  0  0  0  0
  -15.5349  -30.3003   23.7638 H   0  0  0  0  0  0
  -15.8674  -28.0820   22.7081 H   0  0  0  0  0  0
  -24.5906  -30.7076   25.7843 H   0  0  0  0  0  0
  -24.8949  -32.2895   26.4936 H   0  0  0  0  0  0
  -25.8086  -30.8900   27.0262 H   0  0  0  0  0  0
  -26.2867  -29.6783   24.1182 H   0  0  0  0  0  0
  -27.4025  -29.7245   25.4634 H   0  0  0  0  0  0
  -27.8733  -30.4314   23.9358 H   0  0  0  0  0  0
  -27.2694  -33.3611   26.2087 H   0  0  0  0  0  0
  -28.3865  -32.6861   25.0318 H   0  0  0  0  0  0
  -28.0736  -31.8424   26.5407 H   0  0  0  0  0  0
  -28.2611  -38.0096   24.7471 H   0  0  0  0  0  0
  -28.1057  -36.2620   24.6338 H   0  0  0  0  0  0
  -27.2285  -37.1522   25.8865 H   0  0  0  0  0  0
  -20.9334  -29.8803   21.6945 H   0  0  0  0  0  0
  -26.0185  -38.2864   24.1371 H   0  0  0  0  0  0
  -31.1863  -17.9321   20.0411 H   0  0  0  0  0  0
  -28.8462  -23.8110   22.2928 H   0  0  0  0  0  0
  -27.4167  -23.3954   21.3809 H   0  0  0  0  0  0
  -28.1148  -21.2009   21.7196 H   0  0  0  0  0  0
  -29.7978  -21.6577   21.9308 H   0  0  0  0  0  0
  -27.9689  -22.7171   18.8063 H   0  0  0  0  0  0
  -26.8101  -20.2435   19.6440 H   0  0  0  0  0  0
  -26.2463  -19.7799   21.2540 H   0  0  0  0  0  0
  -25.9379  -18.7428   19.8703 H   0  0  0  0  0  0
  -30.9001  -22.6671   18.0197 H   0  0  0  0  0  0
  -29.8606  -23.9783   17.5044 H   0  0  0  0  0  0
  -29.4533  -22.3565   17.0297 H   0  0  0  0  0  0
  -31.1839  -23.5785   20.6780 H   0  0  0  0  0  0
  -30.6167  -25.1683   21.1708 H   0  0  0  0  0  0
  -31.0190  -24.8668   19.4908 H   0  0  0  0  0  0
  -27.2308  -24.8108   19.6848 H   0  0  0  0  0  0
  -28.4033  -25.3351   18.5142 H   0  0  0  0  0  0
  -29.3369  -15.0192   21.8875 H   0  0  0  0  0  0
  -30.1110  -19.1666   17.8255 H   0  0  0  0  0  0
  -30.1923  -20.8893   17.6370 H   0  0  0  0  0  0
  1 25  1  0  0  0
  1 30  2  0  0  0
  1 85  1  0  0  0
  2  3  1  0  0  0
  2 25  1  0  0  0
  2 88  1  0  0  0
  2 89  1  0  0  0
  3  4  1  0  0  0
  3 90  1  0  0  0
  3 91  1  0  0  0
  4  5  1  0  0  0
  4 92  1  0  0  0
  4 93  1  0  0  0
  5  6  1  0  0  0
  5 26  1  0  0  0
  5 94  1  0  0  0
  6 25  1  0  0  0
  6 95  1  0  0  0
  6 96  1  0  0  0
  7  8  2  0  0  0
  7 26  1  0  0  0
  7 29  1  0  0  0
  8  9  1  0  0  0
  8 22  1  0  0  0
  9 10  1  0  0  0
  9 27  2  0  0  0
 10 11  2  0  0  0
 10 15  1  0  0  0
 11 12  1  0  0  0
 11 97  1  0  0  0
 12 13  2  0  0  0
 12 98  1  0  0  0
 13 14  1  0  0  0
 13 31  1  0  0  0
 14 15  2  0  0  0
 14 99  1  0  0  0
 15100  1  0  0  0
 16 17  2  0  0  0
 16 21  1  0  0  0
 16 31  1  0  0  0
 17 18  1  0  0  0
 17101  1  0  0  0
 18 19  2  0  0  0
 18102  1  0  0  0
 19 20  1  0  0  0
 19 24  1  0  0  0
 20 21  2  0  0  0
 20103  1  0  0  0
 21 23  1  0  0  0
 22 28  1  0  0  0
 22 32  2  0  0  0
 26 27  1  0  0  0
 28104  1  0  0  0
 28105  1  0  0  0
 29106  1  0  0  0
 29107  1  0  0  0
 33 34  1  0  0  0
 33 66  1  0  0  0
 33 70  2  0  0  0
 34 36  1  0  0  0
 34 59  1  0  0  0
 34108  1  0  0  0
 35 44  2  0  0  0
 35 45  1  0  0  0
 35 68  1  0  0  0
 36 56  1  0  0  0
 36109  1  0  0  0
 37 39  1  0  0  0
 37 47  1  0  0  0
 37 66  1  0  0  0
 37110  1  0  0  0
 38 43  2  0  0  0
 38 46  1  0  0  0
 38 47  1  0  0  0
 39 64  1  0  0  0
 39 67  2  0  0  0
 40 52  1  0  0  0
 40 53  2  0  0  0
 40 58  1  0  0  0
 41111  1  0  0  0
 41112  1  0  0  0
 41113  1  0  0  0
 41 48  1  0  0  0
 42 43  1  0  0  0
 42 66  1  0  0  0
 42114  1  0  0  0
 42115  1  0  0  0
 43 44  1  0  0  0
 44116  1  0  0  0
 45 46  2  0  0  0
 45117  1  0  0  0
 46118  1  0  0  0
 47119  1  0  0  0
 47120  1  0  0  0
 48 56  1  0  0  0
 48 65  1  0  0  0
 48121  1  0  0  0
 49 50  1  0  0  0
 49 53  1  0  0  0
 49 64  1  0  0  0
 49122  1  0  0  0
 50 51  1  0  0  0
 50123  1  0  0  0
 50124  1  0  0  0
 51 52  1  0  0  0
 51125  1  0  0  0
 51126  1  0  0  0
 52127  1  0  0  0
 52128  1  0  0  0
 53 54  1  0  0  0
 54 55  2  0  0  0
 54129  1  0  0  0
 55 57  1  0  0  0
 55130  1  0  0  0
 56 69  2  0  0  0
 57 58  2  0  0  0
 57131  1  0  0  0
 58132  1  0  0  0
 59 60  1  0  0  0
 59 61  1  0  0  0
 59 62  1  0  0  0
 60133  1  0  0  0
 60134  1  0  0  0
 60135  1  0  0  0
 61136  1  0  0  0
 61137  1  0  0  0
 61138  1  0  0  0
 62139  1  0  0  0
 62140  1  0  0  0
 62141  1  0  0  0
 63 65  1  0  0  0
 63142  1  0  0  0
 63143  1  0  0  0
 63144  1  0  0  0
 64145  1  0  0  0
 65146  1  0  0  0
 68 83  1  0  0  0
 71 72  1  0  0  0
 71 74  2  0  0  0
 71147  1  0  0  0
 72 73  2  0  0  0
 72 75  1  0  0  0
 73 80  1  0  0  0
 73 87  1  0  0  0
 74 85  1  0  0  0
 74 87  1  0  0  0
 75 84  1  0  0  0
 75 86  2  0  0  0
 76 77  1  0  0  0
 76 79  1  0  0  0
 76148  1  0  0  0
 76149  1  0  0  0
 77 84  1  0  0  0
 77150  1  0  0  0
 77151  1  0  0  0
 78 79  1  0  0  0
 78 81  1  0  0  0
 78 84  1  0  0  0
 78152  1  0  0  0
 79 82  1  0  0  0
 79 83  1  0  0  0
 80153  1  0  0  0
 80154  1  0  0  0
 80155  1  0  0  0
 81156  1  0  0  0
 81157  1  0  0  0
 81158  1  0  0  0
 82159  1  0  0  0
 82160  1  0  0  0
 82161  1  0  0  0
 83162  1  0  0  0
 83163  1  0  0  0
 85164  1  0  0  0
 86165  1  0  0  0
 86166  1  0  0  0
M  CHG  1  86   1
M  ISO  4   1 100  68 101  83 101  85 100
M  END
> <chiral flag>
0

> <version>
0

> <s_m_source_file>
/data/baiqing/PycharmProjects/Reinvent-master-3.2/result/LINK_invent/BTK/process_docking_weight1_custom_product_contain_oxygen_bond_distance_aromatic_linkinvent_7_9_3/rearranged_h_0151.sdf

> <i_m_source_file_index>
59

> <r_mmod_Potential_Energy-OPLS-2005>
77.7937545776367

> <r_mmod_Stretch_Energy-OPLS-2005>
58.4854583740234

> <r_mmod_Bend_Energy-OPLS-2005>
182.291854858398

> <r_mmod_Torsional_Energy-OPLS-2005>
337.292541503906

> <r_mmod_Improper_Torsional_Energy-OPLS-2005>
7.68159818649292

> <r_mmod_Van_der_Waal_Energy-OPLS-2005>
135.359573364258

> <r_mmod_Electrostatic_Energy-OPLS-2005>
-244.258804321289

> <r_mmod_Solvation_Energy-OPLS-2005>
-429.63525390625

> <b_mmod_Minimization_Converged-OPLS-2005>
0

> <r_mmod_RMS_Derivative-OPLS-2005>
2.95776176452637

$$$$
59
                    3D
 Structure written by MMmdl.
158167  0  0  1  0            999 V2000
  -30.6373  -14.7391   20.5036 C   0  0  0  0  0  0
  -30.4438  -12.4485   19.5154 C   0  0  0  0  0  0
  -29.5299  -12.5277   18.2744 C   0  0  0  0  0  0
  -28.0597  -12.3227   18.6830 C   0  0  0  0  0  0
  -27.6604  -13.2256   19.8779 C   0  0  2  0  0  0
  -28.6964  -13.1614   21.0274 C   0  0  0  0  0  0
  -25.2652  -13.8204   20.5737 C   0  0  0  0  0  0
  -24.1889  -13.0458   20.9191 C   0  0  0  0  0  0
  -24.6428  -11.6919   20.8733 C   0  0  0  0  0  0
  -23.9091  -10.4280   21.0374 C   0  0  0  0  0  0
  -24.3619   -9.4216   21.9162 C   0  0  0  0  0  0
  -23.6324   -8.2230   22.0748 C   0  0  0  0  0  0
  -22.4339   -8.0259   21.3515 C   0  0  0  0  0  0
  -21.9928   -9.0228   20.4626 C   0  0  0  0  0  0
  -22.7238  -10.2125   20.3031 C   0  0  0  0  0  0
  -21.6835   -6.0735   22.5275 C   0  0  0  0  0  0
  -21.3996   -6.5642   23.8201 C   0  0  0  0  0  0
  -21.3662   -5.6806   24.9158 C   0  0  0  0  0  0
  -21.6040   -4.3068   24.7245 C   0  0  0  0  0  0
  -21.8819   -3.8158   23.4356 C   0  0  0  0  0  0
  -21.9191   -4.6953   22.3413 C   0  0  0  0  0  0
  -22.7918  -13.5277   21.1845 C   0  0  0  0  0  0
  -22.1662   -4.2135   21.0983 F   0  0  0  0  0  0
  -21.5633   -3.4557   25.7753 F   0  0  0  0  0  0
  -30.0158  -13.5051   20.4696 N   0  0  0  0  0  0
  -26.3052  -12.9348   20.3376 N   0  0  0  0  0  0
  -25.9358  -11.6492   20.5786 N   0  0  0  0  0  0
  -22.0540  -12.8221   22.0378 N   0  0  0  0  0  0
  -25.4524  -15.1916   20.4252 N   0  0  0  0  0  0
  -31.7664  -14.8767   20.0113 O   0  0  0  0  0  0
  -21.6678   -6.8877   21.4248 O   0  0  0  0  0  0
  -22.3572  -14.5556   20.6704 O   0  0  0  0  0  0
  -24.6327  -31.8504   23.1966 C   0  0  0  0  0  0
  -25.9129  -32.4747   23.8306 C   0  0  1  0  0  0
  -27.2249  -27.2205   20.1643 C   0  0  0  0  0  0
  -25.5907  -33.8549   24.2243 N   0  0  0  0  0  0
  -23.4348  -30.4695   21.5384 C   0  0  2  0  0  0
  -24.8865  -28.9003   20.1208 C   0  0  0  0  0  0
  -22.7507  -29.4604   22.4911 C   0  0  0  0  0  0
  -18.0371  -28.1227   22.8505 C   0  0  0  0  0  0
  -24.1499  -36.7266   23.2640 C   0  0  0  0  0  0
  -25.9817  -30.7536   21.3781 C   0  0  0  0  0  0
  -26.0600  -29.3706   20.7272 C   0  0  0  0  0  0
  -27.2345  -28.5443   20.7329 C   0  0  0  0  0  0
  -26.0295  -26.8250   19.5262 C   0  0  0  0  0  0
  -24.8765  -27.6358   19.5084 C   0  0  0  0  0  0
  -23.6584  -29.7934   20.1599 C   0  0  0  0  0  0
  -25.4126  -36.3071   24.0337 C   0  0  1  0  0  0
  -20.5936  -28.3671   23.1222 C   0  0  2  0  0  0
  -20.6920  -26.9409   22.5321 C   0  0  0  0  0  0
  -19.5857  -26.6250   21.5224 C   0  0  0  0  0  0
  -18.2080  -26.7737   22.1692 C   0  0  0  0  0  0
  -19.1573  -28.8802   23.2848 C   0  0  0  0  0  0
  -18.9406  -30.1465   23.8718 C   0  0  0  0  0  0
  -17.6368  -30.6527   24.0313 C   0  0  0  0  0  0
  -25.9068  -34.9444   23.5115 C   0  0  0  0  0  0
  -16.5321  -29.8881   23.6181 C   0  0  0  0  0  0
  -16.7327  -28.6250   23.0326 C   0  0  0  0  0  0
  -26.4485  -31.6580   25.0686 C   0  0  0  0  0  0
  -25.3716  -31.3723   26.1416 C   0  0  0  0  0  0
  -27.0289  -30.2988   24.6165 C   0  0  0  0  0  0
  -27.6053  -32.4315   25.7414 C   0  0  0  0  0  0
  -27.5599  -37.1792   24.8469 C   0  0  0  0  0  0
  -21.4220  -29.3004   22.3584 N   0  0  0  0  0  0
  -26.4309  -37.3769   23.9417 N   0  0  0  0  0  0
  -24.7023  -31.0458   22.0936 N   0  0  0  0  0  0
  -23.4183  -28.8222   23.3096 O   0  0  0  0  0  0
  -28.3007  -26.2969   20.2061 O   0  0  0  0  0  0
  -26.5650  -34.8902   22.4691 O   0  0  0  0  0  0
  -23.5487  -32.1351   23.7257 O   0  0  0  0  0  0
  -29.9962  -18.4233   20.9766 C   0  0  0  0  0  0
  -29.4073  -19.5221   20.1717 C   0  0  0  0  0  0
  -28.7297  -18.9727   19.1048 C   0  0  0  0  0  0
  -29.7630  -17.1036   20.5234 C   0  0  0  0  0  0
  -28.8679  -23.6249   20.1754 C   0  0  0  0  0  0
  -26.6256  -20.5888   21.5930 C   0  0  0  0  0  0
  -26.1923  -22.0206   21.7618 C   0  0  0  0  0  0
  -27.1946  -21.6622   20.6835 C   0  0  0  0  0  0
  -27.9873  -19.6609   18.0017 C   0  0  0  0  0  0
  -28.0220  -24.8932   20.7196 C   0  0  0  0  0  0
  -28.6683  -22.1014   20.7914 C   0  0  1  0  0  0
  -29.6078  -20.9707   20.3710 N   0  0  0  0  0  0
  -29.9846  -15.8238   21.0630 N   0  0  0  0  0  0
  -29.6890  -23.8197   19.2748 O   0  0  0  0  0  0
  -28.8120  -17.2181   19.0652 S   0  0  0  0  0  0
  -31.4867  -12.5569   19.2201 H   0  0  0  0  0  0
  -30.3731  -11.4696   19.9882 H   0  0  0  0  0  0
  -29.8238  -11.7793   17.5393 H   0  0  0  0  0  0
  -29.6491  -13.5020   17.7976 H   0  0  0  0  0  0
  -27.9431  -11.2773   18.9721 H   0  0  0  0  0  0
  -27.3946  -12.4885   17.8367 H   0  0  0  0  0  0
  -27.6632  -14.2482   19.5006 H   0  0  0  0  0  0
  -28.7230  -12.1686   21.4777 H   0  0  0  0  0  0
  -28.4183  -13.8465   21.8331 H   0  0  0  0  0  0
  -25.2723   -9.5733   22.4772 H   0  0  0  0  0  0
  -23.9989   -7.4660   22.7497 H   0  0  0  0  0  0
  -21.0834   -8.8762   19.8972 H   0  0  0  0  0  0
  -22.3655  -10.9677   19.6175 H   0  0  0  0  0  0
  -21.1971   -7.6147   23.9707 H   0  0  0  0  0  0
  -21.1489   -6.0524   25.9063 H   0  0  0  0  0  0
  -22.0613   -2.7628   23.2869 H   0  0  0  0  0  0
  -22.4100  -11.9812   22.4685 H   0  0  0  0  0  0
  -21.1181  -13.1275   22.2614 H   0  0  0  0  0  0
  -24.7189  -15.8756   20.5684 H   0  0  0  0  0  0
  -26.3336  -15.6132   20.1609 H   0  0  0  0  0  0
  -26.7164  -32.5378   23.1015 H   0  0  0  0  0  0
  -24.9944  -33.9665   25.0310 H   0  0  0  0  0  0
  -22.7336  -31.2930   21.3888 H   0  0  0  0  0  0
  -23.3781  -35.9582   23.3290 H   0  0  0  0  0  0
  -24.3603  -36.8887   22.2059 H   0  0  0  0  0  0
  -23.7232  -37.6457   23.6656 H   0  0  0  0  0  0
  -26.1263  -31.5099   20.6065 H   0  0  0  0  0  0
  -26.8572  -30.8080   22.0111 H   0  0  0  0  0  0
  -28.1323  -28.8958   21.2212 H   0  0  0  0  0  0
  -25.9687  -25.8522   19.0580 H   0  0  0  0  0  0
  -23.9730  -27.2660   19.0394 H   0  0  0  0  0  0
  -23.7815  -30.5653   19.3972 H   0  0  0  0  0  0
  -22.7732  -29.2257   19.8625 H   0  0  0  0  0  0
  -25.1332  -36.1919   25.0837 H   0  0  0  0  0  0
  -21.0020  -28.3231   24.1347 H   0  0  0  0  0  0
  -20.6202  -26.2249   23.3514 H   0  0  0  0  0  0
  -21.6688  -26.7625   22.0862 H   0  0  0  0  0  0
  -19.7097  -25.6116   21.1353 H   0  0  0  0  0  0
  -19.6709  -27.3006   20.6697 H   0  0  0  0  0  0
  -17.4355  -26.6401   21.4110 H   0  0  0  0  0  0
  -18.0581  -25.9815   22.9042 H   0  0  0  0  0  0
  -19.7805  -30.7468   24.1920 H   0  0  0  0  0  0
  -17.4831  -31.6317   24.4650 H   0  0  0  0  0  0
  -15.5282  -30.2706   23.7418 H   0  0  0  0  0  0
  -15.8798  -28.0430   22.7061 H   0  0  0  0  0  0
  -24.5913  -30.7042   25.7750 H   0  0  0  0  0  0
  -24.8860  -32.2863   26.4845 H   0  0  0  0  0  0
  -25.8058  -30.8911   27.0193 H   0  0  0  0  0  0
  -26.2819  -29.6744   24.1249 H   0  0  0  0  0  0
  -27.3999  -29.7272   25.4685 H   0  0  0  0  0  0
  -27.8707  -30.4229   23.9350 H   0  0  0  0  0  0
  -27.2695  -33.3634   26.1982 H   0  0  0  0  0  0
  -28.3834  -32.6878   25.0205 H   0  0  0  0  0  0
  -28.0734  -31.8442   26.5324 H   0  0  0  0  0  0
  -28.2650  -38.0068   24.7537 H   0  0  0  0  0  0
  -28.1094  -36.2620   24.6305 H   0  0  0  0  0  0
  -27.2317  -37.1421   25.8872 H   0  0  0  0  0  0
  -20.9458  -29.8424   21.6506 H   0  0  0  0  0  0
  -26.0202  -38.2847   24.1450 H   0  0  0  0  0  0
  -30.5630  -18.6635   21.8721 H   0  0  0  0  0  0
  -25.9148  -19.8883   21.1569 H   0  0  0  0  0  0
  -27.2707  -20.1698   22.3628 H   0  0  0  0  0  0
  -26.5389  -22.5184   22.6660 H   0  0  0  0  0  0
  -25.1799  -22.2687   21.4522 H   0  0  0  0  0  0
  -26.8069  -21.6752   19.6673 H   0  0  0  0  0  0
  -28.2131  -20.7239   17.9532 H   0  0  0  0  0  0
  -26.9121  -19.5696   18.1431 H   0  0  0  0  0  0
  -28.2225  -19.2260   17.0285 H   0  0  0  0  0  0
  -28.1971  -24.9319   21.7948 H   0  0  0  0  0  0
  -26.9660  -24.6482   20.6128 H   0  0  0  0  0  0
  -28.8777  -22.2069   21.8590 H   0  0  0  0  0  0
  -30.5677  -21.2012   20.6082 H   0  0  0  0  0  0
  -29.2393  -15.5261   21.6707 H   0  0  0  0  0  0
  1 25  1  0  0  0
  1 30  2  0  0  0
  1 83  1  0  0  0
  2  3  1  0  0  0
  2 25  1  0  0  0
  2 86  1  0  0  0
  2 87  1  0  0  0
  3  4  1  0  0  0
  3 88  1  0  0  0
  3 89  1  0  0  0
  4  5  1  0  0  0
  4 90  1  0  0  0
  4 91  1  0  0  0
  5  6  1  0  0  0
  5 26  1  0  0  0
  5 92  1  0  0  0
  6 25  1  0  0  0
  6 93  1  0  0  0
  6 94  1  0  0  0
  7  8  2  0  0  0
  7 26  1  0  0  0
  7 29  1  0  0  0
  8  9  1  0  0  0
  8 22  1  0  0  0
  9 10  1  0  0  0
  9 27  2  0  0  0
 10 11  2  0  0  0
 10 15  1  0  0  0
 11 12  1  0  0  0
 11 95  1  0  0  0
 12 13  2  0  0  0
 12 96  1  0  0  0
 13 14  1  0  0  0
 13 31  1  0  0  0
 14 15  2  0  0  0
 14 97  1  0  0  0
 15 98  1  0  0  0
 16 17  2  0  0  0
 16 21  1  0  0  0
 16 31  1  0  0  0
 17 18  1  0  0  0
 17 99  1  0  0  0
 18 19  2  0  0  0
 18100  1  0  0  0
 19 20  1  0  0  0
 19 24  1  0  0  0
 20 21  2  0  0  0
 20101  1  0  0  0
 21 23  1  0  0  0
 22 28  1  0  0  0
 22 32  2  0  0  0
 26 27  1  0  0  0
 28102  1  0  0  0
 28103  1  0  0  0
 29104  1  0  0  0
 29105  1  0  0  0
 33 34  1  0  0  0
 33 66  1  0  0  0
 33 70  2  0  0  0
 34 36  1  0  0  0
 34 59  1  0  0  0
 34106  1  0  0  0
 35 44  2  0  0  0
 35 45  1  0  0  0
 35 68  1  0  0  0
 36 56  1  0  0  0
 36107  1  0  0  0
 37 39  1  0  0  0
 37 47  1  0  0  0
 37 66  1  0  0  0
 37108  1  0  0  0
 38 43  2  0  0  0
 38 46  1  0  0  0
 38 47  1  0  0  0
 39 64  1  0  0  0
 39 67  2  0  0  0
 40 52  1  0  0  0
 40 53  2  0  0  0
 40 58  1  0  0  0
 41109  1  0  0  0
 41110  1  0  0  0
 41111  1  0  0  0
 41 48  1  0  0  0
 42 43  1  0  0  0
 42 66  1  0  0  0
 42112  1  0  0  0
 42113  1  0  0  0
 43 44  1  0  0  0
 44114  1  0  0  0
 45 46  2  0  0  0
 45115  1  0  0  0
 46116  1  0  0  0
 47117  1  0  0  0
 47118  1  0  0  0
 48 56  1  0  0  0
 48 65  1  0  0  0
 48119  1  0  0  0
 49 50  1  0  0  0
 49 53  1  0  0  0
 49 64  1  0  0  0
 49120  1  0  0  0
 50 51  1  0  0  0
 50121  1  0  0  0
 50122  1  0  0  0
 51 52  1  0  0  0
 51123  1  0  0  0
 51124  1  0  0  0
 52125  1  0  0  0
 52126  1  0  0  0
 53 54  1  0  0  0
 54 55  2  0  0  0
 54127  1  0  0  0
 55 57  1  0  0  0
 55128  1  0  0  0
 56 69  2  0  0  0
 57 58  2  0  0  0
 57129  1  0  0  0
 58130  1  0  0  0
 59 60  1  0  0  0
 59 61  1  0  0  0
 59 62  1  0  0  0
 60131  1  0  0  0
 60132  1  0  0  0
 60133  1  0  0  0
 61134  1  0  0  0
 61135  1  0  0  0
 61136  1  0  0  0
 62137  1  0  0  0
 62138  1  0  0  0
 62139  1  0  0  0
 63 65  1  0  0  0
 63140  1  0  0  0
 63141  1  0  0  0
 63142  1  0  0  0
 64143  1  0  0  0
 65144  1  0  0  0
 68 80  1  0  0  0
 71 72  1  0  0  0
 71 74  2  0  0  0
 71145  1  0  0  0
 72 73  2  0  0  0
 72 82  1  0  0  0
 73 79  1  0  0  0
 73 85  1  0  0  0
 74 83  1  0  0  0
 74 85  1  0  0  0
 75 80  1  0  0  0
 75 81  1  0  0  0
 75 84  2  0  0  0
 76 77  1  0  0  0
 76146  1  0  0  0
 76147  1  0  0  0
 76 78  1  0  0  0
 77 78  1  0  0  0
 77148  1  0  0  0
 77149  1  0  0  0
 78 81  1  0  0  0
 78150  1  0  0  0
 79151  1  0  0  0
 79152  1  0  0  0
 79153  1  0  0  0
 80154  1  0  0  0
 80155  1  0  0  0
 81 82  1  0  0  0
 81156  1  0  0  0
 82157  1  0  0  0
 83158  1  0  0  0
M  ISO  4   1 100  68 101  80 101  83 100
M  END
> <chiral flag>
0

> <version>
0

> <s_m_source_file>
/data/baiqing/PycharmProjects/Reinvent-master-3.2/result/LINK_invent/BTK/process_docking_weight1_custom_product_contain_oxygen_bond_distance_aromatic_linkinvent_7_9_3/rearranged_h_0151.sdf

> <i_m_source_file_index>
60

> <r_mmod_Potential_Energy-OPLS-2005>
281.546234130859

> <r_mmod_Stretch_Energy-OPLS-2005>
138.4453125

> <r_mmod_Bend_Energy-OPLS-2005>
183.941772460938

> <r_mmod_Torsional_Energy-OPLS-2005>
323.156005859375

> <r_mmod_Improper_Torsional_Energy-OPLS-2005>
6.84349822998047

> <r_mmod_Van_der_Waal_Energy-OPLS-2005>
98.1067276000977

> <r_mmod_Electrostatic_Energy-OPLS-2005>
-324.069152832031

> <r_mmod_Solvation_Energy-OPLS-2005>
-242.038269042969

> <b_mmod_Minimization_Converged-OPLS-2005>
0

> <r_mmod_RMS_Derivative-OPLS-2005>
8.09875774383545

$$$$
60
                    3D
 Structure written by MMmdl.
162171  0  0  1  0            999 V2000
  -30.6996  -14.5183   20.4839 C   0  0  0  0  0  0
  -30.3927  -12.3066   19.4730 C   0  0  0  0  0  0
  -29.4915  -12.4966   18.2359 C   0  0  0  0  0  0
  -28.0094  -12.3691   18.6316 C   0  0  0  0  0  0
  -27.6471  -13.2260   19.8750 C   0  0  2  0  0  0
  -28.6841  -13.0701   21.0143 C   0  0  0  0  0  0
  -25.2501  -13.8219   20.5702 C   0  0  0  0  0  0
  -24.1780  -13.0455   20.9173 C   0  0  0  0  0  0
  -24.6353  -11.6930   20.8744 C   0  0  0  0  0  0
  -23.9027  -10.4296   21.0436 C   0  0  0  0  0  0
  -24.3569   -9.4207   21.9209 C   0  0  0  0  0  0
  -23.6259   -8.2242   22.0764 C   0  0  0  0  0  0
  -22.4251   -8.0283   21.3551 C   0  0  0  0  0  0
  -21.9901   -9.0240   20.4627 C   0  0  0  0  0  0
  -22.7208  -10.2138   20.3058 C   0  0  0  0  0  0
  -21.6848   -6.0753   22.5280 C   0  0  0  0  0  0
  -21.4029   -6.5657   23.8208 C   0  0  0  0  0  0
  -21.3634   -5.6801   24.9160 C   0  0  0  0  0  0
  -21.6038   -4.3065   24.7221 C   0  0  0  0  0  0
  -21.8806   -3.8160   23.4343 C   0  0  0  0  0  0
  -21.9193   -4.6979   22.3395 C   0  0  0  0  0  0
  -22.7806  -13.5260   21.1868 C   0  0  0  0  0  0
  -22.1654   -4.2165   21.0972 F   0  0  0  0  0  0
  -21.5602   -3.4551   25.7742 F   0  0  0  0  0  0
  -30.0129  -13.3396   20.4550 N   0  0  0  0  0  0
  -26.2933  -12.9419   20.3361 N   0  0  0  0  0  0
  -25.9289  -11.6563   20.5778 N   0  0  0  0  0  0
  -22.0477  -12.8203   22.0419 N   0  0  0  0  0  0
  -25.4229  -15.1937   20.4082 N   0  0  0  0  0  0
  -31.8869  -14.5614   20.1450 O   0  0  0  0  0  0
  -21.6615   -6.8899   21.4244 O   0  0  0  0  0  0
  -22.3480  -14.5570   20.6745 O   0  0  0  0  0  0
  -24.6187  -31.8666   23.2196 C   0  0  0  0  0  0
  -25.9072  -32.4795   23.8490 C   0  0  1  0  0  0
  -27.2535  -27.4387   20.1172 C   0  0  0  0  0  0
  -25.5930  -33.8604   24.2379 N   0  0  0  0  0  0
  -23.4112  -30.4923   21.5519 C   0  0  2  0  0  0
  -24.8669  -28.9616   20.1106 C   0  0  0  0  0  0
  -22.7422  -29.4694   22.4991 C   0  0  0  0  0  0
  -18.0285  -28.1435   22.8569 C   0  0  0  0  0  0
  -24.1451  -36.7266   23.2671 C   0  0  0  0  0  0
  -25.9399  -30.8360   21.3754 C   0  0  0  0  0  0
  -26.0251  -29.4756   20.7125 C   0  0  0  0  0  0
  -27.2243  -28.7250   20.7096 C   0  0  0  0  0  0
  -26.0839  -26.9398   19.5088 C   0  0  0  0  0  0
  -24.8892  -27.6910   19.5089 C   0  0  0  0  0  0
  -23.6249  -29.8260   20.1661 C   0  0  0  0  0  0
  -25.4083  -36.3070   24.0352 C   0  0  1  0  0  0
  -20.5862  -28.3728   23.1293 C   0  0  2  0  0  0
  -20.6745  -26.9458   22.5399 C   0  0  0  0  0  0
  -19.5682  -26.6407   21.5250 C   0  0  0  0  0  0
  -18.1878  -26.7998   22.1670 C   0  0  0  0  0  0
  -19.1543  -28.8902   23.2928 C   0  0  0  0  0  0
  -18.9468  -30.1513   23.8914 C   0  0  0  0  0  0
  -17.6464  -30.6625   24.0619 C   0  0  0  0  0  0
  -25.9038  -34.9442   23.5141 C   0  0  0  0  0  0
  -16.5357  -29.9120   23.6397 C   0  0  0  0  0  0
  -16.7277  -28.6544   23.0434 C   0  0  0  0  0  0
  -26.4554  -31.6593   25.0805 C   0  0  0  0  0  0
  -25.3833  -31.3535   26.1515 C   0  0  0  0  0  0
  -27.0564  -30.3106   24.6220 C   0  0  0  0  0  0
  -27.6112  -32.4395   25.7524 C   0  0  0  0  0  0
  -27.5576  -37.1727   24.8484 C   0  0  0  0  0  0
  -21.4151  -29.3074   22.3668 N   0  0  0  0  0  0
  -26.4263  -37.3763   23.9482 N   0  0  0  0  0  0
  -24.6735  -31.0777   22.1078 N   0  0  0  0  0  0
  -23.4136  -28.8247   23.3102 O   0  0  0  0  0  0
  -28.3566  -26.6155   20.1947 O   0  0  0  0  0  0
  -26.5584  -34.8881   22.4704 O   0  0  0  0  0  0
  -23.5367  -32.1461   23.7545 O   0  0  0  0  0  0
  -29.9535  -19.2461   19.4030 C   0  0  0  0  0  0
  -29.4007  -18.5060   21.6311 C   0  0  0  0  0  0
  -29.7778  -20.5951   19.7871 C   0  0  0  0  0  0
  -29.1932  -19.8642   22.0055 C   0  0  0  0  0  0
  -29.7959  -18.1714   20.3163 C   0  0  0  0  0  0
  -29.3888  -20.9517   21.0997 C   0  0  0  0  0  0
  -28.8664  -24.6859   21.6479 C   0  0  0  0  0  0
  -28.4771  -25.9671   21.4092 C   0  0  0  0  0  0
  -30.1881  -16.7630   19.8678 C   0  0  0  0  0  0
  -28.7992  -24.1075   23.0390 C   0  0  0  0  0  0
  -28.6747  -22.6046   22.8328 C   0  0  0  0  0  0
  -29.2639  -23.5593   20.6797 C   0  0  0  0  0  0
  -30.6989  -23.8611   20.1755 C   0  0  0  0  0  0
  -28.2295  -23.5196   19.5354 C   0  0  0  0  0  0
  -29.2184  -22.3188   21.5063 N   0  0  0  0  0  0
  -29.9840  -15.6647   20.6461 N   0  0  0  0  0  0
  -30.6908  -16.6690   18.7387 O   0  0  0  0  0  0
  -31.4443  -12.3491   19.1854 H   0  0  0  0  0  0
  -30.2417  -11.3142   19.9002 H   0  0  0  0  0  0
  -29.7375  -11.7711   17.4609 H   0  0  0  0  0  0
  -29.6630  -13.4818   17.8006 H   0  0  0  0  0  0
  -27.8050  -11.3182   18.8337 H   0  0  0  0  0  0
  -27.3692  -12.6430   17.7950 H   0  0  0  0  0  0
  -27.6695  -14.2653   19.5506 H   0  0  0  0  0  0
  -28.6537  -12.0584   21.4240 H   0  0  0  0  0  0
  -28.4603  -13.7424   21.8441 H   0  0  0  0  0  0
  -25.2680   -9.5701   22.4798 H   0  0  0  0  0  0
  -23.9952   -7.4659   22.7513 H   0  0  0  0  0  0
  -21.0840   -8.8759   19.8908 H   0  0  0  0  0  0
  -22.3666  -10.9687   19.6169 H   0  0  0  0  0  0
  -21.2054   -7.6164   23.9731 H   0  0  0  0  0  0
  -21.1456   -6.0525   25.9068 H   0  0  0  0  0  0
  -22.0612   -2.7623   23.2846 H   0  0  0  0  0  0
  -22.4091  -11.9788   22.4637 H   0  0  0  0  0  0
  -21.1125  -13.1235   22.2740 H   0  0  0  0  0  0
  -24.6629  -15.8556   20.5241 H   0  0  0  0  0  0
  -26.2797  -15.6261   20.0857 H   0  0  0  0  0  0
  -26.7146  -32.5531   23.1269 H   0  0  0  0  0  0
  -25.0119  -33.9811   25.0538 H   0  0  0  0  0  0
  -22.7059  -31.3144   21.4099 H   0  0  0  0  0  0
  -23.3768  -35.9534   23.3241 H   0  0  0  0  0  0
  -24.3578  -36.9036   22.2116 H   0  0  0  0  0  0
  -23.7105  -37.6377   23.6794 H   0  0  0  0  0  0
  -26.0626  -31.6111   20.6189 H   0  0  0  0  0  0
  -26.8211  -30.8837   22.0017 H   0  0  0  0  0  0
  -28.1149  -29.1058   21.1873 H   0  0  0  0  0  0
  -26.0939  -25.9529   19.0642 H   0  0  0  0  0  0
  -23.9926  -27.2851   19.0592 H   0  0  0  0  0  0
  -23.7269  -30.6074   19.4134 H   0  0  0  0  0  0
  -22.7537  -29.2442   19.8643 H   0  0  0  0  0  0
  -25.1229  -36.1944   25.0833 H   0  0  0  0  0  0
  -21.0006  -28.3336   24.1388 H   0  0  0  0  0  0
  -20.5754  -26.2342   23.3601 H   0  0  0  0  0  0
  -21.6600  -26.7497   22.1150 H   0  0  0  0  0  0
  -19.6817  -25.6310   21.1285 H   0  0  0  0  0  0
  -19.6602  -27.3220   20.6785 H   0  0  0  0  0  0
  -17.4146  -26.6897   21.4036 H   0  0  0  0  0  0
  -18.0193  -26.0087   22.8996 H   0  0  0  0  0  0
  -19.7919  -30.7402   24.2241 H   0  0  0  0  0  0
  -17.4984  -31.6305   24.5240 H   0  0  0  0  0  0
  -15.5365  -30.3034   23.7692 H   0  0  0  0  0  0
  -15.8683  -28.0860   22.7156 H   0  0  0  0  0  0
  -24.6030  -30.6918   25.7745 H   0  0  0  0  0  0
  -24.8982  -32.2591   26.5143 H   0  0  0  0  0  0
  -25.8185  -30.8509   27.0157 H   0  0  0  0  0  0
  -26.3145  -29.6588   24.1585 H   0  0  0  0  0  0
  -27.4764  -29.7615   25.4671 H   0  0  0  0  0  0
  -27.8740  -30.4585   23.9169 H   0  0  0  0  0  0
  -27.2786  -33.3768   26.2001 H   0  0  0  0  0  0
  -28.3897  -32.6856   25.0289 H   0  0  0  0  0  0
  -28.0798  -31.8587   26.5482 H   0  0  0  0  0  0
  -28.2463  -38.0151   24.7740 H   0  0  0  0  0  0
  -28.1178  -36.2674   24.6053 H   0  0  0  0  0  0
  -27.2302  -37.1112   25.8883 H   0  0  0  0  0  0
  -20.9331  -29.8742   21.6826 H   0  0  0  0  0  0
  -26.0135  -38.2792   24.1653 H   0  0  0  0  0  0
  -30.2658  -19.0526   18.3854 H   0  0  0  0  0  0
  -29.2870  -17.7293   22.3772 H   0  0  0  0  0  0
  -29.9800  -21.3440   19.0359 H   0  0  0  0  0  0
  -28.9017  -20.0450   23.0295 H   0  0  0  0  0  0
  -28.1768  -26.6062   22.2280 H   0  0  0  0  0  0
  -27.9647  -24.5064   23.6121 H   0  0  0  0  0  0
  -29.7190  -24.3346   23.5746 H   0  0  0  0  0  0
  -27.6234  -22.3053   22.8509 H   0  0  0  0  0  0
  -29.1947  -22.0840   23.6409 H   0  0  0  0  0  0
  -30.7240  -24.7672   19.5690 H   0  0  0  0  0  0
  -31.1350  -23.0715   19.5684 H   0  0  0  0  0  0
  -31.3793  -24.0372   21.0098 H   0  0  0  0  0  0
  -28.2259  -24.4468   18.9668 H   0  0  0  0  0  0
  -27.2230  -23.3879   19.9362 H   0  0  0  0  0  0
  -28.3951  -22.7250   18.8158 H   0  0  0  0  0  0
  -29.2643  -15.6933   21.3479 H   0  0  0  0  0  0
  1 25  1  0  0  0
  1 30  2  0  0  0
  1 86  1  0  0  0
  2  3  1  0  0  0
  2 25  1  0  0  0
  2 88  1  0  0  0
  2 89  1  0  0  0
  3  4  1  0  0  0
  3 90  1  0  0  0
  3 91  1  0  0  0
  4  5  1  0  0  0
  4 92  1  0  0  0
  4 93  1  0  0  0
  5  6  1  0  0  0
  5 26  1  0  0  0
  5 94  1  0  0  0
  6 25  1  0  0  0
  6 95  1  0  0  0
  6 96  1  0  0  0
  7  8  2  0  0  0
  7 26  1  0  0  0
  7 29  1  0  0  0
  8  9  1  0  0  0
  8 22  1  0  0  0
  9 10  1  0  0  0
  9 27  2  0  0  0
 10 11  2  0  0  0
 10 15  1  0  0  0
 11 12  1  0  0  0
 11 97  1  0  0  0
 12 13  2  0  0  0
 12 98  1  0  0  0
 13 14  1  0  0  0
 13 31  1  0  0  0
 14 15  2  0  0  0
 14 99  1  0  0  0
 15100  1  0  0  0
 16 17  2  0  0  0
 16 21  1  0  0  0
 16 31  1  0  0  0
 17 18  1  0  0  0
 17101  1  0  0  0
 18 19  2  0  0  0
 18102  1  0  0  0
 19 20  1  0  0  0
 19 24  1  0  0  0
 20 21  2  0  0  0
 20103  1  0  0  0
 21 23  1  0  0  0
 22 28  1  0  0  0
 22 32  2  0  0  0
 26 27  1  0  0  0
 28104  1  0  0  0
 28105  1  0  0  0
 29106  1  0  0  0
 29107  1  0  0  0
 33 34  1  0  0  0
 33 66  1  0  0  0
 33 70  2  0  0  0
 34 36  1  0  0  0
 34 59  1  0  0  0
 34108  1  0  0  0
 35 44  2  0  0  0
 35 45  1  0  0  0
 35 68  1  0  0  0
 36 56  1  0  0  0
 36109  1  0  0  0
 37 39  1  0  0  0
 37 47  1  0  0  0
 37 66  1  0  0  0
 37110  1  0  0  0
 38 43  2  0  0  0
 38 46  1  0  0  0
 38 47  1  0  0  0
 39 64  1  0  0  0
 39 67  2  0  0  0
 40 52  1  0  0  0
 40 53  2  0  0  0
 40 58  1  0  0  0
 41111  1  0  0  0
 41112  1  0  0  0
 41113  1  0  0  0
 41 48  1  0  0  0
 42 43  1  0  0  0
 42 66  1  0  0  0
 42114  1  0  0  0
 42115  1  0  0  0
 43 44  1  0  0  0
 44116  1  0  0  0
 45 46  2  0  0  0
 45117  1  0  0  0
 46118  1  0  0  0
 47119  1  0  0  0
 47120  1  0  0  0
 48 56  1  0  0  0
 48 65  1  0  0  0
 48121  1  0  0  0
 49 50  1  0  0  0
 49 53  1  0  0  0
 49 64  1  0  0  0
 49122  1  0  0  0
 50 51  1  0  0  0
 50123  1  0  0  0
 50124  1  0  0  0
 51 52  1  0  0  0
 51125  1  0  0  0
 51126  1  0  0  0
 52127  1  0  0  0
 52128  1  0  0  0
 53 54  1  0  0  0
 54 55  2  0  0  0
 54129  1  0  0  0
 55 57  1  0  0  0
 55130  1  0  0  0
 56 69  2  0  0  0
 57 58  2  0  0  0
 57131  1  0  0  0
 58132  1  0  0  0
 59 60  1  0  0  0
 59 61  1  0  0  0
 59 62  1  0  0  0
 60133  1  0  0  0
 60134  1  0  0  0
 60135  1  0  0  0
 61136  1  0  0  0
 61137  1  0  0  0
 61138  1  0  0  0
 62139  1  0  0  0
 62140  1  0  0  0
 62141  1  0  0  0
 63 65  1  0  0  0
 63142  1  0  0  0
 63143  1  0  0  0
 63144  1  0  0  0
 64145  1  0  0  0
 65146  1  0  0  0
 68 78  1  0  0  0
 71 73  2  0  0  0
 71 75  1  0  0  0
 71147  1  0  0  0
 72 74  1  0  0  0
 72 75  2  0  0  0
 72148  1  0  0  0
 73 76  1  0  0  0
 73149  1  0  0  0
 74 76  2  0  0  0
 74150  1  0  0  0
 75 79  1  0  0  0
 76 85  1  0  0  0
 77 78  2  0  0  0
 77 80  1  0  0  0
 77 82  1  0  0  0
 78151  1  0  0  0
 79 86  1  0  0  0
 79 87  2  0  0  0
 80 81  1  0  0  0
 80152  1  0  0  0
 80153  1  0  0  0
 81 85  1  0  0  0
 81154  1  0  0  0
 81155  1  0  0  0
 82 83  1  0  0  0
 82 84  1  0  0  0
 82 85  1  0  0  0
 83156  1  0  0  0
 83157  1  0  0  0
 83158  1  0  0  0
 84159  1  0  0  0
 84160  1  0  0  0
 84161  1  0  0  0
 86162  1  0  0  0
M  ISO  4   1 100  68 101  78 101  86 100
M  END
> <chiral flag>
0

> <version>
0

> <s_m_source_file>
/data/baiqing/PycharmProjects/Reinvent-master-3.2/result/LINK_invent/BTK/process_docking_weight1_custom_product_contain_oxygen_bond_distance_aromatic_linkinvent_7_9_3/rearranged_h_0151.sdf

> <i_m_source_file_index>
61

> <r_mmod_Potential_Energy-OPLS-2005>
19.0006065368652

> <r_mmod_Stretch_Energy-OPLS-2005>
50.9640159606934

> <r_mmod_Bend_Energy-OPLS-2005>
168.646575927734

> <r_mmod_Torsional_Energy-OPLS-2005>
299.577972412109

> <r_mmod_Improper_Torsional_Energy-OPLS-2005>
7.31886196136475

> <r_mmod_Van_der_Waal_Energy-OPLS-2005>
163.057876586914

> <r_mmod_Electrostatic_Energy-OPLS-2005>
-473.54150390625

> <r_mmod_Solvation_Energy-OPLS-2005>
-223.033294677734

> <b_mmod_Minimization_Converged-OPLS-2005>
0

> <r_mmod_RMS_Derivative-OPLS-2005>
5.85206651687622

$$$$
61
                    3D
 Structure written by MMmdl.
158167  0  0  1  0            999 V2000
  -30.7604  -14.3802   20.6733 C   0  0  0  0  0  0
  -30.4163  -12.2939   19.3995 C   0  0  0  0  0  0
  -29.4834  -12.5233   18.1956 C   0  0  0  0  0  0
  -28.0085  -12.3776   18.6138 C   0  0  0  0  0  0
  -27.6652  -13.2034   19.8814 C   0  0  2  0  0  0
  -28.7038  -12.9507   20.9968 C   0  0  0  0  0  0
  -25.2594  -13.8160   20.5675 C   0  0  0  0  0  0
  -24.1838  -13.0438   20.9165 C   0  0  0  0  0  0
  -24.6387  -11.6904   20.8729 C   0  0  0  0  0  0
  -23.9056  -10.4292   21.0406 C   0  0  0  0  0  0
  -24.3610   -9.4209   21.9183 C   0  0  0  0  0  0
  -23.6286   -8.2244   22.0753 C   0  0  0  0  0  0
  -22.4266   -8.0283   21.3546 C   0  0  0  0  0  0
  -21.9904   -9.0254   20.4648 C   0  0  0  0  0  0
  -22.7230  -10.2135   20.3055 C   0  0  0  0  0  0
  -21.6850   -6.0735   22.5281 C   0  0  0  0  0  0
  -21.4011   -6.5638   23.8213 C   0  0  0  0  0  0
  -21.3658   -5.6792   24.9175 C   0  0  0  0  0  0
  -21.6042   -4.3053   24.7226 C   0  0  0  0  0  0
  -21.8821   -3.8146   23.4347 C   0  0  0  0  0  0
  -21.9192   -4.6964   22.3404 C   0  0  0  0  0  0
  -22.7864  -13.5238   21.1837 C   0  0  0  0  0  0
  -22.1660   -4.2150   21.0980 F   0  0  0  0  0  0
  -21.5632   -3.4539   25.7740 F   0  0  0  0  0  0
  -30.0448  -13.2452   20.4579 N   0  0  0  0  0  0
  -26.3038  -12.9327   20.3393 N   0  0  0  0  0  0
  -25.9313  -11.6487   20.5768 N   0  0  0  0  0  0
  -22.0511  -12.8236   22.0403 N   0  0  0  0  0  0
  -25.4332  -15.1875   20.4092 N   0  0  0  0  0  0
  -31.7947  -14.6534   20.0559 O   0  0  0  0  0  0
  -21.6635   -6.8876   21.4239 O   0  0  0  0  0  0
  -22.3545  -14.5544   20.6690 O   0  0  0  0  0  0
  -24.6102  -31.8700   23.2129 C   0  0  0  0  0  0
  -25.9015  -32.4831   23.8407 C   0  0  1  0  0  0
  -27.2370  -27.4635   20.0960 C   0  0  0  0  0  0
  -25.5892  -33.8628   24.2346 N   0  0  0  0  0  0
  -23.3977  -30.4920   21.5513 C   0  0  2  0  0  0
  -24.8465  -28.9591   20.1165 C   0  0  0  0  0  0
  -22.7386  -29.4662   22.5006 C   0  0  0  0  0  0
  -18.0264  -28.1364   22.8498 C   0  0  0  0  0  0
  -24.1482  -36.7311   23.2641 C   0  0  0  0  0  0
  -25.9218  -30.8426   21.3637 C   0  0  0  0  0  0
  -26.0013  -29.4763   20.7186 C   0  0  0  0  0  0
  -27.2001  -28.7320   20.7155 C   0  0  0  0  0  0
  -26.0746  -26.9577   19.4827 C   0  0  0  0  0  0
  -24.8749  -27.6947   19.5004 C   0  0  0  0  0  0
  -23.6061  -29.8224   20.1657 C   0  0  0  0  0  0
  -25.4105  -36.3115   24.0344 C   0  0  1  0  0  0
  -20.5852  -28.3646   23.1327 C   0  0  2  0  0  0
  -20.6753  -26.9387   22.5421 C   0  0  0  0  0  0
  -19.5738  -26.6373   21.5210 C   0  0  0  0  0  0
  -18.1911  -26.7912   22.1620 C   0  0  0  0  0  0
  -19.1513  -28.8823   23.2905 C   0  0  0  0  0  0
  -18.9450  -30.1432   23.8912 C   0  0  0  0  0  0
  -17.6457  -30.6581   24.0564 C   0  0  0  0  0  0
  -25.9031  -34.9478   23.5141 C   0  0  0  0  0  0
  -16.5347  -29.9086   23.6326 C   0  0  0  0  0  0
  -16.7256  -28.6496   23.0359 C   0  0  0  0  0  0
  -26.4462  -31.6599   25.0716 C   0  0  0  0  0  0
  -25.3746  -31.3683   26.1476 C   0  0  0  0  0  0
  -27.0298  -30.3054   24.6057 C   0  0  0  0  0  0
  -27.6033  -32.4315   25.7484 C   0  0  0  0  0  0
  -27.5578  -37.1808   24.8471 C   0  0  0  0  0  0
  -21.4120  -29.3018   22.3738 N   0  0  0  0  0  0
  -26.4296  -37.3795   23.9410 N   0  0  0  0  0  0
  -24.6608  -31.0821   22.1017 N   0  0  0  0  0  0
  -23.4165  -28.8216   23.3053 O   0  0  0  0  0  0
  -28.3893  -26.7210   20.0332 O   0  0  0  0  0  0
  -26.5590  -34.8928   22.4700 O   0  0  0  0  0  0
  -23.5308  -32.1445   23.7543 O   0  0  0  0  0  0
  -28.5146  -20.3235   21.9760 C   0  0  0  0  0  0
  -28.2019  -21.6948   21.7334 C   0  0  0  0  0  0
  -29.8594  -20.0881   22.0952 C   0  0  0  0  0  0
  -29.3071  -22.5137   21.6649 C   0  0  0  0  0  0
  -28.4409  -24.7913   21.5073 C   0  0  0  0  0  0
  -30.1429  -18.1250   23.7061 C   0  0  0  0  0  0
  -30.6512  -16.6809   23.5923 C   0  0  0  0  0  0
  -30.4244  -17.6829   21.3597 C   0  0  0  0  0  0
  -30.5635  -18.7980   22.3997 C   0  0  1  0  0  0
  -30.9250  -16.4236   22.0952 C   0  0  2  0  0  0
  -28.8871  -26.2469   21.2860 C   0  0  0  0  0  0
  -29.4066  -23.8552   21.4666 N   0  0  0  0  0  0
  -30.2834  -15.1924   21.6279 N   0  0  0  0  0  0
  -27.2485  -24.5400   21.7052 O   0  0  0  0  0  0
  -30.7604  -21.5650   21.8703 S   0  0  0  0  0  0
  -31.4594  -12.3933   19.0935 H   0  0  0  0  0  0
  -30.3162  -11.2726   19.7705 H   0  0  0  0  0  0
  -29.7164  -11.8162   17.3983 H   0  0  0  0  0  0
  -29.6517  -13.5189   17.7821 H   0  0  0  0  0  0
  -27.8186  -11.3197   18.7987 H   0  0  0  0  0  0
  -27.3533  -12.6633   17.7902 H   0  0  0  0  0  0
  -27.7222  -14.2566   19.6061 H   0  0  0  0  0  0
  -28.6681  -11.9075   21.3138 H   0  0  0  0  0  0
  -28.4523  -13.5279   21.8866 H   0  0  0  0  0  0
  -25.2755   -9.5687   22.4754 H   0  0  0  0  0  0
  -23.9998   -7.4637   22.7473 H   0  0  0  0  0  0
  -21.0835   -8.8772   19.8954 H   0  0  0  0  0  0
  -22.3688  -10.9674   19.6164 H   0  0  0  0  0  0
  -21.2002   -7.6145   23.9718 H   0  0  0  0  0  0
  -21.1477   -6.0521   25.9078 H   0  0  0  0  0  0
  -22.0601   -2.7609   23.2848 H   0  0  0  0  0  0
  -22.4123  -11.9893   22.4785 H   0  0  0  0  0  0
  -21.1141  -13.1276   22.2639 H   0  0  0  0  0  0
  -24.6709  -15.8477   20.5169 H   0  0  0  0  0  0
  -26.2970  -15.6252   20.1133 H   0  0  0  0  0  0
  -26.7089  -32.5557   23.1179 H   0  0  0  0  0  0
  -25.0065  -33.9795   25.0507 H   0  0  0  0  0  0
  -22.6851  -31.3075   21.4122 H   0  0  0  0  0  0
  -23.3742  -35.9646   23.3319 H   0  0  0  0  0  0
  -24.3579  -36.8908   22.2053 H   0  0  0  0  0  0
  -23.7238  -37.6522   23.6648 H   0  0  0  0  0  0
  -26.0294  -31.6078   20.5935 H   0  0  0  0  0  0
  -26.8118  -30.9002   21.9785 H   0  0  0  0  0  0
  -28.0937  -29.1333   21.1729 H   0  0  0  0  0  0
  -26.0998  -25.9907   19.0002 H   0  0  0  0  0  0
  -23.9885  -27.2899   19.0314 H   0  0  0  0  0  0
  -23.7116  -30.5974   19.4056 H   0  0  0  0  0  0
  -22.7319  -29.2390   19.8711 H   0  0  0  0  0  0
  -25.1281  -36.1985   25.0837 H   0  0  0  0  0  0
  -20.9939  -28.3210   24.1450 H   0  0  0  0  0  0
  -20.5653  -26.2254   23.3604 H   0  0  0  0  0  0
  -21.6627  -26.7428   22.1221 H   0  0  0  0  0  0
  -19.6900  -25.6286   21.1235 H   0  0  0  0  0  0
  -19.6684  -27.3187   20.6743 H   0  0  0  0  0  0
  -17.4182  -26.6662   21.4017 H   0  0  0  0  0  0
  -18.0307  -26.0042   22.9005 H   0  0  0  0  0  0
  -19.7932  -30.7231   24.2292 H   0  0  0  0  0  0
  -17.5021  -31.6266   24.5156 H   0  0  0  0  0  0
  -15.5352  -30.3002   23.7642 H   0  0  0  0  0  0
  -15.8648  -28.0823   22.7084 H   0  0  0  0  0  0
  -24.5928  -30.7015   25.7824 H   0  0  0  0  0  0
  -24.8927  -32.2830   26.4938 H   0  0  0  0  0  0
  -25.8119  -30.8857   27.0226 H   0  0  0  0  0  0
  -26.2828  -29.6810   24.1139 H   0  0  0  0  0  0
  -27.4126  -29.7288   25.4489 H   0  0  0  0  0  0
  -27.8637  -30.4397   23.9160 H   0  0  0  0  0  0
  -27.2639  -33.3593   26.2100 H   0  0  0  0  0  0
  -28.3827  -32.6906   25.0308 H   0  0  0  0  0  0
  -28.0715  -31.8416   26.5374 H   0  0  0  0  0  0
  -28.2608  -38.0094   24.7517 H   0  0  0  0  0  0
  -28.1060  -36.2627   24.6302 H   0  0  0  0  0  0
  -27.2292  -37.1471   25.8873 H   0  0  0  0  0  0
  -20.9271  -29.8736   21.6966 H   0  0  0  0  0  0
  -26.0185  -38.2873   24.1416 H   0  0  0  0  0  0
  -27.7453  -19.5697   22.0682 H   0  0  0  0  0  0
  -27.1760  -22.0182   21.6271 H   0  0  0  0  0  0
  -30.5290  -18.6423   24.5854 H   0  0  0  0  0  0
  -29.0547  -18.1123   23.7862 H   0  0  0  0  0  0
  -29.9248  -15.9873   24.0183 H   0  0  0  0  0  0
  -31.5740  -16.5595   24.1619 H   0  0  0  0  0  0
  -30.9843  -17.8893   20.4467 H   0  0  0  0  0  0
  -29.3745  -17.5666   21.0850 H   0  0  0  0  0  0
  -31.6308  -19.0123   22.4861 H   0  0  0  0  0  0
  -32.0078  -16.3549   21.9658 H   0  0  0  0  0  0
  -29.9757  -26.3093   21.2684 H   0  0  0  0  0  0
  -28.5570  -26.8541   22.1307 H   0  0  0  0  0  0
  -30.3420  -24.2109   21.3184 H   0  0  0  0  0  0
  -29.4371  -14.8971   22.0909 H   0  0  0  0  0  0
  1 25  1  0  0  0
  1 30  2  0  0  0
  1 83  1  0  0  0
  2  3  1  0  0  0
  2 25  1  0  0  0
  2 86  1  0  0  0
  2 87  1  0  0  0
  3  4  1  0  0  0
  3 88  1  0  0  0
  3 89  1  0  0  0
  4  5  1  0  0  0
  4 90  1  0  0  0
  4 91  1  0  0  0
  5  6  1  0  0  0
  5 26  1  0  0  0
  5 92  1  0  0  0
  6 25  1  0  0  0
  6 93  1  0  0  0
  6 94  1  0  0  0
  7  8  2  0  0  0
  7 26  1  0  0  0
  7 29  1  0  0  0
  8  9  1  0  0  0
  8 22  1  0  0  0
  9 10  1  0  0  0
  9 27  2  0  0  0
 10 11  2  0  0  0
 10 15  1  0  0  0
 11 12  1  0  0  0
 11 95  1  0  0  0
 12 13  2  0  0  0
 12 96  1  0  0  0
 13 14  1  0  0  0
 13 31  1  0  0  0
 14 15  2  0  0  0
 14 97  1  0  0  0
 15 98  1  0  0  0
 16 17  2  0  0  0
 16 21  1  0  0  0
 16 31  1  0  0  0
 17 18  1  0  0  0
 17 99  1  0  0  0
 18 19  2  0  0  0
 18100  1  0  0  0
 19 20  1  0  0  0
 19 24  1  0  0  0
 20 21  2  0  0  0
 20101  1  0  0  0
 21 23  1  0  0  0
 22 28  1  0  0  0
 22 32  2  0  0  0
 26 27  1  0  0  0
 28102  1  0  0  0
 28103  1  0  0  0
 29104  1  0  0  0
 29105  1  0  0  0
 33 34  1  0  0  0
 33 66  1  0  0  0
 33 70  2  0  0  0
 34 36  1  0  0  0
 34 59  1  0  0  0
 34106  1  0  0  0
 35 44  2  0  0  0
 35 45  1  0  0  0
 35 68  1  0  0  0
 36 56  1  0  0  0
 36107  1  0  0  0
 37 39  1  0  0  0
 37 47  1  0  0  0
 37 66  1  0  0  0
 37108  1  0  0  0
 38 43  2  0  0  0
 38 46  1  0  0  0
 38 47  1  0  0  0
 39 64  1  0  0  0
 39 67  2  0  0  0
 40 52  1  0  0  0
 40 53  2  0  0  0
 40 58  1  0  0  0
 41109  1  0  0  0
 41110  1  0  0  0
 41111  1  0  0  0
 41 48  1  0  0  0
 42 43  1  0  0  0
 42 66  1  0  0  0
 42112  1  0  0  0
 42113  1  0  0  0
 43 44  1  0  0  0
 44114  1  0  0  0
 45 46  2  0  0  0
 45115  1  0  0  0
 46116  1  0  0  0
 47117  1  0  0  0
 47118  1  0  0  0
 48 56  1  0  0  0
 48 65  1  0  0  0
 48119  1  0  0  0
 49 50  1  0  0  0
 49 53  1  0  0  0
 49 64  1  0  0  0
 49120  1  0  0  0
 50 51  1  0  0  0
 50121  1  0  0  0
 50122  1  0  0  0
 51 52  1  0  0  0
 51123  1  0  0  0
 51124  1  0  0  0
 52125  1  0  0  0
 52126  1  0  0  0
 53 54  1  0  0  0
 54 55  2  0  0  0
 54127  1  0  0  0
 55 57  1  0  0  0
 55128  1  0  0  0
 56 69  2  0  0  0
 57 58  2  0  0  0
 57129  1  0  0  0
 58130  1  0  0  0
 59 60  1  0  0  0
 59 61  1  0  0  0
 59 62  1  0  0  0
 60131  1  0  0  0
 60132  1  0  0  0
 60133  1  0  0  0
 61134  1  0  0  0
 61135  1  0  0  0
 61136  1  0  0  0
 62137  1  0  0  0
 62138  1  0  0  0
 62139  1  0  0  0
 63 65  1  0  0  0
 63140  1  0  0  0
 63141  1  0  0  0
 63142  1  0  0  0
 64143  1  0  0  0
 65144  1  0  0  0
 68 81  1  0  0  0
 71 72  1  0  0  0
 71 73  2  0  0  0
 71145  1  0  0  0
 72 74  2  0  0  0
 72146  1  0  0  0
 73 85  1  0  0  0
 73 79  1  0  0  0
 74 82  1  0  0  0
 74 85  1  0  0  0
 75 81  1  0  0  0
 75 82  1  0  0  0
 75 84  2  0  0  0
 76 77  1  0  0  0
 76 79  1  0  0  0
 76147  1  0  0  0
 76148  1  0  0  0
 77 80  1  0  0  0
 77149  1  0  0  0
 77150  1  0  0  0
 78 79  1  0  0  0
 78 80  1  0  0  0
 78151  1  0  0  0
 78152  1  0  0  0
 79153  1  0  0  0
 80 83  1  0  0  0
 80154  1  0  0  0
 81155  1  0  0  0
 81156  1  0  0  0
 82157  1  0  0  0
 83158  1  0  0  0
M  ISO  4   1 100  68 101  81 101  83 100
M  END
> <chiral flag>
0

> <version>
0

> <s_m_source_file>
/data/baiqing/PycharmProjects/Reinvent-master-3.2/result/LINK_invent/BTK/process_docking_weight1_custom_product_contain_oxygen_bond_distance_aromatic_linkinvent_7_9_3/rearranged_h_0151.sdf

> <i_m_source_file_index>
62

> <r_mmod_Potential_Energy-OPLS-2005>
-81.3542175292969

> <r_mmod_Stretch_Energy-OPLS-2005>
31.1095104217529

> <r_mmod_Bend_Energy-OPLS-2005>
121.685516357422

> <r_mmod_Torsional_Energy-OPLS-2005>
245.090087890625

> <r_mmod_Improper_Torsional_Energy-OPLS-2005>
1.78238272666931

> <r_mmod_Van_der_Waal_Energy-OPLS-2005>
127.931793212891

> <r_mmod_Electrostatic_Energy-OPLS-2005>
-387.403289794922

> <r_mmod_Solvation_Energy-OPLS-2005>
-227.888595581055

> <b_mmod_Minimization_Converged-OPLS-2005>
0

> <r_mmod_RMS_Derivative-OPLS-2005>
0.809212505817413

$$$$
62
                    3D
 Structure written by MMmdl.
152161  0  0  1  0            999 V2000
  -30.5777  -14.8255   20.4426 C   0  0  0  0  0  0
  -30.4384  -12.5087   19.4758 C   0  0  0  0  0  0
  -29.5151  -12.5132   18.2376 C   0  0  0  0  0  0
  -28.0437  -12.3206   18.6555 C   0  0  0  0  0  0
  -27.6358  -13.2338   19.8413 C   0  0  2  0  0  0
  -28.6801  -13.2048   20.9760 C   0  0  0  0  0  0
  -25.2493  -13.8198   20.5677 C   0  0  0  0  0  0
  -24.1790  -13.0453   20.9211 C   0  0  0  0  0  0
  -24.6384  -11.6925   20.8752 C   0  0  0  0  0  0
  -23.9047  -10.4305   21.0409 C   0  0  0  0  0  0
  -24.3586   -9.4221   21.9186 C   0  0  0  0  0  0
  -23.6274   -8.2247   22.0756 C   0  0  0  0  0  0
  -22.4255   -8.0286   21.3547 C   0  0  0  0  0  0
  -21.9885   -9.0255   20.4647 C   0  0  0  0  0  0
  -22.7213  -10.2143   20.3062 C   0  0  0  0  0  0
  -21.6860   -6.0732   22.5273 C   0  0  0  0  0  0
  -21.4023   -6.5622   23.8207 C   0  0  0  0  0  0
  -21.3660   -5.6776   24.9166 C   0  0  0  0  0  0
  -21.6042   -4.3044   24.7222 C   0  0  0  0  0  0
  -21.8813   -3.8139   23.4339 C   0  0  0  0  0  0
  -21.9199   -4.6956   22.3402 C   0  0  0  0  0  0
  -22.7810  -13.5248   21.1863 C   0  0  0  0  0  0
  -22.1664   -4.2147   21.0980 F   0  0  0  0  0  0
  -21.5628   -3.4527   25.7735 F   0  0  0  0  0  0
  -29.9677  -13.5856   20.3822 N   0  0  0  0  0  0
  -26.2903  -12.9400   20.3213 N   0  0  0  0  0  0
  -25.9310  -11.6546   20.5708 N   0  0  0  0  0  0
  -22.0426  -12.8265   22.0419 N   0  0  0  0  0  0
  -25.4176  -15.1923   20.4081 N   0  0  0  0  0  0
  -31.7812  -14.9069   20.1810 O   0  0  0  0  0  0
  -21.6638   -6.8869   21.4236 O   0  0  0  0  0  0
  -22.3502  -14.5553   20.6715 O   0  0  0  0  0  0
  -24.6377  -31.8495   23.1938 C   0  0  0  0  0  0
  -25.9170  -32.4717   23.8312 C   0  0  1  0  0  0
  -27.2161  -27.1970   20.1499 C   0  0  0  0  0  0
  -25.5939  -33.8522   24.2227 N   0  0  0  0  0  0
  -23.4388  -30.4701   21.5359 C   0  0  2  0  0  0
  -24.8894  -28.9088   20.1106 C   0  0  0  0  0  0
  -22.7544  -29.4574   22.4870 C   0  0  0  0  0  0
  -18.0301  -28.1388   22.8480 C   0  0  0  0  0  0
  -24.1491  -36.7272   23.2633 C   0  0  0  0  0  0
  -25.9909  -30.7410   21.3881 C   0  0  0  0  0  0
  -26.0625  -29.3585   20.7306 C   0  0  0  0  0  0
  -27.2301  -28.5173   20.7355 C   0  0  0  0  0  0
  -26.0248  -26.8400   19.4821 C   0  0  0  0  0  0
  -24.8804  -27.6615   19.4703 C   0  0  0  0  0  0
  -23.6638  -29.8031   20.1538 C   0  0  0  0  0  0
  -25.4108  -36.3045   24.0325 C   0  0  1  0  0  0
  -20.5910  -28.3713   23.1240 C   0  0  2  0  0  0
  -20.6787  -26.9423   22.5394 C   0  0  0  0  0  0
  -19.5755  -26.6379   21.5205 C   0  0  0  0  0  0
  -18.1940  -26.7921   22.1633 C   0  0  0  0  0  0
  -19.1556  -28.8869   23.2851 C   0  0  0  0  0  0
  -18.9476  -30.1465   23.8874 C   0  0  0  0  0  0
  -17.6472  -30.6592   24.0552 C   0  0  0  0  0  0
  -25.9061  -34.9420   23.5081 C   0  0  0  0  0  0
  -16.5362  -29.9084   23.6331 C   0  0  0  0  0  0
  -16.7283  -28.6502   23.0354 C   0  0  0  0  0  0
  -26.4510  -31.6565   25.0734 C   0  0  0  0  0  0
  -25.3713  -31.3755   26.1448 C   0  0  0  0  0  0
  -27.0361  -30.2956   24.6303 C   0  0  0  0  0  0
  -27.6053  -32.4326   25.7503 C   0  0  0  0  0  0
  -27.5593  -37.1759   24.8439 C   0  0  0  0  0  0
  -21.4243  -29.3053   22.3627 N   0  0  0  0  0  0
  -26.4269  -37.3763   23.9439 N   0  0  0  0  0  0
  -24.7076  -31.0408   22.0941 N   0  0  0  0  0  0
  -23.4216  -28.8110   23.2993 O   0  0  0  0  0  0
  -28.2807  -26.2473   20.1886 O   0  0  0  0  0  0
  -26.5652  -34.8912   22.4663 O   0  0  0  0  0  0
  -23.5507  -32.1347   23.7185 O   0  0  0  0  0  0
  -30.9359  -20.0297   17.9554 C   0  0  0  0  0  0
  -31.0335  -18.7206   18.4941 C   0  0  0  0  0  0
  -30.2034  -21.0925   18.5763 C   0  0  0  0  0  0
  -30.3152  -18.5158   19.6693 C   0  0  0  0  0  0
  -29.5401  -19.5981   20.2946 C   0  0  0  0  0  0
  -29.4766  -20.9865   19.8054 C   0  0  0  0  0  0
  -28.9888  -23.5956   20.0644 C   0  0  0  0  0  0
  -29.1612  -18.5807   21.4009 C   0  0  0  0  0  0
  -30.2043  -17.4599   20.7920 C   0  0  1  0  0  0
  -27.9739  -24.7796   20.5238 C   0  0  0  0  0  0
  -28.7823  -22.2210   20.3357 N   0  0  0  0  0  0
  -29.7955  -15.9769   20.6045 N   0  0  0  0  0  0
  -30.0082  -23.9668   19.4775 O   0  0  0  0  0  0
  -31.4766  -12.6520   19.1690 H   0  0  0  0  0  0
  -30.4052  -11.5408   19.9781 H   0  0  0  0  0  0
  -29.8118  -11.7306   17.5387 H   0  0  0  0  0  0
  -29.6245  -13.4582   17.7023 H   0  0  0  0  0  0
  -27.9154  -11.2755   18.9376 H   0  0  0  0  0  0
  -27.3832  -12.4883   17.8034 H   0  0  0  0  0  0
  -27.6184  -14.2472   19.4405 H   0  0  0  0  0  0
  -28.7365  -12.2151   21.4309 H   0  0  0  0  0  0
  -28.4013  -13.8934   21.7752 H   0  0  0  0  0  0
  -25.2729   -9.5711   22.4757 H   0  0  0  0  0  0
  -24.0005   -7.4635   22.7469 H   0  0  0  0  0  0
  -21.0816   -8.8765   19.8943 H   0  0  0  0  0  0
  -22.3661  -10.9676   19.6174 H   0  0  0  0  0  0
  -21.2015   -7.6131   23.9705 H   0  0  0  0  0  0
  -21.1485   -6.0509   25.9068 H   0  0  0  0  0  0
  -22.0594   -2.7607   23.2834 H   0  0  0  0  0  0
  -22.4029  -11.9958   22.4869 H   0  0  0  0  0  0
  -21.1038  -13.1319   22.2586 H   0  0  0  0  0  0
  -24.6420  -15.8381   20.5010 H   0  0  0  0  0  0
  -26.2477  -15.6241   20.0233 H   0  0  0  0  0  0
  -26.7240  -32.5345   23.1049 H   0  0  0  0  0  0
  -25.0038  -33.9642   25.0344 H   0  0  0  0  0  0
  -22.7387  -31.2945   21.3836 H   0  0  0  0  0  0
  -23.3769  -35.9582   23.3223 H   0  0  0  0  0  0
  -24.3600  -36.8974   22.2063 H   0  0  0  0  0  0
  -23.7223  -37.6441   23.6706 H   0  0  0  0  0  0
  -26.1464  -31.5006   20.6207 H   0  0  0  0  0  0
  -26.8605  -30.7842   22.0322 H   0  0  0  0  0  0
  -28.1253  -28.8530   21.2395 H   0  0  0  0  0  0
  -25.9568  -25.8968   18.9609 H   0  0  0  0  0  0
  -23.9896  -27.3192   18.9621 H   0  0  0  0  0  0
  -23.7988  -30.5763   19.3969 H   0  0  0  0  0  0
  -22.7820  -29.2400   19.8430 H   0  0  0  0  0  0
  -25.1280  -36.1857   25.0812 H   0  0  0  0  0  0
  -21.0000  -28.3292   24.1360 H   0  0  0  0  0  0
  -20.5686  -26.2327   23.3606 H   0  0  0  0  0  0
  -21.6654  -26.7438   22.1182 H   0  0  0  0  0  0
  -19.6912  -25.6281   21.1256 H   0  0  0  0  0  0
  -19.6670  -27.3177   20.6717 H   0  0  0  0  0  0
  -17.4196  -26.6647   21.4048 H   0  0  0  0  0  0
  -18.0357  -26.0074   22.9047 H   0  0  0  0  0  0
  -19.7950  -30.7288   24.2235 H   0  0  0  0  0  0
  -17.5025  -31.6270   24.5155 H   0  0  0  0  0  0
  -15.5358  -30.2979   23.7663 H   0  0  0  0  0  0
  -15.8686  -28.0807   22.7084 H   0  0  0  0  0  0
  -24.5829  -30.7181   25.7761 H   0  0  0  0  0  0
  -24.8982  -32.2948   26.4907 H   0  0  0  0  0  0
  -25.7994  -30.8869   27.0209 H   0  0  0  0  0  0
  -26.2969  -29.6685   24.1303 H   0  0  0  0  0  0
  -27.3956  -29.7248   25.4874 H   0  0  0  0  0  0
  -27.8890  -30.4176   23.9627 H   0  0  0  0  0  0
  -27.2635  -33.3618   26.2073 H   0  0  0  0  0  0
  -28.3851  -32.6903   25.0327 H   0  0  0  0  0  0
  -28.0735  -31.8468   26.5422 H   0  0  0  0  0  0
  -28.2504  -38.0160   24.7638 H   0  0  0  0  0  0
  -28.1198  -36.2704   24.6053 H   0  0  0  0  0  0
  -27.2349  -37.1157   25.8844 H   0  0  0  0  0  0
  -20.9448  -29.8778   21.6818 H   0  0  0  0  0  0
  -26.0129  -38.2813   24.1516 H   0  0  0  0  0  0
  -31.4670  -20.2473   17.0389 H   0  0  0  0  0  0
  -31.6459  -17.9494   18.0460 H   0  0  0  0  0  0
  -30.2206  -22.0350   18.0518 H   0  0  0  0  0  0
  -28.1125  -18.2926   21.3221 H   0  0  0  0  0  0
  -29.4087  -18.9211   22.4065 H   0  0  0  0  0  0
  -31.1464  -17.5155   21.3382 H   0  0  0  0  0  0
  -27.8939  -24.7200   21.6101 H   0  0  0  0  0  0
  -26.9960  -24.4847   20.1506 H   0  0  0  0  0  0
  -27.9998  -22.0382   20.9505 H   0  0  0  0  0  0
  -28.8115  -15.7975   20.7187 H   0  0  0  0  0  0
  1 25  1  0  0  0
  1 30  2  0  0  0
  1 82  1  0  0  0
  2  3  1  0  0  0
  2 25  1  0  0  0
  2 84  1  0  0  0
  2 85  1  0  0  0
  3  4  1  0  0  0
  3 86  1  0  0  0
  3 87  1  0  0  0
  4  5  1  0  0  0
  4 88  1  0  0  0
  4 89  1  0  0  0
  5  6  1  0  0  0
  5 26  1  0  0  0
  5 90  1  0  0  0
  6 25  1  0  0  0
  6 91  1  0  0  0
  6 92  1  0  0  0
  7  8  2  0  0  0
  7 26  1  0  0  0
  7 29  1  0  0  0
  8  9  1  0  0  0
  8 22  1  0  0  0
  9 10  1  0  0  0
  9 27  2  0  0  0
 10 11  2  0  0  0
 10 15  1  0  0  0
 11 12  1  0  0  0
 11 93  1  0  0  0
 12 13  2  0  0  0
 12 94  1  0  0  0
 13 14  1  0  0  0
 13 31  1  0  0  0
 14 15  2  0  0  0
 14 95  1  0  0  0
 15 96  1  0  0  0
 16 17  2  0  0  0
 16 21  1  0  0  0
 16 31  1  0  0  0
 17 18  1  0  0  0
 17 97  1  0  0  0
 18 19  2  0  0  0
 18 98  1  0  0  0
 19 20  1  0  0  0
 19 24  1  0  0  0
 20 21  2  0  0  0
 20 99  1  0  0  0
 21 23  1  0  0  0
 22 28  1  0  0  0
 22 32  2  0  0  0
 26 27  1  0  0  0
 28100  1  0  0  0
 28101  1  0  0  0
 29102  1  0  0  0
 29103  1  0  0  0
 33 34  1  0  0  0
 33 66  1  0  0  0
 33 70  2  0  0  0
 34 36  1  0  0  0
 34 59  1  0  0  0
 34104  1  0  0  0
 35 44  2  0  0  0
 35 45  1  0  0  0
 35 68  1  0  0  0
 36 56  1  0  0  0
 36105  1  0  0  0
 37 39  1  0  0  0
 37 47  1  0  0  0
 37 66  1  0  0  0
 37106  1  0  0  0
 38 43  2  0  0  0
 38 46  1  0  0  0
 38 47  1  0  0  0
 39 64  1  0  0  0
 39 67  2  0  0  0
 40 52  1  0  0  0
 40 53  2  0  0  0
 40 58  1  0  0  0
 41107  1  0  0  0
 41108  1  0  0  0
 41109  1  0  0  0
 41 48  1  0  0  0
 42 43  1  0  0  0
 42 66  1  0  0  0
 42110  1  0  0  0
 42111  1  0  0  0
 43 44  1  0  0  0
 44112  1  0  0  0
 45 46  2  0  0  0
 45113  1  0  0  0
 46114  1  0  0  0
 47115  1  0  0  0
 47116  1  0  0  0
 48 56  1  0  0  0
 48 65  1  0  0  0
 48117  1  0  0  0
 49 50  1  0  0  0
 49 53  1  0  0  0
 49 64  1  0  0  0
 49118  1  0  0  0
 50 51  1  0  0  0
 50119  1  0  0  0
 50120  1  0  0  0
 51 52  1  0  0  0
 51121  1  0  0  0
 51122  1  0  0  0
 52123  1  0  0  0
 52124  1  0  0  0
 53 54  1  0  0  0
 54 55  2  0  0  0
 54125  1  0  0  0
 55 57  1  0  0  0
 55126  1  0  0  0
 56 69  2  0  0  0
 57 58  2  0  0  0
 57127  1  0  0  0
 58128  1  0  0  0
 59 60  1  0  0  0
 59 61  1  0  0  0
 59 62  1  0  0  0
 60129  1  0  0  0
 60130  1  0  0  0
 60131  1  0  0  0
 61132  1  0  0  0
 61133  1  0  0  0
 61134  1  0  0  0
 62135  1  0  0  0
 62136  1  0  0  0
 62137  1  0  0  0
 63 65  1  0  0  0
 63138  1  0  0  0
 63139  1  0  0  0
 63140  1  0  0  0
 64141  1  0  0  0
 65142  1  0  0  0
 68 80  1  0  0  0
 71 72  2  0  0  0
 71 73  1  0  0  0
 71143  1  0  0  0
 72 74  1  0  0  0
 72144  1  0  0  0
 73 76  2  0  0  0
 73145  1  0  0  0
 74 75  2  0  0  0
 74 79  1  0  0  0
 75 76  1  0  0  0
 75 78  1  0  0  0
 76 81  1  0  0  0
 77 80  1  0  0  0
 77 81  1  0  0  0
 77 83  2  0  0  0
 78 79  1  0  0  0
 78146  1  0  0  0
 78147  1  0  0  0
 79 82  1  0  0  0
 79148  1  0  0  0
 80149  1  0  0  0
 80150  1  0  0  0
 81151  1  0  0  0
 82152  1  0  0  0
M  ISO  4   1 100  68 101  80 101  82 100
M  END
> <chiral flag>
0

> <version>
0

> <s_m_source_file>
/data/baiqing/PycharmProjects/Reinvent-master-3.2/result/LINK_invent/BTK/process_docking_weight1_custom_product_contain_oxygen_bond_distance_aromatic_linkinvent_7_9_3/rearranged_h_0151.sdf

> <i_m_source_file_index>
63

> <r_mmod_Potential_Energy-OPLS-2005>
606.834899902344

> <r_mmod_Stretch_Energy-OPLS-2005>
175.908813476562

> <r_mmod_Bend_Energy-OPLS-2005>
586.198181152344

> <r_mmod_Torsional_Energy-OPLS-2005>
240.190719604492

> <r_mmod_Improper_Torsional_Energy-OPLS-2005>
6.17405557632446

> <r_mmod_Van_der_Waal_Energy-OPLS-2005>
135.568176269531

> <r_mmod_Electrostatic_Energy-OPLS-2005>
-414.236633300781

> <r_mmod_Solvation_Energy-OPLS-2005>
-251.971008300781

> <b_mmod_Minimization_Converged-OPLS-2005>
0

> <r_mmod_RMS_Derivative-OPLS-2005>
2.16459822654724

$$$$
63
                    3D
 Structure written by MMmdl.
166174  0  0  1  0            999 V2000
  -30.5765  -14.7409   20.4681 C   0  0  0  0  0  0
  -30.4452  -12.4552   19.4544 C   0  0  0  0  0  0
  -29.5100  -12.5012   18.2245 C   0  0  0  0  0  0
  -28.0352  -12.3243   18.6414 C   0  0  0  0  0  0
  -27.6400  -13.2197   19.8467 C   0  0  2  0  0  0
  -28.6891  -13.1401   20.9753 C   0  0  0  0  0  0
  -25.2503  -13.8171   20.5712 C   0  0  0  0  0  0
  -24.1787  -13.0431   20.9218 C   0  0  0  0  0  0
  -24.6359  -11.6902   20.8733 C   0  0  0  0  0  0
  -23.9034  -10.4281   21.0397 C   0  0  0  0  0  0
  -24.3585   -9.4196   21.9175 C   0  0  0  0  0  0
  -23.6266   -8.2233   22.0732 C   0  0  0  0  0  0
  -22.4250   -8.0260   21.3531 C   0  0  0  0  0  0
  -21.9883   -9.0229   20.4637 C   0  0  0  0  0  0
  -22.7202  -10.2114   20.3053 C   0  0  0  0  0  0
  -21.6847   -6.0722   22.5281 C   0  0  0  0  0  0
  -21.4015   -6.5628   23.8216 C   0  0  0  0  0  0
  -21.3655   -5.6783   24.9170 C   0  0  0  0  0  0
  -21.6040   -4.3048   24.7229 C   0  0  0  0  0  0
  -21.8817   -3.8140   23.4353 C   0  0  0  0  0  0
  -21.9193   -4.6950   22.3407 C   0  0  0  0  0  0
  -22.7816  -13.5218   21.1893 C   0  0  0  0  0  0
  -22.1663   -4.2136   21.0981 F   0  0  0  0  0  0
  -21.5627   -3.4530   25.7741 F   0  0  0  0  0  0
  -29.9843  -13.5036   20.3851 N   0  0  0  0  0  0
  -26.2913  -12.9353   20.3258 N   0  0  0  0  0  0
  -25.9279  -11.6508   20.5713 N   0  0  0  0  0  0
  -22.0463  -12.8200   22.0442 N   0  0  0  0  0  0
  -25.4194  -15.1906   20.4177 N   0  0  0  0  0  0
  -31.7852  -14.8748   20.2577 O   0  0  0  0  0  0
  -21.6631   -6.8847   21.4233 O   0  0  0  0  0  0
  -22.3505  -14.5531   20.6729 O   0  0  0  0  0  0
  -24.6337  -31.8559   23.1996 C   0  0  0  0  0  0
  -25.9161  -32.4757   23.8332 C   0  0  1  0  0  0
  -27.2179  -27.2512   20.1275 C   0  0  0  0  0  0
  -25.5954  -33.8553   24.2263 N   0  0  0  0  0  0
  -23.4296  -30.4785   21.5460 C   0  0  2  0  0  0
  -24.8775  -28.9292   20.1105 C   0  0  0  0  0  0
  -22.7513  -29.4589   22.4936 C   0  0  0  0  0  0
  -18.0303  -28.1351   22.8498 C   0  0  0  0  0  0
  -24.1482  -36.7259   23.2641 C   0  0  0  0  0  0
  -25.9790  -30.7632   21.3835 C   0  0  0  0  0  0
  -26.0514  -29.3873   20.7218 C   0  0  0  0  0  0
  -27.2249  -28.5621   20.7195 C   0  0  0  0  0  0
  -26.0195  -26.8721   19.4774 C   0  0  0  0  0  0
  -24.8681  -27.6805   19.4760 C   0  0  0  0  0  0
  -23.6483  -29.8170   20.1609 C   0  0  0  0  0  0
  -25.4116  -36.3071   24.0334 C   0  0  1  0  0  0
  -20.5902  -28.3670   23.1290 C   0  0  2  0  0  0
  -20.6787  -26.9383   22.5421 C   0  0  0  0  0  0
  -19.5768  -26.6347   21.5204 C   0  0  0  0  0  0
  -18.1953  -26.7898   22.1626 C   0  0  0  0  0  0
  -19.1551  -28.8830   23.2877 C   0  0  0  0  0  0
  -18.9456  -30.1432   23.8880 C   0  0  0  0  0  0
  -17.6456  -30.6561   24.0542 C   0  0  0  0  0  0
  -25.9063  -34.9438   23.5108 C   0  0  0  0  0  0
  -16.5349  -29.9051   23.6318 C   0  0  0  0  0  0
  -16.7279  -28.6460   23.0358 C   0  0  0  0  0  0
  -26.4519  -31.6578   25.0724 C   0  0  0  0  0  0
  -25.3736  -31.3727   26.1442 C   0  0  0  0  0  0
  -27.0376  -30.2995   24.6218 C   0  0  0  0  0  0
  -27.6074  -32.4319   25.7495 C   0  0  0  0  0  0
  -27.5577  -37.1793   24.8481 C   0  0  0  0  0  0
  -21.4218  -29.3033   22.3687 N   0  0  0  0  0  0
  -26.4286  -37.3778   23.9426 N   0  0  0  0  0  0
  -24.6997  -31.0505   22.0987 N   0  0  0  0  0  0
  -23.4211  -28.8102   23.3016 O   0  0  0  0  0  0
  -28.2929  -26.3269   20.2042 O   0  0  0  0  0  0
  -26.5636  -34.8923   22.4676 O   0  0  0  0  0  0
  -23.5488  -32.1375   23.7305 O   0  0  0  0  0  0
  -29.2001  -17.1293   22.3744 C   0  0  0  0  0  0
  -28.9686  -19.5723   22.4171 C   0  0  0  0  0  0
  -29.7401  -18.4543   20.4015 C   0  0  0  0  0  0
  -28.8500  -18.3142   23.0585 C   0  0  0  0  0  0
  -29.6515  -17.1439   21.0398 C   0  0  0  0  0  0
  -29.4036  -19.7036   21.0780 C   0  0  0  0  0  0
  -28.9602  -23.6871   20.3971 C   0  0  0  0  0  0
  -28.7572  -19.3139   25.4375 C   0  0  0  0  0  0
  -27.3024  -21.9554   21.2521 C   0  0  0  0  0  0
  -27.9951  -21.8848   18.8619 C   0  0  0  0  0  0
  -27.9711  -24.8735   19.9434 C   0  0  0  0  0  0
  -28.2954  -18.1988   24.4802 C   0  0  1  0  0  0
  -28.5033  -22.1278   20.2969 C   0  0  0  0  0  0
  -29.7101  -15.8197   20.3853 N   0  0  0  0  0  0
  -29.5616  -21.0484   20.5408 N   0  0  0  0  0  0
  -26.8279  -18.1021   24.4368 N   0  3  0  0  0  0
  -30.0833  -23.9594   20.8329 O   0  0  0  0  0  0
  -31.4824  -12.6068   19.1515 H   0  0  0  0  0  0
  -30.4076  -11.4767   19.9346 H   0  0  0  0  0  0
  -29.7891  -11.7299   17.5050 H   0  0  0  0  0  0
  -29.6308  -13.4567   17.7126 H   0  0  0  0  0  0
  -27.8873  -11.2746   18.8980 H   0  0  0  0  0  0
  -27.3788  -12.5235   17.7940 H   0  0  0  0  0  0
  -27.6316  -14.2410   19.4662 H   0  0  0  0  0  0
  -28.7298  -12.1374   21.4030 H   0  0  0  0  0  0
  -28.4252  -13.8093   21.7959 H   0  0  0  0  0  0
  -25.2714   -9.5686   22.4766 H   0  0  0  0  0  0
  -23.9976   -7.4616   22.7447 H   0  0  0  0  0  0
  -21.0815   -8.8744   19.8937 H   0  0  0  0  0  0
  -22.3643  -10.9648   19.6181 H   0  0  0  0  0  0
  -21.2013   -7.6136   23.9717 H   0  0  0  0  0  0
  -21.1480   -6.0508   25.9077 H   0  0  0  0  0  0
  -22.0601   -2.7602   23.2860 H   0  0  0  0  0  0
  -22.4070  -11.9848   22.4821 H   0  0  0  0  0  0
  -21.1082  -13.1213   22.2663 H   0  0  0  0  0  0
  -24.6417  -15.8327   20.5202 H   0  0  0  0  0  0
  -26.2481  -15.6351   20.0470 H   0  0  0  0  0  0
  -26.7230  -32.5411   23.1071 H   0  0  0  0  0  0
  -25.0124  -33.9670   25.0429 H   0  0  0  0  0  0
  -22.7262  -31.3019   21.4047 H   0  0  0  0  0  0
  -23.3767  -35.9572   23.3318 H   0  0  0  0  0  0
  -24.3564  -36.8856   22.2050 H   0  0  0  0  0  0
  -23.7198  -37.6452   23.6645 H   0  0  0  0  0  0
  -26.1223  -31.5233   20.6137 H   0  0  0  0  0  0
  -26.8559  -30.8097   22.0183 H   0  0  0  0  0  0
  -28.1205  -28.9035   21.2191 H   0  0  0  0  0  0
  -25.9256  -25.9192   18.9787 H   0  0  0  0  0  0
  -23.9711  -27.3252   18.9888 H   0  0  0  0  0  0
  -23.7741  -30.5971   19.4094 H   0  0  0  0  0  0
  -22.7648  -29.2540   19.8528 H   0  0  0  0  0  0
  -25.1290  -36.1928   25.0824 H   0  0  0  0  0  0
  -20.9990  -28.3222   24.1412 H   0  0  0  0  0  0
  -20.5682  -26.2255   23.3610 H   0  0  0  0  0  0
  -21.6664  -26.7425   22.1242 H   0  0  0  0  0  0
  -19.6942  -25.6270   21.1188 H   0  0  0  0  0  0
  -19.6688  -27.3176   20.6749 H   0  0  0  0  0  0
  -17.4222  -26.6682   21.4029 H   0  0  0  0  0  0
  -18.0345  -26.0025   22.9007 H   0  0  0  0  0  0
  -19.7922  -30.7257   24.2246 H   0  0  0  0  0  0
  -17.5002  -31.6247   24.5132 H   0  0  0  0  0  0
  -15.5350  -30.2950   23.7639 H   0  0  0  0  0  0
  -15.8673  -28.0757   22.7103 H   0  0  0  0  0  0
  -24.5926  -30.7053   25.7781 H   0  0  0  0  0  0
  -24.8909  -32.2890   26.4851 H   0  0  0  0  0  0
  -25.8053  -30.8928   27.0234 H   0  0  0  0  0  0
  -26.2972  -29.6733   24.1225 H   0  0  0  0  0  0
  -27.4042  -29.7266   25.4748 H   0  0  0  0  0  0
  -27.8856  -30.4282   23.9483 H   0  0  0  0  0  0
  -27.2687  -33.3637   26.2040 H   0  0  0  0  0  0
  -28.3892  -32.6840   25.0313 H   0  0  0  0  0  0
  -28.0728  -31.8456   26.5429 H   0  0  0  0  0  0
  -28.2619  -38.0070   24.7526 H   0  0  0  0  0  0
  -28.1042  -36.2602   24.6315 H   0  0  0  0  0  0
  -27.2290  -37.1455   25.8882 H   0  0  0  0  0  0
  -20.9411  -29.8795   21.6921 H   0  0  0  0  0  0
  -26.0170  -38.2855   24.1434 H   0  0  0  0  0  0
  -29.0631  -16.1785   22.8727 H   0  0  0  0  0  0
  -28.7354  -20.4644   22.9762 H   0  0  0  0  0  0
  -30.0415  -18.4976   19.3657 H   0  0  0  0  0  0
  -29.8444  -19.3901   25.4518 H   0  0  0  0  0  0
  -28.4320  -19.1026   26.4584 H   0  0  0  0  0  0
  -28.3541  -20.2891   25.1683 H   0  0  0  0  0  0
  -26.4648  -22.5908   20.9633 H   0  0  0  0  0  0
  -27.5575  -22.2226   22.2777 H   0  0  0  0  0  0
  -26.9133  -20.9375   21.2427 H   0  0  0  0  0  0
  -27.1656  -22.5384   18.5923 H   0  0  0  0  0  0
  -27.6400  -20.8610   18.7362 H   0  0  0  0  0  0
  -28.7856  -22.0453   18.1277 H   0  0  0  0  0  0
  -27.0098  -24.6493   20.4033 H   0  0  0  0  0  0
  -27.8346  -24.7648   18.8676 H   0  0  0  0  0  0
  -28.6622  -17.2592   24.8993 H   0  0  0  0  0  0
  -28.7869  -15.4711   20.1791 H   0  0  0  0  0  0
  -30.3246  -21.1330   19.8749 H   0  0  0  0  0  0
  -26.4211  -18.9327   24.0482 H   0  0  0  0  0  0
  -26.4621  -17.9645   25.3614 H   0  0  0  0  0  0
  -26.5513  -17.3200   23.8716 H   0  0  0  0  0  0
  1 25  1  0  0  0
  1 30  2  0  0  0
  1 84  1  0  0  0
  2  3  1  0  0  0
  2 25  1  0  0  0
  2 88  1  0  0  0
  2 89  1  0  0  0
  3  4  1  0  0  0
  3 90  1  0  0  0
  3 91  1  0  0  0
  4  5  1  0  0  0
  4 92  1  0  0  0
  4 93  1  0  0  0
  5  6  1  0  0  0
  5 26  1  0  0  0
  5 94  1  0  0  0
  6 25  1  0  0  0
  6 95  1  0  0  0
  6 96  1  0  0  0
  7  8  2  0  0  0
  7 26  1  0  0  0
  7 29  1  0  0  0
  8  9  1  0  0  0
  8 22  1  0  0  0
  9 10  1  0  0  0
  9 27  2  0  0  0
 10 11  2  0  0  0
 10 15  1  0  0  0
 11 12  1  0  0  0
 11 97  1  0  0  0
 12 13  2  0  0  0
 12 98  1  0  0  0
 13 14  1  0  0  0
 13 31  1  0  0  0
 14 15  2  0  0  0
 14 99  1  0  0  0
 15100  1  0  0  0
 16 17  2  0  0  0
 16 21  1  0  0  0
 16 31  1  0  0  0
 17 18  1  0  0  0
 17101  1  0  0  0
 18 19  2  0  0  0
 18102  1  0  0  0
 19 20  1  0  0  0
 19 24  1  0  0  0
 20 21  2  0  0  0
 20103  1  0  0  0
 21 23  1  0  0  0
 22 28  1  0  0  0
 22 32  2  0  0  0
 26 27  1  0  0  0
 28104  1  0  0  0
 28105  1  0  0  0
 29106  1  0  0  0
 29107  1  0  0  0
 33 34  1  0  0  0
 33 66  1  0  0  0
 33 70  2  0  0  0
 34 36  1  0  0  0
 34 59  1  0  0  0
 34108  1  0  0  0
 35 44  2  0  0  0
 35 45  1  0  0  0
 35 68  1  0  0  0
 36 56  1  0  0  0
 36109  1  0  0  0
 37 39  1  0  0  0
 37 47  1  0  0  0
 37 66  1  0  0  0
 37110  1  0  0  0
 38 43  2  0  0  0
 38 46  1  0  0  0
 38 47  1  0  0  0
 39 64  1  0  0  0
 39 67  2  0  0  0
 40 52  1  0  0  0
 40 53  2  0  0  0
 40 58  1  0  0  0
 41111  1  0  0  0
 41112  1  0  0  0
 41113  1  0  0  0
 41 48  1  0  0  0
 42 43  1  0  0  0
 42 66  1  0  0  0
 42114  1  0  0  0
 42115  1  0  0  0
 43 44  1  0  0  0
 44116  1  0  0  0
 45 46  2  0  0  0
 45117  1  0  0  0
 46118  1  0  0  0
 47119  1  0  0  0
 47120  1  0  0  0
 48 56  1  0  0  0
 48 65  1  0  0  0
 48121  1  0  0  0
 49 50  1  0  0  0
 49 53  1  0  0  0
 49 64  1  0  0  0
 49122  1  0  0  0
 50 51  1  0  0  0
 50123  1  0  0  0
 50124  1  0  0  0
 51 52  1  0  0  0
 51125  1  0  0  0
 51126  1  0  0  0
 52127  1  0  0  0
 52128  1  0  0  0
 53 54  1  0  0  0
 54 55  2  0  0  0
 54129  1  0  0  0
 55 57  1  0  0  0
 55130  1  0  0  0
 56 69  2  0  0  0
 57 58  2  0  0  0
 57131  1  0  0  0
 58132  1  0  0  0
 59 60  1  0  0  0
 59 61  1  0  0  0
 59 62  1  0  0  0
 60133  1  0  0  0
 60134  1  0  0  0
 60135  1  0  0  0
 61136  1  0  0  0
 61137  1  0  0  0
 61138  1  0  0  0
 62139  1  0  0  0
 62140  1  0  0  0
 62141  1  0  0  0
 63 65  1  0  0  0
 63142  1  0  0  0
 63143  1  0  0  0
 63144  1  0  0  0
 64145  1  0  0  0
 65146  1  0  0  0
 68 81  1  0  0  0
 71 74  2  0  0  0
 71 75  1  0  0  0
 71147  1  0  0  0
 72 74  1  0  0  0
 72 76  2  0  0  0
 72148  1  0  0  0
 73 75  2  0  0  0
 73 76  1  0  0  0
 73149  1  0  0  0
 74 82  1  0  0  0
 75 84  1  0  0  0
 76 85  1  0  0  0
 77 81  1  0  0  0
 77 83  1  0  0  0
 77 87  2  0  0  0
 78150  1  0  0  0
 78151  1  0  0  0
 78152  1  0  0  0
 78 82  1  0  0  0
 79153  1  0  0  0
 79154  1  0  0  0
 79155  1  0  0  0
 79 83  1  0  0  0
 80 83  1  0  0  0
 80156  1  0  0  0
 80157  1  0  0  0
 80158  1  0  0  0
 81159  1  0  0  0
 81160  1  0  0  0
 82 86  1  0  0  0
 82161  1  0  0  0
 83 85  1  0  0  0
 84162  1  0  0  0
 85163  1  0  0  0
 86164  1  0  0  0
 86165  1  0  0  0
 86166  1  0  0  0
M  CHG  1  86   1
M  ISO  4   1 100  68 101  81 101  84 100
M  END
> <chiral flag>
0

> <version>
0

> <s_m_source_file>
/data/baiqing/PycharmProjects/Reinvent-master-3.2/result/LINK_invent/BTK/process_docking_weight1_custom_product_contain_oxygen_bond_distance_aromatic_linkinvent_7_9_3/rearranged_h_0151.sdf

> <i_m_source_file_index>
64

> <r_mmod_Potential_Energy-OPLS-2005>
-7.051682472229

> <r_mmod_Stretch_Energy-OPLS-2005>
132.455413818359

> <r_mmod_Bend_Energy-OPLS-2005>
188.246978759766

> <r_mmod_Torsional_Energy-OPLS-2005>
270.199096679688

> <r_mmod_Improper_Torsional_Energy-OPLS-2005>
17.8627529144287

> <r_mmod_Van_der_Waal_Energy-OPLS-2005>
139.55647277832

> <r_mmod_Electrostatic_Energy-OPLS-2005>
-293.93212890625

> <r_mmod_Solvation_Energy-OPLS-2005>
-555.789855957031

> <b_mmod_Minimization_Converged-OPLS-2005>
0

> <r_mmod_RMS_Derivative-OPLS-2005>
2.17464375495911

$$$$
64
                    3D
 Structure written by MMmdl.
150158  0  0  1  0            999 V2000
  -30.5933  -14.7911   20.4477 C   0  0  0  0  0  0
  -30.4403  -12.4797   19.4919 C   0  0  0  0  0  0
  -29.5205  -12.5116   18.2490 C   0  0  0  0  0  0
  -28.0482  -12.3205   18.6630 C   0  0  0  0  0  0
  -27.6450  -13.2323   19.8523 C   0  0  2  0  0  0
  -28.6865  -13.1790   20.9928 C   0  0  0  0  0  0
  -25.2531  -13.8187   20.5720 C   0  0  0  0  0  0
  -24.1806  -13.0439   20.9208 C   0  0  0  0  0  0
  -24.6384  -11.6907   20.8726 C   0  0  0  0  0  0
  -23.9038  -10.4284   21.0396 C   0  0  0  0  0  0
  -24.3597   -9.4206   21.9174 C   0  0  0  0  0  0
  -23.6280   -8.2243   22.0752 C   0  0  0  0  0  0
  -22.4264   -8.0268   21.3547 C   0  0  0  0  0  0
  -21.9884   -9.0239   20.4648 C   0  0  0  0  0  0
  -22.7202  -10.2121   20.3048 C   0  0  0  0  0  0
  -21.6853   -6.0721   22.5284 C   0  0  0  0  0  0
  -21.4005   -6.5630   23.8207 C   0  0  0  0  0  0
  -21.3665   -5.6782   24.9172 C   0  0  0  0  0  0
  -21.6047   -4.3049   24.7226 C   0  0  0  0  0  0
  -21.8819   -3.8139   23.4346 C   0  0  0  0  0  0
  -21.9189   -4.6950   22.3399 C   0  0  0  0  0  0
  -22.7833  -13.5238   21.1873 C   0  0  0  0  0  0
  -22.1666   -4.2136   21.0971 F   0  0  0  0  0  0
  -21.5635   -3.4531   25.7739 F   0  0  0  0  0  0
  -29.9891  -13.5481   20.4205 N   0  0  0  0  0  0
  -26.2949  -12.9398   20.3254 N   0  0  0  0  0  0
  -25.9310  -11.6535   20.5712 N   0  0  0  0  0  0
  -22.0449  -12.8245   22.0429 N   0  0  0  0  0  0
  -25.4258  -15.1906   20.4167 N   0  0  0  0  0  0
  -31.7723  -14.8867   20.0925 O   0  0  0  0  0  0
  -21.6641   -6.8866   21.4246 O   0  0  0  0  0  0
  -22.3517  -14.5535   20.6704 O   0  0  0  0  0  0
  -24.6347  -31.8522   23.1961 C   0  0  0  0  0  0
  -25.9162  -32.4739   23.8311 C   0  0  1  0  0  0
  -27.2228  -27.2294   20.1244 C   0  0  0  0  0  0
  -25.5943  -33.8542   24.2235 N   0  0  0  0  0  0
  -23.4329  -30.4750   21.5406 C   0  0  2  0  0  0
  -24.8811  -28.9198   20.1082 C   0  0  0  0  0  0
  -22.7520  -29.4589   22.4896 C   0  0  0  0  0  0
  -18.0297  -28.1388   22.8487 C   0  0  0  0  0  0
  -24.1499  -36.7293   23.2638 C   0  0  0  0  0  0
  -25.9824  -30.7524   21.3836 C   0  0  0  0  0  0
  -26.0531  -29.3721   20.7271 C   0  0  0  0  0  0
  -27.2217  -28.5377   20.7307 C   0  0  0  0  0  0
  -26.0306  -26.8674   19.4536 C   0  0  0  0  0  0
  -24.8781  -27.6766   19.4611 C   0  0  0  0  0  0
  -23.6524  -29.8099   20.1565 C   0  0  0  0  0  0
  -25.4121  -36.3056   24.0316 C   0  0  1  0  0  0
  -20.5900  -28.3700   23.1263 C   0  0  2  0  0  0
  -20.6786  -26.9412   22.5406 C   0  0  0  0  0  0
  -19.5755  -26.6379   21.5217 C   0  0  0  0  0  0
  -18.1941  -26.7928   22.1632 C   0  0  0  0  0  0
  -19.1547  -28.8859   23.2867 C   0  0  0  0  0  0
  -18.9473  -30.1462   23.8877 C   0  0  0  0  0  0
  -17.6472  -30.6590   24.0557 C   0  0  0  0  0  0
  -25.9060  -34.9429   23.5082 C   0  0  0  0  0  0
  -16.5360  -29.9085   23.6334 C   0  0  0  0  0  0
  -16.7286  -28.6503   23.0350 C   0  0  0  0  0  0
  -26.4507  -31.6571   25.0716 C   0  0  0  0  0  0
  -25.3717  -31.3770   26.1433 C   0  0  0  0  0  0
  -27.0356  -30.2975   24.6245 C   0  0  0  0  0  0
  -27.6052  -32.4317   25.7499 C   0  0  0  0  0  0
  -27.5579  -37.1798   24.8461 C   0  0  0  0  0  0
  -21.4222  -29.3046   22.3650 N   0  0  0  0  0  0
  -26.4297  -37.3754   23.9395 N   0  0  0  0  0  0
  -24.7023  -31.0456   22.0958 N   0  0  0  0  0  0
  -23.4205  -28.8135   23.3005 O   0  0  0  0  0  0
  -28.3037  -26.3050   20.2147 O   0  0  0  0  0  0
  -26.5639  -34.8913   22.4657 O   0  0  0  0  0  0
  -23.5491  -32.1371   23.7235 O   0  0  0  0  0  0
  -30.3242  -19.2780   19.3029 C   0  0  0  0  0  0
  -30.5366  -17.8514   19.3196 C   0  0  0  0  0  0
  -29.5800  -19.5879   20.4150 C   0  0  0  0  0  0
  -29.9470  -17.2937   20.4315 C   0  0  0  0  0  0
  -28.8771  -23.6523   20.5468 C   0  0  0  0  0  0
  -28.9003  -22.1368   19.9612 C   0  0  0  0  0  0
  -28.1376  -24.8589   19.7654 C   0  0  0  0  0  0
  -31.2096  -17.1506   18.3207 N   0  0  0  0  0  0
  -29.8190  -15.9175   20.7420 N   0  0  0  0  0  0
  -29.1500  -20.9171   20.8536 N   0  0  0  0  0  0
  -29.4292  -23.8743   21.6296 O   0  0  0  0  0  0
  -29.3296  -18.3773   21.1169 O   0  0  0  0  0  0
  -31.4823  -12.6048   19.1926 H   0  0  0  0  0  0
  -30.3869  -11.5039   19.9801 H   0  0  0  0  0  0
  -29.8174  -11.7344   17.5426 H   0  0  0  0  0  0
  -29.6356  -13.4627   17.7262 H   0  0  0  0  0  0
  -27.9235  -11.2731   18.9447 H   0  0  0  0  0  0
  -27.3855  -12.4868   17.8136 H   0  0  0  0  0  0
  -27.6383  -14.2500   19.4625 H   0  0  0  0  0  0
  -28.7308  -12.1796   21.4294 H   0  0  0  0  0  0
  -28.4042  -13.8512   21.8045 H   0  0  0  0  0  0
  -25.2733   -9.5702   22.4749 H   0  0  0  0  0  0
  -23.9992   -7.4641   22.7465 H   0  0  0  0  0  0
  -21.0825   -8.8747   19.8961 H   0  0  0  0  0  0
  -22.3649  -10.9657   19.6163 H   0  0  0  0  0  0
  -21.1999   -7.6141   23.9711 H   0  0  0  0  0  0
  -21.1492   -6.0512   25.9076 H   0  0  0  0  0  0
  -22.0598   -2.7599   23.2838 H   0  0  0  0  0  0
  -22.4054  -11.9896   22.4814 H   0  0  0  0  0  0
  -21.1075  -13.1291   22.2626 H   0  0  0  0  0  0
  -24.6644  -15.8473   20.5513 H   0  0  0  0  0  0
  -26.2721  -15.6292   20.0763 H   0  0  0  0  0  0
  -26.7237  -32.5368   23.1053 H   0  0  0  0  0  0
  -25.0058  -33.9671   25.0357 H   0  0  0  0  0  0
  -22.7315  -31.2978   21.3933 H   0  0  0  0  0  0
  -23.3731  -35.9660   23.3337 H   0  0  0  0  0  0
  -24.3588  -36.8878   22.2046 H   0  0  0  0  0  0
  -23.7296  -37.6527   23.6643 H   0  0  0  0  0  0
  -26.1255  -31.5090   20.6103 H   0  0  0  0  0  0
  -26.8603  -30.8016   22.0167 H   0  0  0  0  0  0
  -28.1109  -28.8735   21.2460 H   0  0  0  0  0  0
  -25.9422  -25.9341   18.9196 H   0  0  0  0  0  0
  -23.9884  -27.3286   18.9541 H   0  0  0  0  0  0
  -23.7782  -30.5871   19.4014 H   0  0  0  0  0  0
  -22.7701  -29.2453   19.8492 H   0  0  0  0  0  0
  -25.1307  -36.1906   25.0810 H   0  0  0  0  0  0
  -21.0003  -28.3289   24.1376 H   0  0  0  0  0  0
  -20.5700  -26.2307   23.3615 H   0  0  0  0  0  0
  -21.6651  -26.7438   22.1191 H   0  0  0  0  0  0
  -19.6919  -25.6287   21.1250 H   0  0  0  0  0  0
  -19.6695  -27.3183   20.6743 H   0  0  0  0  0  0
  -17.4207  -26.6665   21.4040 H   0  0  0  0  0  0
  -18.0345  -26.0075   22.9037 H   0  0  0  0  0  0
  -19.7949  -30.7283   24.2239 H   0  0  0  0  0  0
  -17.5027  -31.6269   24.5157 H   0  0  0  0  0  0
  -15.5362  -30.2977   23.7669 H   0  0  0  0  0  0
  -15.8686  -28.0823   22.7061 H   0  0  0  0  0  0
  -24.5853  -30.7159   25.7779 H   0  0  0  0  0  0
  -24.8945  -32.2959   26.4851 H   0  0  0  0  0  0
  -25.7997  -30.8945   27.0226 H   0  0  0  0  0  0
  -26.2954  -29.6712   24.1252 H   0  0  0  0  0  0
  -27.4000  -29.7257   25.4792 H   0  0  0  0  0  0
  -27.8852  -30.4238   23.9528 H   0  0  0  0  0  0
  -27.2651  -33.3622   26.2071 H   0  0  0  0  0  0
  -28.3873  -32.6872   25.0331 H   0  0  0  0  0  0
  -28.0715  -31.8441   26.5426 H   0  0  0  0  0  0
  -28.2598  -38.0091   24.7481 H   0  0  0  0  0  0
  -28.1068  -36.2614   24.6315 H   0  0  0  0  0  0
  -27.2295  -37.1489   25.8865 H   0  0  0  0  0  0
  -20.9417  -29.8766   21.6846 H   0  0  0  0  0  0
  -26.0174  -38.2836   24.1365 H   0  0  0  0  0  0
  -30.6719  -19.9858   18.5643 H   0  0  0  0  0  0
  -29.6369  -22.1176   19.1590 H   0  0  0  0  0  0
  -27.9375  -21.9845   19.4726 H   0  0  0  0  0  0
  -27.0907  -24.5731   19.8166 H   0  0  0  0  0  0
  -28.4241  -24.8016   18.7137 H   0  0  0  0  0  0
  -31.5840  -16.2459   18.6051 H   0  0  0  0  0  0
  -31.8565  -17.6751   17.7411 H   0  0  0  0  0  0
  -28.9405  -15.6847   21.1742 H   0  0  0  0  0  0
  -28.6519  -20.9671   21.7406 H   0  0  0  0  0  0
  1 25  1  0  0  0
  1 30  2  0  0  0
  1 79  1  0  0  0
  2  3  1  0  0  0
  2 25  1  0  0  0
  2 83  1  0  0  0
  2 84  1  0  0  0
  3  4  1  0  0  0
  3 85  1  0  0  0
  3 86  1  0  0  0
  4  5  1  0  0  0
  4 87  1  0  0  0
  4 88  1  0  0  0
  5  6  1  0  0  0
  5 26  1  0  0  0
  5 89  1  0  0  0
  6 25  1  0  0  0
  6 90  1  0  0  0
  6 91  1  0  0  0
  7  8  2  0  0  0
  7 26  1  0  0  0
  7 29  1  0  0  0
  8  9  1  0  0  0
  8 22  1  0  0  0
  9 10  1  0  0  0
  9 27  2  0  0  0
 10 11  2  0  0  0
 10 15  1  0  0  0
 11 12  1  0  0  0
 11 92  1  0  0  0
 12 13  2  0  0  0
 12 93  1  0  0  0
 13 14  1  0  0  0
 13 31  1  0  0  0
 14 15  2  0  0  0
 14 94  1  0  0  0
 15 95  1  0  0  0
 16 17  2  0  0  0
 16 21  1  0  0  0
 16 31  1  0  0  0
 17 18  1  0  0  0
 17 96  1  0  0  0
 18 19  2  0  0  0
 18 97  1  0  0  0
 19 20  1  0  0  0
 19 24  1  0  0  0
 20 21  2  0  0  0
 20 98  1  0  0  0
 21 23  1  0  0  0
 22 28  1  0  0  0
 22 32  2  0  0  0
 26 27  1  0  0  0
 28 99  1  0  0  0
 28100  1  0  0  0
 29101  1  0  0  0
 29102  1  0  0  0
 33 34  1  0  0  0
 33 66  1  0  0  0
 33 70  2  0  0  0
 34 36  1  0  0  0
 34 59  1  0  0  0
 34103  1  0  0  0
 35 44  2  0  0  0
 35 45  1  0  0  0
 35 68  1  0  0  0
 36 56  1  0  0  0
 36104  1  0  0  0
 37 39  1  0  0  0
 37 47  1  0  0  0
 37 66  1  0  0  0
 37105  1  0  0  0
 38 43  2  0  0  0
 38 46  1  0  0  0
 38 47  1  0  0  0
 39 64  1  0  0  0
 39 67  2  0  0  0
 40 52  1  0  0  0
 40 53  2  0  0  0
 40 58  1  0  0  0
 41106  1  0  0  0
 41107  1  0  0  0
 41108  1  0  0  0
 41 48  1  0  0  0
 42 43  1  0  0  0
 42 66  1  0  0  0
 42109  1  0  0  0
 42110  1  0  0  0
 43 44  1  0  0  0
 44111  1  0  0  0
 45 46  2  0  0  0
 45112  1  0  0  0
 46113  1  0  0  0
 47114  1  0  0  0
 47115  1  0  0  0
 48 56  1  0  0  0
 48 65  1  0  0  0
 48116  1  0  0  0
 49 50  1  0  0  0
 49 53  1  0  0  0
 49 64  1  0  0  0
 49117  1  0  0  0
 50 51  1  0  0  0
 50118  1  0  0  0
 50119  1  0  0  0
 51 52  1  0  0  0
 51120  1  0  0  0
 51121  1  0  0  0
 52122  1  0  0  0
 52123  1  0  0  0
 53 54  1  0  0  0
 54 55  2  0  0  0
 54124  1  0  0  0
 55 57  1  0  0  0
 55125  1  0  0  0
 56 69  2  0  0  0
 57 58  2  0  0  0
 57126  1  0  0  0
 58127  1  0  0  0
 59 60  1  0  0  0
 59 61  1  0  0  0
 59 62  1  0  0  0
 60128  1  0  0  0
 60129  1  0  0  0
 60130  1  0  0  0
 61131  1  0  0  0
 61132  1  0  0  0
 61133  1  0  0  0
 62134  1  0  0  0
 62135  1  0  0  0
 62136  1  0  0  0
 63 65  1  0  0  0
 63137  1  0  0  0
 63138  1  0  0  0
 63139  1  0  0  0
 64140  1  0  0  0
 65141  1  0  0  0
 68 77  1  0  0  0
 71 72  1  0  0  0
 71 73  2  0  0  0
 71142  1  0  0  0
 72 74  2  0  0  0
 72 78  1  0  0  0
 73 80  1  0  0  0
 73 82  1  0  0  0
 74 79  1  0  0  0
 74 82  1  0  0  0
 75 76  1  0  0  0
 75 77  1  0  0  0
 75 81  2  0  0  0
 76 80  1  0  0  0
 76143  1  0  0  0
 76144  1  0  0  0
 77145  1  0  0  0
 77146  1  0  0  0
 78147  1  0  0  0
 78148  1  0  0  0
 79149  1  0  0  0
 80150  1  0  0  0
M  ISO  4   1 100  68 101  77 101  79 100
M  END
> <chiral flag>
0

> <version>
0

> <s_m_source_file>
/data/baiqing/PycharmProjects/Reinvent-master-3.2/result/LINK_invent/BTK/process_docking_weight1_custom_product_contain_oxygen_bond_distance_aromatic_linkinvent_7_9_3/rearranged_h_0151.sdf

> <i_m_source_file_index>
65

> <r_mmod_Potential_Energy-OPLS-2005>
162.491363525391

> <r_mmod_Stretch_Energy-OPLS-2005>
144.134750366211

> <r_mmod_Bend_Energy-OPLS-2005>
201.167816162109

> <r_mmod_Torsional_Energy-OPLS-2005>
224.518112182617

> <r_mmod_Improper_Torsional_Energy-OPLS-2005>
9.40627479553223

> <r_mmod_Van_der_Waal_Energy-OPLS-2005>
123.566947937012

> <r_mmod_Electrostatic_Energy-OPLS-2005>
-391.431457519531

> <r_mmod_Solvation_Energy-OPLS-2005>
-255.917434692383

> <b_mmod_Minimization_Converged-OPLS-2005>
0

> <r_mmod_RMS_Derivative-OPLS-2005>
2.75284266471863

$$$$
65
                    3D
 Structure written by MMmdl.
154162  0  0  1  0            999 V2000
  -30.6482  -14.6925   20.4631 C   0  0  0  0  0  0
  -30.4232  -12.4213   19.4742 C   0  0  0  0  0  0
  -29.5062  -12.4989   18.2350 C   0  0  0  0  0  0
  -28.0320  -12.3312   18.6483 C   0  0  0  0  0  0
  -27.6428  -13.2302   19.8526 C   0  0  2  0  0  0
  -28.6864  -13.1600   20.9895 C   0  0  0  0  0  0
  -25.2507  -13.8197   20.5692 C   0  0  0  0  0  0
  -24.1800  -13.0441   20.9219 C   0  0  0  0  0  0
  -24.6390  -11.6921   20.8754 C   0  0  0  0  0  0
  -23.9072  -10.4296   21.0410 C   0  0  0  0  0  0
  -24.3623   -9.4210   21.9186 C   0  0  0  0  0  0
  -23.6296   -8.2244   22.0755 C   0  0  0  0  0  0
  -22.4275   -8.0283   21.3550 C   0  0  0  0  0  0
  -21.9917   -9.0256   20.4647 C   0  0  0  0  0  0
  -22.7246  -10.2137   20.3057 C   0  0  0  0  0  0
  -21.6853   -6.0738   22.5278 C   0  0  0  0  0  0
  -21.4014   -6.5641   23.8213 C   0  0  0  0  0  0
  -21.3658   -5.6792   24.9174 C   0  0  0  0  0  0
  -21.6045   -4.3055   24.7223 C   0  0  0  0  0  0
  -21.8818   -3.8148   23.4343 C   0  0  0  0  0  0
  -21.9193   -4.6965   22.3400 C   0  0  0  0  0  0
  -22.7822  -13.5224   21.1870 C   0  0  0  0  0  0
  -22.1662   -4.2147   21.0979 F   0  0  0  0  0  0
  -21.5627   -3.4539   25.7738 F   0  0  0  0  0  0
  -29.9936  -13.4865   20.4089 N   0  0  0  0  0  0
  -26.2936  -12.9402   20.3290 N   0  0  0  0  0  0
  -25.9319  -11.6548   20.5764 N   0  0  0  0  0  0
  -22.0467  -12.8213   22.0421 N   0  0  0  0  0  0
  -25.4202  -15.1915   20.4078 N   0  0  0  0  0  0
  -31.8353  -14.7622   20.1370 O   0  0  0  0  0  0
  -21.6640   -6.8878   21.4239 O   0  0  0  0  0  0
  -22.3513  -14.5535   20.6716 O   0  0  0  0  0  0
  -24.6304  -31.8580   23.2033 C   0  0  0  0  0  0
  -25.9143  -32.4769   23.8355 C   0  0  1  0  0  0
  -27.2072  -27.2710   20.1202 C   0  0  0  0  0  0
  -25.5957  -33.8570   24.2280 N   0  0  0  0  0  0
  -23.4250  -30.4845   21.5464 C   0  0  2  0  0  0
  -24.8701  -28.9437   20.1049 C   0  0  0  0  0  0
  -22.7501  -29.4618   22.4921 C   0  0  0  0  0  0
  -18.0292  -28.1389   22.8487 C   0  0  0  0  0  0
  -24.1490  -36.7283   23.2637 C   0  0  0  0  0  0
  -25.9725  -30.7710   21.3863 C   0  0  0  0  0  0
  -26.0410  -29.3974   20.7250 C   0  0  0  0  0  0
  -27.2103  -28.5702   20.7305 C   0  0  0  0  0  0
  -26.0201  -26.9066   19.4399 C   0  0  0  0  0  0
  -24.8657  -27.7062   19.4512 C   0  0  0  0  0  0
  -23.6409  -29.8281   20.1589 C   0  0  0  0  0  0
  -25.4116  -36.3074   24.0327 C   0  0  1  0  0  0
  -20.5894  -28.3693   23.1267 C   0  0  2  0  0  0
  -20.6783  -26.9413   22.5408 C   0  0  0  0  0  0
  -19.5758  -26.6380   21.5216 C   0  0  0  0  0  0
  -18.1933  -26.7940   22.1614 C   0  0  0  0  0  0
  -19.1546  -28.8861   23.2877 C   0  0  0  0  0  0
  -18.9464  -30.1464   23.8892 C   0  0  0  0  0  0
  -17.6463  -30.6589   24.0565 C   0  0  0  0  0  0
  -25.9055  -34.9444   23.5101 C   0  0  0  0  0  0
  -16.5354  -29.9085   23.6337 C   0  0  0  0  0  0
  -16.7278  -28.6504   23.0358 C   0  0  0  0  0  0
  -26.4512  -31.6584   25.0736 C   0  0  0  0  0  0
  -25.3734  -31.3745   26.1459 C   0  0  0  0  0  0
  -27.0357  -30.2998   24.6228 C   0  0  0  0  0  0
  -27.6072  -32.4326   25.7505 C   0  0  0  0  0  0
  -27.5581  -37.1795   24.8465 C   0  0  0  0  0  0
  -21.4207  -29.3048   22.3664 N   0  0  0  0  0  0
  -26.4290  -37.3771   23.9410 N   0  0  0  0  0  0
  -24.6948  -31.0552   22.1012 N   0  0  0  0  0  0
  -23.4214  -28.8143   23.3001 O   0  0  0  0  0  0
  -28.2825  -26.3532   20.2125 O   0  0  0  0  0  0
  -26.5615  -34.8918   22.4659 O   0  0  0  0  0  0
  -23.5456  -32.1398   23.7330 O   0  0  0  0  0  0
  -29.4328  -20.7087   21.6825 C   0  0  0  0  0  0
  -29.7616  -19.2947   21.7354 C   0  0  0  0  0  0
  -29.7814  -18.6097   20.5362 C   0  0  0  0  0  0
  -29.1405  -21.1968   20.4228 C   0  0  0  0  0  0
  -30.1090  -18.6585   23.0025 C   0  0  0  0  0  0
  -28.8403  -23.7363   20.5308 C   0  0  0  0  0  0
  -30.3924  -17.2155   20.1386 C   0  0  0  0  0  0
  -28.0212  -24.9191   19.8430 C   0  0  0  0  0  0
  -31.0549  -19.1854   23.7828 N   0  0  0  0  0  0
  -28.7327  -22.4655   19.9944 N   0  0  0  0  0  0
  -29.9154  -15.8554   20.6229 N   0  0  0  0  0  0
  -29.4653  -17.5555   23.3914 N   0  3  0  0  0  0
  -29.5274  -23.9664   21.5297 O   0  0  0  0  0  0
  -29.2847  -19.8044   19.3086 S   0  0  0  0  0  0
  -31.4672  -12.5225   19.1739 H   0  0  0  0  0  0
  -30.3459  -11.4434   19.9521 H   0  0  0  0  0  0
  -29.7815  -11.7290   17.5125 H   0  0  0  0  0  0
  -29.6423  -13.4564   17.7297 H   0  0  0  0  0  0
  -27.8835  -11.2822   18.9085 H   0  0  0  0  0  0
  -27.3751  -12.5279   17.8002 H   0  0  0  0  0  0
  -27.6399  -14.2523   19.4736 H   0  0  0  0  0  0
  -28.7072  -12.1655   21.4369 H   0  0  0  0  0  0
  -28.4308  -13.8520   21.7925 H   0  0  0  0  0  0
  -25.2765   -9.5682   22.4765 H   0  0  0  0  0  0
  -24.0003   -7.4633   22.7470 H   0  0  0  0  0  0
  -21.0853   -8.8774   19.8952 H   0  0  0  0  0  0
  -22.3702  -10.9676   19.6168 H   0  0  0  0  0  0
  -21.2006   -7.6149   23.9716 H   0  0  0  0  0  0
  -21.1480   -6.0523   25.9079 H   0  0  0  0  0  0
  -22.0598   -2.7609   23.2844 H   0  0  0  0  0  0
  -22.4081  -11.9868   22.4802 H   0  0  0  0  0  0
  -21.1082  -13.1232   22.2619 H   0  0  0  0  0  0
  -24.6454  -15.8398   20.4999 H   0  0  0  0  0  0
  -26.2510  -15.6243   20.0252 H   0  0  0  0  0  0
  -26.7203  -32.5415   23.1085 H   0  0  0  0  0  0
  -25.0136  -33.9715   25.0450 H   0  0  0  0  0  0
  -22.7208  -31.3072   21.4053 H   0  0  0  0  0  0
  -23.3757  -35.9609   23.3303 H   0  0  0  0  0  0
  -24.3582  -36.8894   22.2053 H   0  0  0  0  0  0
  -23.7237  -37.6486   23.6652 H   0  0  0  0  0  0
  -26.1152  -31.5333   20.6189 H   0  0  0  0  0  0
  -26.8497  -30.8151   22.0201 H   0  0  0  0  0  0
  -28.1001  -28.9048   21.2444 H   0  0  0  0  0  0
  -25.9361  -25.9804   18.8925 H   0  0  0  0  0  0
  -23.9750  -27.3618   18.9439 H   0  0  0  0  0  0
  -23.7632  -30.6093   19.4074 H   0  0  0  0  0  0
  -22.7588  -29.2630   19.8520 H   0  0  0  0  0  0
  -25.1292  -36.1921   25.0815 H   0  0  0  0  0  0
  -20.9986  -28.3277   24.1389 H   0  0  0  0  0  0
  -20.5685  -26.2307   23.3613 H   0  0  0  0  0  0
  -21.6647  -26.7445   22.1197 H   0  0  0  0  0  0
  -19.6922  -25.6295   21.1243 H   0  0  0  0  0  0
  -19.6699  -27.3194   20.6755 H   0  0  0  0  0  0
  -17.4210  -26.6700   21.4015 H   0  0  0  0  0  0
  -18.0319  -26.0080   22.9001 H   0  0  0  0  0  0
  -19.7945  -30.7283   24.2250 H   0  0  0  0  0  0
  -17.5021  -31.6274   24.5164 H   0  0  0  0  0  0
  -15.5358  -30.2982   23.7675 H   0  0  0  0  0  0
  -15.8679  -28.0821   22.7073 H   0  0  0  0  0  0
  -24.5932  -30.7060   25.7811 H   0  0  0  0  0  0
  -24.8902  -32.2918   26.4836 H   0  0  0  0  0  0
  -25.8057  -30.8981   27.0266 H   0  0  0  0  0  0
  -26.2946  -29.6749   24.1241 H   0  0  0  0  0  0
  -27.4029  -29.7261   25.4747 H   0  0  0  0  0  0
  -27.8827  -30.4276   23.9483 H   0  0  0  0  0  0
  -27.2685  -33.3638   26.2058 H   0  0  0  0  0  0
  -28.3892  -32.6859   25.0336 H   0  0  0  0  0  0
  -28.0726  -31.8461   26.5437 H   0  0  0  0  0  0
  -28.2594  -38.0099   24.7513 H   0  0  0  0  0  0
  -28.1075  -36.2624   24.6279 H   0  0  0  0  0  0
  -27.2302  -37.1432   25.8870 H   0  0  0  0  0  0
  -20.9378  -29.8775   21.6880 H   0  0  0  0  0  0
  -26.0171  -38.2843   24.1422 H   0  0  0  0  0  0
  -29.4116  -21.3055   22.5832 H   0  0  0  0  0  0
  -31.4564  -17.2770   20.3710 H   0  0  0  0  0  0
  -30.3666  -17.1537   19.0493 H   0  0  0  0  0  0
  -27.0004  -24.6519   20.1111 H   0  0  0  0  0  0
  -28.1056  -24.8188   18.7605 H   0  0  0  0  0  0
  -31.5582  -20.0017   23.4690 H   0  0  0  0  0  0
  -31.3337  -18.7857   24.6641 H   0  0  0  0  0  0
  -28.2414  -22.4588   19.1099 H   0  0  0  0  0  0
  -28.9309  -15.7415   20.8040 H   0  0  0  0  0  0
  -28.6888  -17.2313   22.8382 H   0  0  0  0  0  0
  -29.6413  -17.0954   24.2694 H   0  0  0  0  0  0
  1 25  1  0  0  0
  1 30  2  0  0  0
  1 81  1  0  0  0
  2  3  1  0  0  0
  2 25  1  0  0  0
  2 85  1  0  0  0
  2 86  1  0  0  0
  3  4  1  0  0  0
  3 87  1  0  0  0
  3 88  1  0  0  0
  4  5  1  0  0  0
  4 89  1  0  0  0
  4 90  1  0  0  0
  5  6  1  0  0  0
  5 26  1  0  0  0
  5 91  1  0  0  0
  6 25  1  0  0  0
  6 92  1  0  0  0
  6 93  1  0  0  0
  7  8  2  0  0  0
  7 26  1  0  0  0
  7 29  1  0  0  0
  8  9  1  0  0  0
  8 22  1  0  0  0
  9 10  1  0  0  0
  9 27  2  0  0  0
 10 11  2  0  0  0
 10 15  1  0  0  0
 11 12  1  0  0  0
 11 94  1  0  0  0
 12 13  2  0  0  0
 12 95  1  0  0  0
 13 14  1  0  0  0
 13 31  1  0  0  0
 14 15  2  0  0  0
 14 96  1  0  0  0
 15 97  1  0  0  0
 16 17  2  0  0  0
 16 21  1  0  0  0
 16 31  1  0  0  0
 17 18  1  0  0  0
 17 98  1  0  0  0
 18 19  2  0  0  0
 18 99  1  0  0  0
 19 20  1  0  0  0
 19 24  1  0  0  0
 20 21  2  0  0  0
 20100  1  0  0  0
 21 23  1  0  0  0
 22 28  1  0  0  0
 22 32  2  0  0  0
 26 27  1  0  0  0
 28101  1  0  0  0
 28102  1  0  0  0
 29103  1  0  0  0
 29104  1  0  0  0
 33 34  1  0  0  0
 33 66  1  0  0  0
 33 70  2  0  0  0
 34 36  1  0  0  0
 34 59  1  0  0  0
 34105  1  0  0  0
 35 44  2  0  0  0
 35 45  1  0  0  0
 35 68  1  0  0  0
 36 56  1  0  0  0
 36106  1  0  0  0
 37 39  1  0  0  0
 37 47  1  0  0  0
 37 66  1  0  0  0
 37107  1  0  0  0
 38 43  2  0  0  0
 38 46  1  0  0  0
 38 47  1  0  0  0
 39 64  1  0  0  0
 39 67  2  0  0  0
 40 52  1  0  0  0
 40 53  2  0  0  0
 40 58  1  0  0  0
 41108  1  0  0  0
 41109  1  0  0  0
 41110  1  0  0  0
 41 48  1  0  0  0
 42 43  1  0  0  0
 42 66  1  0  0  0
 42111  1  0  0  0
 42112  1  0  0  0
 43 44  1  0  0  0
 44113  1  0  0  0
 45 46  2  0  0  0
 45114  1  0  0  0
 46115  1  0  0  0
 47116  1  0  0  0
 47117  1  0  0  0
 48 56  1  0  0  0
 48 65  1  0  0  0
 48118  1  0  0  0
 49 50  1  0  0  0
 49 53  1  0  0  0
 49 64  1  0  0  0
 49119  1  0  0  0
 50 51  1  0  0  0
 50120  1  0  0  0
 50121  1  0  0  0
 51 52  1  0  0  0
 51122  1  0  0  0
 51123  1  0  0  0
 52124  1  0  0  0
 52125  1  0  0  0
 53 54  1  0  0  0
 54 55  2  0  0  0
 54126  1  0  0  0
 55 57  1  0  0  0
 55127  1  0  0  0
 56 69  2  0  0  0
 57 58  2  0  0  0
 57128  1  0  0  0
 58129  1  0  0  0
 59 60  1  0  0  0
 59 61  1  0  0  0
 59 62  1  0  0  0
 60130  1  0  0  0
 60131  1  0  0  0
 60132  1  0  0  0
 61133  1  0  0  0
 61134  1  0  0  0
 61135  1  0  0  0
 62136  1  0  0  0
 62137  1  0  0  0
 62138  1  0  0  0
 63 65  1  0  0  0
 63139  1  0  0  0
 63140  1  0  0  0
 63141  1  0  0  0
 64142  1  0  0  0
 65143  1  0  0  0
 68 78  1  0  0  0
 71 72  1  0  0  0
 71 74  2  0  0  0
 71144  1  0  0  0
 72 73  2  0  0  0
 72 75  1  0  0  0
 73 77  1  0  0  0
 73 84  1  0  0  0
 74 80  1  0  0  0
 74 84  1  0  0  0
 75 79  1  0  0  0
 75 82  2  0  0  0
 76 78  1  0  0  0
 76 80  1  0  0  0
 76 83  2  0  0  0
 77 81  1  0  0  0
 77145  1  0  0  0
 77146  1  0  0  0
 78147  1  0  0  0
 78148  1  0  0  0
 79149  1  0  0  0
 79150  1  0  0  0
 80151  1  0  0  0
 81152  1  0  0  0
 82153  1  0  0  0
 82154  1  0  0  0
M  CHG  1  82   1
M  ISO  4   1 100  68 101  78 101  81 100
M  END
> <chiral flag>
0

> <version>
0

> <s_m_source_file>
/data/baiqing/PycharmProjects/Reinvent-master-3.2/result/LINK_invent/BTK/process_docking_weight1_custom_product_contain_oxygen_bond_distance_aromatic_linkinvent_7_9_3/rearranged_h_0151.sdf

> <i_m_source_file_index>
66

> <r_mmod_Potential_Energy-OPLS-2005>
-225.973419189453

> <r_mmod_Stretch_Energy-OPLS-2005>
98.1011276245117

> <r_mmod_Bend_Energy-OPLS-2005>
175.256088256836

> <r_mmod_Torsional_Energy-OPLS-2005>
228.294326782227

> <r_mmod_Improper_Torsional_Energy-OPLS-2005>
9.04773426055908

> <r_mmod_Van_der_Waal_Energy-OPLS-2005>
124.519554138184

> <r_mmod_Electrostatic_Energy-OPLS-2005>
-407.349029541016

> <r_mmod_Solvation_Energy-OPLS-2005>
-530.888000488281

> <b_mmod_Minimization_Converged-OPLS-2005>
0

> <r_mmod_RMS_Derivative-OPLS-2005>
1.2327173948288

$$$$
66
                    3D
 Structure written by MMmdl.
152161  0  0  1  0            999 V2000
  -30.6273  -14.8523   20.4417 C   0  0  0  0  0  0
  -30.4212  -12.5315   19.4857 C   0  0  0  0  0  0
  -29.5074  -12.5166   18.2424 C   0  0  0  0  0  0
  -28.0389  -12.3243   18.6621 C   0  0  0  0  0  0
  -27.6291  -13.2495   19.8394 C   0  0  2  0  0  0
  -28.6757  -13.2584   20.9742 C   0  0  0  0  0  0
  -25.2446  -13.8225   20.5705 C   0  0  0  0  0  0
  -24.1772  -13.0444   20.9234 C   0  0  0  0  0  0
  -24.6394  -11.6932   20.8764 C   0  0  0  0  0  0
  -23.9082  -10.4297   21.0411 C   0  0  0  0  0  0
  -24.3630   -9.4210   21.9186 C   0  0  0  0  0  0
  -23.6302   -8.2245   22.0754 C   0  0  0  0  0  0
  -22.4284   -8.0283   21.3545 C   0  0  0  0  0  0
  -21.9922   -9.0258   20.4647 C   0  0  0  0  0  0
  -22.7253  -10.2136   20.3058 C   0  0  0  0  0  0
  -21.6856   -6.0738   22.5280 C   0  0  0  0  0  0
  -21.4015   -6.5641   23.8212 C   0  0  0  0  0  0
  -21.3660   -5.6793   24.9173 C   0  0  0  0  0  0
  -21.6044   -4.3055   24.7223 C   0  0  0  0  0  0
  -21.8819   -3.8147   23.4344 C   0  0  0  0  0  0
  -21.9194   -4.6965   22.3402 C   0  0  0  0  0  0
  -22.7790  -13.5210   21.1882 C   0  0  0  0  0  0
  -22.1663   -4.2151   21.0979 F   0  0  0  0  0  0
  -21.5629   -3.4538   25.7735 F   0  0  0  0  0  0
  -29.9547  -13.6393   20.3654 N   0  0  0  0  0  0
  -26.2884  -12.9470   20.3266 N   0  0  0  0  0  0
  -25.9329  -11.6596   20.5762 N   0  0  0  0  0  0
  -22.0442  -12.8198   22.0437 N   0  0  0  0  0  0
  -25.4081  -15.1947   20.4084 N   0  0  0  0  0  0
  -31.8341  -14.8302   20.1746 O   0  0  0  0  0  0
  -21.6645   -6.8882   21.4242 O   0  0  0  0  0  0
  -22.3471  -14.5512   20.6722 O   0  0  0  0  0  0
  -24.6389  -31.8494   23.1936 C   0  0  0  0  0  0
  -25.9185  -32.4721   23.8305 C   0  0  1  0  0  0
  -27.2082  -27.1843   20.1465 C   0  0  0  0  0  0
  -25.5954  -33.8526   24.2223 N   0  0  0  0  0  0
  -23.4395  -30.4714   21.5385 C   0  0  2  0  0  0
  -24.8874  -28.9087   20.1107 C   0  0  0  0  0  0
  -22.7542  -29.4576   22.4882 C   0  0  0  0  0  0
  -18.0300  -28.1394   22.8479 C   0  0  0  0  0  0
  -24.1492  -36.7264   23.2641 C   0  0  0  0  0  0
  -25.9927  -30.7376   21.3870 C   0  0  0  0  0  0
  -26.0636  -29.3536   20.7290 C   0  0  0  0  0  0
  -27.2293  -28.5063   20.7326 C   0  0  0  0  0  0
  -26.0153  -26.8389   19.4759 C   0  0  0  0  0  0
  -24.8730  -27.6627   19.4690 C   0  0  0  0  0  0
  -23.6627  -29.8054   20.1559 C   0  0  0  0  0  0
  -25.4122  -36.3048   24.0322 C   0  0  1  0  0  0
  -20.5909  -28.3717   23.1246 C   0  0  2  0  0  0
  -20.6787  -26.9426   22.5403 C   0  0  0  0  0  0
  -19.5761  -26.6384   21.5211 C   0  0  0  0  0  0
  -18.1942  -26.7934   22.1623 C   0  0  0  0  0  0
  -19.1555  -28.8873   23.2855 C   0  0  0  0  0  0
  -18.9472  -30.1469   23.8880 C   0  0  0  0  0  0
  -17.6470  -30.6593   24.0559 C   0  0  0  0  0  0
  -25.9069  -34.9422   23.5077 C   0  0  0  0  0  0
  -16.5361  -29.9086   23.6336 C   0  0  0  0  0  0
  -16.7284  -28.6504   23.0359 C   0  0  0  0  0  0
  -26.4522  -31.6571   25.0726 C   0  0  0  0  0  0
  -25.3718  -31.3751   26.1428 C   0  0  0  0  0  0
  -27.0379  -30.2972   24.6278 C   0  0  0  0  0  0
  -27.6062  -32.4327   25.7505 C   0  0  0  0  0  0
  -27.5577  -37.1790   24.8466 C   0  0  0  0  0  0
  -21.4241  -29.3052   22.3625 N   0  0  0  0  0  0
  -26.4289  -37.3755   23.9409 N   0  0  0  0  0  0
  -24.7097  -31.0393   22.0950 N   0  0  0  0  0  0
  -23.4207  -28.8119   23.3012 O   0  0  0  0  0  0
  -28.2518  -26.2069   20.1892 O   0  0  0  0  0  0
  -26.5645  -34.8909   22.4649 O   0  0  0  0  0  0
  -23.5520  -32.1351   23.7185 O   0  0  0  0  0  0
  -29.7621  -20.0860   19.8733 C   0  0  0  0  0  0
  -29.7929  -18.6201   20.1171 C   0  0  0  0  0  0
  -28.9052  -18.2131   21.0252 C   0  0  0  0  0  0
  -28.8091  -20.8204   20.6152 C   0  0  0  0  0  0
  -28.7601  -23.4463   20.2091 C   0  0  0  0  0  0
  -28.9217  -16.6995   21.2801 C   0  0  0  0  0  0
  -30.5260  -17.3376   19.6490 C   0  0  2  0  0  0
  -30.4156  -17.1728   18.1248 C   0  0  0  0  0  0
  -27.8848  -24.7723   20.6110 C   0  0  0  0  0  0
  -29.9580  -16.1036   20.3653 N   0  0  0  0  0  0
  -28.3925  -22.1843   20.7061 N   0  0  0  0  0  0
  -29.7356  -23.5736   19.4643 O   0  0  0  0  0  0
  -27.9709  -19.5914   21.6296 S   0  0  0  0  0  0
  -31.4607  -12.6468   19.1749 H   0  0  0  0  0  0
  -30.3767  -11.5763   20.0114 H   0  0  0  0  0  0
  -29.8093  -11.7226   17.5580 H   0  0  0  0  0  0
  -29.6152  -13.4537   17.6935 H   0  0  0  0  0  0
  -27.9180  -11.2807   18.9549 H   0  0  0  0  0  0
  -27.3766  -12.4783   17.8094 H   0  0  0  0  0  0
  -27.5994  -14.2571   19.4235 H   0  0  0  0  0  0
  -28.7452  -12.2806   21.4530 H   0  0  0  0  0  0
  -28.3938  -13.9642   21.7560 H   0  0  0  0  0  0
  -25.2773   -9.5686   22.4765 H   0  0  0  0  0  0
  -24.0011   -7.4635   22.7473 H   0  0  0  0  0  0
  -21.0854   -8.8778   19.8953 H   0  0  0  0  0  0
  -22.3711  -10.9676   19.6170 H   0  0  0  0  0  0
  -21.2007   -7.6150   23.9717 H   0  0  0  0  0  0
  -21.1483   -6.0522   25.9077 H   0  0  0  0  0  0
  -22.0597   -2.7609   23.2841 H   0  0  0  0  0  0
  -22.4068  -11.9867   22.4832 H   0  0  0  0  0  0
  -21.1056  -13.1213   22.2638 H   0  0  0  0  0  0
  -24.6342  -15.8417   20.5132 H   0  0  0  0  0  0
  -26.2435  -15.6335   20.0446 H   0  0  0  0  0  0
  -26.7251  -32.5344   23.1038 H   0  0  0  0  0  0
  -25.0094  -33.9650   25.0365 H   0  0  0  0  0  0
  -22.7397  -31.2963   21.3888 H   0  0  0  0  0  0
  -23.3759  -35.9591   23.3295 H   0  0  0  0  0  0
  -24.3579  -36.8898   22.2056 H   0  0  0  0  0  0
  -23.7240  -37.6459   23.6676 H   0  0  0  0  0  0
  -26.1440  -31.4945   20.6163 H   0  0  0  0  0  0
  -26.8651  -30.7855   22.0270 H   0  0  0  0  0  0
  -28.1259  -28.8395   21.2361 H   0  0  0  0  0  0
  -25.9428  -25.8957   18.9548 H   0  0  0  0  0  0
  -23.9787  -27.3221   18.9654 H   0  0  0  0  0  0
  -23.7956  -30.5819   19.4017 H   0  0  0  0  0  0
  -22.7784  -29.2454   19.8463 H   0  0  0  0  0  0
  -25.1307  -36.1884   25.0814 H   0  0  0  0  0  0
  -21.0000  -28.3302   24.1367 H   0  0  0  0  0  0
  -20.5685  -26.2330   23.3617 H   0  0  0  0  0  0
  -21.6653  -26.7440   22.1197 H   0  0  0  0  0  0
  -19.6923  -25.6289   21.1254 H   0  0  0  0  0  0
  -19.6697  -27.3182   20.6731 H   0  0  0  0  0  0
  -17.4210  -26.6676   21.4027 H   0  0  0  0  0  0
  -18.0343  -26.0080   22.9024 H   0  0  0  0  0  0
  -19.7948  -30.7288   24.2243 H   0  0  0  0  0  0
  -17.5025  -31.6272   24.5162 H   0  0  0  0  0  0
  -15.5361  -30.2983   23.7671 H   0  0  0  0  0  0
  -15.8684  -28.0816   22.7088 H   0  0  0  0  0  0
  -24.5899  -30.7096   25.7749 H   0  0  0  0  0  0
  -24.8905  -32.2931   26.4812 H   0  0  0  0  0  0
  -25.8010  -30.8950   27.0232 H   0  0  0  0  0  0
  -26.2987  -29.6702   24.1280 H   0  0  0  0  0  0
  -27.3998  -29.7262   25.4839 H   0  0  0  0  0  0
  -27.8895  -30.4214   23.9584 H   0  0  0  0  0  0
  -27.2664  -33.3645   26.2039 H   0  0  0  0  0  0
  -28.3896  -32.6859   25.0348 H   0  0  0  0  0  0
  -28.0705  -31.8480   26.5456 H   0  0  0  0  0  0
  -28.2590  -38.0091   24.7512 H   0  0  0  0  0  0
  -28.1078  -36.2621   24.6293 H   0  0  0  0  0  0
  -27.2295  -37.1436   25.8869 H   0  0  0  0  0  0
  -20.9442  -29.8767   21.6811 H   0  0  0  0  0  0
  -26.0161  -38.2826   24.1409 H   0  0  0  0  0  0
  -30.4311  -20.5381   19.1546 H   0  0  0  0  0  0
  -27.9447  -16.2663   21.0727 H   0  0  0  0  0  0
  -29.1707  -16.4853   22.3203 H   0  0  0  0  0  0
  -31.5822  -17.4250   19.9104 H   0  0  0  0  0  0
  -29.3752  -17.0764   17.8124 H   0  0  0  0  0  0
  -30.9518  -16.2893   17.7771 H   0  0  0  0  0  0
  -30.8382  -18.0349   17.6078 H   0  0  0  0  0  0
  -27.8537  -24.7887   21.7007 H   0  0  0  0  0  0
  -26.8655  -24.5328   20.3163 H   0  0  0  0  0  0
  -27.5913  -22.2853   21.3155 H   0  0  0  0  0  0
  1 25  1  0  0  0
  1 30  2  0  0  0
  1 80  1  0  0  0
  2  3  1  0  0  0
  2 25  1  0  0  0
  2 84  1  0  0  0
  2 85  1  0  0  0
  3  4  1  0  0  0
  3 86  1  0  0  0
  3 87  1  0  0  0
  4  5  1  0  0  0
  4 88  1  0  0  0
  4 89  1  0  0  0
  5  6  1  0  0  0
  5 26  1  0  0  0
  5 90  1  0  0  0
  6 25  1  0  0  0
  6 91  1  0  0  0
  6 92  1  0  0  0
  7  8  2  0  0  0
  7 26  1  0  0  0
  7 29  1  0  0  0
  8  9  1  0  0  0
  8 22  1  0  0  0
  9 10  1  0  0  0
  9 27  2  0  0  0
 10 11  2  0  0  0
 10 15  1  0  0  0
 11 12  1  0  0  0
 11 93  1  0  0  0
 12 13  2  0  0  0
 12 94  1  0  0  0
 13 14  1  0  0  0
 13 31  1  0  0  0
 14 15  2  0  0  0
 14 95  1  0  0  0
 15 96  1  0  0  0
 16 17  2  0  0  0
 16 21  1  0  0  0
 16 31  1  0  0  0
 17 18  1  0  0  0
 17 97  1  0  0  0
 18 19  2  0  0  0
 18 98  1  0  0  0
 19 20  1  0  0  0
 19 24  1  0  0  0
 20 21  2  0  0  0
 20 99  1  0  0  0
 21 23  1  0  0  0
 22 28  1  0  0  0
 22 32  2  0  0  0
 26 27  1  0  0  0
 28100  1  0  0  0
 28101  1  0  0  0
 29102  1  0  0  0
 29103  1  0  0  0
 33 34  1  0  0  0
 33 66  1  0  0  0
 33 70  2  0  0  0
 34 36  1  0  0  0
 34 59  1  0  0  0
 34104  1  0  0  0
 35 44  2  0  0  0
 35 45  1  0  0  0
 35 68  1  0  0  0
 36 56  1  0  0  0
 36105  1  0  0  0
 37 39  1  0  0  0
 37 47  1  0  0  0
 37 66  1  0  0  0
 37106  1  0  0  0
 38 43  2  0  0  0
 38 46  1  0  0  0
 38 47  1  0  0  0
 39 64  1  0  0  0
 39 67  2  0  0  0
 40 52  1  0  0  0
 40 53  2  0  0  0
 40 58  1  0  0  0
 41107  1  0  0  0
 41108  1  0  0  0
 41109  1  0  0  0
 41 48  1  0  0  0
 42 43  1  0  0  0
 42 66  1  0  0  0
 42110  1  0  0  0
 42111  1  0  0  0
 43 44  1  0  0  0
 44112  1  0  0  0
 45 46  2  0  0  0
 45113  1  0  0  0
 46114  1  0  0  0
 47115  1  0  0  0
 47116  1  0  0  0
 48 56  1  0  0  0
 48 65  1  0  0  0
 48117  1  0  0  0
 49 50  1  0  0  0
 49 53  1  0  0  0
 49 64  1  0  0  0
 49118  1  0  0  0
 50 51  1  0  0  0
 50119  1  0  0  0
 50120  1  0  0  0
 51 52  1  0  0  0
 51121  1  0  0  0
 51122  1  0  0  0
 52123  1  0  0  0
 52124  1  0  0  0
 53 54  1  0  0  0
 54 55  2  0  0  0
 54125  1  0  0  0
 55 57  1  0  0  0
 55126  1  0  0  0
 56 69  2  0  0  0
 57 58  2  0  0  0
 57127  1  0  0  0
 58128  1  0  0  0
 59 60  1  0  0  0
 59 61  1  0  0  0
 59 62  1  0  0  0
 60129  1  0  0  0
 60130  1  0  0  0
 60131  1  0  0  0
 61132  1  0  0  0
 61133  1  0  0  0
 61134  1  0  0  0
 62135  1  0  0  0
 62136  1  0  0  0
 62137  1  0  0  0
 63 65  1  0  0  0
 63138  1  0  0  0
 63139  1  0  0  0
 63140  1  0  0  0
 64141  1  0  0  0
 65142  1  0  0  0
 68 79  1  0  0  0
 71 72  1  0  0  0
 71 74  2  0  0  0
 71143  1  0  0  0
 72 73  2  0  0  0
 72 77  1  0  0  0
 73 76  1  0  0  0
 73 83  1  0  0  0
 74 81  1  0  0  0
 74 83  1  0  0  0
 75 79  1  0  0  0
 75 81  1  0  0  0
 75 82  2  0  0  0
 76 80  1  0  0  0
 76144  1  0  0  0
 76145  1  0  0  0
 77 78  1  0  0  0
 77 80  1  0  0  0
 77146  1  0  0  0
 78147  1  0  0  0
 78148  1  0  0  0
 78149  1  0  0  0
 79150  1  0  0  0
 79151  1  0  0  0
 81152  1  0  0  0
M  ISO  4   1 100  68 101  79 101  80 100
M  END
> <chiral flag>
0

> <version>
0

> <s_m_source_file>
/data/baiqing/PycharmProjects/Reinvent-master-3.2/result/LINK_invent/BTK/process_docking_weight1_custom_product_contain_oxygen_bond_distance_aromatic_linkinvent_7_9_3/rearranged_h_0151.sdf

> <i_m_source_file_index>
67

> <r_mmod_Potential_Energy-OPLS-2005>
453.310943603516

> <r_mmod_Stretch_Energy-OPLS-2005>
172.320022583008

> <r_mmod_Bend_Energy-OPLS-2005>
296.755218505859

> <r_mmod_Torsional_Energy-OPLS-2005>
271.431243896484

> <r_mmod_Improper_Torsional_Energy-OPLS-2005>
14.8610000610352

> <r_mmod_Van_der_Waal_Energy-OPLS-2005>
104.589126586914

> <r_mmod_Electrostatic_Energy-OPLS-2005>
-318.876922607422

> <r_mmod_Solvation_Energy-OPLS-2005>
-230.940628051758

> <b_mmod_Minimization_Converged-OPLS-2005>
0

> <r_mmod_RMS_Derivative-OPLS-2005>
0.265701770782471

$$$$
67
                    3D
 Structure written by MMmdl.
155164  0  0  1  0            999 V2000
  -30.5812  -14.7989   20.4166 C   0  0  0  0  0  0
  -30.4493  -12.4921   19.4544 C   0  0  0  0  0  0
  -29.5119  -12.4828   18.2268 C   0  0  0  0  0  0
  -28.0442  -12.2808   18.6632 C   0  0  0  0  0  0
  -27.6327  -13.2230   19.8272 C   0  0  2  0  0  0
  -28.6832  -13.2107   20.9571 C   0  0  0  0  0  0
  -25.2491  -13.8183   20.5688 C   0  0  0  0  0  0
  -24.1777  -13.0431   20.9239 C   0  0  0  0  0  0
  -24.6345  -11.6903   20.8750 C   0  0  0  0  0  0
  -23.9012  -10.4304   21.0410 C   0  0  0  0  0  0
  -24.3564   -9.4222   21.9181 C   0  0  0  0  0  0
  -23.6256   -8.2236   22.0740 C   0  0  0  0  0  0
  -22.4247   -8.0257   21.3532 C   0  0  0  0  0  0
  -21.9871   -9.0238   20.4654 C   0  0  0  0  0  0
  -22.7181  -10.2131   20.3065 C   0  0  0  0  0  0
  -21.6838   -6.0724   22.5273 C   0  0  0  0  0  0
  -21.4022   -6.5630   23.8222 C   0  0  0  0  0  0
  -21.3654   -5.6769   24.9178 C   0  0  0  0  0  0
  -21.6038   -4.3025   24.7230 C   0  0  0  0  0  0
  -21.8810   -3.8136   23.4338 C   0  0  0  0  0  0
  -21.9198   -4.6953   22.3411 C   0  0  0  0  0  0
  -22.7796  -13.5236   21.1884 C   0  0  0  0  0  0
  -22.1660   -4.2134   21.0978 F   0  0  0  0  0  0
  -21.5628   -3.4519   25.7747 F   0  0  0  0  0  0
  -29.9726  -13.5675   20.3486 N   0  0  0  0  0  0
  -26.2891  -12.9370   20.3195 N   0  0  0  0  0  0
  -25.9272  -11.6525   20.5693 N   0  0  0  0  0  0
  -22.0393  -12.8282   22.0435 N   0  0  0  0  0  0
  -25.4211  -15.1891   20.4101 N   0  0  0  0  0  0
  -31.8029  -14.8829   20.2540 O   0  0  0  0  0  0
  -21.6606   -6.8842   21.4232 O   0  0  0  0  0  0
  -22.3501  -14.5544   20.6675 O   0  0  0  0  0  0
  -24.6303  -31.8560   23.1974 C   0  0  0  0  0  0
  -25.9127  -32.4756   23.8326 C   0  0  1  0  0  0
  -27.2177  -27.2632   20.1259 C   0  0  0  0  0  0
  -25.5925  -33.8554   24.2245 N   0  0  0  0  0  0
  -23.4269  -30.4798   21.5382 C   0  0  2  0  0  0
  -24.8750  -28.9206   20.1129 C   0  0  0  0  0  0
  -22.7499  -29.4621   22.4893 C   0  0  0  0  0  0
  -18.0302  -28.1399   22.8483 C   0  0  0  0  0  0
  -24.1493  -36.7299   23.2629 C   0  0  0  0  0  0
  -25.9741  -30.7689   21.3781 C   0  0  0  0  0  0
  -26.0473  -29.3900   20.7203 C   0  0  0  0  0  0
  -27.2268  -28.5746   20.7122 C   0  0  0  0  0  0
  -26.0257  -26.8582   19.4961 C   0  0  0  0  0  0
  -24.8679  -27.6629   19.4886 C   0  0  0  0  0  0
  -23.6468  -29.8102   20.1561 C   0  0  0  0  0  0
  -25.4108  -36.3067   24.0321 C   0  0  1  0  0  0
  -20.5905  -28.3703   23.1260 C   0  0  2  0  0  0
  -20.6799  -26.9429   22.5391 C   0  0  0  0  0  0
  -19.5768  -26.6387   21.5207 C   0  0  0  0  0  0
  -18.1947  -26.7940   22.1617 C   0  0  0  0  0  0
  -19.1558  -28.8863   23.2874 C   0  0  0  0  0  0
  -18.9471  -30.1458   23.8900 C   0  0  0  0  0  0
  -17.6474  -30.6603   24.0556 C   0  0  0  0  0  0
  -25.9046  -34.9430   23.5079 C   0  0  0  0  0  0
  -16.5358  -29.9109   23.6330 C   0  0  0  0  0  0
  -16.7284  -28.6522   23.0350 C   0  0  0  0  0  0
  -26.4484  -31.6596   25.0723 C   0  0  0  0  0  0
  -25.3718  -31.3790   26.1463 C   0  0  0  0  0  0
  -27.0314  -30.3000   24.6229 C   0  0  0  0  0  0
  -27.6040  -32.4333   25.7498 C   0  0  0  0  0  0
  -27.5583  -37.1792   24.8451 C   0  0  0  0  0  0
  -21.4204  -29.3062   22.3657 N   0  0  0  0  0  0
  -26.4285  -37.3765   23.9408 N   0  0  0  0  0  0
  -24.6964  -31.0532   22.0944 N   0  0  0  0  0  0
  -23.4224  -28.8153   23.2977 O   0  0  0  0  0  0
  -28.3011  -26.3600   20.1024 O   0  0  0  0  0  0
  -26.5619  -34.8912   22.4650 O   0  0  0  0  0  0
  -23.5445  -32.1369   23.7264 O   0  0  0  0  0  0
  -30.7292  -18.9069   22.4482 C   0  0  0  0  0  0
  -30.1408  -20.0196   21.8114 C   0  0  0  0  0  0
  -30.6560  -17.6093   21.9044 C   0  0  0  0  0  0
  -29.3770  -18.5302   20.0503 C   0  0  0  0  0  0
  -29.4749  -19.8982   20.5727 C   0  0  0  0  0  0
  -29.9567  -17.3546   20.7064 C   0  0  0  0  0  0
  -29.3044  -22.6801   20.4337 C   0  0  0  0  0  0
  -28.3252  -23.6171   20.2837 C   0  0  0  0  0  0
  -27.1348  -22.8881   19.6875 C   0  0  0  0  0  0
  -28.9739  -21.2576   19.8630 C   0  0  2  0  0  0
  -28.1876  -25.0923   20.8936 C   0  0  0  0  0  0
  -29.7699  -15.9295   20.3037 N   0  0  0  0  0  0
  -27.5076  -21.4290   19.6863 N   0  3  0  0  0  0
  -31.4817  -12.6540   19.1358 H   0  0  0  0  0  0
  -30.4351  -11.5300   19.9689 H   0  0  0  0  0  0
  -29.8101  -11.6921   17.5367 H   0  0  0  0  0  0
  -29.6098  -13.4207   17.6757 H   0  0  0  0  0  0
  -27.9478  -11.2465   18.9956 H   0  0  0  0  0  0
  -27.3680  -12.3897   17.8122 H   0  0  0  0  0  0
  -27.6094  -14.2265   19.4009 H   0  0  0  0  0  0
  -28.7377  -12.2358   21.4404 H   0  0  0  0  0  0
  -28.4123  -13.9302   21.7327 H   0  0  0  0  0  0
  -25.2708   -9.5715   22.4751 H   0  0  0  0  0  0
  -23.9986   -7.4634   22.7437 H   0  0  0  0  0  0
  -21.0802   -8.8738   19.8971 H   0  0  0  0  0  0
  -22.3606  -10.9659   19.6162 H   0  0  0  0  0  0
  -21.2009   -7.6134   23.9724 H   0  0  0  0  0  0
  -21.1483   -6.0499   25.9079 H   0  0  0  0  0  0
  -22.0597   -2.7594   23.2844 H   0  0  0  0  0  0
  -22.3940  -11.9975   22.4958 H   0  0  0  0  0  0
  -21.1004  -13.1357   22.2550 H   0  0  0  0  0  0
  -24.6547  -15.8426   20.5280 H   0  0  0  0  0  0
  -26.2746  -15.6382   20.1043 H   0  0  0  0  0  0
  -26.7195  -32.5401   23.1071 H   0  0  0  0  0  0
  -25.0067  -33.9681   25.0386 H   0  0  0  0  0  0
  -22.7220  -31.3021   21.3893 H   0  0  0  0  0  0
  -23.3751  -35.9638   23.3265 H   0  0  0  0  0  0
  -24.3606  -36.8943   22.2052 H   0  0  0  0  0  0
  -23.7250  -37.6491   23.6674 H   0  0  0  0  0  0
  -26.1104  -31.5289   20.6082 H   0  0  0  0  0  0
  -26.8534  -30.8199   22.0086 H   0  0  0  0  0  0
  -28.1291  -28.9312   21.1883 H   0  0  0  0  0  0
  -25.9832  -25.8941   19.0120 H   0  0  0  0  0  0
  -23.9726  -27.2985   19.0043 H   0  0  0  0  0  0
  -23.7765  -30.5843   19.3999 H   0  0  0  0  0  0
  -22.7641  -29.2481   19.8463 H   0  0  0  0  0  0
  -25.1289  -36.1907   25.0815 H   0  0  0  0  0  0
  -21.0005  -28.3290   24.1372 H   0  0  0  0  0  0
  -20.5712  -26.2320   23.3599 H   0  0  0  0  0  0
  -21.6663  -26.7475   22.1177 H   0  0  0  0  0  0
  -19.6940  -25.6299   21.1233 H   0  0  0  0  0  0
  -19.6698  -27.3190   20.6734 H   0  0  0  0  0  0
  -17.4222  -26.6677   21.4015 H   0  0  0  0  0  0
  -18.0355  -26.0086   22.9018 H   0  0  0  0  0  0
  -19.7945  -30.7259   24.2281 H   0  0  0  0  0  0
  -17.5031  -31.6276   24.5155 H   0  0  0  0  0  0
  -15.5354  -30.3000   23.7645 H   0  0  0  0  0  0
  -15.8689  -28.0816   22.7074 H   0  0  0  0  0  0
  -24.5793  -30.7257   25.7804 H   0  0  0  0  0  0
  -24.9017  -32.2986   26.4953 H   0  0  0  0  0  0
  -25.8002  -30.8882   27.0212 H   0  0  0  0  0  0
  -26.2896  -29.6766   24.1218 H   0  0  0  0  0  0
  -27.3941  -29.7248   25.4763 H   0  0  0  0  0  0
  -27.8807  -30.4255   23.9511 H   0  0  0  0  0  0
  -27.2632  -33.3584   26.2162 H   0  0  0  0  0  0
  -28.3810  -32.6990   25.0322 H   0  0  0  0  0  0
  -28.0787  -31.8427   26.5344 H   0  0  0  0  0  0
  -28.2575  -38.0113   24.7518 H   0  0  0  0  0  0
  -28.1096  -36.2635   24.6242 H   0  0  0  0  0  0
  -27.2312  -37.1426   25.8857 H   0  0  0  0  0  0
  -20.9405  -29.8785   21.6851 H   0  0  0  0  0  0
  -26.0157  -38.2830   24.1432 H   0  0  0  0  0  0
  -31.2425  -19.0512   23.3882 H   0  0  0  0  0  0
  -30.2255  -20.9873   22.2877 H   0  0  0  0  0  0
  -31.1026  -16.7945   22.4537 H   0  0  0  0  0  0
  -28.8465  -18.3815   19.1190 H   0  0  0  0  0  0
  -30.2531  -22.8758   20.9136 H   0  0  0  0  0  0
  -26.9436  -23.2606   18.6794 H   0  0  0  0  0  0
  -26.2357  -23.0465   20.2841 H   0  0  0  0  0  0
  -29.4166  -21.2503   18.8676 H   0  0  0  0  0  0
  -28.9735  -25.1688   21.6459 H   0  0  0  0  0  0
  -27.2583  -25.1100   21.4667 H   0  0  0  0  0  0
  -28.8395  -15.7101   19.9847 H   0  0  0  0  0  0
  -27.1891  -20.9888   18.8395 H   0  0  0  0  0  0
  -27.0487  -20.9801   20.4606 H   0  0  0  0  0  0
  1 25  1  0  0  0
  1 30  2  0  0  0
  1 82  1  0  0  0
  2  3  1  0  0  0
  2 25  1  0  0  0
  2 84  1  0  0  0
  2 85  1  0  0  0
  3  4  1  0  0  0
  3 86  1  0  0  0
  3 87  1  0  0  0
  4  5  1  0  0  0
  4 88  1  0  0  0
  4 89  1  0  0  0
  5  6  1  0  0  0
  5 26  1  0  0  0
  5 90  1  0  0  0
  6 25  1  0  0  0
  6 91  1  0  0  0
  6 92  1  0  0  0
  7  8  2  0  0  0
  7 26  1  0  0  0
  7 29  1  0  0  0
  8  9  1  0  0  0
  8 22  1  0  0  0
  9 10  1  0  0  0
  9 27  2  0  0  0
 10 11  2  0  0  0
 10 15  1  0  0  0
 11 12  1  0  0  0
 11 93  1  0  0  0
 12 13  2  0  0  0
 12 94  1  0  0  0
 13 14  1  0  0  0
 13 31  1  0  0  0
 14 15  2  0  0  0
 14 95  1  0  0  0
 15 96  1  0  0  0
 16 17  2  0  0  0
 16 21  1  0  0  0
 16 31  1  0  0  0
 17 18  1  0  0  0
 17 97  1  0  0  0
 18 19  2  0  0  0
 18 98  1  0  0  0
 19 20  1  0  0  0
 19 24  1  0  0  0
 20 21  2  0  0  0
 20 99  1  0  0  0
 21 23  1  0  0  0
 22 28  1  0  0  0
 22 32  2  0  0  0
 26 27  1  0  0  0
 28100  1  0  0  0
 28101  1  0  0  0
 29102  1  0  0  0
 29103  1  0  0  0
 33 34  1  0  0  0
 33 66  1  0  0  0
 33 70  2  0  0  0
 34 36  1  0  0  0
 34 59  1  0  0  0
 34104  1  0  0  0
 35 44  2  0  0  0
 35 45  1  0  0  0
 35 68  1  0  0  0
 36 56  1  0  0  0
 36105  1  0  0  0
 37 39  1  0  0  0
 37 47  1  0  0  0
 37 66  1  0  0  0
 37106  1  0  0  0
 38 43  2  0  0  0
 38 46  1  0  0  0
 38 47  1  0  0  0
 39 64  1  0  0  0
 39 67  2  0  0  0
 40 52  1  0  0  0
 40 53  2  0  0  0
 40 58  1  0  0  0
 41107  1  0  0  0
 41108  1  0  0  0
 41109  1  0  0  0
 41 48  1  0  0  0
 42 43  1  0  0  0
 42 66  1  0  0  0
 42110  1  0  0  0
 42111  1  0  0  0
 43 44  1  0  0  0
 44112  1  0  0  0
 45 46  2  0  0  0
 45113  1  0  0  0
 46114  1  0  0  0
 47115  1  0  0  0
 47116  1  0  0  0
 48 56  1  0  0  0
 48 65  1  0  0  0
 48117  1  0  0  0
 49 50  1  0  0  0
 49 53  1  0  0  0
 49 64  1  0  0  0
 49118  1  0  0  0
 50 51  1  0  0  0
 50119  1  0  0  0
 50120  1  0  0  0
 51 52  1  0  0  0
 51121  1  0  0  0
 51122  1  0  0  0
 52123  1  0  0  0
 52124  1  0  0  0
 53 54  1  0  0  0
 54 55  2  0  0  0
 54125  1  0  0  0
 55 57  1  0  0  0
 55126  1  0  0  0
 56 69  2  0  0  0
 57 58  2  0  0  0
 57127  1  0  0  0
 58128  1  0  0  0
 59 60  1  0  0  0
 59 61  1  0  0  0
 59 62  1  0  0  0
 60129  1  0  0  0
 60130  1  0  0  0
 60131  1  0  0  0
 61132  1  0  0  0
 61133  1  0  0  0
 61134  1  0  0  0
 62135  1  0  0  0
 62136  1  0  0  0
 62137  1  0  0  0
 63 65  1  0  0  0
 63138  1  0  0  0
 63139  1  0  0  0
 63140  1  0  0  0
 64141  1  0  0  0
 65142  1  0  0  0
 68 81  1  0  0  0
 71 72  2  0  0  0
 71 73  1  0  0  0
 71143  1  0  0  0
 72 75  1  0  0  0
 72144  1  0  0  0
 73 76  2  0  0  0
 73145  1  0  0  0
 74 75  2  0  0  0
 74 76  1  0  0  0
 74146  1  0  0  0
 75 80  1  0  0  0
 76 82  1  0  0  0
 77 78  2  0  0  0
 77 80  1  0  0  0
 77147  1  0  0  0
 78 79  1  0  0  0
 78 81  1  0  0  0
 79 83  1  0  0  0
 79148  1  0  0  0
 79149  1  0  0  0
 80 83  1  0  0  0
 80150  1  0  0  0
 81151  1  0  0  0
 81152  1  0  0  0
 82153  1  0  0  0
 83154  1  0  0  0
 83155  1  0  0  0
M  CHG  1  83   1
M  ISO  4   1 100  68 101  81 101  82 100
M  END
> <chiral flag>
0

> <version>
0

> <s_m_source_file>
/data/baiqing/PycharmProjects/Reinvent-master-3.2/result/LINK_invent/BTK/process_docking_weight1_custom_product_contain_oxygen_bond_distance_aromatic_linkinvent_7_9_3/rearranged_h_0151.sdf

> <i_m_source_file_index>
68

> <r_mmod_Potential_Energy-OPLS-2005>
66.3083038330078

> <r_mmod_Stretch_Energy-OPLS-2005>
123.882171630859

> <r_mmod_Bend_Energy-OPLS-2005>
217.507904052734

> <r_mmod_Torsional_Energy-OPLS-2005>
276.418853759766

> <r_mmod_Improper_Torsional_Energy-OPLS-2005>
10.683277130127

> <r_mmod_Van_der_Waal_Energy-OPLS-2005>
125.154388427734

> <r_mmod_Electrostatic_Energy-OPLS-2005>
-310.6220703125

> <r_mmod_Solvation_Energy-OPLS-2005>
-482.915283203125

> <b_mmod_Minimization_Converged-OPLS-2005>
0

> <r_mmod_RMS_Derivative-OPLS-2005>
3.89591360092163

$$$$
68
                    3D
 Structure written by MMmdl.
166175  0  0  1  0            999 V2000
  -30.7436  -14.4929   20.5588 C   0  0  0  0  0  0
  -30.4080  -12.3156   19.4436 C   0  0  0  0  0  0
  -29.4928  -12.4996   18.2173 C   0  0  0  0  0  0
  -28.0159  -12.3612   18.6291 C   0  0  0  0  0  0
  -27.6575  -13.2197   19.8723 C   0  0  2  0  0  0
  -28.7008  -13.0529   21.0024 C   0  0  0  0  0  0
  -25.2563  -13.8192   20.5699 C   0  0  0  0  0  0
  -24.1828  -13.0450   20.9190 C   0  0  0  0  0  0
  -24.6400  -11.6922   20.8745 C   0  0  0  0  0  0
  -23.9071  -10.4299   21.0405 C   0  0  0  0  0  0
  -24.3620   -9.4212   21.9182 C   0  0  0  0  0  0
  -23.6295   -8.2247   22.0753 C   0  0  0  0  0  0
  -22.4277   -8.0285   21.3544 C   0  0  0  0  0  0
  -21.9914   -9.0259   20.4646 C   0  0  0  0  0  0
  -22.7243  -10.2138   20.3054 C   0  0  0  0  0  0
  -21.6854   -6.0738   22.5278 C   0  0  0  0  0  0
  -21.4015   -6.5641   23.8212 C   0  0  0  0  0  0
  -21.3659   -5.6793   24.9173 C   0  0  0  0  0  0
  -21.6044   -4.3055   24.7224 C   0  0  0  0  0  0
  -21.8819   -3.8148   23.4344 C   0  0  0  0  0  0
  -21.9193   -4.6965   22.3401 C   0  0  0  0  0  0
  -22.7847  -13.5236   21.1847 C   0  0  0  0  0  0
  -22.1661   -4.2151   21.0978 F   0  0  0  0  0  0
  -21.5628   -3.4539   25.7736 F   0  0  0  0  0  0
  -30.0311  -13.3350   20.4416 N   0  0  0  0  0  0
  -26.3010  -12.9388   20.3377 N   0  0  0  0  0  0
  -25.9335  -11.6535   20.5788 N   0  0  0  0  0  0
  -22.0490  -12.8225   22.0402 N   0  0  0  0  0  0
  -25.4274  -15.1912   20.4101 N   0  0  0  0  0  0
  -31.8615  -14.5980   20.0527 O   0  0  0  0  0  0
  -21.6641   -6.8882   21.4240 O   0  0  0  0  0  0
  -22.3532  -14.5543   20.6697 O   0  0  0  0  0  0
  -24.6181  -31.8672   23.2111 C   0  0  0  0  0  0
  -25.9064  -32.4819   23.8407 C   0  0  1  0  0  0
  -27.2177  -27.4037   20.1011 C   0  0  0  0  0  0
  -25.5913  -33.8619   24.2333 N   0  0  0  0  0  0
  -23.4077  -30.4943   21.5515 C   0  0  2  0  0  0
  -24.8548  -28.9714   20.1032 C   0  0  0  0  0  0
  -22.7437  -29.4656   22.4962 C   0  0  0  0  0  0
  -18.0279  -28.1379   22.8491 C   0  0  0  0  0  0
  -24.1488  -36.7311   23.2637 C   0  0  0  0  0  0
  -25.9425  -30.8235   21.3730 C   0  0  0  0  0  0
  -26.0189  -29.4605   20.7114 C   0  0  0  0  0  0
  -27.2067  -28.6839   20.7110 C   0  0  0  0  0  0
  -26.0476  -26.9677   19.4381 C   0  0  0  0  0  0
  -24.8669  -27.7263   19.4583 C   0  0  0  0  0  0
  -23.6173  -29.8379   20.1622 C   0  0  0  0  0  0
  -25.4109  -36.3109   24.0337 C   0  0  1  0  0  0
  -20.5875  -28.3673   23.1302 C   0  0  2  0  0  0
  -20.6771  -26.9404   22.5412 C   0  0  0  0  0  0
  -19.5748  -26.6384   21.5212 C   0  0  0  0  0  0
  -18.1926  -26.7925   22.1624 C   0  0  0  0  0  0
  -19.1531  -28.8841   23.2895 C   0  0  0  0  0  0
  -18.9457  -30.1446   23.8908 C   0  0  0  0  0  0
  -17.6458  -30.6585   24.0564 C   0  0  0  0  0  0
  -25.9038  -34.9474   23.5130 C   0  0  0  0  0  0
  -16.5349  -29.9086   23.6328 C   0  0  0  0  0  0
  -16.7268  -28.6502   23.0351 C   0  0  0  0  0  0
  -26.4480  -31.6598   25.0738 C   0  0  0  0  0  0
  -25.3739  -31.3709   26.1481 C   0  0  0  0  0  0
  -27.0312  -30.3034   24.6132 C   0  0  0  0  0  0
  -27.6054  -32.4319   25.7501 C   0  0  0  0  0  0
  -27.5581  -37.1812   24.8466 C   0  0  0  0  0  0
  -21.4159  -29.3039   22.3705 N   0  0  0  0  0  0
  -26.4295  -37.3793   23.9407 N   0  0  0  0  0  0
  -24.6743  -31.0755   22.1029 N   0  0  0  0  0  0
  -23.4200  -28.8183   23.3000 O   0  0  0  0  0  0
  -28.3003  -26.5417   20.2011 O   0  0  0  0  0  0
  -26.5596  -34.8923   22.4689 O   0  0  0  0  0  0
  -23.5364  -32.1435   23.7485 O   0  0  0  0  0  0
  -32.4297  -18.5839   21.2581 C   0  0  0  0  0  0
  -31.5120  -19.6263   21.4687 C   0  0  0  0  0  0
  -31.9870  -17.2529   21.1554 C   0  0  0  0  0  0
  -29.6901  -17.9954   21.4423 C   0  0  0  0  0  0
  -30.1346  -19.3470   21.5712 C   0  0  0  0  0  0
  -30.6062  -16.9245   21.2252 C   0  0  0  0  0  0
  -29.2138  -20.4368   21.9682 C   0  0  0  0  0  0
  -29.2945  -23.4023   19.6879 C   0  0  0  0  0  0
  -29.8448  -22.0308   20.1319 C   0  0  0  0  0  0
  -28.8929  -24.0836   20.9981 C   0  0  2  0  0  0
  -28.3147  -22.8616   21.8158 C   0  0  0  0  0  0
  -26.8338  -22.5706   21.4577 C   0  0  0  0  0  0
  -28.4273  -23.1464   23.3362 C   0  0  0  0  0  0
  -27.9184  -25.3075   20.8795 C   0  0  0  0  0  0
  -29.1549  -21.6870   21.3989 N   0  0  0  0  0  0
  -30.1245  -15.5601   21.1262 N   0  0  0  0  0  0
  -28.4123  -20.1578   22.9927 N   0  3  0  0  0  0
  -30.0216  -24.4983   21.5835 F   0  0  0  0  0  0
  -31.4557  -12.3767   19.1440 H   0  0  0  0  0  0
  -30.2847  -11.3170   19.8659 H   0  0  0  0  0  0
  -29.7368  -11.7634   17.4502 H   0  0  0  0  0  0
  -29.6632  -13.4795   17.7686 H   0  0  0  0  0  0
  -27.8315  -11.3073   18.8410 H   0  0  0  0  0  0
  -27.3652  -12.6196   17.7928 H   0  0  0  0  0  0
  -27.6877  -14.2606   19.5493 H   0  0  0  0  0  0
  -28.6773  -12.0357   21.3961 H   0  0  0  0  0  0
  -28.4640  -13.7020   21.8464 H   0  0  0  0  0  0
  -25.2766   -9.5687   22.4756 H   0  0  0  0  0  0
  -24.0004   -7.4639   22.7472 H   0  0  0  0  0  0
  -21.0846   -8.8778   19.8951 H   0  0  0  0  0  0
  -22.3702  -10.9676   19.6162 H   0  0  0  0  0  0
  -21.2007   -7.6149   23.9716 H   0  0  0  0  0  0
  -21.1481   -6.0522   25.9076 H   0  0  0  0  0  0
  -22.0599   -2.7611   23.2843 H   0  0  0  0  0  0
  -22.4104  -11.9882   22.4783 H   0  0  0  0  0  0
  -21.1106  -13.1247   22.2607 H   0  0  0  0  0  0
  -24.6589  -15.8454   20.5114 H   0  0  0  0  0  0
  -26.2763  -15.6278   20.0737 H   0  0  0  0  0  0
  -26.7134  -32.5523   23.1168 H   0  0  0  0  0  0
  -25.0076  -33.9782   25.0487 H   0  0  0  0  0  0
  -22.6975  -31.3127   21.4165 H   0  0  0  0  0  0
  -23.3748  -35.9647   23.3312 H   0  0  0  0  0  0
  -24.3582  -36.8912   22.2049 H   0  0  0  0  0  0
  -23.7243  -37.6521   23.6642 H   0  0  0  0  0  0
  -26.0646  -31.5929   20.6093 H   0  0  0  0  0  0
  -26.8268  -30.8697   21.9968 H   0  0  0  0  0  0
  -28.0940  -29.0422   21.2141 H   0  0  0  0  0  0
  -26.0275  -26.0215   18.9166 H   0  0  0  0  0  0
  -23.9787  -27.3521   18.9679 H   0  0  0  0  0  0
  -23.7251  -30.6189   19.4086 H   0  0  0  0  0  0
  -22.7405  -29.2608   19.8628 H   0  0  0  0  0  0
  -25.1286  -36.1977   25.0831 H   0  0  0  0  0  0
  -20.9970  -28.3240   24.1421 H   0  0  0  0  0  0
  -20.5677  -26.2280   23.3603 H   0  0  0  0  0  0
  -21.6640  -26.7446   22.1201 H   0  0  0  0  0  0
  -19.6909  -25.6299   21.1233 H   0  0  0  0  0  0
  -19.6686  -27.3202   20.6749 H   0  0  0  0  0  0
  -17.4196  -26.6676   21.4025 H   0  0  0  0  0  0
  -18.0327  -26.0063   22.9017 H   0  0  0  0  0  0
  -19.7933  -30.7259   24.2282 H   0  0  0  0  0  0
  -17.5014  -31.6267   24.5163 H   0  0  0  0  0  0
  -15.5350  -30.2993   23.7648 H   0  0  0  0  0  0
  -15.8666  -28.0826   22.7062 H   0  0  0  0  0  0
  -24.5914  -30.7055   25.7816 H   0  0  0  0  0  0
  -24.8928  -32.2866   26.4929 H   0  0  0  0  0  0
  -25.8087  -30.8877   27.0239 H   0  0  0  0  0  0
  -26.2865  -29.6800   24.1168 H   0  0  0  0  0  0
  -27.4054  -29.7267   25.4601 H   0  0  0  0  0  0
  -27.8717  -30.4346   23.9313 H   0  0  0  0  0  0
  -27.2673  -33.3610   26.2101 H   0  0  0  0  0  0
  -28.3853  -32.6892   25.0321 H   0  0  0  0  0  0
  -28.0734  -31.8429   26.5399 H   0  0  0  0  0  0
  -28.2607  -38.0101   24.7507 H   0  0  0  0  0  0
  -28.1069  -36.2633   24.6302 H   0  0  0  0  0  0
  -27.2297  -37.1474   25.8869 H   0  0  0  0  0  0
  -20.9316  -29.8779   21.6944 H   0  0  0  0  0  0
  -26.0186  -38.2874   24.1401 H   0  0  0  0  0  0
  -33.4878  -18.7993   21.2077 H   0  0  0  0  0  0
  -31.8822  -20.6320   21.6114 H   0  0  0  0  0  0
  -32.7532  -16.5029   21.0422 H   0  0  0  0  0  0
  -28.6342  -17.7814   21.5352 H   0  0  0  0  0  0
  -28.4389  -23.2702   19.0255 H   0  0  0  0  0  0
  -30.0393  -23.9855   19.1461 H   0  0  0  0  0  0
  -30.9177  -22.1130   20.3057 H   0  0  0  0  0  0
  -29.6875  -21.2745   19.3609 H   0  0  0  0  0  0
  -26.1690  -23.3446   21.8422 H   0  0  0  0  0  0
  -26.4800  -21.6333   21.8842 H   0  0  0  0  0  0
  -26.6758  -22.5026   20.3817 H   0  0  0  0  0  0
  -28.2627  -24.1989   23.5643 H   0  0  0  0  0  0
  -29.4175  -22.8973   23.7191 H   0  0  0  0  0  0
  -27.6937  -22.5916   23.9203 H   0  0  0  0  0  0
  -27.6118  -25.5949   21.8859 H   0  0  0  0  0  0
  -27.0254  -24.9053   20.4117 H   0  0  0  0  0  0
  -29.1794  -15.3903   21.4333 H   0  0  0  0  0  0
  -28.5011  -19.2660   23.4552 H   0  0  0  0  0  0
  -27.7918  -20.8460   23.3794 H   0  0  0  0  0  0
  1 25  1  0  0  0
  1 30  2  0  0  0
  1 86  1  0  0  0
  2  3  1  0  0  0
  2 25  1  0  0  0
  2 89  1  0  0  0
  2 90  1  0  0  0
  3  4  1  0  0  0
  3 91  1  0  0  0
  3 92  1  0  0  0
  4  5  1  0  0  0
  4 93  1  0  0  0
  4 94  1  0  0  0
  5  6  1  0  0  0
  5 26  1  0  0  0
  5 95  1  0  0  0
  6 25  1  0  0  0
  6 96  1  0  0  0
  6 97  1  0  0  0
  7  8  2  0  0  0
  7 26  1  0  0  0
  7 29  1  0  0  0
  8  9  1  0  0  0
  8 22  1  0  0  0
  9 10  1  0  0  0
  9 27  2  0  0  0
 10 11  2  0  0  0
 10 15  1  0  0  0
 11 12  1  0  0  0
 11 98  1  0  0  0
 12 13  2  0  0  0
 12 99  1  0  0  0
 13 14  1  0  0  0
 13 31  1  0  0  0
 14 15  2  0  0  0
 14100  1  0  0  0
 15101  1  0  0  0
 16 17  2  0  0  0
 16 21  1  0  0  0
 16 31  1  0  0  0
 17 18  1  0  0  0
 17102  1  0  0  0
 18 19  2  0  0  0
 18103  1  0  0  0
 19 20  1  0  0  0
 19 24  1  0  0  0
 20 21  2  0  0  0
 20104  1  0  0  0
 21 23  1  0  0  0
 22 28  1  0  0  0
 22 32  2  0  0  0
 26 27  1  0  0  0
 28105  1  0  0  0
 28106  1  0  0  0
 29107  1  0  0  0
 29108  1  0  0  0
 33 34  1  0  0  0
 33 66  1  0  0  0
 33 70  2  0  0  0
 34 36  1  0  0  0
 34 59  1  0  0  0
 34109  1  0  0  0
 35 44  2  0  0  0
 35 45  1  0  0  0
 35 68  1  0  0  0
 36 56  1  0  0  0
 36110  1  0  0  0
 37 39  1  0  0  0
 37 47  1  0  0  0
 37 66  1  0  0  0
 37111  1  0  0  0
 38 43  2  0  0  0
 38 46  1  0  0  0
 38 47  1  0  0  0
 39 64  1  0  0  0
 39 67  2  0  0  0
 40 52  1  0  0  0
 40 53  2  0  0  0
 40 58  1  0  0  0
 41112  1  0  0  0
 41113  1  0  0  0
 41114  1  0  0  0
 41 48  1  0  0  0
 42 43  1  0  0  0
 42 66  1  0  0  0
 42115  1  0  0  0
 42116  1  0  0  0
 43 44  1  0  0  0
 44117  1  0  0  0
 45 46  2  0  0  0
 45118  1  0  0  0
 46119  1  0  0  0
 47120  1  0  0  0
 47121  1  0  0  0
 48 56  1  0  0  0
 48 65  1  0  0  0
 48122  1  0  0  0
 49 50  1  0  0  0
 49 53  1  0  0  0
 49 64  1  0  0  0
 49123  1  0  0  0
 50 51  1  0  0  0
 50124  1  0  0  0
 50125  1  0  0  0
 51 52  1  0  0  0
 51126  1  0  0  0
 51127  1  0  0  0
 52128  1  0  0  0
 52129  1  0  0  0
 53 54  1  0  0  0
 54 55  2  0  0  0
 54130  1  0  0  0
 55 57  1  0  0  0
 55131  1  0  0  0
 56 69  2  0  0  0
 57 58  2  0  0  0
 57132  1  0  0  0
 58133  1  0  0  0
 59 60  1  0  0  0
 59 61  1  0  0  0
 59 62  1  0  0  0
 60134  1  0  0  0
 60135  1  0  0  0
 60136  1  0  0  0
 61137  1  0  0  0
 61138  1  0  0  0
 61139  1  0  0  0
 62140  1  0  0  0
 62141  1  0  0  0
 62142  1  0  0  0
 63 65  1  0  0  0
 63143  1  0  0  0
 63144  1  0  0  0
 63145  1  0  0  0
 64146  1  0  0  0
 65147  1  0  0  0
 68 84  1  0  0  0
 71 72  2  0  0  0
 71 73  1  0  0  0
 71148  1  0  0  0
 72 75  1  0  0  0
 72149  1  0  0  0
 73 76  2  0  0  0
 73150  1  0  0  0
 74 75  2  0  0  0
 74 76  1  0  0  0
 74151  1  0  0  0
 75 77  1  0  0  0
 76 86  1  0  0  0
 77 85  1  0  0  0
 77 87  2  0  0  0
 78 79  1  0  0  0
 78 80  1  0  0  0
 78152  1  0  0  0
 78153  1  0  0  0
 79 85  1  0  0  0
 79154  1  0  0  0
 79155  1  0  0  0
 80 81  1  0  0  0
 80 84  1  0  0  0
 80 88  1  0  0  0
 81 82  1  0  0  0
 81 83  1  0  0  0
 81 85  1  0  0  0
 82156  1  0  0  0
 82157  1  0  0  0
 82158  1  0  0  0
 83159  1  0  0  0
 83160  1  0  0  0
 83161  1  0  0  0
 84162  1  0  0  0
 84163  1  0  0  0
 86164  1  0  0  0
 87165  1  0  0  0
 87166  1  0  0  0
M  CHG  1  87   1
M  ISO  4   1 100  68 101  84 101  86 100
M  END
> <chiral flag>
0

> <version>
0

> <s_m_source_file>
/data/baiqing/PycharmProjects/Reinvent-master-3.2/result/LINK_invent/BTK/process_docking_weight1_custom_product_contain_oxygen_bond_distance_aromatic_linkinvent_7_9_3/rearranged_h_0151.sdf

> <i_m_source_file_index>
69

> <r_mmod_Potential_Energy-OPLS-2005>
-39.4395446777344

> <r_mmod_Stretch_Energy-OPLS-2005>
55.893310546875

> <r_mmod_Bend_Energy-OPLS-2005>
148.876602172852

> <r_mmod_Torsional_Energy-OPLS-2005>
325.119720458984

> <r_mmod_Improper_Torsional_Energy-OPLS-2005>
4.26995706558228

> <r_mmod_Van_der_Waal_Energy-OPLS-2005>
179.423568725586

> <r_mmod_Electrostatic_Energy-OPLS-2005>
-390.89404296875

> <r_mmod_Solvation_Energy-OPLS-2005>
-387.837585449219

> <b_mmod_Minimization_Converged-OPLS-2005>
0

> <r_mmod_RMS_Derivative-OPLS-2005>
0.158901378512383

$$$$
69
                    3D
 Structure written by MMmdl.
162171  0  0  1  0            999 V2000
  -30.5791  -14.7543   20.4817 C   0  0  0  0  0  0
  -30.4261  -12.4534   19.5240 C   0  0  0  0  0  0
  -29.5292  -12.5193   18.2673 C   0  0  0  0  0  0
  -28.0505  -12.3264   18.6649 C   0  0  0  0  0  0
  -27.6376  -13.2254   19.8661 C   0  0  2  0  0  0
  -28.6685  -13.1604   21.0161 C   0  0  0  0  0  0
  -25.2430  -13.8185   20.5758 C   0  0  0  0  0  0
  -24.1721  -13.0412   20.9226 C   0  0  0  0  0  0
  -24.6325  -11.6900   20.8779 C   0  0  0  0  0  0
  -23.9031  -10.4256   21.0441 C   0  0  0  0  0  0
  -24.3601   -9.4157   21.9206 C   0  0  0  0  0  0
  -23.6267   -8.2199   22.0768 C   0  0  0  0  0  0
  -22.4249   -8.0245   21.3559 C   0  0  0  0  0  0
  -21.9892   -9.0211   20.4660 C   0  0  0  0  0  0
  -22.7220  -10.2085   20.3063 C   0  0  0  0  0  0
  -21.6816   -6.0699   22.5273 C   0  0  0  0  0  0
  -21.3991   -6.5609   23.8202 C   0  0  0  0  0  0
  -21.3675   -5.6778   24.9179 C   0  0  0  0  0  0
  -21.6064   -4.3037   24.7242 C   0  0  0  0  0  0
  -21.8804   -3.8117   23.4360 C   0  0  0  0  0  0
  -21.9162   -4.6928   22.3410 C   0  0  0  0  0  0
  -22.7743  -13.5168   21.1864 C   0  0  0  0  0  0
  -22.1646   -4.2111   21.0985 F   0  0  0  0  0  0
  -21.5649   -3.4526   25.7765 F   0  0  0  0  0  0
  -29.9752  -13.5143   20.4550 N   0  0  0  0  0  0
  -26.2860  -12.9393   20.3314 N   0  0  0  0  0  0
  -25.9243  -11.6543   20.5757 N   0  0  0  0  0  0
  -22.0406  -12.8162   22.0455 N   0  0  0  0  0  0
  -25.4114  -15.1923   20.4339 N   0  0  0  0  0  0
  -31.7534  -14.8542   20.1139 O   0  0  0  0  0  0
  -21.6608   -6.8845   21.4242 O   0  0  0  0  0  0
  -22.3457  -14.5449   20.6636 O   0  0  0  0  0  0
  -24.6272  -31.8553   23.1990 C   0  0  0  0  0  0
  -25.9113  -32.4759   23.8316 C   0  0  1  0  0  0
  -27.2378  -27.2763   20.1516 C   0  0  0  0  0  0
  -25.5902  -33.8562   24.2249 N   0  0  0  0  0  0
  -23.4238  -30.4724   21.5413 C   0  0  2  0  0  0
  -24.8726  -28.9047   20.1305 C   0  0  0  0  0  0
  -22.7473  -29.4560   22.4931 C   0  0  0  0  0  0
  -18.0282  -28.1386   22.8578 C   0  0  0  0  0  0
  -24.1487  -36.7272   23.2645 C   0  0  0  0  0  0
  -25.9646  -30.7726   21.3747 C   0  0  0  0  0  0
  -26.0432  -29.3910   20.7298 C   0  0  0  0  0  0
  -27.2277  -28.5927   20.7209 C   0  0  0  0  0  0
  -26.0451  -26.8392   19.5414 C   0  0  0  0  0  0
  -24.8799  -27.6353   19.5252 C   0  0  0  0  0  0
  -23.6442  -29.7945   20.1627 C   0  0  0  0  0  0
  -25.4116  -36.3066   24.0335 C   0  0  1  0  0  0
  -20.5880  -28.3673   23.1349 C   0  0  2  0  0  0
  -20.6693  -26.9372   22.5510 C   0  0  0  0  0  0
  -19.5706  -26.6460   21.5259 C   0  0  0  0  0  0
  -18.1914  -26.7926   22.1733 C   0  0  0  0  0  0
  -19.1549  -28.8862   23.2932 C   0  0  0  0  0  0
  -18.9478  -30.1484   23.8896 C   0  0  0  0  0  0
  -17.6509  -30.6668   24.0546 C   0  0  0  0  0  0
  -25.9050  -34.9435   23.5093 C   0  0  0  0  0  0
  -16.5377  -29.9145   23.6397 C   0  0  0  0  0  0
  -16.7266  -28.6531   23.0479 C   0  0  0  0  0  0
  -26.4500  -31.6573   25.0689 C   0  0  0  0  0  0
  -25.3745  -31.3712   26.1418 C   0  0  0  0  0  0
  -27.0351  -30.2997   24.6165 C   0  0  0  0  0  0
  -27.6039  -32.4304   25.7478 C   0  0  0  0  0  0
  -27.5579  -37.1783   24.8471 C   0  0  0  0  0  0
  -21.4179  -29.3009   22.3698 N   0  0  0  0  0  0
  -26.4288  -37.3762   23.9419 N   0  0  0  0  0  0
  -24.6913  -31.0502   22.0975 N   0  0  0  0  0  0
  -23.4177  -28.8097   23.3057 O   0  0  0  0  0  0
  -28.3904  -26.4690   20.0702 O   0  0  0  0  0  0
  -26.5622  -34.8906   22.4662 O   0  0  0  0  0  0
  -23.5437  -32.1390   23.7280 O   0  0  0  0  0  0
  -27.0476  -19.5828   19.1948 C   0  0  0  0  0  0
  -27.3861  -20.8509   19.7052 C   0  0  0  0  0  0
  -29.4535  -19.8984   20.6117 C   0  0  0  0  0  0
  -27.9296  -18.5008   19.3599 C   0  0  0  0  0  0
  -29.0912  -18.5649   20.1315 C   0  0  0  0  0  0
  -28.6214  -21.0833   20.3541 C   0  0  0  0  0  0
  -27.9000  -17.2766   18.4958 C   0  0  0  0  0  0
  -29.3807  -16.8525   18.4951 C   0  0  0  0  0  0
  -29.9445  -17.2204   19.8958 C   0  0  2  0  0  0
  -27.8516  -25.1625   22.1118 C   0  0  0  0  0  0
  -30.1212  -25.2953   21.0497 C   0  0  0  0  0  0
  -28.3802  -23.7219   20.0458 C   0  0  0  0  0  0
  -28.6114  -25.1580   20.7759 C   0  0  0  0  0  0
  -28.9712  -22.4549   20.6748 N   0  0  0  0  0  0
  -29.7864  -15.8877   20.6524 N   0  0  0  0  0  0
  -31.4788  -12.5610   19.2568 H   0  0  0  0  0  0
  -30.3449  -11.4753   20.0020 H   0  0  0  0  0  0
  -29.8397  -11.7592   17.5485 H   0  0  0  0  0  0
  -29.6540  -13.4804   17.7682 H   0  0  0  0  0  0
  -27.9182  -11.2751   18.9244 H   0  0  0  0  0  0
  -27.3983  -12.5139   17.8100 H   0  0  0  0  0  0
  -27.6314  -14.2447   19.4909 H   0  0  0  0  0  0
  -28.7026  -12.1586   21.4520 H   0  0  0  0  0  0
  -28.3839  -13.8337   21.8270 H   0  0  0  0  0  0
  -25.2787   -9.5545   22.4741 H   0  0  0  0  0  0
  -23.9945   -7.4567   22.7469 H   0  0  0  0  0  0
  -21.0823   -8.8716   19.8985 H   0  0  0  0  0  0
  -22.3730  -10.9592   19.6112 H   0  0  0  0  0  0
  -21.1983   -7.6108   23.9682 H   0  0  0  0  0  0
  -21.1547   -6.0528   25.9077 H   0  0  0  0  0  0
  -22.0587   -2.7569   23.2870 H   0  0  0  0  0  0
  -22.4079  -11.9809   22.4742 H   0  0  0  0  0  0
  -21.1045  -13.1158   22.2786 H   0  0  0  0  0  0
  -24.6376  -15.8409   20.5279 H   0  0  0  0  0  0
  -26.2615  -15.6394   20.1218 H   0  0  0  0  0  0
  -26.7177  -32.5433   23.1054 H   0  0  0  0  0  0
  -25.0062  -33.9702   25.0408 H   0  0  0  0  0  0
  -22.7211  -31.2951   21.3929 H   0  0  0  0  0  0
  -23.3746  -35.9602   23.3302 H   0  0  0  0  0  0
  -24.3595  -36.8896   22.2062 H   0  0  0  0  0  0
  -23.7234  -37.6470   23.6678 H   0  0  0  0  0  0
  -26.0927  -31.5271   20.5984 H   0  0  0  0  0  0
  -26.8471  -30.8321   22.0003 H   0  0  0  0  0  0
  -28.1334  -28.9744   21.1743 H   0  0  0  0  0  0
  -26.0258  -25.8658   19.0732 H   0  0  0  0  0  0
  -23.9866  -27.2492   19.0513 H   0  0  0  0  0  0
  -23.7770  -30.5655   19.4034 H   0  0  0  0  0  0
  -22.7621  -29.2275   19.8593 H   0  0  0  0  0  0
  -25.1298  -36.1912   25.0829 H   0  0  0  0  0  0
  -20.9968  -28.3298   24.1472 H   0  0  0  0  0  0
  -21.6562  -26.7229   22.1323 H   0  0  0  0  0  0
  -20.5420  -26.2287   23.3721 H   0  0  0  0  0  0
  -19.6836  -25.6379   21.1231 H   0  0  0  0  0  0
  -19.6595  -27.3359   20.6869 H   0  0  0  0  0  0
  -17.4163  -26.6608   21.4188 H   0  0  0  0  0  0
  -18.0360  -26.0099   22.9175 H   0  0  0  0  0  0
  -19.7962  -30.7304   24.2266 H   0  0  0  0  0  0
  -17.5025  -31.6366   24.5109 H   0  0  0  0  0  0
  -15.5394  -30.3040   23.7744 H   0  0  0  0  0  0
  -15.8622  -28.0875   22.7294 H   0  0  0  0  0  0
  -24.5923  -30.7057   25.7765 H   0  0  0  0  0  0
  -24.8929  -32.2870   26.4841 H   0  0  0  0  0  0
  -25.8069  -30.8902   27.0198 H   0  0  0  0  0  0
  -26.2944  -29.6721   24.1206 H   0  0  0  0  0  0
  -27.4071  -29.7271   25.4667 H   0  0  0  0  0  0
  -27.8794  -30.4270   23.9393 H   0  0  0  0  0  0
  -27.2652  -33.3611   26.2039 H   0  0  0  0  0  0
  -28.3879  -32.6841   25.0333 H   0  0  0  0  0  0
  -28.0683  -31.8434   26.5413 H   0  0  0  0  0  0
  -28.2583  -38.0088   24.7513 H   0  0  0  0  0  0
  -28.1068  -36.2607   24.6292 H   0  0  0  0  0  0
  -27.2292  -37.1447   25.8870 H   0  0  0  0  0  0
  -20.9418  -29.8810   21.6941 H   0  0  0  0  0  0
  -26.0155  -38.2832   24.1410 H   0  0  0  0  0  0
  -26.1656  -19.4703   18.5797 H   0  0  0  0  0  0
  -26.6978  -21.6627   19.5130 H   0  0  0  0  0  0
  -30.4128  -20.0383   21.0874 H   0  0  0  0  0  0
  -27.5286  -17.4898   17.4918 H   0  0  0  0  0  0
  -27.2588  -16.5240   18.9495 H   0  0  0  0  0  0
  -29.9080  -17.4624   17.7581 H   0  0  0  0  0  0
  -29.5107  -15.8167   18.1819 H   0  0  0  0  0  0
  -31.0041  -17.4656   19.8376 H   0  0  0  0  0  0
  -28.1341  -24.3010   22.7177 H   0  0  0  0  0  0
  -26.7746  -25.1081   21.9501 H   0  0  0  0  0  0
  -28.0674  -26.0582   22.6946 H   0  0  0  0  0  0
  -30.4967  -24.5062   21.7051 H   0  0  0  0  0  0
  -30.3515  -26.2454   21.5376 H   0  0  0  0  0  0
  -30.6925  -25.2550   20.1200 H   0  0  0  0  0  0
  -28.7820  -23.7935   19.0340 H   0  0  0  0  0  0
  -27.3038  -23.6069   19.9216 H   0  0  0  0  0  0
  -29.8556  -22.5960   21.1535 H   0  0  0  0  0  0
  -28.8648  -15.7101   21.0222 H   0  0  0  0  0  0
  1 25  1  0  0  0
  1 30  2  0  0  0
  1 85  1  0  0  0
  2  3  1  0  0  0
  2 25  1  0  0  0
  2 86  1  0  0  0
  2 87  1  0  0  0
  3  4  1  0  0  0
  3 88  1  0  0  0
  3 89  1  0  0  0
  4  5  1  0  0  0
  4 90  1  0  0  0
  4 91  1  0  0  0
  5  6  1  0  0  0
  5 26  1  0  0  0
  5 92  1  0  0  0
  6 25  1  0  0  0
  6 93  1  0  0  0
  6 94  1  0  0  0
  7  8  2  0  0  0
  7 26  1  0  0  0
  7 29  1  0  0  0
  8  9  1  0  0  0
  8 22  1  0  0  0
  9 10  1  0  0  0
  9 27  2  0  0  0
 10 11  2  0  0  0
 10 15  1  0  0  0
 11 12  1  0  0  0
 11 95  1  0  0  0
 12 13  2  0  0  0
 12 96  1  0  0  0
 13 14  1  0  0  0
 13 31  1  0  0  0
 14 15  2  0  0  0
 14 97  1  0  0  0
 15 98  1  0  0  0
 16 17  2  0  0  0
 16 21  1  0  0  0
 16 31  1  0  0  0
 17 18  1  0  0  0
 17 99  1  0  0  0
 18 19  2  0  0  0
 18100  1  0  0  0
 19 20  1  0  0  0
 19 24  1  0  0  0
 20 21  2  0  0  0
 20101  1  0  0  0
 21 23  1  0  0  0
 22 28  1  0  0  0
 22 32  2  0  0  0
 26 27  1  0  0  0
 28102  1  0  0  0
 28103  1  0  0  0
 29104  1  0  0  0
 29105  1  0  0  0
 33 34  1  0  0  0
 33 66  1  0  0  0
 33 70  2  0  0  0
 34 36  1  0  0  0
 34 59  1  0  0  0
 34106  1  0  0  0
 35 44  2  0  0  0
 35 45  1  0  0  0
 35 68  1  0  0  0
 36 56  1  0  0  0
 36107  1  0  0  0
 37 39  1  0  0  0
 37 47  1  0  0  0
 37 66  1  0  0  0
 37108  1  0  0  0
 38 43  2  0  0  0
 38 46  1  0  0  0
 38 47  1  0  0  0
 39 64  1  0  0  0
 39 67  2  0  0  0
 40 52  1  0  0  0
 40 53  2  0  0  0
 40 58  1  0  0  0
 41109  1  0  0  0
 41110  1  0  0  0
 41111  1  0  0  0
 41 48  1  0  0  0
 42 43  1  0  0  0
 42 66  1  0  0  0
 42112  1  0  0  0
 42113  1  0  0  0
 43 44  1  0  0  0
 44114  1  0  0  0
 45 46  2  0  0  0
 45115  1  0  0  0
 46116  1  0  0  0
 47117  1  0  0  0
 47118  1  0  0  0
 48 56  1  0  0  0
 48 65  1  0  0  0
 48119  1  0  0  0
 49 50  1  0  0  0
 49 53  1  0  0  0
 49 64  1  0  0  0
 49120  1  0  0  0
 50 51  1  0  0  0
 50121  1  0  0  0
 50122  1  0  0  0
 51 52  1  0  0  0
 51123  1  0  0  0
 51124  1  0  0  0
 52125  1  0  0  0
 52126  1  0  0  0
 53 54  1  0  0  0
 54 55  2  0  0  0
 54127  1  0  0  0
 55 57  1  0  0  0
 55128  1  0  0  0
 56 69  2  0  0  0
 57 58  2  0  0  0
 57129  1  0  0  0
 58130  1  0  0  0
 59 60  1  0  0  0
 59 61  1  0  0  0
 59 62  1  0  0  0
 60131  1  0  0  0
 60132  1  0  0  0
 60133  1  0  0  0
 61134  1  0  0  0
 61135  1  0  0  0
 61136  1  0  0  0
 62137  1  0  0  0
 62138  1  0  0  0
 62139  1  0  0  0
 63 65  1  0  0  0
 63140  1  0  0  0
 63141  1  0  0  0
 63142  1  0  0  0
 64143  1  0  0  0
 65144  1  0  0  0
 68 83  1  0  0  0
 71 72  2  0  0  0
 71 74  1  0  0  0
 71145  1  0  0  0
 72 76  1  0  0  0
 72146  1  0  0  0
 73 75  1  0  0  0
 73 76  2  0  0  0
 73147  1  0  0  0
 74 75  2  0  0  0
 74 77  1  0  0  0
 75 79  1  0  0  0
 76 84  1  0  0  0
 77 78  1  0  0  0
 77148  1  0  0  0
 77149  1  0  0  0
 78 79  1  0  0  0
 78150  1  0  0  0
 78151  1  0  0  0
 79 85  1  0  0  0
 79152  1  0  0  0
 80153  1  0  0  0
 80154  1  0  0  0
 80155  1  0  0  0
 80 83  1  0  0  0
 81 83  1  0  0  0
 81156  1  0  0  0
 81157  1  0  0  0
 81158  1  0  0  0
 82 83  1  0  0  0
 82 84  1  0  0  0
 82159  1  0  0  0
 82160  1  0  0  0
 84161  1  0  0  0
 85162  1  0  0  0
M  ISO  4   1 100  68 101  83 101  85 100
M  END
> <chiral flag>
0

> <version>
0

> <s_m_source_file>
/data/baiqing/PycharmProjects/Reinvent-master-3.2/result/LINK_invent/BTK/process_docking_weight1_custom_product_contain_oxygen_bond_distance_aromatic_linkinvent_7_9_3/rearranged_h_0151.sdf

> <i_m_source_file_index>
70

> <r_mmod_Potential_Energy-OPLS-2005>
200.759185791016

> <r_mmod_Stretch_Energy-OPLS-2005>
134.492111206055

> <r_mmod_Bend_Energy-OPLS-2005>
263.825439453125

> <r_mmod_Torsional_Energy-OPLS-2005>
268.126220703125

> <r_mmod_Improper_Torsional_Energy-OPLS-2005>
15.671124458313

> <r_mmod_Van_der_Waal_Energy-OPLS-2005>
127.83366394043

> <r_mmod_Electrostatic_Energy-OPLS-2005>
-476.797821044922

> <r_mmod_Solvation_Energy-OPLS-2005>
-209.187774658203

> <b_mmod_Minimization_Converged-OPLS-2005>
0

> <r_mmod_RMS_Derivative-OPLS-2005>
5.82105684280396

$$$$
70
                    3D
 Structure written by MMmdl.
156165  0  0  1  0            999 V2000
  -30.6284  -14.6275   20.4970 C   0  0  0  0  0  0
  -30.4362  -12.3823   19.4528 C   0  0  0  0  0  0
  -29.5072  -12.5042   18.2242 C   0  0  0  0  0  0
  -28.0293  -12.3444   18.6349 C   0  0  0  0  0  0
  -27.6533  -13.2148   19.8634 C   0  0  2  0  0  0
  -28.6976  -13.0676   20.9938 C   0  0  0  0  0  0
  -25.2565  -13.8169   20.5684 C   0  0  0  0  0  0
  -24.1830  -13.0438   20.9193 C   0  0  0  0  0  0
  -24.6393  -11.6907   20.8741 C   0  0  0  0  0  0
  -23.9062  -10.4291   21.0408 C   0  0  0  0  0  0
  -24.3616   -9.4206   21.9184 C   0  0  0  0  0  0
  -23.6292   -8.2242   22.0754 C   0  0  0  0  0  0
  -22.4273   -8.0281   21.3546 C   0  0  0  0  0  0
  -21.9908   -9.0254   20.4648 C   0  0  0  0  0  0
  -22.7235  -10.2133   20.3057 C   0  0  0  0  0  0
  -21.6851   -6.0737   22.5279 C   0  0  0  0  0  0
  -21.4013   -6.5640   23.8213 C   0  0  0  0  0  0
  -21.3660   -5.6793   24.9175 C   0  0  0  0  0  0
  -21.6045   -4.3056   24.7225 C   0  0  0  0  0  0
  -21.8819   -3.8148   23.4346 C   0  0  0  0  0  0
  -21.9191   -4.6965   22.3403 C   0  0  0  0  0  0
  -22.7852  -13.5236   21.1856 C   0  0  0  0  0  0
  -22.1660   -4.2152   21.0981 F   0  0  0  0  0  0
  -21.5630   -3.4539   25.7738 F   0  0  0  0  0  0
  -30.0152  -13.4037   20.4316 N   0  0  0  0  0  0
  -26.2988  -12.9344   20.3315 N   0  0  0  0  0  0
  -25.9321  -11.6502   20.5757 N   0  0  0  0  0  0
  -22.0489  -12.8231   22.0411 N   0  0  0  0  0  0
  -25.4282  -15.1891   20.4093 N   0  0  0  0  0  0
  -31.7943  -14.7775   20.1157 O   0  0  0  0  0  0
  -21.6638   -6.8878   21.4242 O   0  0  0  0  0  0
  -22.3539  -14.5542   20.6702 O   0  0  0  0  0  0
  -24.6241  -31.8609   23.2035 C   0  0  0  0  0  0
  -25.9096  -32.4785   23.8361 C   0  0  1  0  0  0
  -27.2269  -27.3428   20.1209 C   0  0  0  0  0  0
  -25.5919  -33.8586   24.2291 N   0  0  0  0  0  0
  -23.4178  -30.4834   21.5453 C   0  0  2  0  0  0
  -24.8667  -28.9398   20.1119 C   0  0  0  0  0  0
  -22.7467  -29.4626   22.4946 C   0  0  0  0  0  0
  -18.0283  -28.1383   22.8488 C   0  0  0  0  0  0
  -24.1488  -36.7299   23.2639 C   0  0  0  0  0  0
  -25.9561  -30.7997   21.3710 C   0  0  0  0  0  0
  -26.0337  -29.4281   20.7151 C   0  0  0  0  0  0
  -27.2210  -28.6408   20.7097 C   0  0  0  0  0  0
  -26.0443  -26.9002   19.4923 C   0  0  0  0  0  0
  -24.8722  -27.6798   19.4913 C   0  0  0  0  0  0
  -23.6322  -29.8161   20.1610 C   0  0  0  0  0  0
  -25.4113  -36.3090   24.0332 C   0  0  1  0  0  0
  -20.5883  -28.3684   23.1289 C   0  0  2  0  0  0
  -20.6773  -26.9409   22.5412 C   0  0  0  0  0  0
  -19.5749  -26.6383   21.5214 C   0  0  0  0  0  0
  -18.1929  -26.7927   22.1624 C   0  0  0  0  0  0
  -19.1535  -28.8850   23.2885 C   0  0  0  0  0  0
  -18.9458  -30.1454   23.8899 C   0  0  0  0  0  0
  -17.6457  -30.6586   24.0562 C   0  0  0  0  0  0
  -25.9047  -34.9457   23.5113 C   0  0  0  0  0  0
  -16.5349  -29.9083   23.6330 C   0  0  0  0  0  0
  -16.7270  -28.6502   23.0351 C   0  0  0  0  0  0
  -26.4491  -31.6587   25.0723 C   0  0  0  0  0  0
  -25.3734  -31.3715   26.1457 C   0  0  0  0  0  0
  -27.0327  -30.3015   24.6159 C   0  0  0  0  0  0
  -27.6058  -32.4317   25.7489 C   0  0  0  0  0  0
  -27.5579  -37.1806   24.8466 C   0  0  0  0  0  0
  -21.4181  -29.3040   22.3686 N   0  0  0  0  0  0
  -26.4295  -37.3780   23.9405 N   0  0  0  0  0  0
  -24.6846  -31.0639   22.0975 N   0  0  0  0  0  0
  -23.4196  -28.8169   23.3024 O   0  0  0  0  0  0
  -28.3285  -26.4854   20.1437 O   0  0  0  0  0  0
  -26.5612  -34.8919   22.4678 O   0  0  0  0  0  0
  -23.5409  -32.1396   23.7376 O   0  0  0  0  0  0
  -29.0410  -18.0089   20.9357 C   0  0  0  0  0  0
  -29.6361  -19.2668   20.5543 C   0  0  0  0  0  0
  -29.9808  -17.0369   20.6523 C   0  0  0  0  0  0
  -28.9396  -21.5273   19.3381 C   0  0  0  0  0  0
  -29.8232  -21.6431   21.6522 C   0  0  0  0  0  0
  -28.2703  -22.9434   19.5059 C   0  0  0  0  0  0
  -29.1441  -23.0389   21.8440 C   0  0  0  0  0  0
  -29.0673  -20.7206   20.6645 C   0  0  2  0  0  0
  -28.9377  -23.8925   20.5519 C   0  0  2  0  0  0
  -28.1191  -25.2261   20.8767 C   0  0  0  0  0  0
  -30.8591  -19.0298   20.0758 N   0  0  0  0  0  0
  -29.8238  -15.6775   20.8442 N   0  0  0  0  0  0
  -31.0852  -17.6358   20.1276 O   0  0  0  0  0  0
  -31.4785  -12.5016   19.1520 H   0  0  0  0  0  0
  -30.3655  -11.3862   19.8926 H   0  0  0  0  0  0
  -29.7703  -11.7546   17.4767 H   0  0  0  0  0  0
  -29.6523  -13.4749   17.7470 H   0  0  0  0  0  0
  -27.8634  -11.2911   18.8646 H   0  0  0  0  0  0
  -27.3758  -12.5772   17.7933 H   0  0  0  0  0  0
  -27.6718  -14.2499   19.5221 H   0  0  0  0  0  0
  -28.7051  -12.0464   21.3776 H   0  0  0  0  0  0
  -28.4449  -13.7015   21.8453 H   0  0  0  0  0  0
  -25.2762   -9.5684   22.4759 H   0  0  0  0  0  0
  -24.0004   -7.4632   22.7470 H   0  0  0  0  0  0
  -21.0841   -8.8770   19.8953 H   0  0  0  0  0  0
  -22.3692  -10.9673   19.6168 H   0  0  0  0  0  0
  -21.2001   -7.6147   23.9719 H   0  0  0  0  0  0
  -21.1484   -6.0522   25.9080 H   0  0  0  0  0  0
  -22.0598   -2.7610   23.2844 H   0  0  0  0  0  0
  -22.4097  -11.9891   22.4802 H   0  0  0  0  0  0
  -21.1108  -13.1264   22.2614 H   0  0  0  0  0  0
  -24.6580  -15.8409   20.5131 H   0  0  0  0  0  0
  -26.2691  -15.6268   20.0556 H   0  0  0  0  0  0
  -26.7166  -32.5467   23.1115 H   0  0  0  0  0  0
  -25.0070  -33.9734   25.0439 H   0  0  0  0  0  0
  -22.7109  -31.3032   21.4018 H   0  0  0  0  0  0
  -23.3744  -35.9639   23.3320 H   0  0  0  0  0  0
  -24.3576  -36.8899   22.2050 H   0  0  0  0  0  0
  -23.7251  -37.6512   23.6645 H   0  0  0  0  0  0
  -26.0824  -31.5634   20.6024 H   0  0  0  0  0  0
  -26.8382  -30.8507   21.9975 H   0  0  0  0  0  0
  -28.1180  -29.0093   21.1877 H   0  0  0  0  0  0
  -26.0232  -25.9309   19.0140 H   0  0  0  0  0  0
  -23.9785  -27.3003   19.0152 H   0  0  0  0  0  0
  -23.7475  -30.5915   19.4028 H   0  0  0  0  0  0
  -22.7538  -29.2418   19.8611 H   0  0  0  0  0  0
  -25.1295  -36.1949   25.0826 H   0  0  0  0  0  0
  -20.9974  -28.3254   24.1408 H   0  0  0  0  0  0
  -20.5675  -26.2291   23.3609 H   0  0  0  0  0  0
  -21.6641  -26.7440   22.1201 H   0  0  0  0  0  0
  -19.6909  -25.6295   21.1242 H   0  0  0  0  0  0
  -19.6689  -27.3196   20.6746 H   0  0  0  0  0  0
  -17.4200  -26.6676   21.4025 H   0  0  0  0  0  0
  -18.0327  -26.0067   22.9017 H   0  0  0  0  0  0
  -19.7935  -30.7271   24.2266 H   0  0  0  0  0  0
  -17.5012  -31.6267   24.5160 H   0  0  0  0  0  0
  -15.5350  -30.2984   23.7654 H   0  0  0  0  0  0
  -15.8670  -28.0821   22.7065 H   0  0  0  0  0  0
  -24.5907  -30.7067   25.7786 H   0  0  0  0  0  0
  -24.8927  -32.2877   26.4898 H   0  0  0  0  0  0
  -25.8067  -30.8881   27.0221 H   0  0  0  0  0  0
  -26.2890  -29.6769   24.1195 H   0  0  0  0  0  0
  -27.4046  -29.7266   25.4651 H   0  0  0  0  0  0
  -27.8752  -30.4306   23.9360 H   0  0  0  0  0  0
  -27.2675  -33.3614   26.2076 H   0  0  0  0  0  0
  -28.3861  -32.6883   25.0311 H   0  0  0  0  0  0
  -28.0734  -31.8436   26.5395 H   0  0  0  0  0  0
  -28.2608  -38.0092   24.7499 H   0  0  0  0  0  0
  -28.1065  -36.2624   24.6311 H   0  0  0  0  0  0
  -27.2295  -37.1477   25.8870 H   0  0  0  0  0  0
  -20.9357  -29.8758   21.6894 H   0  0  0  0  0  0
  -26.0182  -38.2860   24.1395 H   0  0  0  0  0  0
  -28.0592  -17.8573   21.3606 H   0  0  0  0  0  0
  -29.9293  -21.6476   18.8956 H   0  0  0  0  0  0
  -28.3612  -20.9436   18.6209 H   0  0  0  0  0  0
  -29.8926  -21.1459   22.6203 H   0  0  0  0  0  0
  -30.8499  -21.7787   21.3100 H   0  0  0  0  0  0
  -27.2274  -22.7924   19.7880 H   0  0  0  0  0  0
  -28.2406  -23.4458   18.5383 H   0  0  0  0  0  0
  -29.7305  -23.6153   22.5608 H   0  0  0  0  0  0
  -28.1740  -22.8837   22.3189 H   0  0  0  0  0  0
  -28.0537  -20.6187   21.0547 H   0  0  0  0  0  0
  -29.9248  -24.1787   20.1870 H   0  0  0  0  0  0
  -28.3513  -25.4978   21.9075 H   0  0  0  0  0  0
  -27.0620  -24.9608   20.9128 H   0  0  0  0  0  0
  -28.9170  -15.3996   21.1795 H   0  0  0  0  0  0
  1 25  1  0  0  0
  1 30  2  0  0  0
  1 82  1  0  0  0
  2  3  1  0  0  0
  2 25  1  0  0  0
  2 84  1  0  0  0
  2 85  1  0  0  0
  3  4  1  0  0  0
  3 86  1  0  0  0
  3 87  1  0  0  0
  4  5  1  0  0  0
  4 88  1  0  0  0
  4 89  1  0  0  0
  5  6  1  0  0  0
  5 26  1  0  0  0
  5 90  1  0  0  0
  6 25  1  0  0  0
  6 91  1  0  0  0
  6 92  1  0  0  0
  7  8  2  0  0  0
  7 26  1  0  0  0
  7 29  1  0  0  0
  8  9  1  0  0  0
  8 22  1  0  0  0
  9 10  1  0  0  0
  9 27  2  0  0  0
 10 11  2  0  0  0
 10 15  1  0  0  0
 11 12  1  0  0  0
 11 93  1  0  0  0
 12 13  2  0  0  0
 12 94  1  0  0  0
 13 14  1  0  0  0
 13 31  1  0  0  0
 14 15  2  0  0  0
 14 95  1  0  0  0
 15 96  1  0  0  0
 16 17  2  0  0  0
 16 21  1  0  0  0
 16 31  1  0  0  0
 17 18  1  0  0  0
 17 97  1  0  0  0
 18 19  2  0  0  0
 18 98  1  0  0  0
 19 20  1  0  0  0
 19 24  1  0  0  0
 20 21  2  0  0  0
 20 99  1  0  0  0
 21 23  1  0  0  0
 22 28  1  0  0  0
 22 32  2  0  0  0
 26 27  1  0  0  0
 28100  1  0  0  0
 28101  1  0  0  0
 29102  1  0  0  0
 29103  1  0  0  0
 33 34  1  0  0  0
 33 66  1  0  0  0
 33 70  2  0  0  0
 34 36  1  0  0  0
 34 59  1  0  0  0
 34104  1  0  0  0
 35 44  2  0  0  0
 35 45  1  0  0  0
 35 68  1  0  0  0
 36 56  1  0  0  0
 36105  1  0  0  0
 37 39  1  0  0  0
 37 47  1  0  0  0
 37 66  1  0  0  0
 37106  1  0  0  0
 38 43  2  0  0  0
 38 46  1  0  0  0
 38 47  1  0  0  0
 39 64  1  0  0  0
 39 67  2  0  0  0
 40 52  1  0  0  0
 40 53  2  0  0  0
 40 58  1  0  0  0
 41107  1  0  0  0
 41108  1  0  0  0
 41109  1  0  0  0
 41 48  1  0  0  0
 42 43  1  0  0  0
 42 66  1  0  0  0
 42110  1  0  0  0
 42111  1  0  0  0
 43 44  1  0  0  0
 44112  1  0  0  0
 45 46  2  0  0  0
 45113  1  0  0  0
 46114  1  0  0  0
 47115  1  0  0  0
 47116  1  0  0  0
 48 56  1  0  0  0
 48 65  1  0  0  0
 48117  1  0  0  0
 49 50  1  0  0  0
 49 53  1  0  0  0
 49 64  1  0  0  0
 49118  1  0  0  0
 50 51  1  0  0  0
 50119  1  0  0  0
 50120  1  0  0  0
 51 52  1  0  0  0
 51121  1  0  0  0
 51122  1  0  0  0
 52123  1  0  0  0
 52124  1  0  0  0
 53 54  1  0  0  0
 54 55  2  0  0  0
 54125  1  0  0  0
 55 57  1  0  0  0
 55126  1  0  0  0
 56 69  2  0  0  0
 57 58  2  0  0  0
 57127  1  0  0  0
 58128  1  0  0  0
 59 60  1  0  0  0
 59 61  1  0  0  0
 59 62  1  0  0  0
 60129  1  0  0  0
 60130  1  0  0  0
 60131  1  0  0  0
 61132  1  0  0  0
 61133  1  0  0  0
 61134  1  0  0  0
 62135  1  0  0  0
 62136  1  0  0  0
 62137  1  0  0  0
 63 65  1  0  0  0
 63138  1  0  0  0
 63139  1  0  0  0
 63140  1  0  0  0
 64141  1  0  0  0
 65142  1  0  0  0
 68 80  1  0  0  0
 71 72  1  0  0  0
 71 73  2  0  0  0
 71143  1  0  0  0
 72 81  2  0  0  0
 72 78  1  0  0  0
 73 82  1  0  0  0
 73 83  1  0  0  0
 74 76  1  0  0  0
 74 78  1  0  0  0
 74144  1  0  0  0
 74145  1  0  0  0
 75 77  1  0  0  0
 75 78  1  0  0  0
 75146  1  0  0  0
 75147  1  0  0  0
 76 79  1  0  0  0
 76148  1  0  0  0
 76149  1  0  0  0
 77 79  1  0  0  0
 77150  1  0  0  0
 77151  1  0  0  0
 78152  1  0  0  0
 79 80  1  0  0  0
 79153  1  0  0  0
 80154  1  0  0  0
 80155  1  0  0  0
 81 83  1  0  0  0
 82156  1  0  0  0
M  ISO  4   1 100  68 101  80 101  82 100
M  END
> <chiral flag>
0

> <version>
0

> <s_m_source_file>
/data/baiqing/PycharmProjects/Reinvent-master-3.2/result/LINK_invent/BTK/process_docking_weight1_custom_product_contain_oxygen_bond_distance_aromatic_linkinvent_7_9_3/rearranged_h_0151.sdf

> <i_m_source_file_index>
71

> <r_mmod_Potential_Energy-OPLS-2005>
-14.3784208297729

> <r_mmod_Stretch_Energy-OPLS-2005>
65.9934387207031

> <r_mmod_Bend_Energy-OPLS-2005>
135.969940185547

> <r_mmod_Torsional_Energy-OPLS-2005>
235.712799072266

> <r_mmod_Improper_Torsional_Energy-OPLS-2005>
4.09459924697876

> <r_mmod_Van_der_Waal_Energy-OPLS-2005>
121.818313598633

> <r_mmod_Electrostatic_Energy-OPLS-2005>
-390.07568359375

> <r_mmod_Solvation_Energy-OPLS-2005>
-230.836547851562

> <b_mmod_Minimization_Converged-OPLS-2005>
0

> <r_mmod_RMS_Derivative-OPLS-2005>
0.325389862060547

$$$$
71
                    3D
 Structure written by MMmdl.
148157  0  0  1  0            999 V2000
  -30.4842  -15.1602   20.3864 C   0  0  0  0  0  0
  -30.4364  -12.7335   19.5162 C   0  0  0  0  0  0
  -29.5295  -12.5549   18.2744 C   0  0  0  0  0  0
  -28.0682  -12.3135   18.6938 C   0  0  0  0  0  0
  -27.6144  -13.2723   19.8253 C   0  0  2  0  0  0
  -28.6536  -13.3989   20.9584 C   0  0  0  0  0  0
  -25.2399  -13.8262   20.5759 C   0  0  0  0  0  0
  -24.1737  -13.0451   20.9245 C   0  0  0  0  0  0
  -24.6388  -11.6944   20.8737 C   0  0  0  0  0  0
  -23.9080  -10.4295   21.0379 C   0  0  0  0  0  0
  -24.3626   -9.4210   21.9159 C   0  0  0  0  0  0
  -23.6302   -8.2244   22.0737 C   0  0  0  0  0  0
  -22.4281   -8.0278   21.3535 C   0  0  0  0  0  0
  -21.9917   -9.0246   20.4626 C   0  0  0  0  0  0
  -22.7247  -10.2126   20.3031 C   0  0  0  0  0  0
  -21.6871   -6.0724   22.5275 C   0  0  0  0  0  0
  -21.4029   -6.5626   23.8205 C   0  0  0  0  0  0
  -21.3665   -5.6778   24.9165 C   0  0  0  0  0  0
  -21.6051   -4.3043   24.7212 C   0  0  0  0  0  0
  -21.8819   -3.8132   23.4333 C   0  0  0  0  0  0
  -21.9195   -4.6952   22.3393 C   0  0  0  0  0  0
  -22.7748  -13.5195   21.1884 C   0  0  0  0  0  0
  -22.1662   -4.2131   21.0974 F   0  0  0  0  0  0
  -21.5625   -3.4528   25.7729 F   0  0  0  0  0  0
  -29.8957  -13.8743   20.3342 N   0  0  0  0  0  0
  -26.2823  -12.9532   20.3235 N   0  0  0  0  0  0
  -25.9326  -11.6632   20.5712 N   0  0  0  0  0  0
  -22.0415  -12.8183   22.0451 N   0  0  0  0  0  0
  -25.4046  -15.1995   20.4246 N   0  0  0  0  0  0
  -31.7038  -15.1592   20.1682 O   0  0  0  0  0  0
  -21.6657   -6.8870   21.4235 O   0  0  0  0  0  0
  -22.3410  -14.5480   20.6713 O   0  0  0  0  0  0
  -24.6573  -31.8302   23.1747 C   0  0  0  0  0  0
  -25.9282  -32.4624   23.8196 C   0  0  1  0  0  0
  -27.2141  -26.9843   20.1665 C   0  0  0  0  0  0
  -25.5976  -33.8440   24.2103 N   0  0  0  0  0  0
  -23.4696  -30.4463   21.5211 C   0  0  2  0  0  0
  -24.9217  -28.8475   20.1096 C   0  0  0  0  0  0
  -22.7639  -29.4476   22.4761 C   0  0  0  0  0  0
  -18.0328  -28.1410   22.8465 C   0  0  0  0  0  0
  -24.1509  -36.7237   23.2642 C   0  0  0  0  0  0
  -26.0366  -30.6548   21.3970 C   0  0  0  0  0  0
  -26.1054  -29.2508   20.7402 C   0  0  0  0  0  0
  -27.2485  -28.3387   20.7491 C   0  0  0  0  0  0
  -26.0013  -26.7257   19.4871 C   0  0  0  0  0  0
  -24.8922  -27.6034   19.4646 C   0  0  0  0  0  0
  -23.7076  -29.7699   20.1442 C   0  0  0  0  0  0
  -25.4138  -36.2987   24.0302 C   0  0  1  0  0  0
  -20.5951  -28.3756   23.1189 C   0  0  2  0  0  0
  -20.6822  -26.9445   22.5390 C   0  0  0  0  0  0
  -19.5794  -26.6380   21.5215 C   0  0  0  0  0  0
  -18.1972  -26.7948   22.1616 C   0  0  0  0  0  0
  -19.1583  -28.8896   23.2827 C   0  0  0  0  0  0
  -18.9491  -30.1477   23.8882 C   0  0  0  0  0  0
  -17.6484  -30.6603   24.0560 C   0  0  0  0  0  0
  -25.9092  -34.9368   23.5013 C   0  0  0  0  0  0
  -16.5379  -29.9094   23.6338 C   0  0  0  0  0  0
  -16.7309  -28.6504   23.0375 C   0  0  0  0  0  0
  -26.4559  -31.6544   25.0687 C   0  0  0  0  0  0
  -25.3690  -31.3789   26.1336 C   0  0  0  0  0  0
  -27.0432  -30.2913   24.6371 C   0  0  0  0  0  0
  -27.6051  -32.4340   25.7501 C   0  0  0  0  0  0
  -27.5580  -37.1774   24.8456 C   0  0  0  0  0  0
  -21.4308  -29.3056   22.3534 N   0  0  0  0  0  0
  -26.4291  -37.3708   23.9399 N   0  0  0  0  0  0
  -24.7421  -31.0019   22.0855 N   0  0  0  0  0  0
  -23.4203  -28.8037   23.2984 O   0  0  0  0  0  0
  -28.2101  -25.8901   20.2394 O   0  0  0  0  0  0
  -26.5680  -34.8893   22.4593 O   0  0  0  0  0  0
  -23.5655  -32.1250   23.6857 O   0  0  0  0  0  0
  -30.5124  -21.2898   20.3780 C   0  0  0  0  0  0
  -30.1765  -22.7143   20.3198 C   0  0  0  0  0  0
  -29.4060  -20.4633   20.3322 C   0  0  0  0  0  0
  -28.8186  -22.9362   20.2395 C   0  0  0  0  0  0
  -29.8466  -17.5960   19.3994 C   0  0  0  0  0  0
  -29.8599  -17.6338   21.3668 C   0  0  0  0  0  0
  -29.2374  -18.7460   20.3640 C   0  0  0  0  0  0
  -27.8296  -24.3227   20.0609 C   0  0  0  0  0  0
  -29.7372  -16.4296   20.4068 N   0  0  0  0  0  0
  -28.3502  -21.5121   20.2405 O   0  0  0  0  0  0
  -31.4624  -12.9157   19.1940 H   0  0  0  0  0  0
  -30.4736  -11.8132   20.1027 H   0  0  0  0  0  0
  -29.8851  -11.7279   17.6570 H   0  0  0  0  0  0
  -29.5870  -13.4516   17.6545 H   0  0  0  0  0  0
  -27.9923  -11.2808   19.0351 H   0  0  0  0  0  0
  -27.4065  -12.3995   17.8308 H   0  0  0  0  0  0
  -27.5444  -14.2540   19.3560 H   0  0  0  0  0  0
  -28.7969  -12.4502   21.4783 H   0  0  0  0  0  0
  -28.3154  -14.1170   21.7067 H   0  0  0  0  0  0
  -25.2761   -9.5707   22.4740 H   0  0  0  0  0  0
  -24.0014   -7.4645   22.7466 H   0  0  0  0  0  0
  -21.0840   -8.8753   19.8943 H   0  0  0  0  0  0
  -22.3678  -10.9656   19.6142 H   0  0  0  0  0  0
  -21.2039   -7.6135   23.9708 H   0  0  0  0  0  0
  -21.1494   -6.0504   25.9070 H   0  0  0  0  0  0
  -22.0596   -2.7591   23.2837 H   0  0  0  0  0  0
  -22.4073  -11.9886   22.4880 H   0  0  0  0  0  0
  -21.1004  -13.1156   22.2610 H   0  0  0  0  0  0
  -24.6403  -15.8534   20.5567 H   0  0  0  0  0  0
  -26.2631  -15.6467   20.1269 H   0  0  0  0  0  0
  -26.7340  -32.5199   23.0911 H   0  0  0  0  0  0
  -25.0132  -33.9566   25.0256 H   0  0  0  0  0  0
  -22.7813  -31.2773   21.3552 H   0  0  0  0  0  0
  -23.3769  -35.9570   23.3265 H   0  0  0  0  0  0
  -24.3597  -36.8912   22.2064 H   0  0  0  0  0  0
  -23.7279  -37.6424   23.6716 H   0  0  0  0  0  0
  -26.2091  -31.3987   20.6176 H   0  0  0  0  0  0
  -26.9004  -30.7135   22.0468 H   0  0  0  0  0  0
  -28.1430  -28.6424   21.2759 H   0  0  0  0  0  0
  -25.8651  -25.7810   18.9834 H   0  0  0  0  0  0
  -23.9935  -27.2924   18.9499 H   0  0  0  0  0  0
  -23.8610  -30.5432   19.3904 H   0  0  0  0  0  0
  -22.8199  -29.2221   19.8252 H   0  0  0  0  0  0
  -25.1341  -36.1792   25.0796 H   0  0  0  0  0  0
  -21.0058  -28.3378   24.1308 H   0  0  0  0  0  0
  -20.5733  -26.2383   23.3632 H   0  0  0  0  0  0
  -21.6692  -26.7465   22.1183 H   0  0  0  0  0  0
  -19.6975  -25.6277   21.1289 H   0  0  0  0  0  0
  -19.6747  -27.3161   20.6724 H   0  0  0  0  0  0
  -17.4252  -26.6685   21.4015 H   0  0  0  0  0  0
  -18.0366  -26.0101   22.9018 H   0  0  0  0  0  0
  -19.7963  -30.7288   24.2271 H   0  0  0  0  0  0
  -17.5043  -31.6297   24.5144 H   0  0  0  0  0  0
  -15.5376  -30.2998   23.7674 H   0  0  0  0  0  0
  -15.8707  -28.0812   22.7129 H   0  0  0  0  0  0
  -24.5889  -30.7132   25.7639 H   0  0  0  0  0  0
  -24.8865  -32.2990   26.4636 H   0  0  0  0  0  0
  -25.7913  -30.9034   27.0192 H   0  0  0  0  0  0
  -26.3064  -29.6599   24.1388 H   0  0  0  0  0  0
  -27.4000  -29.7275   25.5000 H   0  0  0  0  0  0
  -27.9006  -30.4105   23.9740 H   0  0  0  0  0  0
  -27.2615  -33.3674   26.1976 H   0  0  0  0  0  0
  -28.3923  -32.6839   25.0379 H   0  0  0  0  0  0
  -28.0641  -31.8525   26.5508 H   0  0  0  0  0  0
  -28.2552  -38.0110   24.7502 H   0  0  0  0  0  0
  -28.1119  -36.2628   24.6275 H   0  0  0  0  0  0
  -27.2293  -37.1399   25.8857 H   0  0  0  0  0  0
  -20.9538  -29.8760   21.6694 H   0  0  0  0  0  0
  -26.0137  -38.2772   24.1392 H   0  0  0  0  0  0
  -31.5210  -20.9051   20.4420 H   0  0  0  0  0  0
  -30.8955  -23.5227   20.3186 H   0  0  0  0  0  0
  -29.2426  -17.4476   18.5039 H   0  0  0  0  0  0
  -30.8752  -17.8083   19.0946 H   0  0  0  0  0  0
  -30.8914  -17.8543   21.6510 H   0  0  0  0  0  0
  -29.2639  -17.5307   22.2744 H   0  0  0  0  0  0
  -28.1582  -18.5838   20.3791 H   0  0  0  0  0  0
  -26.9576  -24.1646   20.6959 H   0  0  0  0  0  0
  -27.4407  -24.2517   19.0460 H   0  0  0  0  0  0
  1 25  1  0  0  0
  1 30  2  0  0  0
  1 79  1  0  0  0
  2  3  1  0  0  0
  2 25  1  0  0  0
  2 81  1  0  0  0
  2 82  1  0  0  0
  3  4  1  0  0  0
  3 83  1  0  0  0
  3 84  1  0  0  0
  4  5  1  0  0  0
  4 85  1  0  0  0
  4 86  1  0  0  0
  5  6  1  0  0  0
  5 26  1  0  0  0
  5 87  1  0  0  0
  6 25  1  0  0  0
  6 88  1  0  0  0
  6 89  1  0  0  0
  7  8  2  0  0  0
  7 26  1  0  0  0
  7 29  1  0  0  0
  8  9  1  0  0  0
  8 22  1  0  0  0
  9 10  1  0  0  0
  9 27  2  0  0  0
 10 11  2  0  0  0
 10 15  1  0  0  0
 11 12  1  0  0  0
 11 90  1  0  0  0
 12 13  2  0  0  0
 12 91  1  0  0  0
 13 14  1  0  0  0
 13 31  1  0  0  0
 14 15  2  0  0  0
 14 92  1  0  0  0
 15 93  1  0  0  0
 16 17  2  0  0  0
 16 21  1  0  0  0
 16 31  1  0  0  0
 17 18  1  0  0  0
 17 94  1  0  0  0
 18 19  2  0  0  0
 18 95  1  0  0  0
 19 20  1  0  0  0
 19 24  1  0  0  0
 20 21  2  0  0  0
 20 96  1  0  0  0
 21 23  1  0  0  0
 22 28  1  0  0  0
 22 32  2  0  0  0
 26 27  1  0  0  0
 28 97  1  0  0  0
 28 98  1  0  0  0
 29 99  1  0  0  0
 29100  1  0  0  0
 33 34  1  0  0  0
 33 66  1  0  0  0
 33 70  2  0  0  0
 34 36  1  0  0  0
 34 59  1  0  0  0
 34101  1  0  0  0
 35 44  2  0  0  0
 35 45  1  0  0  0
 35 68  1  0  0  0
 36 56  1  0  0  0
 36102  1  0  0  0
 37 39  1  0  0  0
 37 47  1  0  0  0
 37 66  1  0  0  0
 37103  1  0  0  0
 38 43  2  0  0  0
 38 46  1  0  0  0
 38 47  1  0  0  0
 39 64  1  0  0  0
 39 67  2  0  0  0
 40 52  1  0  0  0
 40 53  2  0  0  0
 40 58  1  0  0  0
 41104  1  0  0  0
 41105  1  0  0  0
 41106  1  0  0  0
 41 48  1  0  0  0
 42 43  1  0  0  0
 42 66  1  0  0  0
 42107  1  0  0  0
 42108  1  0  0  0
 43 44  1  0  0  0
 44109  1  0  0  0
 45 46  2  0  0  0
 45110  1  0  0  0
 46111  1  0  0  0
 47112  1  0  0  0
 47113  1  0  0  0
 48 56  1  0  0  0
 48 65  1  0  0  0
 48114  1  0  0  0
 49 50  1  0  0  0
 49 53  1  0  0  0
 49 64  1  0  0  0
 49115  1  0  0  0
 50 51  1  0  0  0
 50116  1  0  0  0
 50117  1  0  0  0
 51 52  1  0  0  0
 51118  1  0  0  0
 51119  1  0  0  0
 52120  1  0  0  0
 52121  1  0  0  0
 53 54  1  0  0  0
 54 55  2  0  0  0
 54122  1  0  0  0
 55 57  1  0  0  0
 55123  1  0  0  0
 56 69  2  0  0  0
 57 58  2  0  0  0
 57124  1  0  0  0
 58125  1  0  0  0
 59 60  1  0  0  0
 59 61  1  0  0  0
 59 62  1  0  0  0
 60126  1  0  0  0
 60127  1  0  0  0
 60128  1  0  0  0
 61129  1  0  0  0
 61130  1  0  0  0
 61131  1  0  0  0
 62132  1  0  0  0
 62133  1  0  0  0
 62134  1  0  0  0
 63 65  1  0  0  0
 63135  1  0  0  0
 63136  1  0  0  0
 63137  1  0  0  0
 64138  1  0  0  0
 65139  1  0  0  0
 68 78  1  0  0  0
 71 72  1  0  0  0
 71 73  2  0  0  0
 71140  1  0  0  0
 72 74  2  0  0  0
 72141  1  0  0  0
 73 80  1  0  0  0
 73 77  1  0  0  0
 74 78  1  0  0  0
 74 80  1  0  0  0
 75 77  1  0  0  0
 75 79  1  0  0  0
 75142  1  0  0  0
 75143  1  0  0  0
 76 77  1  0  0  0
 76 79  1  0  0  0
 76144  1  0  0  0
 76145  1  0  0  0
 77146  1  0  0  0
 78147  1  0  0  0
 78148  1  0  0  0
M  ISO  4   1 100  68 101  78 101  79 100
M  END
> <chiral flag>
0

> <version>
0

> <s_m_source_file>
/data/baiqing/PycharmProjects/Reinvent-master-3.2/result/LINK_invent/BTK/process_docking_weight1_custom_product_contain_oxygen_bond_distance_aromatic_linkinvent_7_9_3/rearranged_h_0151.sdf

> <i_m_source_file_index>
72

> <r_mmod_Potential_Energy-OPLS-2005>
1056.06555175781

> <r_mmod_Stretch_Energy-OPLS-2005>
427.883544921875

> <r_mmod_Bend_Energy-OPLS-2005>
371.473846435547

> <r_mmod_Torsional_Energy-OPLS-2005>
279.868286132812

> <r_mmod_Improper_Torsional_Energy-OPLS-2005>
13.626561164856

> <r_mmod_Van_der_Waal_Energy-OPLS-2005>
110.183715820312

> <r_mmod_Electrostatic_Energy-OPLS-2005>
-311.088439941406

> <r_mmod_Solvation_Energy-OPLS-2005>
-201.832641601562

> <b_mmod_Minimization_Converged-OPLS-2005>
0

> <r_mmod_RMS_Derivative-OPLS-2005>
1.91899001598358

$$$$
72
                    3D
 Structure written by MMmdl.
156165  0  0  1  0            999 V2000
  -30.5006  -15.0653   20.3049 C   0  0  0  0  0  0
  -30.4554  -12.6498   19.4835 C   0  0  0  0  0  0
  -29.5283  -12.4511   18.2609 C   0  0  0  0  0  0
  -28.0557  -12.2734   18.6923 C   0  0  0  0  0  0
  -27.6151  -13.2289   19.8351 C   0  0  2  0  0  0
  -28.6781  -13.3497   20.9444 C   0  0  0  0  0  0
  -25.2464  -13.8144   20.5841 C   0  0  0  0  0  0
  -24.1747  -13.0392   20.9275 C   0  0  0  0  0  0
  -24.6341  -11.6871   20.8806 C   0  0  0  0  0  0
  -23.9031  -10.4256   21.0437 C   0  0  0  0  0  0
  -24.3594   -9.4170   21.9202 C   0  0  0  0  0  0
  -23.6271   -8.2210   22.0763 C   0  0  0  0  0  0
  -22.4253   -8.0264   21.3554 C   0  0  0  0  0  0
  -21.9888   -9.0235   20.4655 C   0  0  0  0  0  0
  -22.7217  -10.2111   20.3069 C   0  0  0  0  0  0
  -21.6842   -6.0720   22.5276 C   0  0  0  0  0  0
  -21.4009   -6.5636   23.8210 C   0  0  0  0  0  0
  -21.3658   -5.6795   24.9172 C   0  0  0  0  0  0
  -21.6047   -4.3059   24.7224 C   0  0  0  0  0  0
  -21.8821   -3.8138   23.4350 C   0  0  0  0  0  0
  -21.9192   -4.6947   22.3402 C   0  0  0  0  0  0
  -22.7776  -13.5189   21.1889 C   0  0  0  0  0  0
  -22.1663   -4.2132   21.0977 F   0  0  0  0  0  0
  -21.5624   -3.4551   25.7739 F   0  0  0  0  0  0
  -29.9228  -13.7854   20.2899 N   0  0  0  0  0  0
  -26.2852  -12.9305   20.3398 N   0  0  0  0  0  0
  -25.9271  -11.6462   20.5837 N   0  0  0  0  0  0
  -22.0412  -12.8184   22.0438 N   0  0  0  0  0  0
  -25.4190  -15.1885   20.4344 N   0  0  0  0  0  0
  -31.7359  -15.0976   20.2515 O   0  0  0  0  0  0
  -21.6630   -6.8857   21.4240 O   0  0  0  0  0  0
  -22.3480  -14.5498   20.6721 O   0  0  0  0  0  0
  -24.6459  -31.8378   23.1811 C   0  0  0  0  0  0
  -25.9210  -32.4658   23.8224 C   0  0  1  0  0  0
  -27.2315  -27.0967   20.1498 C   0  0  0  0  0  0
  -25.5943  -33.8467   24.2145 N   0  0  0  0  0  0
  -23.4521  -30.4521   21.5270 C   0  0  2  0  0  0
  -24.9035  -28.8658   20.1046 C   0  0  0  0  0  0
  -22.7577  -29.4509   22.4835 C   0  0  0  0  0  0
  -18.0303  -28.1396   22.8477 C   0  0  0  0  0  0
  -24.1489  -36.7240   23.2645 C   0  0  0  0  0  0
  -26.0081  -30.6979   21.3846 C   0  0  0  0  0  0
  -26.0779  -29.3047   20.7256 C   0  0  0  0  0  0
  -27.2341  -28.4349   20.7307 C   0  0  0  0  0  0
  -26.0255  -26.7574   19.5005 C   0  0  0  0  0  0
  -24.8919  -27.6076   19.4772 C   0  0  0  0  0  0
  -23.6797  -29.7720   20.1484 C   0  0  0  0  0  0
  -25.4125  -36.3013   24.0313 C   0  0  1  0  0  0
  -20.5918  -28.3723   23.1227 C   0  0  2  0  0  0
  -20.6783  -26.9421   22.5406 C   0  0  0  0  0  0
  -19.5758  -26.6377   21.5212 C   0  0  0  0  0  0
  -18.1942  -26.7933   22.1626 C   0  0  0  0  0  0
  -19.1562  -28.8878   23.2842 C   0  0  0  0  0  0
  -18.9480  -30.1474   23.8870 C   0  0  0  0  0  0
  -17.6477  -30.6593   24.0557 C   0  0  0  0  0  0
  -25.9079  -34.9388   23.5046 C   0  0  0  0  0  0
  -16.5365  -29.9087   23.6338 C   0  0  0  0  0  0
  -16.7289  -28.6505   23.0361 C   0  0  0  0  0  0
  -26.4525  -31.6552   25.0690 C   0  0  0  0  0  0
  -25.3703  -31.3763   26.1385 C   0  0  0  0  0  0
  -27.0402  -30.2943   24.6310 C   0  0  0  0  0  0
  -27.6047  -32.4334   25.7475 C   0  0  0  0  0  0
  -27.5578  -37.1770   24.8464 C   0  0  0  0  0  0
  -21.4267  -29.3036   22.3588 N   0  0  0  0  0  0
  -26.4282  -37.3735   23.9415 N   0  0  0  0  0  0
  -24.7221  -31.0189   22.0861 N   0  0  0  0  0  0
  -23.4198  -28.8079   23.3020 O   0  0  0  0  0  0
  -28.3252  -26.1522   20.2884 O   0  0  0  0  0  0
  -26.5681  -34.8903   22.4635 O   0  0  0  0  0  0
  -23.5568  -32.1277   23.7003 O   0  0  0  0  0  0
  -28.4368  -19.7105   19.2901 C   0  0  0  0  0  0
  -28.6940  -18.2635   19.2157 C   0  0  0  0  0  0
  -29.5586  -17.6473   20.0902 C   0  0  0  0  0  0
  -29.1788  -20.4286   20.2142 C   0  0  0  0  0  0
  -28.2234  -17.2530   18.2469 C   0  0  0  0  0  0
  -29.2198  -16.0953   18.4871 C   0  0  0  0  0  0
  -30.1670  -24.8139   19.8356 C   0  0  0  0  0  0
  -28.2652  -24.6440   18.2646 C   0  0  0  0  0  0
  -28.3029  -23.1374   20.4041 C   0  0  0  0  0  0
  -28.6335  -24.6925   19.7578 C   0  0  0  0  0  0
  -29.7258  -16.2146   19.8753 N   0  0  0  0  0  0
  -29.3179  -21.9236   20.3960 N   0  0  0  0  0  0
  -30.1706  -19.0852   21.0511 S   0  0  0  0  0  0
  -31.4732  -12.8469   19.1416 H   0  0  0  0  0  0
  -30.5101  -11.7419   20.0860 H   0  0  0  0  0  0
  -29.8464  -11.5717   17.6992 H   0  0  0  0  0  0
  -29.6336  -13.2806   17.5647 H   0  0  0  0  0  0
  -27.9534  -11.2435   19.0346 H   0  0  0  0  0  0
  -27.3922  -12.3695   17.8324 H   0  0  0  0  0  0
  -27.5056  -14.2059   19.3870 H   0  0  0  0  0  0
  -28.8095  -12.4040   21.4726 H   0  0  0  0  0  0
  -28.3700  -14.0874   21.6870 H   0  0  0  0  0  0
  -25.2737   -9.5646   22.4773 H   0  0  0  0  0  0
  -23.9984   -7.4585   22.7463 H   0  0  0  0  0  0
  -21.0827   -8.8750   19.8947 H   0  0  0  0  0  0
  -22.3680  -10.9655   19.6182 H   0  0  0  0  0  0
  -21.2008   -7.6146   23.9719 H   0  0  0  0  0  0
  -21.1484   -6.0522   25.9077 H   0  0  0  0  0  0
  -22.0599   -2.7597   23.2866 H   0  0  0  0  0  0
  -22.4029  -11.9853   22.4843 H   0  0  0  0  0  0
  -21.1020  -13.1196   22.2615 H   0  0  0  0  0  0
  -24.6642  -15.8500   20.5790 H   0  0  0  0  0  0
  -26.2950  -15.6327   20.1908 H   0  0  0  0  0  0
  -26.7275  -32.5248   23.0946 H   0  0  0  0  0  0
  -25.0046  -33.9567   25.0262 H   0  0  0  0  0  0
  -22.7575  -31.2789   21.3667 H   0  0  0  0  0  0
  -23.3761  -35.9561   23.3283 H   0  0  0  0  0  0
  -24.3575  -36.8899   22.2065 H   0  0  0  0  0  0
  -23.7230  -37.6422   23.6702 H   0  0  0  0  0  0
  -26.1691  -31.4507   20.6115 H   0  0  0  0  0  0
  -26.8756  -30.7481   22.0310 H   0  0  0  0  0  0
  -28.1274  -28.7657   21.2419 H   0  0  0  0  0  0
  -25.9143  -25.7851   19.0509 H   0  0  0  0  0  0
  -23.9913  -27.2619   18.9887 H   0  0  0  0  0  0
  -23.8146  -30.5423   19.3885 H   0  0  0  0  0  0
  -22.7944  -29.2129   19.8408 H   0  0  0  0  0  0
  -25.1310  -36.1835   25.0804 H   0  0  0  0  0  0
  -21.0007  -28.3322   24.1348 H   0  0  0  0  0  0
  -20.5664  -26.2339   23.3630 H   0  0  0  0  0  0
  -21.6651  -26.7417   22.1212 H   0  0  0  0  0  0
  -19.6919  -25.6282   21.1256 H   0  0  0  0  0  0
  -19.6695  -27.3172   20.6730 H   0  0  0  0  0  0
  -17.4206  -26.6670   21.4036 H   0  0  0  0  0  0
  -18.0350  -26.0081   22.9031 H   0  0  0  0  0  0
  -19.7957  -30.7293   24.2232 H   0  0  0  0  0  0
  -17.5033  -31.6268   24.5165 H   0  0  0  0  0  0
  -15.5367  -30.2982   23.7675 H   0  0  0  0  0  0
  -15.8691  -28.0812   22.7097 H   0  0  0  0  0  0
  -24.5858  -30.7144   25.7700 H   0  0  0  0  0  0
  -24.8925  -32.2959   26.4776 H   0  0  0  0  0  0
  -25.7969  -30.8943   27.0189 H   0  0  0  0  0  0
  -26.3032  -29.6648   24.1312 H   0  0  0  0  0  0
  -27.3994  -29.7267   25.4904 H   0  0  0  0  0  0
  -27.8945  -30.4169   23.9648 H   0  0  0  0  0  0
  -27.2626  -33.3644   26.2007 H   0  0  0  0  0  0
  -28.3874  -32.6883   25.0318 H   0  0  0  0  0  0
  -28.0701  -31.8499   26.5429 H   0  0  0  0  0  0
  -28.2574  -38.0088   24.7529 H   0  0  0  0  0  0
  -28.1092  -36.2617   24.6259 H   0  0  0  0  0  0
  -27.2298  -37.1376   25.8866 H   0  0  0  0  0  0
  -20.9485  -29.8735   21.6749 H   0  0  0  0  0  0
  -26.0144  -38.2796   24.1437 H   0  0  0  0  0  0
  -27.7651  -20.1784   18.5848 H   0  0  0  0  0  0
  -28.2529  -17.6095   17.2167 H   0  0  0  0  0  0
  -27.2015  -16.9455   18.4710 H   0  0  0  0  0  0
  -30.0856  -16.2503   17.8383 H   0  0  0  0  0  0
  -28.8071  -15.1486   18.1743 H   0  0  0  0  0  0
  -30.6696  -23.9850   19.3359 H   0  0  0  0  0  0
  -30.5063  -24.8291   20.8714 H   0  0  0  0  0  0
  -30.5225  -25.7285   19.3592 H   0  0  0  0  0  0
  -28.8245  -23.8602   17.7519 H   0  0  0  0  0  0
  -28.4823  -25.5860   17.7610 H   0  0  0  0  0  0
  -27.2142  -24.4086   18.1108 H   0  0  0  0  0  0
  -27.3569  -22.7863   19.9900 H   0  0  0  0  0  0
  -28.0872  -23.3008   21.4609 H   0  0  0  0  0  0
  -30.1844  -22.1749   20.8680 H   0  0  0  0  0  0
  1 25  1  0  0  0
  1 30  2  0  0  0
  1 81  1  0  0  0
  2  3  1  0  0  0
  2 25  1  0  0  0
  2 84  1  0  0  0
  2 85  1  0  0  0
  3  4  1  0  0  0
  3 86  1  0  0  0
  3 87  1  0  0  0
  4  5  1  0  0  0
  4 88  1  0  0  0
  4 89  1  0  0  0
  5  6  1  0  0  0
  5 26  1  0  0  0
  5 90  1  0  0  0
  6 25  1  0  0  0
  6 91  1  0  0  0
  6 92  1  0  0  0
  7  8  2  0  0  0
  7 26  1  0  0  0
  7 29  1  0  0  0
  8  9  1  0  0  0
  8 22  1  0  0  0
  9 10  1  0  0  0
  9 27  2  0  0  0
 10 11  2  0  0  0
 10 15  1  0  0  0
 11 12  1  0  0  0
 11 93  1  0  0  0
 12 13  2  0  0  0
 12 94  1  0  0  0
 13 14  1  0  0  0
 13 31  1  0  0  0
 14 15  2  0  0  0
 14 95  1  0  0  0
 15 96  1  0  0  0
 16 17  2  0  0  0
 16 21  1  0  0  0
 16 31  1  0  0  0
 17 18  1  0  0  0
 17 97  1  0  0  0
 18 19  2  0  0  0
 18 98  1  0  0  0
 19 20  1  0  0  0
 19 24  1  0  0  0
 20 21  2  0  0  0
 20 99  1  0  0  0
 21 23  1  0  0  0
 22 28  1  0  0  0
 22 32  2  0  0  0
 26 27  1  0  0  0
 28100  1  0  0  0
 28101  1  0  0  0
 29102  1  0  0  0
 29103  1  0  0  0
 33 34  1  0  0  0
 33 66  1  0  0  0
 33 70  2  0  0  0
 34 36  1  0  0  0
 34 59  1  0  0  0
 34104  1  0  0  0
 35 44  2  0  0  0
 35 45  1  0  0  0
 35 68  1  0  0  0
 36 56  1  0  0  0
 36105  1  0  0  0
 37 39  1  0  0  0
 37 47  1  0  0  0
 37 66  1  0  0  0
 37106  1  0  0  0
 38 43  2  0  0  0
 38 46  1  0  0  0
 38 47  1  0  0  0
 39 64  1  0  0  0
 39 67  2  0  0  0
 40 52  1  0  0  0
 40 53  2  0  0  0
 40 58  1  0  0  0
 41107  1  0  0  0
 41108  1  0  0  0
 41109  1  0  0  0
 41 48  1  0  0  0
 42 43  1  0  0  0
 42 66  1  0  0  0
 42110  1  0  0  0
 42111  1  0  0  0
 43 44  1  0  0  0
 44112  1  0  0  0
 45 46  2  0  0  0
 45113  1  0  0  0
 46114  1  0  0  0
 47115  1  0  0  0
 47116  1  0  0  0
 48 56  1  0  0  0
 48 65  1  0  0  0
 48117  1  0  0  0
 49 50  1  0  0  0
 49 53  1  0  0  0
 49 64  1  0  0  0
 49118  1  0  0  0
 50 51  1  0  0  0
 50119  1  0  0  0
 50120  1  0  0  0
 51 52  1  0  0  0
 51121  1  0  0  0
 51122  1  0  0  0
 52123  1  0  0  0
 52124  1  0  0  0
 53 54  1  0  0  0
 54 55  2  0  0  0
 54125  1  0  0  0
 55 57  1  0  0  0
 55126  1  0  0  0
 56 69  2  0  0  0
 57 58  2  0  0  0
 57127  1  0  0  0
 58128  1  0  0  0
 59 60  1  0  0  0
 59 61  1  0  0  0
 59 62  1  0  0  0
 60129  1  0  0  0
 60130  1  0  0  0
 60131  1  0  0  0
 61132  1  0  0  0
 61133  1  0  0  0
 61134  1  0  0  0
 62135  1  0  0  0
 62136  1  0  0  0
 62137  1  0  0  0
 63 65  1  0  0  0
 63138  1  0  0  0
 63139  1  0  0  0
 63140  1  0  0  0
 64141  1  0  0  0
 65142  1  0  0  0
 68 80  1  0  0  0
 71 72  1  0  0  0
 71 74  2  0  0  0
 71143  1  0  0  0
 72 73  2  0  0  0
 72 75  1  0  0  0
 73 81  1  0  0  0
 73 83  1  0  0  0
 74 82  1  0  0  0
 74 83  1  0  0  0
 75 76  1  0  0  0
 75144  1  0  0  0
 75145  1  0  0  0
 76 81  1  0  0  0
 76146  1  0  0  0
 76147  1  0  0  0
 77148  1  0  0  0
 77149  1  0  0  0
 77150  1  0  0  0
 77 80  1  0  0  0
 78 80  1  0  0  0
 78151  1  0  0  0
 78152  1  0  0  0
 78153  1  0  0  0
 79 80  1  0  0  0
 79 82  1  0  0  0
 79154  1  0  0  0
 79155  1  0  0  0
 82156  1  0  0  0
M  ISO  4   1 100  68 101  80 101  81 100
M  END
> <chiral flag>
0

> <version>
0

> <s_m_source_file>
/data/baiqing/PycharmProjects/Reinvent-master-3.2/result/LINK_invent/BTK/process_docking_weight1_custom_product_contain_oxygen_bond_distance_aromatic_linkinvent_7_9_3/rearranged_h_0151.sdf

> <i_m_source_file_index>
73

> <r_mmod_Potential_Energy-OPLS-2005>
971.639892578125

> <r_mmod_Stretch_Energy-OPLS-2005>
292.221801757812

> <r_mmod_Bend_Energy-OPLS-2005>
493.111511230469

> <r_mmod_Torsional_Energy-OPLS-2005>
318.581359863281

> <r_mmod_Improper_Torsional_Energy-OPLS-2005>
20.4629096984863

> <r_mmod_Van_der_Waal_Energy-OPLS-2005>
109.359375

> <r_mmod_Electrostatic_Energy-OPLS-2005>
-324.252227783203

> <r_mmod_Solvation_Energy-OPLS-2005>
-201.385147094727

> <b_mmod_Minimization_Converged-OPLS-2005>
0

> <r_mmod_RMS_Derivative-OPLS-2005>
1.22111999988556

$$$$
73
                    3D
 Structure written by MMmdl.
161170  0  0  1  0            999 V2000
  -30.6653  -14.5269   20.5327 C   0  0  0  0  0  0
  -30.4215  -12.3258   19.4431 C   0  0  0  0  0  0
  -29.4959  -12.5011   18.2188 C   0  0  0  0  0  0
  -28.0181  -12.3580   18.6300 C   0  0  0  0  0  0
  -27.6583  -13.2102   19.8744 C   0  0  2  0  0  0
  -28.6983  -13.0173   21.0026 C   0  0  0  0  0  0
  -25.2573  -13.8162   20.5680 C   0  0  0  0  0  0
  -24.1818  -13.0440   20.9162 C   0  0  0  0  0  0
  -24.6379  -11.6908   20.8724 C   0  0  0  0  0  0
  -23.9043  -10.4299   21.0403 C   0  0  0  0  0  0
  -24.3600   -9.4212   21.9178 C   0  0  0  0  0  0
  -23.6287   -8.2242   22.0741 C   0  0  0  0  0  0
  -22.4272   -8.0271   21.3529 C   0  0  0  0  0  0
  -21.9903   -9.0251   20.4641 C   0  0  0  0  0  0
  -22.7215  -10.2133   20.3057 C   0  0  0  0  0  0
  -21.6858   -6.0729   22.5275 C   0  0  0  0  0  0
  -21.4015   -6.5634   23.8202 C   0  0  0  0  0  0
  -21.3661   -5.6780   24.9164 C   0  0  0  0  0  0
  -21.6049   -4.3045   24.7220 C   0  0  0  0  0  0
  -21.8817   -3.8134   23.4341 C   0  0  0  0  0  0
  -21.9192   -4.6959   22.3394 C   0  0  0  0  0  0
  -22.7849  -13.5246   21.1848 C   0  0  0  0  0  0
  -22.1658   -4.2135   21.0972 F   0  0  0  0  0  0
  -21.5646   -3.4531   25.7742 F   0  0  0  0  0  0
  -30.0267  -13.3250   20.4522 N   0  0  0  0  0  0
  -26.2999  -12.9335   20.3348 N   0  0  0  0  0  0
  -25.9302  -11.6495   20.5757 N   0  0  0  0  0  0
  -22.0484  -12.8237   22.0401 N   0  0  0  0  0  0
  -25.4373  -15.1876   20.4132 N   0  0  0  0  0  0
  -31.8131  -14.6902   20.1052 O   0  0  0  0  0  0
  -21.6627   -6.8874   21.4237 O   0  0  0  0  0  0
  -22.3537  -14.5553   20.6703 O   0  0  0  0  0  0
  -24.6167  -31.8676   23.2091 C   0  0  0  0  0  0
  -25.9061  -32.4812   23.8391 C   0  0  1  0  0  0
  -27.2251  -27.4198   20.1250 C   0  0  0  0  0  0
  -25.5923  -33.8609   24.2336 N   0  0  0  0  0  0
  -23.4064  -30.4916   21.5465 C   0  0  2  0  0  0
  -24.8560  -28.9624   20.1056 C   0  0  0  0  0  0
  -22.7429  -29.4658   22.4953 C   0  0  0  0  0  0
  -18.0277  -28.1389   22.8479 C   0  0  0  0  0  0
  -24.1494  -36.7319   23.2633 C   0  0  0  0  0  0
  -25.9348  -30.8327   21.3628 C   0  0  0  0  0  0
  -26.0141  -29.4660   20.7128 C   0  0  0  0  0  0
  -27.2059  -28.7025   20.7211 C   0  0  0  0  0  0
  -26.0592  -26.9423   19.4922 C   0  0  0  0  0  0
  -24.8753  -27.7021   19.4844 C   0  0  0  0  0  0
  -23.6169  -29.8276   20.1581 C   0  0  0  0  0  0
  -25.4104  -36.3105   24.0341 C   0  0  1  0  0  0
  -20.5868  -28.3679   23.1307 C   0  0  2  0  0  0
  -20.6768  -26.9421   22.5407 C   0  0  0  0  0  0
  -19.5748  -26.6393   21.5201 C   0  0  0  0  0  0
  -18.1926  -26.7928   22.1615 C   0  0  0  0  0  0
  -19.1527  -28.8847   23.2889 C   0  0  0  0  0  0
  -18.9450  -30.1444   23.8905 C   0  0  0  0  0  0
  -17.6454  -30.6589   24.0558 C   0  0  0  0  0  0
  -25.9028  -34.9472   23.5132 C   0  0  0  0  0  0
  -16.5343  -29.9090   23.6327 C   0  0  0  0  0  0
  -16.7265  -28.6512   23.0339 C   0  0  0  0  0  0
  -26.4484  -31.6586   25.0718 C   0  0  0  0  0  0
  -25.3763  -31.3698   26.1482 C   0  0  0  0  0  0
  -27.0287  -30.3019   24.6080 C   0  0  0  0  0  0
  -27.6073  -32.4288   25.7483 C   0  0  0  0  0  0
  -27.5589  -37.1801   24.8456 C   0  0  0  0  0  0
  -21.4151  -29.3046   22.3708 N   0  0  0  0  0  0
  -26.4280  -37.3796   23.9426 N   0  0  0  0  0  0
  -24.6705  -31.0780   22.0983 N   0  0  0  0  0  0
  -23.4200  -28.8204   23.3000 O   0  0  0  0  0  0
  -28.3353  -26.6050   20.1963 O   0  0  0  0  0  0
  -26.5571  -34.8927   22.4678 O   0  0  0  0  0  0
  -23.5358  -32.1424   23.7484 O   0  0  0  0  0  0
  -30.0122  -18.3544   18.4205 C   0  0  0  0  0  0
  -29.5141  -19.4382   19.1620 C   0  0  0  0  0  0
  -30.2055  -17.1026   19.0296 C   0  0  0  0  0  0
  -29.4213  -18.0248   21.1428 C   0  0  0  0  0  0
  -29.2520  -19.3132   20.5444 C   0  0  0  0  0  0
  -29.8892  -16.9032   20.3951 C   0  0  0  0  0  0
  -28.6123  -20.4638   21.3095 C   0  0  0  0  0  0
  -30.0342  -23.8314   20.4004 C   0  0  0  0  0  0
  -30.2085  -22.2976   20.4839 C   0  0  0  0  0  0
  -28.1400  -22.9120   21.4674 C   0  0  0  0  0  0
  -28.5263  -24.0771   20.5224 C   0  0  2  0  0  0
  -27.8274  -23.8609   19.1641 C   0  0  0  0  0  0
  -28.1577  -25.4836   21.0979 C   0  0  0  0  0  0
  -28.9761  -21.7629   21.0818 N   0  0  0  0  0  0
  -29.9220  -15.5770   20.9647 N   0  0  0  0  0  0
  -27.7070  -20.1882   22.1026 O   0  0  0  0  0  0
  -31.4670  -12.4212   19.1468 H   0  0  0  0  0  0
  -30.3215  -11.3185   19.8503 H   0  0  0  0  0  0
  -29.7393  -11.7645   17.4518 H   0  0  0  0  0  0
  -29.6598  -13.4787   17.7636 H   0  0  0  0  0  0
  -27.8348  -11.3034   18.8379 H   0  0  0  0  0  0
  -27.3662  -12.6214   17.7963 H   0  0  0  0  0  0
  -27.6966  -14.2532   19.5577 H   0  0  0  0  0  0
  -28.6804  -11.9888   21.3676 H   0  0  0  0  0  0
  -28.4574  -13.6385   21.8667 H   0  0  0  0  0  0
  -25.2751   -9.5696   22.4743 H   0  0  0  0  0  0
  -24.0001   -7.4633   22.7455 H   0  0  0  0  0  0
  -21.0837   -8.8782   19.8947 H   0  0  0  0  0  0
  -22.3683  -10.9678   19.6166 H   0  0  0  0  0  0
  -21.1999   -7.6143   23.9709 H   0  0  0  0  0  0
  -21.1490   -6.0504   25.9063 H   0  0  0  0  0  0
  -22.0598   -2.7602   23.2833 H   0  0  0  0  0  0
  -22.4101  -11.9891   22.4785 H   0  0  0  0  0  0
  -21.1118  -13.1281   22.2636 H   0  0  0  0  0  0
  -24.6838  -15.8550   20.5377 H   0  0  0  0  0  0
  -26.3058  -15.6205   20.1243 H   0  0  0  0  0  0
  -26.7141  -32.5534   23.1166 H   0  0  0  0  0  0
  -25.0130  -33.9772   25.0523 H   0  0  0  0  0  0
  -22.6935  -31.3074   21.4084 H   0  0  0  0  0  0
  -23.3751  -35.9651   23.3258 H   0  0  0  0  0  0
  -24.3616  -36.8963   22.2057 H   0  0  0  0  0  0
  -23.7244  -37.6516   23.6660 H   0  0  0  0  0  0
  -26.0433  -31.5962   20.5907 H   0  0  0  0  0  0
  -26.8241  -30.8913   21.9782 H   0  0  0  0  0  0
  -28.0918  -29.0745   21.2160 H   0  0  0  0  0  0
  -26.0563  -25.9705   19.0221 H   0  0  0  0  0  0
  -23.9912  -27.3105   19.0008 H   0  0  0  0  0  0
  -23.7212  -30.6038   19.3988 H   0  0  0  0  0  0
  -22.7432  -29.2442   19.8630 H   0  0  0  0  0  0
  -25.1272  -36.1953   25.0827 H   0  0  0  0  0  0
  -20.9949  -28.3244   24.1432 H   0  0  0  0  0  0
  -20.5672  -26.2291   23.3592 H   0  0  0  0  0  0
  -21.6642  -26.7465   22.1206 H   0  0  0  0  0  0
  -19.6910  -25.6301   21.1239 H   0  0  0  0  0  0
  -19.6691  -27.3192   20.6722 H   0  0  0  0  0  0
  -17.4198  -26.6662   21.4018 H   0  0  0  0  0  0
  -18.0340  -26.0082   22.9026 H   0  0  0  0  0  0
  -19.7926  -30.7250   24.2296 H   0  0  0  0  0  0
  -17.5016  -31.6271   24.5152 H   0  0  0  0  0  0
  -15.5345  -30.2990   23.7655 H   0  0  0  0  0  0
  -15.8666  -28.0834   22.7041 H   0  0  0  0  0  0
  -24.5924  -30.7049   25.7836 H   0  0  0  0  0  0
  -24.8971  -32.2855   26.4952 H   0  0  0  0  0  0
  -25.8138  -30.8860   27.0226 H   0  0  0  0  0  0
  -26.2805  -29.6800   24.1143 H   0  0  0  0  0  0
  -27.4061  -29.7236   25.4525 H   0  0  0  0  0  0
  -27.8656  -30.4317   23.9211 H   0  0  0  0  0  0
  -27.2703  -33.3583   26.2079 H   0  0  0  0  0  0
  -28.3881  -32.6841   25.0308 H   0  0  0  0  0  0
  -28.0740  -31.8392   26.5385 H   0  0  0  0  0  0
  -28.2565  -38.0137   24.7548 H   0  0  0  0  0  0
  -28.1119  -36.2670   24.6198 H   0  0  0  0  0  0
  -27.2327  -37.1362   25.8862 H   0  0  0  0  0  0
  -20.9310  -29.8787   21.6947 H   0  0  0  0  0  0
  -26.0163  -38.2868   24.1432 H   0  0  0  0  0  0
  -30.2044  -18.4710   17.3625 H   0  0  0  0  0  0
  -29.2896  -20.3560   18.6382 H   0  0  0  0  0  0
  -30.5458  -16.2854   18.4121 H   0  0  0  0  0  0
  -29.1494  -17.8954   22.1817 H   0  0  0  0  0  0
  -30.4546  -24.2538   19.4856 H   0  0  0  0  0  0
  -30.5578  -24.3024   21.2346 H   0  0  0  0  0  0
  -31.0767  -22.0350   21.0902 H   0  0  0  0  0  0
  -30.3843  -21.9152   19.4845 H   0  0  0  0  0  0
  -27.0743  -22.6844   21.4050 H   0  0  0  0  0  0
  -28.3514  -23.1616   22.5094 H   0  0  0  0  0  0
  -28.1189  -22.9206   18.6962 H   0  0  0  0  0  0
  -28.0637  -24.6580   18.4594 H   0  0  0  0  0  0
  -26.7450  -23.8331   19.2841 H   0  0  0  0  0  0
  -28.7560  -25.6815   21.9887 H   0  0  0  0  0  0
  -27.1295  -25.4333   21.4660 H   0  0  0  0  0  0
  -29.1097  -15.3282   21.5099 H   0  0  0  0  0  0
  1 25  1  0  0  0
  1 30  2  0  0  0
  1 85  1  0  0  0
  2  3  1  0  0  0
  2 25  1  0  0  0
  2 87  1  0  0  0
  2 88  1  0  0  0
  3  4  1  0  0  0
  3 89  1  0  0  0
  3 90  1  0  0  0
  4  5  1  0  0  0
  4 91  1  0  0  0
  4 92  1  0  0  0
  5  6  1  0  0  0
  5 26  1  0  0  0
  5 93  1  0  0  0
  6 25  1  0  0  0
  6 94  1  0  0  0
  6 95  1  0  0  0
  7  8  2  0  0  0
  7 26  1  0  0  0
  7 29  1  0  0  0
  8  9  1  0  0  0
  8 22  1  0  0  0
  9 10  1  0  0  0
  9 27  2  0  0  0
 10 11  2  0  0  0
 10 15  1  0  0  0
 11 12  1  0  0  0
 11 96  1  0  0  0
 12 13  2  0  0  0
 12 97  1  0  0  0
 13 14  1  0  0  0
 13 31  1  0  0  0
 14 15  2  0  0  0
 14 98  1  0  0  0
 15 99  1  0  0  0
 16 17  2  0  0  0
 16 21  1  0  0  0
 16 31  1  0  0  0
 17 18  1  0  0  0
 17100  1  0  0  0
 18 19  2  0  0  0
 18101  1  0  0  0
 19 20  1  0  0  0
 19 24  1  0  0  0
 20 21  2  0  0  0
 20102  1  0  0  0
 21 23  1  0  0  0
 22 28  1  0  0  0
 22 32  2  0  0  0
 26 27  1  0  0  0
 28103  1  0  0  0
 28104  1  0  0  0
 29105  1  0  0  0
 29106  1  0  0  0
 33 34  1  0  0  0
 33 66  1  0  0  0
 33 70  2  0  0  0
 34 36  1  0  0  0
 34 59  1  0  0  0
 34107  1  0  0  0
 35 44  2  0  0  0
 35 45  1  0  0  0
 35 68  1  0  0  0
 36 56  1  0  0  0
 36108  1  0  0  0
 37 39  1  0  0  0
 37 47  1  0  0  0
 37 66  1  0  0  0
 37109  1  0  0  0
 38 43  2  0  0  0
 38 46  1  0  0  0
 38 47  1  0  0  0
 39 64  1  0  0  0
 39 67  2  0  0  0
 40 52  1  0  0  0
 40 53  2  0  0  0
 40 58  1  0  0  0
 41110  1  0  0  0
 41111  1  0  0  0
 41112  1  0  0  0
 41 48  1  0  0  0
 42 43  1  0  0  0
 42 66  1  0  0  0
 42113  1  0  0  0
 42114  1  0  0  0
 43 44  1  0  0  0
 44115  1  0  0  0
 45 46  2  0  0  0
 45116  1  0  0  0
 46117  1  0  0  0
 47118  1  0  0  0
 47119  1  0  0  0
 48 56  1  0  0  0
 48 65  1  0  0  0
 48120  1  0  0  0
 49 50  1  0  0  0
 49 53  1  0  0  0
 49 64  1  0  0  0
 49121  1  0  0  0
 50 51  1  0  0  0
 50122  1  0  0  0
 50123  1  0  0  0
 51 52  1  0  0  0
 51124  1  0  0  0
 51125  1  0  0  0
 52126  1  0  0  0
 52127  1  0  0  0
 53 54  1  0  0  0
 54 55  2  0  0  0
 54128  1  0  0  0
 55 57  1  0  0  0
 55129  1  0  0  0
 56 69  2  0  0  0
 57 58  2  0  0  0
 57130  1  0  0  0
 58131  1  0  0  0
 59 60  1  0  0  0
 59 61  1  0  0  0
 59 62  1  0  0  0
 60132  1  0  0  0
 60133  1  0  0  0
 60134  1  0  0  0
 61135  1  0  0  0
 61136  1  0  0  0
 61137  1  0  0  0
 62138  1  0  0  0
 62139  1  0  0  0
 62140  1  0  0  0
 63 65  1  0  0  0
 63141  1  0  0  0
 63142  1  0  0  0
 63143  1  0  0  0
 64144  1  0  0  0
 65145  1  0  0  0
 68 83  1  0  0  0
 71 72  2  0  0  0
 71 73  1  0  0  0
 71146  1  0  0  0
 72 75  1  0  0  0
 72147  1  0  0  0
 73 76  2  0  0  0
 73148  1  0  0  0
 74 75  2  0  0  0
 74 76  1  0  0  0
 74149  1  0  0  0
 75 77  1  0  0  0
 76 85  1  0  0  0
 77 84  1  0  0  0
 77 86  2  0  0  0
 78 79  1  0  0  0
 78 81  1  0  0  0
 78150  1  0  0  0
 78151  1  0  0  0
 79 84  1  0  0  0
 79152  1  0  0  0
 79153  1  0  0  0
 80 81  1  0  0  0
 80 84  1  0  0  0
 80154  1  0  0  0
 80155  1  0  0  0
 81 82  1  0  0  0
 81 83  1  0  0  0
 82156  1  0  0  0
 82157  1  0  0  0
 82158  1  0  0  0
 83159  1  0  0  0
 83160  1  0  0  0
 85161  1  0  0  0
M  ISO  4   1 100  68 101  83 101  85 100
M  END
> <chiral flag>
0

> <version>
0

> <s_m_source_file>
/data/baiqing/PycharmProjects/Reinvent-master-3.2/result/LINK_invent/BTK/process_docking_weight1_custom_product_contain_oxygen_bond_distance_aromatic_linkinvent_7_9_3/rearranged_h_0151.sdf

> <i_m_source_file_index>
74

> <r_mmod_Potential_Energy-OPLS-2005>
138.660171508789

> <r_mmod_Stretch_Energy-OPLS-2005>
47.6410636901855

> <r_mmod_Bend_Energy-OPLS-2005>
128.32926940918

> <r_mmod_Torsional_Energy-OPLS-2005>
366.199127197266

> <r_mmod_Improper_Torsional_Energy-OPLS-2005>
6.32133007049561

> <r_mmod_Van_der_Waal_Energy-OPLS-2005>
151.785400390625

> <r_mmod_Electrostatic_Energy-OPLS-2005>
-363.660308837891

> <r_mmod_Solvation_Energy-OPLS-2005>
-220.065063476562

> <b_mmod_Minimization_Converged-OPLS-2005>
0

> <r_mmod_RMS_Derivative-OPLS-2005>
2.5980007648468

$$$$
74
                    3D
 Structure written by MMmdl.
166176  0  0  1  0            999 V2000
  -30.6070  -14.6492   20.5231 C   0  0  0  0  0  0
  -30.4459  -12.4046   19.4502 C   0  0  0  0  0  0
  -29.5101  -12.5236   18.2255 C   0  0  0  0  0  0
  -28.0316  -12.3614   18.6343 C   0  0  0  0  0  0
  -27.6579  -13.2173   19.8731 C   0  0  2  0  0  0
  -28.7033  -13.0481   20.9986 C   0  0  0  0  0  0
  -25.2577  -13.8168   20.5710 C   0  0  0  0  0  0
  -24.1836  -13.0432   20.9187 C   0  0  0  0  0  0
  -24.6408  -11.6905   20.8745 C   0  0  0  0  0  0
  -23.9073  -10.4291   21.0406 C   0  0  0  0  0  0
  -24.3626   -9.4203   21.9178 C   0  0  0  0  0  0
  -23.6300   -8.2240   22.0750 C   0  0  0  0  0  0
  -22.4279   -8.0285   21.3544 C   0  0  0  0  0  0
  -21.9916   -9.0255   20.4641 C   0  0  0  0  0  0
  -22.7248  -10.2132   20.3052 C   0  0  0  0  0  0
  -21.6852   -6.0737   22.5285 C   0  0  0  0  0  0
  -21.4014   -6.5641   23.8219 C   0  0  0  0  0  0
  -21.3660   -5.6792   24.9180 C   0  0  0  0  0  0
  -21.6050   -4.3055   24.7228 C   0  0  0  0  0  0
  -21.8819   -3.8147   23.4348 C   0  0  0  0  0  0
  -21.9191   -4.6964   22.3404 C   0  0  0  0  0  0
  -22.7855  -13.5227   21.1852 C   0  0  0  0  0  0
  -22.1659   -4.2152   21.0979 F   0  0  0  0  0  0
  -21.5631   -3.4534   25.7736 F   0  0  0  0  0  0
  -30.0192  -13.4114   20.4436 N   0  0  0  0  0  0
  -26.3019  -12.9353   20.3375 N   0  0  0  0  0  0
  -25.9343  -11.6501   20.5769 N   0  0  0  0  0  0
  -22.0495  -12.8217   22.0405 N   0  0  0  0  0  0
  -25.4285  -15.1894   20.4154 N   0  0  0  0  0  0
  -31.7478  -14.8482   20.0925 O   0  0  0  0  0  0
  -21.6644   -6.8883   21.4247 O   0  0  0  0  0  0
  -22.3532  -14.5532   20.6698 O   0  0  0  0  0  0
  -24.6270  -31.8596   23.2024 C   0  0  0  0  0  0
  -25.9113  -32.4780   23.8355 C   0  0  1  0  0  0
  -27.2212  -27.3085   20.1241 C   0  0  0  0  0  0
  -25.5919  -33.8580   24.2276 N   0  0  0  0  0  0
  -23.4207  -30.4833   21.5457 C   0  0  2  0  0  0
  -24.8674  -28.9374   20.1132 C   0  0  0  0  0  0
  -22.7475  -29.4622   22.4944 C   0  0  0  0  0  0
  -18.0286  -28.1386   22.8491 C   0  0  0  0  0  0
  -24.1482  -36.7288   23.2637 C   0  0  0  0  0  0
  -25.9628  -30.7874   21.3754 C   0  0  0  0  0  0
  -26.0374  -29.4136   20.7189 C   0  0  0  0  0  0
  -27.2188  -28.6124   20.7124 C   0  0  0  0  0  0
  -26.0322  -26.8950   19.4811 C   0  0  0  0  0  0
  -24.8679  -27.6840   19.4840 C   0  0  0  0  0  0
  -23.6357  -29.8179   20.1615 C   0  0  0  0  0  0
  -25.4113  -36.3083   24.0324 C   0  0  1  0  0  0
  -20.5883  -28.3690   23.1286 C   0  0  2  0  0  0
  -20.6770  -26.9414   22.5417 C   0  0  0  0  0  0
  -19.5744  -26.6390   21.5217 C   0  0  0  0  0  0
  -18.1925  -26.7932   22.1628 C   0  0  0  0  0  0
  -19.1536  -28.8859   23.2883 C   0  0  0  0  0  0
  -18.9460  -30.1463   23.8898 C   0  0  0  0  0  0
  -17.6459  -30.6589   24.0569 C   0  0  0  0  0  0
  -25.9054  -34.9453   23.5107 C   0  0  0  0  0  0
  -16.5349  -29.9089   23.6337 C   0  0  0  0  0  0
  -16.7272  -28.6506   23.0357 C   0  0  0  0  0  0
  -26.4495  -31.6588   25.0729 C   0  0  0  0  0  0
  -25.3725  -31.3721   26.1452 C   0  0  0  0  0  0
  -27.0339  -30.3012   24.6190 C   0  0  0  0  0  0
  -27.6052  -32.4325   25.7501 C   0  0  0  0  0  0
  -27.5582  -37.1799   24.8464 C   0  0  0  0  0  0
  -21.4188  -29.3037   22.3681 N   0  0  0  0  0  0
  -26.4290  -37.3781   23.9411 N   0  0  0  0  0  0
  -24.6891  -31.0599   22.0981 N   0  0  0  0  0  0
  -23.4200  -28.8163   23.3023 O   0  0  0  0  0  0
  -28.3345  -26.4504   20.1487 O   0  0  0  0  0  0
  -26.5629  -34.8921   22.4678 O   0  0  0  0  0  0
  -23.5432  -32.1399   23.7349 O   0  0  0  0  0  0
  -28.5259  -19.2078   21.6751 C   0  0  0  0  0  0
  -28.7407  -17.7859   21.6525 C   0  0  0  0  0  0
  -30.6667  -17.9226   20.1126 C   0  0  0  0  0  0
  -30.4206  -19.3218   20.1600 C   0  0  0  0  0  0
  -29.4154  -19.9841   20.9185 C   0  0  0  0  0  0
  -29.7834  -17.1137   20.9106 C   0  0  0  0  0  0
  -30.8133  -20.6770   19.6541 C   0  0  0  0  0  0
  -28.9429  -23.7703   16.2430 C   0  0  0  0  0  0
  -30.1582  -22.9539   16.6657 C   0  0  0  0  0  0
  -28.3094  -24.1636   17.5792 C   0  0  0  0  0  0
  -30.6360  -23.6688   17.9353 C   0  0  0  0  0  0
  -28.7214  -22.3628   20.1964 C   0  0  0  0  0  0
  -28.1107  -25.0180   20.5024 C   0  0  0  0  0  0
  -29.1436  -23.9161   19.9743 C   0  0  2  0  0  0
  -29.7597  -21.3285   20.5449 N   0  0  0  0  0  0
  -29.8017  -15.6495   21.0045 N   0  0  0  0  0  0
  -29.4307  -24.2671   18.5499 N   0  3  0  0  0  0
  -31.4845  -12.5449   19.1459 H   0  0  0  0  0  0
  -30.3937  -11.4030   19.8799 H   0  0  0  0  0  0
  -29.7734  -11.7778   17.4741 H   0  0  0  0  0  0
  -29.6532  -13.4962   17.7514 H   0  0  0  0  0  0
  -27.8606  -11.3059   18.8481 H   0  0  0  0  0  0
  -27.3802  -12.6110   17.7961 H   0  0  0  0  0  0
  -27.6818  -14.2584   19.5505 H   0  0  0  0  0  0
  -28.7188  -12.0153   21.3515 H   0  0  0  0  0  0
  -28.4429  -13.6489   21.8714 H   0  0  0  0  0  0
  -25.2771   -9.5673   22.4748 H   0  0  0  0  0  0
  -24.0007   -7.4629   22.7468 H   0  0  0  0  0  0
  -21.0850   -8.8779   19.8942 H   0  0  0  0  0  0
  -22.3715  -10.9673   19.6157 H   0  0  0  0  0  0
  -21.2007   -7.6149   23.9724 H   0  0  0  0  0  0
  -21.1483   -6.0522   25.9085 H   0  0  0  0  0  0
  -22.0597   -2.7610   23.2851 H   0  0  0  0  0  0
  -22.4106  -11.9882   22.4796 H   0  0  0  0  0  0
  -21.1108  -13.1230   22.2594 H   0  0  0  0  0  0
  -24.6620  -15.8436   20.5280 H   0  0  0  0  0  0
  -26.2823  -15.6330   20.1014 H   0  0  0  0  0  0
  -26.7180  -32.5451   23.1099 H   0  0  0  0  0  0
  -25.0052  -33.9723   25.0412 H   0  0  0  0  0  0
  -22.7148  -31.3043   21.4023 H   0  0  0  0  0  0
  -23.3755  -35.9611   23.3301 H   0  0  0  0  0  0
  -24.3572  -36.8919   22.2055 H   0  0  0  0  0  0
  -23.7230  -37.6483   23.6667 H   0  0  0  0  0  0
  -26.0951  -31.5509   20.6074 H   0  0  0  0  0  0
  -26.8422  -30.8365   22.0060 H   0  0  0  0  0  0
  -28.1170  -28.9739   21.1928 H   0  0  0  0  0  0
  -25.9777  -25.9495   18.9630 H   0  0  0  0  0  0
  -23.9747  -27.3192   18.9948 H   0  0  0  0  0  0
  -23.7528  -30.5937   19.4035 H   0  0  0  0  0  0
  -22.7553  -29.2463   19.8619 H   0  0  0  0  0  0
  -25.1297  -36.1935   25.0818 H   0  0  0  0  0  0
  -20.9975  -28.3267   24.1405 H   0  0  0  0  0  0
  -20.5675  -26.2300   23.3619 H   0  0  0  0  0  0
  -21.6640  -26.7439   22.1212 H   0  0  0  0  0  0
  -19.6908  -25.6306   21.1245 H   0  0  0  0  0  0
  -19.6686  -27.3204   20.6752 H   0  0  0  0  0  0
  -17.4199  -26.6690   21.4026 H   0  0  0  0  0  0
  -18.0314  -26.0070   22.9019 H   0  0  0  0  0  0
  -19.7932  -30.7281   24.2264 H   0  0  0  0  0  0
  -17.5010  -31.6269   24.5171 H   0  0  0  0  0  0
  -15.5351  -30.2991   23.7657 H   0  0  0  0  0  0
  -15.8670  -28.0827   22.7069 H   0  0  0  0  0  0
  -24.5900  -30.7075   25.7774 H   0  0  0  0  0  0
  -24.8912  -32.2883   26.4884 H   0  0  0  0  0  0
  -25.8046  -30.8894   27.0225 H   0  0  0  0  0  0
  -26.2913  -29.6767   24.1209 H   0  0  0  0  0  0
  -27.4023  -29.7271   25.4703 H   0  0  0  0  0  0
  -27.8790  -30.4298   23.9423 H   0  0  0  0  0  0
  -27.2662  -33.3627   26.2072 H   0  0  0  0  0  0
  -28.3862  -32.6888   25.0329 H   0  0  0  0  0  0
  -28.0717  -31.8457   26.5423 H   0  0  0  0  0  0
  -28.2592  -38.0102   24.7523 H   0  0  0  0  0  0
  -28.1083  -36.2636   24.6273 H   0  0  0  0  0  0
  -27.2296  -37.1427   25.8864 H   0  0  0  0  0  0
  -20.9374  -29.8761   21.6889 H   0  0  0  0  0  0
  -26.0172  -38.2854   24.1427 H   0  0  0  0  0  0
  -27.7330  -19.6541   22.2574 H   0  0  0  0  0  0
  -28.0614  -17.1856   22.2412 H   0  0  0  0  0  0
  -31.4568  -17.5024   19.5069 H   0  0  0  0  0  0
  -30.6284  -20.7751   18.5857 H   0  0  0  0  0  0
  -31.8362  -20.9471   19.9223 H   0  0  0  0  0  0
  -28.2589  -23.2177   15.5975 H   0  0  0  0  0  0
  -29.2646  -24.6631   15.7038 H   0  0  0  0  0  0
  -30.9265  -22.9007   15.8937 H   0  0  0  0  0  0
  -29.8430  -21.9359   16.8939 H   0  0  0  0  0  0
  -27.5878  -23.4036   17.8735 H   0  0  0  0  0  0
  -27.7656  -25.1056   17.5003 H   0  0  0  0  0  0
  -31.3053  -24.4854   17.6618 H   0  0  0  0  0  0
  -31.1984  -23.0277   18.6085 H   0  0  0  0  0  0
  -28.1450  -21.9873   19.3519 H   0  0  0  0  0  0
  -28.0193  -22.3465   21.0319 H   0  0  0  0  0  0
  -28.0937  -24.9640   21.5920 H   0  0  0  0  0  0
  -27.1181  -24.6852   20.2066 H   0  0  0  0  0  0
  -30.0625  -24.0883   20.5357 H   0  0  0  0  0  0
  -28.9722  -15.2650   21.4297 H   0  0  0  0  0  0
  -29.6438  -25.2556   18.5883 H   0  0  0  0  0  0
  1 25  1  0  0  0
  1 30  2  0  0  0
  1 86  1  0  0  0
  2  3  1  0  0  0
  2 25  1  0  0  0
  2 88  1  0  0  0
  2 89  1  0  0  0
  3  4  1  0  0  0
  3 90  1  0  0  0
  3 91  1  0  0  0
  4  5  1  0  0  0
  4 92  1  0  0  0
  4 93  1  0  0  0
  5  6  1  0  0  0
  5 26  1  0  0  0
  5 94  1  0  0  0
  6 25  1  0  0  0
  6 95  1  0  0  0
  6 96  1  0  0  0
  7  8  2  0  0  0
  7 26  1  0  0  0
  7 29  1  0  0  0
  8  9  1  0  0  0
  8 22  1  0  0  0
  9 10  1  0  0  0
  9 27  2  0  0  0
 10 11  2  0  0  0
 10 15  1  0  0  0
 11 12  1  0  0  0
 11 97  1  0  0  0
 12 13  2  0  0  0
 12 98  1  0  0  0
 13 14  1  0  0  0
 13 31  1  0  0  0
 14 15  2  0  0  0
 14 99  1  0  0  0
 15100  1  0  0  0
 16 17  2  0  0  0
 16 21  1  0  0  0
 16 31  1  0  0  0
 17 18  1  0  0  0
 17101  1  0  0  0
 18 19  2  0  0  0
 18102  1  0  0  0
 19 20  1  0  0  0
 19 24  1  0  0  0
 20 21  2  0  0  0
 20103  1  0  0  0
 21 23  1  0  0  0
 22 28  1  0  0  0
 22 32  2  0  0  0
 26 27  1  0  0  0
 28104  1  0  0  0
 28105  1  0  0  0
 29106  1  0  0  0
 29107  1  0  0  0
 33 34  1  0  0  0
 33 66  1  0  0  0
 33 70  2  0  0  0
 34 36  1  0  0  0
 34 59  1  0  0  0
 34108  1  0  0  0
 35 44  2  0  0  0
 35 45  1  0  0  0
 35 68  1  0  0  0
 36 56  1  0  0  0
 36109  1  0  0  0
 37 39  1  0  0  0
 37 47  1  0  0  0
 37 66  1  0  0  0
 37110  1  0  0  0
 38 43  2  0  0  0
 38 46  1  0  0  0
 38 47  1  0  0  0
 39 64  1  0  0  0
 39 67  2  0  0  0
 40 52  1  0  0  0
 40 53  2  0  0  0
 40 58  1  0  0  0
 41111  1  0  0  0
 41112  1  0  0  0
 41113  1  0  0  0
 41 48  1  0  0  0
 42 43  1  0  0  0
 42 66  1  0  0  0
 42114  1  0  0  0
 42115  1  0  0  0
 43 44  1  0  0  0
 44116  1  0  0  0
 45 46  2  0  0  0
 45117  1  0  0  0
 46118  1  0  0  0
 47119  1  0  0  0
 47120  1  0  0  0
 48 56  1  0  0  0
 48 65  1  0  0  0
 48121  1  0  0  0
 49 50  1  0  0  0
 49 53  1  0  0  0
 49 64  1  0  0  0
 49122  1  0  0  0
 50 51  1  0  0  0
 50123  1  0  0  0
 50124  1  0  0  0
 51 52  1  0  0  0
 51125  1  0  0  0
 51126  1  0  0  0
 52127  1  0  0  0
 52128  1  0  0  0
 53 54  1  0  0  0
 54 55  2  0  0  0
 54129  1  0  0  0
 55 57  1  0  0  0
 55130  1  0  0  0
 56 69  2  0  0  0
 57 58  2  0  0  0
 57131  1  0  0  0
 58132  1  0  0  0
 59 60  1  0  0  0
 59 61  1  0  0  0
 59 62  1  0  0  0
 60133  1  0  0  0
 60134  1  0  0  0
 60135  1  0  0  0
 61136  1  0  0  0
 61137  1  0  0  0
 61138  1  0  0  0
 62139  1  0  0  0
 62140  1  0  0  0
 62141  1  0  0  0
 63 65  1  0  0  0
 63142  1  0  0  0
 63143  1  0  0  0
 63144  1  0  0  0
 64145  1  0  0  0
 65146  1  0  0  0
 68 83  1  0  0  0
 71 72  2  0  0  0
 71 75  1  0  0  0
 71147  1  0  0  0
 72 76  1  0  0  0
 72148  1  0  0  0
 73 74  1  0  0  0
 73 76  2  0  0  0
 73149  1  0  0  0
 74 75  2  0  0  0
 74 77  1  0  0  0
 75 85  1  0  0  0
 76 86  1  0  0  0
 77 85  1  0  0  0
 77150  1  0  0  0
 77151  1  0  0  0
 78 79  1  0  0  0
 78 80  1  0  0  0
 78152  1  0  0  0
 78153  1  0  0  0
 79 81  1  0  0  0
 79154  1  0  0  0
 79155  1  0  0  0
 80156  1  0  0  0
 80157  1  0  0  0
 80 87  1  0  0  0
 81 87  1  0  0  0
 81158  1  0  0  0
 81159  1  0  0  0
 82 85  1  0  0  0
 82160  1  0  0  0
 82161  1  0  0  0
 82 84  1  0  0  0
 83 84  1  0  0  0
 83162  1  0  0  0
 83163  1  0  0  0
 84 87  1  0  0  0
 84164  1  0  0  0
 86165  1  0  0  0
 87166  1  0  0  0
M  CHG  1  87   1
M  ISO  4   1 100  68 101  83 101  86 100
M  END
> <chiral flag>
0

> <version>
0

> <s_m_source_file>
/data/baiqing/PycharmProjects/Reinvent-master-3.2/result/LINK_invent/BTK/process_docking_weight1_custom_product_contain_oxygen_bond_distance_aromatic_linkinvent_7_9_3/rearranged_h_0151.sdf

> <i_m_source_file_index>
75

> <r_mmod_Potential_Energy-OPLS-2005>
473.224945068359

> <r_mmod_Stretch_Energy-OPLS-2005>
112.481903076172

> <r_mmod_Bend_Energy-OPLS-2005>
551.002258300781

> <r_mmod_Torsional_Energy-OPLS-2005>
322.271270751953

> <r_mmod_Improper_Torsional_Energy-OPLS-2005>
7.30638217926025

> <r_mmod_Van_der_Waal_Energy-OPLS-2005>
132.549209594727

> <r_mmod_Electrostatic_Energy-OPLS-2005>
-268.250610351562

> <r_mmod_Solvation_Energy-OPLS-2005>
-435.385131835938

> <b_mmod_Minimization_Converged-OPLS-2005>
0

> <r_mmod_RMS_Derivative-OPLS-2005>
1.14187788963318

$$$$
75
                    3D
 Structure written by MMmdl.
150158  0  0  1  0            999 V2000
  -30.5200  -14.8770   20.4426 C   0  0  0  0  0  0
  -30.4441  -12.5445   19.4708 C   0  0  0  0  0  0
  -29.5141  -12.5233   18.2359 C   0  0  0  0  0  0
  -28.0421  -12.3238   18.6528 C   0  0  0  0  0  0
  -27.6323  -13.2321   19.8417 C   0  0  2  0  0  0
  -28.6794  -13.2022   20.9737 C   0  0  0  0  0  0
  -25.2472  -13.8187   20.5703 C   0  0  0  0  0  0
  -24.1769  -13.0420   20.9224 C   0  0  0  0  0  0
  -24.6359  -11.6906   20.8740 C   0  0  0  0  0  0
  -23.9040  -10.4283   21.0414 C   0  0  0  0  0  0
  -24.3605   -9.4206   21.9187 C   0  0  0  0  0  0
  -23.6294   -8.2245   22.0742 C   0  0  0  0  0  0
  -22.4274   -8.0289   21.3545 C   0  0  0  0  0  0
  -21.9904   -9.0252   20.4648 C   0  0  0  0  0  0
  -22.7211  -10.2140   20.3062 C   0  0  0  0  0  0
  -21.6849   -6.0729   22.5273 C   0  0  0  0  0  0
  -21.4009   -6.5630   23.8211 C   0  0  0  0  0  0
  -21.3660   -5.6783   24.9173 C   0  0  0  0  0  0
  -21.6047   -4.3048   24.7227 C   0  0  0  0  0  0
  -21.8819   -3.8138   23.4343 C   0  0  0  0  0  0
  -21.9190   -4.6957   22.3397 C   0  0  0  0  0  0
  -22.7798  -13.5224   21.1871 C   0  0  0  0  0  0
  -22.1660   -4.2134   21.0978 F   0  0  0  0  0  0
  -21.5639   -3.4537   25.7744 F   0  0  0  0  0  0
  -29.9552  -13.6128   20.3770 N   0  0  0  0  0  0
  -26.2880  -12.9383   20.3250 N   0  0  0  0  0  0
  -25.9296  -11.6525   20.5733 N   0  0  0  0  0  0
  -22.0435  -12.8233   22.0439 N   0  0  0  0  0  0
  -25.4134  -15.1913   20.4132 N   0  0  0  0  0  0
  -31.7291  -14.9928   20.2111 O   0  0  0  0  0  0
  -21.6646   -6.8876   21.4243 O   0  0  0  0  0  0
  -22.3492  -14.5531   20.6719 O   0  0  0  0  0  0
  -24.6422  -31.8491   23.1920 C   0  0  0  0  0  0
  -25.9204  -32.4720   23.8308 C   0  0  1  0  0  0
  -27.1959  -27.1587   20.1388 C   0  0  0  0  0  0
  -25.5949  -33.8518   24.2222 N   0  0  0  0  0  0
  -23.4427  -30.4748   21.5363 C   0  0  2  0  0  0
  -24.8838  -28.9108   20.1089 C   0  0  0  0  0  0
  -22.7564  -29.4586   22.4839 C   0  0  0  0  0  0
  -18.0312  -28.1390   22.8480 C   0  0  0  0  0  0
  -24.1488  -36.7274   23.2643 C   0  0  0  0  0  0
  -25.9990  -30.7309   21.3864 C   0  0  0  0  0  0
  -26.0660  -29.3458   20.7245 C   0  0  0  0  0  0
  -27.2253  -28.4839   20.7251 C   0  0  0  0  0  0
  -25.9729  -26.8074   19.5237 C   0  0  0  0  0  0
  -24.8487  -27.6513   19.4963 C   0  0  0  0  0  0
  -23.6665  -29.8169   20.1519 C   0  0  0  0  0  0
  -25.4117  -36.3054   24.0320 C   0  0  1  0  0  0
  -20.5922  -28.3717   23.1233 C   0  0  2  0  0  0
  -20.6795  -26.9424   22.5400 C   0  0  0  0  0  0
  -19.5762  -26.6376   21.5216 C   0  0  0  0  0  0
  -18.1946  -26.7925   22.1631 C   0  0  0  0  0  0
  -19.1564  -28.8870   23.2854 C   0  0  0  0  0  0
  -18.9482  -30.1461   23.8884 C   0  0  0  0  0  0
  -17.6479  -30.6592   24.0557 C   0  0  0  0  0  0
  -25.9065  -34.9415   23.5076 C   0  0  0  0  0  0
  -16.5367  -29.9085   23.6323 C   0  0  0  0  0  0
  -16.7298  -28.6495   23.0360 C   0  0  0  0  0  0
  -26.4523  -31.6579   25.0740 C   0  0  0  0  0  0
  -25.3711  -31.3766   26.1445 C   0  0  0  0  0  0
  -27.0384  -30.2975   24.6298 C   0  0  0  0  0  0
  -27.6055  -32.4342   25.7526 C   0  0  0  0  0  0
  -27.5572  -37.1804   24.8467 C   0  0  0  0  0  0
  -21.4253  -29.3057   22.3601 N   0  0  0  0  0  0
  -26.4292  -37.3756   23.9400 N   0  0  0  0  0  0
  -24.7147  -31.0379   22.0939 N   0  0  0  0  0  0
  -23.4222  -28.8109   23.2964 O   0  0  0  0  0  0
  -28.2246  -26.1530   20.2119 O   0  0  0  0  0  0
  -26.5640  -34.8905   22.4648 O   0  0  0  0  0  0
  -23.5548  -32.1345   23.7155 O   0  0  0  0  0  0
  -29.0902  -18.5978   19.9920 C   0  0  0  0  0  0
  -30.4300  -18.0071   21.7955 C   0  0  0  0  0  0
  -29.7719  -17.4822   20.7117 C   0  0  0  0  0  0
  -29.2303  -19.9288   20.4960 C   0  0  0  0  0  0
  -28.4793  -23.6360   19.3387 C   0  0  0  0  0  0
  -28.3251  -25.0613   19.2631 C   0  0  0  0  0  0
  -28.6926  -22.5357   20.4073 C   0  0  0  0  0  0
  -28.3189  -25.7135   17.8710 C   0  0  0  0  0  0
  -29.6495  -15.9893   20.4643 N   0  0  0  0  0  0
  -28.7844  -21.1829   19.9723 N   0  0  0  0  0  0
  -28.7615  -22.7944   21.6103 O   0  0  0  0  0  0
  -30.2164  -19.7645   21.9461 S   0  0  0  0  0  0
  -28.4472  -22.8057   17.7206 S   0  0  0  0  0  0
  -31.4741  -12.7225   19.1561 H   0  0  0  0  0  0
  -30.4446  -11.5790   19.9776 H   0  0  0  0  0  0
  -29.8248  -11.7332   17.5497 H   0  0  0  0  0  0
  -29.6144  -13.4596   17.6836 H   0  0  0  0  0  0
  -27.9150  -11.2766   18.9283 H   0  0  0  0  0  0
  -27.3830  -12.4949   17.8002 H   0  0  0  0  0  0
  -27.6098  -14.2459   19.4428 H   0  0  0  0  0  0
  -28.7532  -12.2073   21.4144 H   0  0  0  0  0  0
  -28.3957  -13.8794   21.7824 H   0  0  0  0  0  0
  -25.2755   -9.5712   22.4745 H   0  0  0  0  0  0
  -24.0003   -7.4645   22.7466 H   0  0  0  0  0  0
  -21.0824   -8.8773   19.8969 H   0  0  0  0  0  0
  -22.3655  -10.9682   19.6176 H   0  0  0  0  0  0
  -21.1998   -7.6136   23.9708 H   0  0  0  0  0  0
  -21.1481   -6.0513   25.9073 H   0  0  0  0  0  0
  -22.0598   -2.7597   23.2847 H   0  0  0  0  0  0
  -22.4049  -11.9914   22.4860 H   0  0  0  0  0  0
  -21.1050  -13.1286   22.2637 H   0  0  0  0  0  0
  -24.6471  -15.8415   20.5451 H   0  0  0  0  0  0
  -26.2532  -15.6404   20.0740 H   0  0  0  0  0  0
  -26.7264  -32.5331   23.1040 H   0  0  0  0  0  0
  -25.0078  -33.9651   25.0354 H   0  0  0  0  0  0
  -22.7436  -31.3016   21.3909 H   0  0  0  0  0  0
  -23.3742  -35.9622   23.3324 H   0  0  0  0  0  0
  -24.3566  -36.8882   22.2056 H   0  0  0  0  0  0
  -23.7268  -37.6481   23.6665 H   0  0  0  0  0  0
  -26.1536  -31.4880   20.6162 H   0  0  0  0  0  0
  -26.8717  -30.7784   22.0268 H   0  0  0  0  0  0
  -28.1264  -28.8057   21.2261 H   0  0  0  0  0  0
  -25.8497  -25.8244   19.0922 H   0  0  0  0  0  0
  -23.9381  -27.3021   19.0256 H   0  0  0  0  0  0
  -23.8101  -30.5986   19.4051 H   0  0  0  0  0  0
  -22.7788  -29.2691   19.8325 H   0  0  0  0  0  0
  -25.1312  -36.1886   25.0814 H   0  0  0  0  0  0
  -21.0039  -28.3314   24.1343 H   0  0  0  0  0  0
  -20.5693  -26.2343   23.3618 H   0  0  0  0  0  0
  -21.6663  -26.7433   22.1199 H   0  0  0  0  0  0
  -19.6924  -25.6282   21.1260 H   0  0  0  0  0  0
  -19.6689  -27.3172   20.6726 H   0  0  0  0  0  0
  -17.4218  -26.6675   21.4032 H   0  0  0  0  0  0
  -18.0342  -26.0079   22.9031 H   0  0  0  0  0  0
  -19.7954  -30.7278   24.2262 H   0  0  0  0  0  0
  -17.5030  -31.6275   24.5156 H   0  0  0  0  0  0
  -15.5365  -30.2989   23.7644 H   0  0  0  0  0  0
  -15.8695  -28.0807   22.7090 H   0  0  0  0  0  0
  -24.5852  -30.7165   25.7762 H   0  0  0  0  0  0
  -24.8954  -32.2959   26.4866 H   0  0  0  0  0  0
  -25.7995  -30.8920   27.0232 H   0  0  0  0  0  0
  -26.3002  -29.6704   24.1286 H   0  0  0  0  0  0
  -27.3988  -29.7257   25.4864 H   0  0  0  0  0  0
  -27.8916  -30.4215   23.9626 H   0  0  0  0  0  0
  -27.2632  -33.3636   26.2090 H   0  0  0  0  0  0
  -28.3874  -32.6919   25.0370 H   0  0  0  0  0  0
  -28.0723  -31.8488   26.5457 H   0  0  0  0  0  0
  -28.2611  -38.0080   24.7467 H   0  0  0  0  0  0
  -28.1049  -36.2602   24.6352 H   0  0  0  0  0  0
  -27.2282  -37.1528   25.8872 H   0  0  0  0  0  0
  -20.9436  -29.8801   21.6819 H   0  0  0  0  0  0
  -26.0159  -38.2832   24.1368 H   0  0  0  0  0  0
  -28.5143  -18.3732   19.1046 H   0  0  0  0  0  0
  -30.9938  -17.4803   22.5573 H   0  0  0  0  0  0
  -29.1980  -25.4203   17.2977 H   0  0  0  0  0  0
  -28.3733  -26.8002   17.9116 H   0  0  0  0  0  0
  -27.4199  -25.4542   17.3098 H   0  0  0  0  0  0
  -28.6964  -15.6949   20.3260 H   0  0  0  0  0  0
  -28.5226  -21.1248   18.9961 H   0  0  0  0  0  0
  -28.2557  -23.9019   16.9792 H   0  0  0  0  0  0
  1 25  1  0  0  0
  1 30  2  0  0  0
  1 79  1  0  0  0
  2  3  1  0  0  0
  2 25  1  0  0  0
  2 84  1  0  0  0
  2 85  1  0  0  0
  3  4  1  0  0  0
  3 86  1  0  0  0
  3 87  1  0  0  0
  4  5  1  0  0  0
  4 88  1  0  0  0
  4 89  1  0  0  0
  5  6  1  0  0  0
  5 26  1  0  0  0
  5 90  1  0  0  0
  6 25  1  0  0  0
  6 91  1  0  0  0
  6 92  1  0  0  0
  7  8  2  0  0  0
  7 26  1  0  0  0
  7 29  1  0  0  0
  8  9  1  0  0  0
  8 22  1  0  0  0
  9 10  1  0  0  0
  9 27  2  0  0  0
 10 11  2  0  0  0
 10 15  1  0  0  0
 11 12  1  0  0  0
 11 93  1  0  0  0
 12 13  2  0  0  0
 12 94  1  0  0  0
 13 14  1  0  0  0
 13 31  1  0  0  0
 14 15  2  0  0  0
 14 95  1  0  0  0
 15 96  1  0  0  0
 16 17  2  0  0  0
 16 21  1  0  0  0
 16 31  1  0  0  0
 17 18  1  0  0  0
 17 97  1  0  0  0
 18 19  2  0  0  0
 18 98  1  0  0  0
 19 20  1  0  0  0
 19 24  1  0  0  0
 20 21  2  0  0  0
 20 99  1  0  0  0
 21 23  1  0  0  0
 22 28  1  0  0  0
 22 32  2  0  0  0
 26 27  1  0  0  0
 28100  1  0  0  0
 28101  1  0  0  0
 29102  1  0  0  0
 29103  1  0  0  0
 33 34  1  0  0  0
 33 66  1  0  0  0
 33 70  2  0  0  0
 34 36  1  0  0  0
 34 59  1  0  0  0
 34104  1  0  0  0
 35 44  2  0  0  0
 35 45  1  0  0  0
 35 68  1  0  0  0
 36 56  1  0  0  0
 36105  1  0  0  0
 37 39  1  0  0  0
 37 47  1  0  0  0
 37 66  1  0  0  0
 37106  1  0  0  0
 38 43  2  0  0  0
 38 46  1  0  0  0
 38 47  1  0  0  0
 39 64  1  0  0  0
 39 67  2  0  0  0
 40 52  1  0  0  0
 40 53  2  0  0  0
 40 58  1  0  0  0
 41107  1  0  0  0
 41108  1  0  0  0
 41109  1  0  0  0
 41 48  1  0  0  0
 42 43  1  0  0  0
 42 66  1  0  0  0
 42110  1  0  0  0
 42111  1  0  0  0
 43 44  1  0  0  0
 44112  1  0  0  0
 45 46  2  0  0  0
 45113  1  0  0  0
 46114  1  0  0  0
 47115  1  0  0  0
 47116  1  0  0  0
 48 56  1  0  0  0
 48 65  1  0  0  0
 48117  1  0  0  0
 49 50  1  0  0  0
 49 53  1  0  0  0
 49 64  1  0  0  0
 49118  1  0  0  0
 50 51  1  0  0  0
 50119  1  0  0  0
 50120  1  0  0  0
 51 52  1  0  0  0
 51121  1  0  0  0
 51122  1  0  0  0
 52123  1  0  0  0
 52124  1  0  0  0
 53 54  1  0  0  0
 54 55  2  0  0  0
 54125  1  0  0  0
 55 57  1  0  0  0
 55126  1  0  0  0
 56 69  2  0  0  0
 57 58  2  0  0  0
 57127  1  0  0  0
 58128  1  0  0  0
 59 60  1  0  0  0
 59 61  1  0  0  0
 59 62  1  0  0  0
 60129  1  0  0  0
 60130  1  0  0  0
 60131  1  0  0  0
 61132  1  0  0  0
 61133  1  0  0  0
 61134  1  0  0  0
 62135  1  0  0  0
 62136  1  0  0  0
 62137  1  0  0  0
 63 65  1  0  0  0
 63138  1  0  0  0
 63139  1  0  0  0
 63140  1  0  0  0
 64141  1  0  0  0
 65142  1  0  0  0
 68 76  1  0  0  0
 71 73  1  0  0  0
 71 74  2  0  0  0
 71143  1  0  0  0
 72 73  2  0  0  0
 72 82  1  0  0  0
 72144  1  0  0  0
 73 79  1  0  0  0
 74 80  1  0  0  0
 74 82  1  0  0  0
 75 76  2  0  0  0
 75 77  1  0  0  0
 75 83  1  0  0  0
 76 78  1  0  0  0
 77 80  1  0  0  0
 77 81  2  0  0  0
 78145  1  0  0  0
 78146  1  0  0  0
 78147  1  0  0  0
 79148  1  0  0  0
 80149  1  0  0  0
 83150  1  0  0  0
M  ISO  4   1 100  68 101  76 101  79 100
M  END
> <chiral flag>
0

> <version>
0

> <s_m_source_file>
/data/baiqing/PycharmProjects/Reinvent-master-3.2/result/LINK_invent/BTK/process_docking_weight1_custom_product_contain_oxygen_bond_distance_aromatic_linkinvent_7_9_3/rearranged_h_0151.sdf

> <i_m_source_file_index>
76

> <r_mmod_Potential_Energy-OPLS-2005>
421.789123535156

> <r_mmod_Stretch_Energy-OPLS-2005>
193.16633605957

> <r_mmod_Bend_Energy-OPLS-2005>
261.624877929688

> <r_mmod_Torsional_Energy-OPLS-2005>
244.78776550293

> <r_mmod_Improper_Torsional_Energy-OPLS-2005>
9.12566566467285

> <r_mmod_Van_der_Waal_Energy-OPLS-2005>
146.446701049805

> <r_mmod_Electrostatic_Energy-OPLS-2005>
-355.659881591797

> <r_mmod_Solvation_Energy-OPLS-2005>
-244.302856445312

> <b_mmod_Minimization_Converged-OPLS-2005>
0

> <r_mmod_RMS_Derivative-OPLS-2005>
3.38726830482483

$$$$
76
                    3D
 Structure written by MMmdl.
161170  0  0  1  0            999 V2000
  -30.6414  -14.5653   20.5554 C   0  0  0  0  0  0
  -30.4402  -12.3583   19.4376 C   0  0  0  0  0  0
  -29.5049  -12.5126   18.2172 C   0  0  0  0  0  0
  -28.0271  -12.3577   18.6278 C   0  0  0  0  0  0
  -27.6606  -13.2073   19.8725 C   0  0  2  0  0  0
  -28.7018  -13.0072   20.9960 C   0  0  0  0  0  0
  -25.2595  -13.8157   20.5694 C   0  0  0  0  0  0
  -24.1833  -13.0448   20.9181 C   0  0  0  0  0  0
  -24.6380  -11.6913   20.8724 C   0  0  0  0  0  0
  -23.9057  -10.4303   21.0409 C   0  0  0  0  0  0
  -24.3611   -9.4222   21.9191 C   0  0  0  0  0  0
  -23.6286   -8.2261   22.0761 C   0  0  0  0  0  0
  -22.4276   -8.0288   21.3548 C   0  0  0  0  0  0
  -21.9902   -9.0264   20.4657 C   0  0  0  0  0  0
  -22.7232  -10.2143   20.3064 C   0  0  0  0  0  0
  -21.6858   -6.0733   22.5280 C   0  0  0  0  0  0
  -21.4017   -6.5636   23.8214 C   0  0  0  0  0  0
  -21.3654   -5.6781   24.9175 C   0  0  0  0  0  0
  -21.6046   -4.3048   24.7225 C   0  0  0  0  0  0
  -21.8820   -3.8153   23.4346 C   0  0  0  0  0  0
  -21.9201   -4.6968   22.3410 C   0  0  0  0  0  0
  -22.7860  -13.5273   21.1825 C   0  0  0  0  0  0
  -22.1665   -4.2159   21.0981 F   0  0  0  0  0  0
  -21.5636   -3.4527   25.7738 F   0  0  0  0  0  0
  -30.0280  -13.3468   20.4501 N   0  0  0  0  0  0
  -26.3013  -12.9321   20.3341 N   0  0  0  0  0  0
  -25.9304  -11.6484   20.5735 N   0  0  0  0  0  0
  -22.0454  -12.8305   22.0369 N   0  0  0  0  0  0
  -25.4337  -15.1876   20.4157 N   0  0  0  0  0  0
  -31.7701  -14.7743   20.0990 O   0  0  0  0  0  0
  -21.6646   -6.8881   21.4245 O   0  0  0  0  0  0
  -22.3573  -14.5592   20.6680 O   0  0  0  0  0  0
  -24.6223  -31.8653   23.2105 C   0  0  0  0  0  0
  -25.9107  -32.4793   23.8398 C   0  0  1  0  0  0
  -27.2165  -27.3469   20.1207 C   0  0  0  0  0  0
  -25.5976  -33.8592   24.2335 N   0  0  0  0  0  0
  -23.4123  -30.4923   21.5529 C   0  0  2  0  0  0
  -24.8585  -28.9481   20.1281 C   0  0  0  0  0  0
  -22.7439  -29.4655   22.4970 C   0  0  0  0  0  0
  -18.0284  -28.1368   22.8504 C   0  0  0  0  0  0
  -24.1492  -36.7282   23.2634 C   0  0  0  0  0  0
  -25.9528  -30.7977   21.3869 C   0  0  0  0  0  0
  -26.0228  -29.4219   20.7459 C   0  0  0  0  0  0
  -27.2051  -28.6262   20.7482 C   0  0  0  0  0  0
  -26.0479  -26.9514   19.4418 C   0  0  0  0  0  0
  -24.8688  -27.7107   19.4728 C   0  0  0  0  0  0
  -23.6282  -29.8273   20.1686 C   0  0  0  0  0  0
  -25.4115  -36.3085   24.0337 C   0  0  1  0  0  0
  -20.5877  -28.3672   23.1282 C   0  0  2  0  0  0
  -20.6774  -26.9400   22.5394 C   0  0  0  0  0  0
  -19.5743  -26.6383   21.5202 C   0  0  0  0  0  0
  -18.1926  -26.7925   22.1619 C   0  0  0  0  0  0
  -19.1533  -28.8834   23.2889 C   0  0  0  0  0  0
  -18.9456  -30.1440   23.8893 C   0  0  0  0  0  0
  -17.6460  -30.6581   24.0559 C   0  0  0  0  0  0
  -25.9048  -34.9456   23.5123 C   0  0  0  0  0  0
  -16.5349  -29.9076   23.6335 C   0  0  0  0  0  0
  -16.7272  -28.6485   23.0372 C   0  0  0  0  0  0
  -26.4511  -31.6587   25.0736 C   0  0  0  0  0  0
  -25.3775  -31.3714   26.1485 C   0  0  0  0  0  0
  -27.0338  -30.3009   24.6173 C   0  0  0  0  0  0
  -27.6073  -32.4311   25.7507 C   0  0  0  0  0  0
  -27.5583  -37.1807   24.8471 C   0  0  0  0  0  0
  -21.4156  -29.3047   22.3691 N   0  0  0  0  0  0
  -26.4289  -37.3778   23.9420 N   0  0  0  0  0  0
  -24.6801  -31.0691   22.1055 N   0  0  0  0  0  0
  -23.4181  -28.8187   23.3031 O   0  0  0  0  0  0
  -28.3581  -26.5614   19.9870 O   0  0  0  0  0  0
  -26.5566  -34.8916   22.4653 O   0  0  0  0  0  0
  -23.5395  -32.1439   23.7455 O   0  0  0  0  0  0
  -30.2727  -19.1426   20.1776 C   0  0  0  0  0  0
  -30.7764  -17.8152   20.4603 C   0  0  0  0  0  0
  -28.9067  -19.2545   20.2971 C   0  0  0  0  0  0
  -29.8134  -16.8942   20.8230 C   0  0  0  0  0  0
  -27.9454  -20.2548   19.7948 C   0  0  0  0  0  0
  -26.9626  -23.8453   19.4948 C   0  0  0  0  0  0
  -26.8517  -22.3605   19.1612 C   0  0  0  0  0  0
  -28.7519  -22.6593   20.5900 C   0  0  0  0  0  0
  -27.8672  -23.9788   20.7186 C   0  0  1  0  0  0
  -26.3829  -22.8447   22.3710 C   0  0  0  0  0  0
  -28.6231  -25.3870   20.8305 C   0  0  0  0  0  0
  -27.9127  -21.6379   19.8908 N   0  0  0  0  0  0
  -29.8723  -15.5453   21.1004 N   0  0  0  0  0  0
  -26.9399  -19.6821   19.1037 N   0  3  0  0  0  0
  -27.0877  -24.0024   21.9309 O   0  0  0  0  0  0
  -28.2729  -17.7289   20.9241 S   0  0  0  0  0  0
  -31.4817  -12.4858   19.1356 H   0  0  0  0  0  0
  -30.3715  -11.3500   19.8485 H   0  0  0  0  0  0
  -29.7578  -11.7758   17.4532 H   0  0  0  0  0  0
  -29.6552  -13.4928   17.7615 H   0  0  0  0  0  0
  -27.8543  -11.3023   18.8388 H   0  0  0  0  0  0
  -27.3741  -12.6132   17.7926 H   0  0  0  0  0  0
  -27.6976  -14.2519   19.5624 H   0  0  0  0  0  0
  -28.6958  -11.9700   21.3327 H   0  0  0  0  0  0
  -28.4447  -13.5938   21.8782 H   0  0  0  0  0  0
  -25.2747   -9.5722   22.4773 H   0  0  0  0  0  0
  -23.9999   -7.4667   22.7487 H   0  0  0  0  0  0
  -21.0837   -8.8799   19.8965 H   0  0  0  0  0  0
  -22.3690  -10.9690   19.6190 H   0  0  0  0  0  0
  -21.1993   -7.6137   23.9729 H   0  0  0  0  0  0
  -21.1467   -6.0499   25.9078 H   0  0  0  0  0  0
  -22.0603   -2.7620   23.2840 H   0  0  0  0  0  0
  -22.4000  -11.9963   22.4802 H   0  0  0  0  0  0
  -21.1091  -13.1421   22.2538 H   0  0  0  0  0  0
  -24.6760  -15.8470   20.5540 H   0  0  0  0  0  0
  -26.2956  -15.6267   20.1218 H   0  0  0  0  0  0
  -26.7177  -32.5505   23.1150 H   0  0  0  0  0  0
  -25.0243  -33.9739   25.0563 H   0  0  0  0  0  0
  -22.7059  -31.3129   21.4109 H   0  0  0  0  0  0
  -23.3752  -35.9615   23.3293 H   0  0  0  0  0  0
  -24.3581  -36.8886   22.2046 H   0  0  0  0  0  0
  -23.7240  -37.6493   23.6629 H   0  0  0  0  0  0
  -26.0828  -31.5552   20.6133 H   0  0  0  0  0  0
  -26.8335  -30.8469   22.0133 H   0  0  0  0  0  0
  -28.1057  -28.9931   21.2190 H   0  0  0  0  0  0
  -26.0407  -26.0816   18.8148 H   0  0  0  0  0  0
  -23.9910  -27.3592   18.9493 H   0  0  0  0  0  0
  -23.7503  -30.6001   19.4092 H   0  0  0  0  0  0
  -22.7490  -29.2548   19.8653 H   0  0  0  0  0  0
  -25.1286  -36.1945   25.0827 H   0  0  0  0  0  0
  -20.9966  -28.3241   24.1400 H   0  0  0  0  0  0
  -20.5655  -26.2277   23.3584 H   0  0  0  0  0  0
  -21.6648  -26.7440   22.1189 H   0  0  0  0  0  0
  -19.6885  -25.6286   21.1239 H   0  0  0  0  0  0
  -19.6681  -27.3177   20.6716 H   0  0  0  0  0  0
  -17.4197  -26.6692   21.4018 H   0  0  0  0  0  0
  -18.0314  -26.0040   22.8979 H   0  0  0  0  0  0
  -19.7923  -30.7269   24.2254 H   0  0  0  0  0  0
  -17.5009  -31.6265   24.5148 H   0  0  0  0  0  0
  -15.5339  -30.2980   23.7659 H   0  0  0  0  0  0
  -15.8668  -28.0799   22.7111 H   0  0  0  0  0  0
  -24.5970  -30.7019   25.7854 H   0  0  0  0  0  0
  -24.8939  -32.2865   26.4915 H   0  0  0  0  0  0
  -25.8144  -30.8933   27.0265 H   0  0  0  0  0  0
  -26.2891  -29.6765   24.1216 H   0  0  0  0  0  0
  -27.4051  -29.7257   25.4670 H   0  0  0  0  0  0
  -27.8765  -30.4273   23.9363 H   0  0  0  0  0  0
  -27.2696  -33.3627   26.2065 H   0  0  0  0  0  0
  -28.3905  -32.6853   25.0347 H   0  0  0  0  0  0
  -28.0716  -31.8447   26.5454 H   0  0  0  0  0  0
  -28.2606  -38.0100   24.7513 H   0  0  0  0  0  0
  -28.1075  -36.2629   24.6302 H   0  0  0  0  0  0
  -27.2292  -37.1468   25.8871 H   0  0  0  0  0  0
  -20.9317  -29.8797   21.6933 H   0  0  0  0  0  0
  -26.0171  -38.2853   24.1428 H   0  0  0  0  0  0
  -30.9197  -19.9238   19.8030 H   0  0  0  0  0  0
  -31.8264  -17.5825   20.3462 H   0  0  0  0  0  0
  -25.9667  -24.2297   19.7075 H   0  0  0  0  0  0
  -27.3835  -24.3696   18.6367 H   0  0  0  0  0  0
  -26.9406  -22.1947   18.0873 H   0  0  0  0  0  0
  -25.8760  -21.9896   19.4748 H   0  0  0  0  0  0
  -29.1107  -22.2992   21.5534 H   0  0  0  0  0  0
  -29.6246  -22.8473   19.9647 H   0  0  0  0  0  0
  -27.0517  -22.0090   22.5749 H   0  0  0  0  0  0
  -25.6214  -22.5342   21.6579 H   0  0  0  0  0  0
  -25.8719  -23.0725   23.3066 H   0  0  0  0  0  0
  -29.6793  -25.1802   20.6562 H   0  0  0  0  0  0
  -28.6003  -25.7315   21.8653 H   0  0  0  0  0  0
  -29.0252  -15.1724   21.5020 H   0  0  0  0  0  0
  -26.9320  -18.6838   18.9679 H   0  0  0  0  0  0
  -26.1870  -20.2184   18.7026 H   0  0  0  0  0  0
  1 25  1  0  0  0
  1 30  2  0  0  0
  1 83  1  0  0  0
  2  3  1  0  0  0
  2 25  1  0  0  0
  2 87  1  0  0  0
  2 88  1  0  0  0
  3  4  1  0  0  0
  3 89  1  0  0  0
  3 90  1  0  0  0
  4  5  1  0  0  0
  4 91  1  0  0  0
  4 92  1  0  0  0
  5  6  1  0  0  0
  5 26  1  0  0  0
  5 93  1  0  0  0
  6 25  1  0  0  0
  6 94  1  0  0  0
  6 95  1  0  0  0
  7  8  2  0  0  0
  7 26  1  0  0  0
  7 29  1  0  0  0
  8  9  1  0  0  0
  8 22  1  0  0  0
  9 10  1  0  0  0
  9 27  2  0  0  0
 10 11  2  0  0  0
 10 15  1  0  0  0
 11 12  1  0  0  0
 11 96  1  0  0  0
 12 13  2  0  0  0
 12 97  1  0  0  0
 13 14  1  0  0  0
 13 31  1  0  0  0
 14 15  2  0  0  0
 14 98  1  0  0  0
 15 99  1  0  0  0
 16 17  2  0  0  0
 16 21  1  0  0  0
 16 31  1  0  0  0
 17 18  1  0  0  0
 17100  1  0  0  0
 18 19  2  0  0  0
 18101  1  0  0  0
 19 20  1  0  0  0
 19 24  1  0  0  0
 20 21  2  0  0  0
 20102  1  0  0  0
 21 23  1  0  0  0
 22 28  1  0  0  0
 22 32  2  0  0  0
 26 27  1  0  0  0
 28103  1  0  0  0
 28104  1  0  0  0
 29105  1  0  0  0
 29106  1  0  0  0
 33 34  1  0  0  0
 33 66  1  0  0  0
 33 70  2  0  0  0
 34 36  1  0  0  0
 34 59  1  0  0  0
 34107  1  0  0  0
 35 44  2  0  0  0
 35 45  1  0  0  0
 35 68  1  0  0  0
 36 56  1  0  0  0
 36108  1  0  0  0
 37 39  1  0  0  0
 37 47  1  0  0  0
 37 66  1  0  0  0
 37109  1  0  0  0
 38 43  2  0  0  0
 38 46  1  0  0  0
 38 47  1  0  0  0
 39 64  1  0  0  0
 39 67  2  0  0  0
 40 52  1  0  0  0
 40 53  2  0  0  0
 40 58  1  0  0  0
 41110  1  0  0  0
 41111  1  0  0  0
 41112  1  0  0  0
 41 48  1  0  0  0
 42 43  1  0  0  0
 42 66  1  0  0  0
 42113  1  0  0  0
 42114  1  0  0  0
 43 44  1  0  0  0
 44115  1  0  0  0
 45 46  2  0  0  0
 45116  1  0  0  0
 46117  1  0  0  0
 47118  1  0  0  0
 47119  1  0  0  0
 48 56  1  0  0  0
 48 65  1  0  0  0
 48120  1  0  0  0
 49 50  1  0  0  0
 49 53  1  0  0  0
 49 64  1  0  0  0
 49121  1  0  0  0
 50 51  1  0  0  0
 50122  1  0  0  0
 50123  1  0  0  0
 51 52  1  0  0  0
 51124  1  0  0  0
 51125  1  0  0  0
 52126  1  0  0  0
 52127  1  0  0  0
 53 54  1  0  0  0
 54 55  2  0  0  0
 54128  1  0  0  0
 55 57  1  0  0  0
 55129  1  0  0  0
 56 69  2  0  0  0
 57 58  2  0  0  0
 57130  1  0  0  0
 58131  1  0  0  0
 59 60  1  0  0  0
 59 61  1  0  0  0
 59 62  1  0  0  0
 60132  1  0  0  0
 60133  1  0  0  0
 60134  1  0  0  0
 61135  1  0  0  0
 61136  1  0  0  0
 61137  1  0  0  0
 62138  1  0  0  0
 62139  1  0  0  0
 62140  1  0  0  0
 63 65  1  0  0  0
 63141  1  0  0  0
 63142  1  0  0  0
 63143  1  0  0  0
 64144  1  0  0  0
 65145  1  0  0  0
 68 81  1  0  0  0
 71 72  1  0  0  0
 71 73  2  0  0  0
 71146  1  0  0  0
 72 74  2  0  0  0
 72147  1  0  0  0
 73 75  1  0  0  0
 73 86  1  0  0  0
 74 83  1  0  0  0
 74 86  1  0  0  0
 75 82  1  0  0  0
 75 84  2  0  0  0
 76 77  1  0  0  0
 76 79  1  0  0  0
 76148  1  0  0  0
 76149  1  0  0  0
 77 82  1  0  0  0
 77150  1  0  0  0
 77151  1  0  0  0
 78 79  1  0  0  0
 78 82  1  0  0  0
 78152  1  0  0  0
 78153  1  0  0  0
 79 81  1  0  0  0
 79 85  1  0  0  0
 80 85  1  0  0  0
 80154  1  0  0  0
 80155  1  0  0  0
 80156  1  0  0  0
 81157  1  0  0  0
 81158  1  0  0  0
 83159  1  0  0  0
 84160  1  0  0  0
 84161  1  0  0  0
M  CHG  1  84   1
M  ISO  4   1 100  68 101  81 101  83 100
M  END
> <chiral flag>
0

> <version>
0

> <s_m_source_file>
/data/baiqing/PycharmProjects/Reinvent-master-3.2/result/LINK_invent/BTK/process_docking_weight1_custom_product_contain_oxygen_bond_distance_aromatic_linkinvent_7_9_3/rearranged_h_0151.sdf

> <i_m_source_file_index>
77

> <r_mmod_Potential_Energy-OPLS-2005>
65.54833984375

> <r_mmod_Stretch_Energy-OPLS-2005>
64.5714645385742

> <r_mmod_Bend_Energy-OPLS-2005>
213.622497558594

> <r_mmod_Torsional_Energy-OPLS-2005>
338.774536132812

> <r_mmod_Improper_Torsional_Energy-OPLS-2005>
6.29733419418335

> <r_mmod_Van_der_Waal_Energy-OPLS-2005>
135.713012695312

> <r_mmod_Electrostatic_Energy-OPLS-2005>
-259.500183105469

> <r_mmod_Solvation_Energy-OPLS-2005>
-462.699127197266

> <b_mmod_Minimization_Converged-OPLS-2005>
0

> <r_mmod_RMS_Derivative-OPLS-2005>
2.26056122779846

$$$$
77
                    3D
 Structure written by MMmdl.
162171  0  0  1  0            999 V2000
  -30.6823  -14.5493   20.5499 C   0  0  0  0  0  0
  -30.4281  -12.3574   19.4177 C   0  0  0  0  0  0
  -29.4909  -12.4977   18.2009 C   0  0  0  0  0  0
  -28.0161  -12.3437   18.6254 C   0  0  0  0  0  0
  -27.6526  -13.2109   19.8596 C   0  0  2  0  0  0
  -28.6996  -13.0432   20.9810 C   0  0  0  0  0  0
  -25.2570  -13.8161   20.5690 C   0  0  0  0  0  0
  -24.1823  -13.0430   20.9186 C   0  0  0  0  0  0
  -24.6380  -11.6908   20.8736 C   0  0  0  0  0  0
  -23.9048  -10.4291   21.0407 C   0  0  0  0  0  0
  -24.3612   -9.4211   21.9177 C   0  0  0  0  0  0
  -23.6295   -8.2241   22.0740 C   0  0  0  0  0  0
  -22.4275   -8.0274   21.3537 C   0  0  0  0  0  0
  -21.9912   -9.0240   20.4640 C   0  0  0  0  0  0
  -22.7230  -10.2121   20.3054 C   0  0  0  0  0  0
  -21.6849   -6.0733   22.5287 C   0  0  0  0  0  0
  -21.4005   -6.5636   23.8220 C   0  0  0  0  0  0
  -21.3662   -5.6787   24.9179 C   0  0  0  0  0  0
  -21.6046   -4.3052   24.7228 C   0  0  0  0  0  0
  -21.8822   -3.8147   23.4349 C   0  0  0  0  0  0
  -21.9189   -4.6966   22.3409 C   0  0  0  0  0  0
  -22.7857  -13.5227   21.1854 C   0  0  0  0  0  0
  -22.1667   -4.2149   21.0988 F   0  0  0  0  0  0
  -21.5624   -3.4539   25.7737 F   0  0  0  0  0  0
  -30.0179  -13.3651   20.4110 N   0  0  0  0  0  0
  -26.2985  -12.9333   20.3314 N   0  0  0  0  0  0
  -25.9304  -11.6493   20.5757 N   0  0  0  0  0  0
  -22.0497  -12.8214   22.0414 N   0  0  0  0  0  0
  -25.4290  -15.1873   20.4110 N   0  0  0  0  0  0
  -31.8428  -14.7034   20.1633 O   0  0  0  0  0  0
  -21.6642   -6.8865   21.4247 O   0  0  0  0  0  0
  -22.3551  -14.5535   20.6703 O   0  0  0  0  0  0
  -24.6200  -31.8639   23.2042 C   0  0  0  0  0  0
  -25.9089  -32.4786   23.8348 C   0  0  1  0  0  0
  -27.2320  -27.3767   20.1250 C   0  0  0  0  0  0
  -25.5940  -33.8581   24.2300 N   0  0  0  0  0  0
  -23.4107  -30.4847   21.5458 C   0  0  2  0  0  0
  -24.8588  -28.9410   20.1162 C   0  0  0  0  0  0
  -22.7450  -29.4630   22.4968 C   0  0  0  0  0  0
  -18.0278  -28.1359   22.8505 C   0  0  0  0  0  0
  -24.1486  -36.7276   23.2636 C   0  0  0  0  0  0
  -25.9445  -30.8137   21.3659 C   0  0  0  0  0  0
  -26.0211  -29.4422   20.7159 C   0  0  0  0  0  0
  -27.2125  -28.6687   20.7154 C   0  0  0  0  0  0
  -26.0521  -26.9097   19.5050 C   0  0  0  0  0  0
  -24.8721  -27.6766   19.5048 C   0  0  0  0  0  0
  -23.6212  -29.8123   20.1627 C   0  0  0  0  0  0
  -25.4114  -36.3082   24.0344 C   0  0  1  0  0  0
  -20.5874  -28.3657   23.1300 C   0  0  2  0  0  0
  -20.6770  -26.9387   22.5419 C   0  0  0  0  0  0
  -19.5744  -26.6371   21.5219 C   0  0  0  0  0  0
  -18.1916  -26.7909   22.1633 C   0  0  0  0  0  0
  -19.1529  -28.8835   23.2893 C   0  0  0  0  0  0
  -18.9452  -30.1443   23.8885 C   0  0  0  0  0  0
  -17.6455  -30.6572   24.0552 C   0  0  0  0  0  0
  -25.9040  -34.9447   23.5112 C   0  0  0  0  0  0
  -16.5340  -29.9065   23.6338 C   0  0  0  0  0  0
  -16.7259  -28.6479   23.0355 C   0  0  0  0  0  0
  -26.4512  -31.6567   25.0681 C   0  0  0  0  0  0
  -25.3775  -31.3732   26.1430 C   0  0  0  0  0  0
  -27.0330  -30.2991   24.6091 C   0  0  0  0  0  0
  -27.6078  -32.4285   25.7446 C   0  0  0  0  0  0
  -27.5588  -37.1790   24.8466 C   0  0  0  0  0  0
  -21.4168  -29.3014   22.3712 N   0  0  0  0  0  0
  -26.4296  -37.3782   23.9421 N   0  0  0  0  0  0
  -24.6763  -31.0707   22.0953 N   0  0  0  0  0  0
  -23.4207  -28.8182   23.3028 O   0  0  0  0  0  0
  -28.3702  -26.5782   20.1287 O   0  0  0  0  0  0
  -26.5582  -34.8944   22.4664 O   0  0  0  0  0  0
  -23.5390  -32.1378   23.7450 O   0  0  0  0  0  0
  -30.9557  -18.5109   19.6574 C   0  0  0  0  0  0
  -30.7912  -19.8882   19.2656 C   0  0  0  0  0  0
  -30.3024  -18.1632   20.8098 C   0  0  0  0  0  0
  -29.9910  -20.6296   20.1198 C   0  0  0  0  0  0
  -28.2402  -25.2446   20.5221 C   0  0  0  0  0  0
  -29.0956  -24.2479   20.1585 C   0  0  0  0  0  0
  -28.9124  -22.8420   20.6066 C   0  0  0  0  0  0
  -32.9205  -20.5385   16.2514 C   0  0  0  0  0  0
  -31.6054  -21.2161   15.8705 C   0  0  0  0  0  0
  -32.5062  -19.6485   17.4205 C   0  0  0  0  0  0
  -30.8577  -21.3600   17.2031 C   0  0  0  0  0  0
  -30.4474  -16.8636   21.6029 C   0  0  0  0  0  0
  -31.4604  -20.3921   18.1168 N   0  0  0  0  0  0
  -29.7774  -21.9866   20.0090 N   0  0  0  0  0  0
  -29.9523  -15.5903   21.0228 N   0  0  0  0  0  0
  -28.0665  -22.4719   21.4226 O   0  0  0  0  0  0
  -30.1335  -24.5545   19.3655 O   0  0  0  0  0  0
  -29.3968  -19.5602   21.3997 S   0  0  0  0  0  0
  -31.4672  -12.4773   19.1073 H   0  0  0  0  0  0
  -30.3575  -11.3564   19.8451 H   0  0  0  0  0  0
  -29.7394  -11.7518   17.4438 H   0  0  0  0  0  0
  -29.6397  -13.4713   17.7313 H   0  0  0  0  0  0
  -27.8484  -11.2891   18.8540 H   0  0  0  0  0  0
  -27.3563  -12.5769   17.7885 H   0  0  0  0  0  0
  -27.6798  -14.2488   19.5274 H   0  0  0  0  0  0
  -28.7000  -12.0188   21.3556 H   0  0  0  0  0  0
  -28.4545  -13.6689   21.8399 H   0  0  0  0  0  0
  -25.2752   -9.5685   22.4753 H   0  0  0  0  0  0
  -24.0009   -7.4626   22.7460 H   0  0  0  0  0  0
  -21.0842   -8.8748   19.8952 H   0  0  0  0  0  0
  -22.3681  -10.9650   19.6163 H   0  0  0  0  0  0
  -21.1997   -7.6145   23.9717 H   0  0  0  0  0  0
  -21.1479   -6.0520   25.9075 H   0  0  0  0  0  0
  -22.0595   -2.7610   23.2851 H   0  0  0  0  0  0
  -22.4107  -11.9866   22.4791 H   0  0  0  0  0  0
  -21.1118  -13.1241   22.2619 H   0  0  0  0  0  0
  -24.6631  -15.8435   20.5219 H   0  0  0  0  0  0
  -26.2787  -15.6277   20.0811 H   0  0  0  0  0  0
  -26.7148  -32.5498   23.1104 H   0  0  0  0  0  0
  -25.0201  -33.9705   25.0526 H   0  0  0  0  0  0
  -22.7018  -31.3033   21.4056 H   0  0  0  0  0  0
  -23.3762  -35.9582   23.3269 H   0  0  0  0  0  0
  -24.3616  -36.8905   22.2054 H   0  0  0  0  0  0
  -23.7204  -37.6478   23.6644 H   0  0  0  0  0  0
  -26.0666  -31.5768   20.5955 H   0  0  0  0  0  0
  -26.8300  -30.8667   21.9874 H   0  0  0  0  0  0
  -28.1104  -29.0465   21.1834 H   0  0  0  0  0  0
  -26.0398  -25.9399   19.0288 H   0  0  0  0  0  0
  -23.9803  -27.2827   19.0367 H   0  0  0  0  0  0
  -23.7301  -30.5828   19.3988 H   0  0  0  0  0  0
  -22.7446  -29.2312   19.8687 H   0  0  0  0  0  0
  -25.1283  -36.1946   25.0835 H   0  0  0  0  0  0
  -20.9968  -28.3204   24.1425 H   0  0  0  0  0  0
  -20.5703  -26.2242   23.3598 H   0  0  0  0  0  0
  -21.6637  -26.7430   22.1193 H   0  0  0  0  0  0
  -19.6892  -25.6296   21.1215 H   0  0  0  0  0  0
  -19.6669  -27.3217   20.6774 H   0  0  0  0  0  0
  -17.4199  -26.6675   21.4012 H   0  0  0  0  0  0
  -18.0300  -26.0045   22.9015 H   0  0  0  0  0  0
  -19.7937  -30.7270   24.2228 H   0  0  0  0  0  0
  -17.5010  -31.6250   24.5149 H   0  0  0  0  0  0
  -15.5347  -30.2948   23.7674 H   0  0  0  0  0  0
  -15.8672  -28.0796   22.7061 H   0  0  0  0  0  0
  -24.5932  -30.7077   25.7807 H   0  0  0  0  0  0
  -24.8992  -32.2914   26.4835 H   0  0  0  0  0  0
  -25.8134  -30.8947   27.0205 H   0  0  0  0  0  0
  -26.2866  -29.6742   24.1170 H   0  0  0  0  0  0
  -27.4097  -29.7251   25.4567 H   0  0  0  0  0  0
  -27.8712  -30.4263   23.9237 H   0  0  0  0  0  0
  -27.2704  -33.3632   26.1936 H   0  0  0  0  0  0
  -28.3948  -32.6752   25.0304 H   0  0  0  0  0  0
  -28.0649  -31.8441   26.5443 H   0  0  0  0  0  0
  -28.2581  -38.0109   24.7584 H   0  0  0  0  0  0
  -28.1111  -36.2665   24.6200 H   0  0  0  0  0  0
  -27.2327  -37.1312   25.8869 H   0  0  0  0  0  0
  -20.9327  -29.8725   21.6924 H   0  0  0  0  0  0
  -26.0175  -38.2852   24.1457 H   0  0  0  0  0  0
  -31.5876  -17.8229   19.1162 H   0  0  0  0  0  0
  -27.3783  -25.0789   21.1561 H   0  0  0  0  0  0
  -33.6503  -21.2809   16.5822 H   0  0  0  0  0  0
  -33.3695  -19.9759   15.4299 H   0  0  0  0  0  0
  -31.0398  -20.5672   15.1991 H   0  0  0  0  0  0
  -31.7501  -22.1699   15.3612 H   0  0  0  0  0  0
  -33.3524  -19.4126   18.0696 H   0  0  0  0  0  0
  -32.0974  -18.7086   17.0431 H   0  0  0  0  0  0
  -29.7869  -21.1844   17.0813 H   0  0  0  0  0  0
  -30.9848  -22.3701   17.5934 H   0  0  0  0  0  0
  -29.9431  -16.9870   22.5617 H   0  0  0  0  0  0
  -31.4991  -16.7355   21.8669 H   0  0  0  0  0  0
  -30.3720  -22.4536   19.3381 H   0  0  0  0  0  0
  -28.9813  -15.3843   21.2020 H   0  0  0  0  0  0
  -30.0823  -25.4891   19.2059 H   0  0  0  0  0  0
  1 25  1  0  0  0
  1 30  2  0  0  0
  1 85  1  0  0  0
  2  3  1  0  0  0
  2 25  1  0  0  0
  2 89  1  0  0  0
  2 90  1  0  0  0
  3  4  1  0  0  0
  3 91  1  0  0  0
  3 92  1  0  0  0
  4  5  1  0  0  0
  4 93  1  0  0  0
  4 94  1  0  0  0
  5  6  1  0  0  0
  5 26  1  0  0  0
  5 95  1  0  0  0
  6 25  1  0  0  0
  6 96  1  0  0  0
  6 97  1  0  0  0
  7  8  2  0  0  0
  7 26  1  0  0  0
  7 29  1  0  0  0
  8  9  1  0  0  0
  8 22  1  0  0  0
  9 10  1  0  0  0
  9 27  2  0  0  0
 10 11  2  0  0  0
 10 15  1  0  0  0
 11 12  1  0  0  0
 11 98  1  0  0  0
 12 13  2  0  0  0
 12 99  1  0  0  0
 13 14  1  0  0  0
 13 31  1  0  0  0
 14 15  2  0  0  0
 14100  1  0  0  0
 15101  1  0  0  0
 16 17  2  0  0  0
 16 21  1  0  0  0
 16 31  1  0  0  0
 17 18  1  0  0  0
 17102  1  0  0  0
 18 19  2  0  0  0
 18103  1  0  0  0
 19 20  1  0  0  0
 19 24  1  0  0  0
 20 21  2  0  0  0
 20104  1  0  0  0
 21 23  1  0  0  0
 22 28  1  0  0  0
 22 32  2  0  0  0
 26 27  1  0  0  0
 28105  1  0  0  0
 28106  1  0  0  0
 29107  1  0  0  0
 29108  1  0  0  0
 33 34  1  0  0  0
 33 66  1  0  0  0
 33 70  2  0  0  0
 34 36  1  0  0  0
 34 59  1  0  0  0
 34109  1  0  0  0
 35 44  2  0  0  0
 35 45  1  0  0  0
 35 68  1  0  0  0
 36 56  1  0  0  0
 36110  1  0  0  0
 37 39  1  0  0  0
 37 47  1  0  0  0
 37 66  1  0  0  0
 37111  1  0  0  0
 38 43  2  0  0  0
 38 46  1  0  0  0
 38 47  1  0  0  0
 39 64  1  0  0  0
 39 67  2  0  0  0
 40 52  1  0  0  0
 40 53  2  0  0  0
 40 58  1  0  0  0
 41112  1  0  0  0
 41113  1  0  0  0
 41114  1  0  0  0
 41 48  1  0  0  0
 42 43  1  0  0  0
 42 66  1  0  0  0
 42115  1  0  0  0
 42116  1  0  0  0
 43 44  1  0  0  0
 44117  1  0  0  0
 45 46  2  0  0  0
 45118  1  0  0  0
 46119  1  0  0  0
 47120  1  0  0  0
 47121  1  0  0  0
 48 56  1  0  0  0
 48 65  1  0  0  0
 48122  1  0  0  0
 49 50  1  0  0  0
 49 53  1  0  0  0
 49 64  1  0  0  0
 49123  1  0  0  0
 50 51  1  0  0  0
 50124  1  0  0  0
 50125  1  0  0  0
 51 52  1  0  0  0
 51126  1  0  0  0
 51127  1  0  0  0
 52128  1  0  0  0
 52129  1  0  0  0
 53 54  1  0  0  0
 54 55  2  0  0  0
 54130  1  0  0  0
 55 57  1  0  0  0
 55131  1  0  0  0
 56 69  2  0  0  0
 57 58  2  0  0  0
 57132  1  0  0  0
 58133  1  0  0  0
 59 60  1  0  0  0
 59 61  1  0  0  0
 59 62  1  0  0  0
 60134  1  0  0  0
 60135  1  0  0  0
 60136  1  0  0  0
 61137  1  0  0  0
 61138  1  0  0  0
 61139  1  0  0  0
 62140  1  0  0  0
 62141  1  0  0  0
 62142  1  0  0  0
 63 65  1  0  0  0
 63143  1  0  0  0
 63144  1  0  0  0
 63145  1  0  0  0
 64146  1  0  0  0
 65147  1  0  0  0
 68 75  1  0  0  0
 71 72  1  0  0  0
 71 73  2  0  0  0
 71148  1  0  0  0
 72 74  2  0  0  0
 72 83  1  0  0  0
 73 82  1  0  0  0
 73 88  1  0  0  0
 74 84  1  0  0  0
 74 88  1  0  0  0
 75 76  2  0  0  0
 75149  1  0  0  0
 76 77  1  0  0  0
 76 87  1  0  0  0
 77 84  1  0  0  0
 77 86  2  0  0  0
 78 79  1  0  0  0
 78 80  1  0  0  0
 78150  1  0  0  0
 78151  1  0  0  0
 79 81  1  0  0  0
 79152  1  0  0  0
 79153  1  0  0  0
 80 83  1  0  0  0
 80154  1  0  0  0
 80155  1  0  0  0
 81 83  1  0  0  0
 81156  1  0  0  0
 81157  1  0  0  0
 82 85  1  0  0  0
 82158  1  0  0  0
 82159  1  0  0  0
 84160  1  0  0  0
 85161  1  0  0  0
 87162  1  0  0  0
M  ISO  4   1 100  68 101  75 101  85 100
M  END
> <chiral flag>
0

> <version>
0

> <s_m_source_file>
/data/baiqing/PycharmProjects/Reinvent-master-3.2/result/LINK_invent/BTK/process_docking_weight1_custom_product_contain_oxygen_bond_distance_aromatic_linkinvent_7_9_3/rearranged_h_0151.sdf

> <i_m_source_file_index>
78

> <r_mmod_Potential_Energy-OPLS-2005>
-125.519134521484

> <r_mmod_Stretch_Energy-OPLS-2005>
50.4410934448242

> <r_mmod_Bend_Energy-OPLS-2005>
151.554473876953

> <r_mmod_Torsional_Energy-OPLS-2005>
266.956146240234

> <r_mmod_Improper_Torsional_Energy-OPLS-2005>
5.67925977706909

> <r_mmod_Van_der_Waal_Energy-OPLS-2005>
128.929382324219

> <r_mmod_Electrostatic_Energy-OPLS-2005>
-515.072448730469

> <r_mmod_Solvation_Energy-OPLS-2005>
-240.415725708008

> <b_mmod_Minimization_Converged-OPLS-2005>
0

> <r_mmod_RMS_Derivative-OPLS-2005>
2.96601247787476

$$$$
78
                    3D
 Structure written by MMmdl.
154163  0  0  1  0            999 V2000
  -30.6498  -14.6088   20.5611 C   0  0  0  0  0  0
  -30.4392  -12.3851   19.4576 C   0  0  0  0  0  0
  -29.5121  -12.5262   18.2303 C   0  0  0  0  0  0
  -28.0332  -12.3637   18.6336 C   0  0  0  0  0  0
  -27.6563  -13.2193   19.8701 C   0  0  2  0  0  0
  -28.6979  -13.0492   21.0017 C   0  0  0  0  0  0
  -25.2444  -13.8086   20.5559 C   0  0  0  0  0  0
  -24.1788  -13.0372   20.9235 C   0  0  0  0  0  0
  -24.6401  -11.6865   20.8783 C   0  0  0  0  0  0
  -23.9074  -10.4256   21.0427 C   0  0  0  0  0  0
  -24.3613   -9.4174   21.9201 C   0  0  0  0  0  0
  -23.6280   -8.2215   22.0764 C   0  0  0  0  0  0
  -22.4264   -8.0267   21.3549 C   0  0  0  0  0  0
  -21.9905   -9.0247   20.4654 C   0  0  0  0  0  0
  -22.7248  -10.2117   20.3071 C   0  0  0  0  0  0
  -21.6848   -6.0726   22.5278 C   0  0  0  0  0  0
  -21.4008   -6.5626   23.8212 C   0  0  0  0  0  0
  -21.3660   -5.6781   24.9173 C   0  0  0  0  0  0
  -21.6046   -4.3046   24.7220 C   0  0  0  0  0  0
  -21.8819   -3.8139   23.4341 C   0  0  0  0  0  0
  -21.9192   -4.6956   22.3402 C   0  0  0  0  0  0
  -22.7809  -13.5185   21.1861 C   0  0  0  0  0  0
  -22.1661   -4.2146   21.0976 F   0  0  0  0  0  0
  -21.5631   -3.4529   25.7734 F   0  0  0  0  0  0
  -30.0277  -13.3892   20.4602 N   0  0  0  0  0  0
  -26.2969  -12.9345   20.3293 N   0  0  0  0  0  0
  -25.9333  -11.6503   20.5774 N   0  0  0  0  0  0
  -22.0431  -12.8214   22.0422 N   0  0  0  0  0  0
  -25.3829  -15.1754   20.3608 N   0  0  0  0  0  0
  -31.7597  -14.8125   20.0572 O   0  0  0  0  0  0
  -21.6629   -6.8867   21.4243 O   0  0  0  0  0  0
  -22.3528  -14.5500   20.6692 O   0  0  0  0  0  0
  -24.6221  -31.8623   23.2035 C   0  0  0  0  0  0
  -25.9087  -32.4790   23.8359 C   0  0  1  0  0  0
  -27.2375  -27.3539   20.1162 C   0  0  0  0  0  0
  -25.5916  -33.8585   24.2285 N   0  0  0  0  0  0
  -23.4141  -30.4833   21.5459 C   0  0  2  0  0  0
  -24.8627  -28.9362   20.1171 C   0  0  0  0  0  0
  -22.7457  -29.4635   22.4970 C   0  0  0  0  0  0
  -18.0279  -28.1394   22.8489 C   0  0  0  0  0  0
  -24.1486  -36.7301   23.2633 C   0  0  0  0  0  0
  -25.9504  -30.8037   21.3693 C   0  0  0  0  0  0
  -26.0269  -29.4308   20.7170 C   0  0  0  0  0  0
  -27.2157  -28.6514   20.7054 C   0  0  0  0  0  0
  -26.0512  -26.8992   19.4967 C   0  0  0  0  0  0
  -24.8748  -27.6751   19.4997 C   0  0  0  0  0  0
  -23.6280  -29.8119   20.1627 C   0  0  0  0  0  0
  -25.4108  -36.3089   24.0328 C   0  0  1  0  0  0
  -20.5876  -28.3691   23.1306 C   0  0  2  0  0  0
  -20.6771  -26.9421   22.5421 C   0  0  0  0  0  0
  -19.5748  -26.6398   21.5219 C   0  0  0  0  0  0
  -18.1924  -26.7941   22.1625 C   0  0  0  0  0  0
  -19.1529  -28.8861   23.2892 C   0  0  0  0  0  0
  -18.9458  -30.1464   23.8905 C   0  0  0  0  0  0
  -17.6459  -30.6594   24.0573 C   0  0  0  0  0  0
  -25.9039  -34.9458   23.5106 C   0  0  0  0  0  0
  -16.5348  -29.9099   23.6330 C   0  0  0  0  0  0
  -16.7267  -28.6515   23.0347 C   0  0  0  0  0  0
  -26.4481  -31.6593   25.0721 C   0  0  0  0  0  0
  -25.3723  -31.3773   26.1467 C   0  0  0  0  0  0
  -27.0290  -30.3002   24.6170 C   0  0  0  0  0  0
  -27.6051  -32.4324   25.7487 C   0  0  0  0  0  0
  -27.5584  -37.1797   24.8457 C   0  0  0  0  0  0
  -21.4176  -29.3038   22.3705 N   0  0  0  0  0  0
  -26.4287  -37.3783   23.9412 N   0  0  0  0  0  0
  -24.6802  -31.0668   22.0964 N   0  0  0  0  0  0
  -23.4197  -28.8180   23.3042 O   0  0  0  0  0  0
  -28.4012  -26.5828   20.1172 O   0  0  0  0  0  0
  -26.5609  -34.8922   22.4674 O   0  0  0  0  0  0
  -23.5395  -32.1404   23.7384 O   0  0  0  0  0  0
  -28.2627  -17.1654   20.5487 C   0  0  0  0  0  0
  -29.5840  -16.9151   20.8036 C   0  0  0  0  0  0
  -29.6107  -19.2395   20.5228 C   0  0  0  0  0  0
  -29.6258  -24.4162   19.7443 C   0  0  0  0  0  0
  -30.9109  -20.9641   19.1480 C   0  0  0  0  0  0
  -31.0415  -22.4932   19.1189 C   0  0  0  0  0  0
  -29.1613  -21.9237   20.4626 C   0  0  0  0  0  0
  -30.1429  -20.6822   20.4264 C   0  0  1  0  0  0
  -28.3326  -25.1159   20.2779 C   0  0  0  0  0  0
  -30.3451  -18.1203   20.8043 N   0  0  0  0  0  0
  -29.8666  -23.0582   19.8021 N   0  0  0  0  0  0
  -29.9572  -15.5780   21.2236 N   0  0  0  0  0  0
  -30.4604  -25.1544   19.2064 O   0  0  0  0  0  0
  -27.9300  -18.8404   20.1916 S   0  0  0  0  0  0
  -31.4822  -12.5040   19.1579 H   0  0  0  0  0  0
  -30.3656  -11.3822   19.8796 H   0  0  0  0  0  0
  -29.7752  -11.7873   17.4733 H   0  0  0  0  0  0
  -29.6630  -13.5038   17.7700 H   0  0  0  0  0  0
  -27.8599  -11.3088   18.8488 H   0  0  0  0  0  0
  -27.3849  -12.6134   17.7929 H   0  0  0  0  0  0
  -27.6831  -14.2597   19.5482 H   0  0  0  0  0  0
  -28.6982  -12.0206   21.3635 H   0  0  0  0  0  0
  -28.4292  -13.6583   21.8655 H   0  0  0  0  0  0
  -25.2740   -9.5652   22.4798 H   0  0  0  0  0  0
  -23.9983   -7.4600   22.7478 H   0  0  0  0  0  0
  -21.0838   -8.8775   19.8954 H   0  0  0  0  0  0
  -22.3703  -10.9667   19.6195 H   0  0  0  0  0  0
  -21.1993   -7.6134   23.9713 H   0  0  0  0  0  0
  -21.1487   -6.0507   25.9074 H   0  0  0  0  0  0
  -22.0598   -2.7603   23.2843 H   0  0  0  0  0  0
  -22.4011  -11.9881   22.4848 H   0  0  0  0  0  0
  -21.1058  -13.1289   22.2607 H   0  0  0  0  0  0
  -24.5297  -15.7245   20.3624 H   0  0  0  0  0  0
  -26.0311  -15.4947   19.6537 H   0  0  0  0  0  0
  -26.7163  -32.5476   23.1117 H   0  0  0  0  0  0
  -25.0082  -33.9740   25.0445 H   0  0  0  0  0  0
  -22.7050  -31.3011   21.4005 H   0  0  0  0  0  0
  -23.3743  -35.9640   23.3296 H   0  0  0  0  0  0
  -24.3576  -36.8920   22.2046 H   0  0  0  0  0  0
  -23.7245  -37.6508   23.6650 H   0  0  0  0  0  0
  -26.0746  -31.5665   20.5992 H   0  0  0  0  0  0
  -26.8324  -30.8559   21.9959 H   0  0  0  0  0  0
  -28.1135  -29.0334   21.1707 H   0  0  0  0  0  0
  -26.0141  -25.9482   18.9882 H   0  0  0  0  0  0
  -23.9836  -27.2953   19.0192 H   0  0  0  0  0  0
  -23.7451  -30.5828   19.4003 H   0  0  0  0  0  0
  -22.7507  -29.2355   19.8652 H   0  0  0  0  0  0
  -25.1285  -36.1940   25.0821 H   0  0  0  0  0  0
  -20.9953  -28.3262   24.1435 H   0  0  0  0  0  0
  -20.5683  -26.2299   23.3615 H   0  0  0  0  0  0
  -21.6645  -26.7469   22.1212 H   0  0  0  0  0  0
  -19.6909  -25.6312   21.1245 H   0  0  0  0  0  0
  -19.6684  -27.3216   20.6755 H   0  0  0  0  0  0
  -17.4200  -26.6696   21.4021 H   0  0  0  0  0  0
  -18.0313  -26.0086   22.9021 H   0  0  0  0  0  0
  -19.7932  -30.7279   24.2278 H   0  0  0  0  0  0
  -17.5013  -31.6269   24.5187 H   0  0  0  0  0  0
  -15.5350  -30.3004   23.7650 H   0  0  0  0  0  0
  -15.8666  -28.0837   22.7062 H   0  0  0  0  0  0
  -24.5902  -30.7094   25.7842 H   0  0  0  0  0  0
  -24.8907  -32.2956   26.4838 H   0  0  0  0  0  0
  -25.8062  -30.9020   27.0272 H   0  0  0  0  0  0
  -26.2848  -29.6789   24.1171 H   0  0  0  0  0  0
  -27.3942  -29.7236   25.4678 H   0  0  0  0  0  0
  -27.8745  -30.4263   23.9401 H   0  0  0  0  0  0
  -27.2658  -33.3621   26.2071 H   0  0  0  0  0  0
  -28.3855  -32.6892   25.0310 H   0  0  0  0  0  0
  -28.0721  -31.8445   26.5401 H   0  0  0  0  0  0
  -28.2601  -38.0095   24.7514 H   0  0  0  0  0  0
  -28.1080  -36.2630   24.6258 H   0  0  0  0  0  0
  -27.2312  -37.1428   25.8863 H   0  0  0  0  0  0
  -20.9362  -29.8744   21.6896 H   0  0  0  0  0  0
  -26.0170  -38.2858   24.1427 H   0  0  0  0  0  0
  -27.4465  -16.4668   20.5605 H   0  0  0  0  0  0
  -31.8721  -20.4507   19.1115 H   0  0  0  0  0  0
  -30.3260  -20.6310   18.2893 H   0  0  0  0  0  0
  -31.1328  -22.8529   18.0921 H   0  0  0  0  0  0
  -31.9396  -22.8039   19.6560 H   0  0  0  0  0  0
  -28.8565  -22.1665   21.4809 H   0  0  0  0  0  0
  -28.2581  -21.7233   19.8862 H   0  0  0  0  0  0
  -30.8358  -20.8054   21.2592 H   0  0  0  0  0  0
  -28.2214  -24.8872   21.3379 H   0  0  0  0  0  0
  -27.4867  -24.6638   19.7655 H   0  0  0  0  0  0
  -29.2173  -15.1355   21.7449 H   0  0  0  0  0  0
  1 25  1  0  0  0
  1 30  2  0  0  0
  1 82  1  0  0  0
  2  3  1  0  0  0
  2 25  1  0  0  0
  2 85  1  0  0  0
  2 86  1  0  0  0
  3  4  1  0  0  0
  3 87  1  0  0  0
  3 88  1  0  0  0
  4  5  1  0  0  0
  4 89  1  0  0  0
  4 90  1  0  0  0
  5  6  1  0  0  0
  5 26  1  0  0  0
  5 91  1  0  0  0
  6 25  1  0  0  0
  6 92  1  0  0  0
  6 93  1  0  0  0
  7  8  2  0  0  0
  7 26  1  0  0  0
  7 29  1  0  0  0
  8  9  1  0  0  0
  8 22  1  0  0  0
  9 10  1  0  0  0
  9 27  2  0  0  0
 10 11  2  0  0  0
 10 15  1  0  0  0
 11 12  1  0  0  0
 11 94  1  0  0  0
 12 13  2  0  0  0
 12 95  1  0  0  0
 13 14  1  0  0  0
 13 31  1  0  0  0
 14 15  2  0  0  0
 14 96  1  0  0  0
 15 97  1  0  0  0
 16 17  2  0  0  0
 16 21  1  0  0  0
 16 31  1  0  0  0
 17 18  1  0  0  0
 17 98  1  0  0  0
 18 19  2  0  0  0
 18 99  1  0  0  0
 19 20  1  0  0  0
 19 24  1  0  0  0
 20 21  2  0  0  0
 20100  1  0  0  0
 21 23  1  0  0  0
 22 28  1  0  0  0
 22 32  2  0  0  0
 26 27  1  0  0  0
 28101  1  0  0  0
 28102  1  0  0  0
 29103  1  0  0  0
 29104  1  0  0  0
 33 34  1  0  0  0
 33 66  1  0  0  0
 33 70  2  0  0  0
 34 36  1  0  0  0
 34 59  1  0  0  0
 34105  1  0  0  0
 35 44  2  0  0  0
 35 45  1  0  0  0
 35 68  1  0  0  0
 36 56  1  0  0  0
 36106  1  0  0  0
 37 39  1  0  0  0
 37 47  1  0  0  0
 37 66  1  0  0  0
 37107  1  0  0  0
 38 43  2  0  0  0
 38 46  1  0  0  0
 38 47  1  0  0  0
 39 64  1  0  0  0
 39 67  2  0  0  0
 40 52  1  0  0  0
 40 53  2  0  0  0
 40 58  1  0  0  0
 41108  1  0  0  0
 41109  1  0  0  0
 41110  1  0  0  0
 41 48  1  0  0  0
 42 43  1  0  0  0
 42 66  1  0  0  0
 42111  1  0  0  0
 42112  1  0  0  0
 43 44  1  0  0  0
 44113  1  0  0  0
 45 46  2  0  0  0
 45114  1  0  0  0
 46115  1  0  0  0
 47116  1  0  0  0
 47117  1  0  0  0
 48 56  1  0  0  0
 48 65  1  0  0  0
 48118  1  0  0  0
 49 50  1  0  0  0
 49 53  1  0  0  0
 49 64  1  0  0  0
 49119  1  0  0  0
 50 51  1  0  0  0
 50120  1  0  0  0
 50121  1  0  0  0
 51 52  1  0  0  0
 51122  1  0  0  0
 51123  1  0  0  0
 52124  1  0  0  0
 52125  1  0  0  0
 53 54  1  0  0  0
 54 55  2  0  0  0
 54126  1  0  0  0
 55 57  1  0  0  0
 55127  1  0  0  0
 56 69  2  0  0  0
 57 58  2  0  0  0
 57128  1  0  0  0
 58129  1  0  0  0
 59 60  1  0  0  0
 59 61  1  0  0  0
 59 62  1  0  0  0
 60130  1  0  0  0
 60131  1  0  0  0
 60132  1  0  0  0
 61133  1  0  0  0
 61134  1  0  0  0
 61135  1  0  0  0
 62136  1  0  0  0
 62137  1  0  0  0
 62138  1  0  0  0
 63 65  1  0  0  0
 63139  1  0  0  0
 63140  1  0  0  0
 63141  1  0  0  0
 64142  1  0  0  0
 65143  1  0  0  0
 68 79  1  0  0  0
 71 72  2  0  0  0
 71 84  1  0  0  0
 71144  1  0  0  0
 72 80  1  0  0  0
 72 82  1  0  0  0
 73 80  2  0  0  0
 73 84  1  0  0  0
 73 78  1  0  0  0
 74 79  1  0  0  0
 74 81  1  0  0  0
 74 83  2  0  0  0
 75 76  1  0  0  0
 75 78  1  0  0  0
 75145  1  0  0  0
 75146  1  0  0  0
 76 81  1  0  0  0
 76147  1  0  0  0
 76148  1  0  0  0
 77 78  1  0  0  0
 77 81  1  0  0  0
 77149  1  0  0  0
 77150  1  0  0  0
 78151  1  0  0  0
 79152  1  0  0  0
 79153  1  0  0  0
 82154  1  0  0  0
M  ISO  4   1 100  68 101  79 101  82 100
M  END
> <chiral flag>
0

> <version>
0

> <s_m_source_file>
/data/baiqing/PycharmProjects/Reinvent-master-3.2/result/LINK_invent/BTK/process_docking_weight1_custom_product_contain_oxygen_bond_distance_aromatic_linkinvent_7_9_3/rearranged_h_0151.sdf

> <i_m_source_file_index>
79

> <r_mmod_Potential_Energy-OPLS-2005>
86.5410842895508

> <r_mmod_Stretch_Energy-OPLS-2005>
67.2932510375977

> <r_mmod_Bend_Energy-OPLS-2005>
166.142837524414

> <r_mmod_Torsional_Energy-OPLS-2005>
290.925842285156

> <r_mmod_Improper_Torsional_Energy-OPLS-2005>
10.7643537521362

> <r_mmod_Van_der_Waal_Energy-OPLS-2005>
119.92268371582

> <r_mmod_Electrostatic_Energy-OPLS-2005>
-336.290374755859

> <r_mmod_Solvation_Energy-OPLS-2005>
-265.836608886719

> <b_mmod_Minimization_Converged-OPLS-2005>
0

> <r_mmod_RMS_Derivative-OPLS-2005>
1.55460393428802

$$$$
79
                    3D
 Structure written by MMmdl.
163172  0  0  1  0            999 V2000
  -30.6476  -14.5599   20.6125 C   0  0  0  0  0  0
  -30.4506  -12.3692   19.4476 C   0  0  0  0  0  0
  -29.5153  -12.5195   18.2262 C   0  0  0  0  0  0
  -28.0370  -12.3553   18.6329 C   0  0  0  0  0  0
  -27.6649  -13.2073   19.8749 C   0  0  2  0  0  0
  -28.6997  -12.9980   21.0035 C   0  0  0  0  0  0
  -25.2605  -13.8163   20.5687 C   0  0  0  0  0  0
  -24.1836  -13.0450   20.9142 C   0  0  0  0  0  0
  -24.6380  -11.6907   20.8689 C   0  0  0  0  0  0
  -23.9040  -10.4289   21.0384 C   0  0  0  0  0  0
  -24.3593   -9.4212   21.9166 C   0  0  0  0  0  0
  -23.6283   -8.2253   22.0752 C   0  0  0  0  0  0
  -22.4252   -8.0276   21.3550 C   0  0  0  0  0  0
  -21.9877   -9.0239   20.4659 C   0  0  0  0  0  0
  -22.7199  -10.2126   20.3044 C   0  0  0  0  0  0
  -21.6855   -6.0723   22.5268 C   0  0  0  0  0  0
  -21.4023   -6.5630   23.8201 C   0  0  0  0  0  0
  -21.3662   -5.6782   24.9163 C   0  0  0  0  0  0
  -21.6036   -4.3040   24.7208 C   0  0  0  0  0  0
  -21.8821   -3.8136   23.4329 C   0  0  0  0  0  0
  -21.9202   -4.6953   22.3388 C   0  0  0  0  0  0
  -22.7865  -13.5269   21.1817 C   0  0  0  0  0  0
  -22.1666   -4.2156   21.0970 F   0  0  0  0  0  0
  -21.5628   -3.4523   25.7723 F   0  0  0  0  0  0
  -30.0360  -13.3427   20.4752 N   0  0  0  0  0  0
  -26.3031  -12.9324   20.3322 N   0  0  0  0  0  0
  -25.9306  -11.6481   20.5693 N   0  0  0  0  0  0
  -22.0492  -12.8292   22.0392 N   0  0  0  0  0  0
  -25.4344  -15.1895   20.4217 N   0  0  0  0  0  0
  -31.7160  -14.8338   20.0555 O   0  0  0  0  0  0
  -21.6632   -6.8863   21.4235 O   0  0  0  0  0  0
  -22.3540  -14.5574   20.6668 O   0  0  0  0  0  0
  -24.6225  -31.8633   23.2084 C   0  0  0  0  0  0
  -25.9093  -32.4800   23.8376 C   0  0  1  0  0  0
  -27.2248  -27.3636   20.0782 C   0  0  0  0  0  0
  -25.5930  -33.8599   24.2311 N   0  0  0  0  0  0
  -23.4119  -30.4897   21.5527 C   0  0  2  0  0  0
  -24.8530  -28.9542   20.1149 C   0  0  0  0  0  0
  -22.7447  -29.4638   22.4985 C   0  0  0  0  0  0
  -18.0273  -28.1388   22.8486 C   0  0  0  0  0  0
  -24.1493  -36.7305   23.2635 C   0  0  0  0  0  0
  -25.9504  -30.8067   21.3714 C   0  0  0  0  0  0
  -26.0218  -29.4374   20.7133 C   0  0  0  0  0  0
  -27.2057  -28.6498   20.6936 C   0  0  0  0  0  0
  -26.0187  -26.9151   19.4845 C   0  0  0  0  0  0
  -24.8501  -27.6944   19.5022 C   0  0  0  0  0  0
  -23.6207  -29.8295   20.1661 C   0  0  0  0  0  0
  -25.4114  -36.3098   24.0332 C   0  0  1  0  0  0
  -20.5869  -28.3673   23.1319 C   0  0  2  0  0  0
  -20.6771  -26.9407   22.5425 C   0  0  0  0  0  0
  -19.5756  -26.6391   21.5217 C   0  0  0  0  0  0
  -18.1928  -26.7937   22.1614 C   0  0  0  0  0  0
  -19.1526  -28.8847   23.2897 C   0  0  0  0  0  0
  -18.9447  -30.1455   23.8910 C   0  0  0  0  0  0
  -17.6452  -30.6590   24.0564 C   0  0  0  0  0  0
  -25.9043  -34.9465   23.5120 C   0  0  0  0  0  0
  -16.5343  -29.9092   23.6327 C   0  0  0  0  0  0
  -16.7266  -28.6509   23.0347 C   0  0  0  0  0  0
  -26.4502  -31.6590   25.0719 C   0  0  0  0  0  0
  -25.3758  -31.3727   26.1471 C   0  0  0  0  0  0
  -27.0301  -30.3011   24.6128 C   0  0  0  0  0  0
  -27.6099  -32.4293   25.7456 C   0  0  0  0  0  0
  -27.5594  -37.1799   24.8462 C   0  0  0  0  0  0
  -21.4169  -29.3036   22.3732 N   0  0  0  0  0  0
  -26.4298  -37.3789   23.9418 N   0  0  0  0  0  0
  -24.6809  -31.0677   22.1026 N   0  0  0  0  0  0
  -23.4196  -28.8160   23.3027 O   0  0  0  0  0  0
  -28.3879  -26.5880   20.1129 O   0  0  0  0  0  0
  -26.5597  -34.8925   22.4676 O   0  0  0  0  0  0
  -23.5393  -32.1417   23.7437 O   0  0  0  0  0  0
  -30.1673  -17.8673   20.4761 C   0  0  0  0  0  0
  -28.5693  -17.2463   22.0700 C   0  0  0  0  0  0
  -29.6235  -16.8137   21.3101 C   0  0  0  0  0  0
  -29.4667  -19.0758   20.5673 C   0  0  0  0  0  0
  -29.5944  -20.3051   19.7425 C   0  0  0  0  0  0
  -28.3585  -23.5374   21.2328 C   0  0  0  0  0  0
  -28.8465  -22.0818   21.4200 C   0  0  0  0  0  0
  -29.3144  -22.8316   19.1943 C   0  0  1  0  0  0
  -29.2070  -24.1190   20.0949 C   0  0  2  0  0  0
  -30.4723  -22.9067   18.1711 C   0  0  0  0  0  0
  -30.5826  -24.5652   20.6399 C   0  0  0  0  0  0
  -28.5169  -25.3368   19.3616 C   0  0  0  0  0  0
  -29.3372  -21.6261   20.1039 N   0  0  0  0  0  0
  -30.0020  -15.4226   21.4373 N   0  0  0  0  0  0
  -29.9642  -20.0603   18.4767 N   0  3  0  0  0  0
  -28.1663  -18.9058   21.7295 S   0  0  0  0  0  0
  -31.4909  -12.5088   19.1475 H   0  0  0  0  0  0
  -30.3937  -11.3579   19.8539 H   0  0  0  0  0  0
  -29.7770  -11.7853   17.4627 H   0  0  0  0  0  0
  -29.6600  -13.4993   17.7708 H   0  0  0  0  0  0
  -27.8690  -11.2997   18.8474 H   0  0  0  0  0  0
  -27.3862  -12.6039   17.7938 H   0  0  0  0  0  0
  -27.7072  -14.2526   19.5676 H   0  0  0  0  0  0
  -28.6927  -11.9592   21.3375 H   0  0  0  0  0  0
  -28.4149  -13.5750   21.8831 H   0  0  0  0  0  0
  -25.2739   -9.5708   22.4724 H   0  0  0  0  0  0
  -24.0000   -7.4651   22.7466 H   0  0  0  0  0  0
  -21.0812   -8.8741   19.8975 H   0  0  0  0  0  0
  -22.3639  -10.9645   19.6150 H   0  0  0  0  0  0
  -21.2016   -7.6136   23.9703 H   0  0  0  0  0  0
  -21.1491   -6.0509   25.9067 H   0  0  0  0  0  0
  -22.0608   -2.7602   23.2814 H   0  0  0  0  0  0
  -22.4094  -11.9981   22.4835 H   0  0  0  0  0  0
  -21.1114  -13.1345   22.2571 H   0  0  0  0  0  0
  -24.6788  -15.8508   20.5610 H   0  0  0  0  0  0
  -26.3101  -15.6342   20.1762 H   0  0  0  0  0  0
  -26.7156  -32.5484   23.1115 H   0  0  0  0  0  0
  -25.0097  -33.9755   25.0470 H   0  0  0  0  0  0
  -22.7032  -31.3093   21.4168 H   0  0  0  0  0  0
  -23.3757  -35.9635   23.3290 H   0  0  0  0  0  0
  -24.3593  -36.8929   22.2052 H   0  0  0  0  0  0
  -23.7244  -37.6507   23.6656 H   0  0  0  0  0  0
  -26.0712  -31.5715   20.6024 H   0  0  0  0  0  0
  -26.8360  -30.8578   21.9933 H   0  0  0  0  0  0
  -28.1067  -29.0197   21.1632 H   0  0  0  0  0  0
  -25.9076  -25.9553   19.0103 H   0  0  0  0  0  0
  -23.9470  -27.3133   19.0461 H   0  0  0  0  0  0
  -23.7370  -30.6077   19.4106 H   0  0  0  0  0  0
  -22.7408  -29.2568   19.8664 H   0  0  0  0  0  0
  -25.1290  -36.1954   25.0822 H   0  0  0  0  0  0
  -20.9948  -28.3236   24.1445 H   0  0  0  0  0  0
  -20.5687  -26.2269   23.3605 H   0  0  0  0  0  0
  -21.6645  -26.7467   22.1219 H   0  0  0  0  0  0
  -19.6921  -25.6302   21.1251 H   0  0  0  0  0  0
  -19.6710  -27.3196   20.6744 H   0  0  0  0  0  0
  -17.4207  -26.6688   21.4007 H   0  0  0  0  0  0
  -18.0320  -26.0084   22.9012 H   0  0  0  0  0  0
  -19.7919  -30.7271   24.2291 H   0  0  0  0  0  0
  -17.5000  -31.6273   24.5161 H   0  0  0  0  0  0
  -15.5343  -30.2994   23.7656 H   0  0  0  0  0  0
  -15.8660  -28.0839   22.7056 H   0  0  0  0  0  0
  -24.5926  -30.7076   25.7826 H   0  0  0  0  0  0
  -24.8948  -32.2885   26.4911 H   0  0  0  0  0  0
  -25.8097  -30.8908   27.0238 H   0  0  0  0  0  0
  -26.2825  -29.6782   24.1202 H   0  0  0  0  0  0
  -27.4062  -29.7258   25.4598 H   0  0  0  0  0  0
  -27.8683  -30.4301   23.9278 H   0  0  0  0  0  0
  -27.2757  -33.3588   26.2076 H   0  0  0  0  0  0
  -28.3867  -32.6858   25.0241 H   0  0  0  0  0  0
  -28.0817  -31.8387   26.5320 H   0  0  0  0  0  0
  -28.2617  -38.0094   24.7516 H   0  0  0  0  0  0
  -28.1082  -36.2627   24.6260 H   0  0  0  0  0  0
  -27.2320  -37.1433   25.8868 H   0  0  0  0  0  0
  -20.9337  -29.8747   21.6944 H   0  0  0  0  0  0
  -26.0183  -38.2865   24.1431 H   0  0  0  0  0  0
  -31.0095  -17.7012   19.8185 H   0  0  0  0  0  0
  -27.9714  -16.7020   22.7926 H   0  0  0  0  0  0
  -28.4505  -24.1220   22.1475 H   0  0  0  0  0  0
  -27.3019  -23.5331   20.9610 H   0  0  0  0  0  0
  -28.0159  -21.4891   21.7895 H   0  0  0  0  0  0
  -29.6619  -22.0245   22.1416 H   0  0  0  0  0  0
  -28.3866  -22.7491   18.6276 H   0  0  0  0  0  0
  -31.3833  -22.4461   18.5560 H   0  0  0  0  0  0
  -30.7203  -23.9368   17.9140 H   0  0  0  0  0  0
  -30.2051  -22.4256   17.2304 H   0  0  0  0  0  0
  -31.1662  -23.7248   21.0144 H   0  0  0  0  0  0
  -30.4694  -25.2787   21.4556 H   0  0  0  0  0  0
  -31.1800  -25.0592   19.8733 H   0  0  0  0  0  0
  -27.5923  -24.9521   18.9503 H   0  0  0  0  0  0
  -29.1088  -25.5862   18.4803 H   0  0  0  0  0  0
  -29.3776  -14.9081   22.0378 H   0  0  0  0  0  0
  -30.0729  -19.1152   18.1446 H   0  0  0  0  0  0
  -30.1318  -20.8151   17.8299 H   0  0  0  0  0  0
  1 25  1  0  0  0
  1 30  2  0  0  0
  1 84  1  0  0  0
  2  3  1  0  0  0
  2 25  1  0  0  0
  2 87  1  0  0  0
  2 88  1  0  0  0
  3  4  1  0  0  0
  3 89  1  0  0  0
  3 90  1  0  0  0
  4  5  1  0  0  0
  4 91  1  0  0  0
  4 92  1  0  0  0
  5  6  1  0  0  0
  5 26  1  0  0  0
  5 93  1  0  0  0
  6 25  1  0  0  0
  6 94  1  0  0  0
  6 95  1  0  0  0
  7  8  2  0  0  0
  7 26  1  0  0  0
  7 29  1  0  0  0
  8  9  1  0  0  0
  8 22  1  0  0  0
  9 10  1  0  0  0
  9 27  2  0  0  0
 10 11  2  0  0  0
 10 15  1  0  0  0
 11 12  1  0  0  0
 11 96  1  0  0  0
 12 13  2  0  0  0
 12 97  1  0  0  0
 13 14  1  0  0  0
 13 31  1  0  0  0
 14 15  2  0  0  0
 14 98  1  0  0  0
 15 99  1  0  0  0
 16 17  2  0  0  0
 16 21  1  0  0  0
 16 31  1  0  0  0
 17 18  1  0  0  0
 17100  1  0  0  0
 18 19  2  0  0  0
 18101  1  0  0  0
 19 20  1  0  0  0
 19 24  1  0  0  0
 20 21  2  0  0  0
 20102  1  0  0  0
 21 23  1  0  0  0
 22 28  1  0  0  0
 22 32  2  0  0  0
 26 27  1  0  0  0
 28103  1  0  0  0
 28104  1  0  0  0
 29105  1  0  0  0
 29106  1  0  0  0
 33 34  1  0  0  0
 33 66  1  0  0  0
 33 70  2  0  0  0
 34 36  1  0  0  0
 34 59  1  0  0  0
 34107  1  0  0  0
 35 44  2  0  0  0
 35 45  1  0  0  0
 35 68  1  0  0  0
 36 56  1  0  0  0
 36108  1  0  0  0
 37 39  1  0  0  0
 37 47  1  0  0  0
 37 66  1  0  0  0
 37109  1  0  0  0
 38 43  2  0  0  0
 38 46  1  0  0  0
 38 47  1  0  0  0
 39 64  1  0  0  0
 39 67  2  0  0  0
 40 52  1  0  0  0
 40 53  2  0  0  0
 40 58  1  0  0  0
 41110  1  0  0  0
 41111  1  0  0  0
 41112  1  0  0  0
 41 48  1  0  0  0
 42 43  1  0  0  0
 42 66  1  0  0  0
 42113  1  0  0  0
 42114  1  0  0  0
 43 44  1  0  0  0
 44115  1  0  0  0
 45 46  2  0  0  0
 45116  1  0  0  0
 46117  1  0  0  0
 47118  1  0  0  0
 47119  1  0  0  0
 48 56  1  0  0  0
 48 65  1  0  0  0
 48120  1  0  0  0
 49 50  1  0  0  0
 49 53  1  0  0  0
 49 64  1  0  0  0
 49121  1  0  0  0
 50 51  1  0  0  0
 50122  1  0  0  0
 50123  1  0  0  0
 51 52  1  0  0  0
 51124  1  0  0  0
 51125  1  0  0  0
 52126  1  0  0  0
 52127  1  0  0  0
 53 54  1  0  0  0
 54 55  2  0  0  0
 54128  1  0  0  0
 55 57  1  0  0  0
 55129  1  0  0  0
 56 69  2  0  0  0
 57 58  2  0  0  0
 57130  1  0  0  0
 58131  1  0  0  0
 59 60  1  0  0  0
 59 61  1  0  0  0
 59 62  1  0  0  0
 60132  1  0  0  0
 60133  1  0  0  0
 60134  1  0  0  0
 61135  1  0  0  0
 61136  1  0  0  0
 61137  1  0  0  0
 62138  1  0  0  0
 62139  1  0  0  0
 62140  1  0  0  0
 63 65  1  0  0  0
 63141  1  0  0  0
 63142  1  0  0  0
 63143  1  0  0  0
 64144  1  0  0  0
 65145  1  0  0  0
 68 82  1  0  0  0
 71 73  1  0  0  0
 71 74  2  0  0  0
 71146  1  0  0  0
 72 73  2  0  0  0
 72 86  1  0  0  0
 72147  1  0  0  0
 73 84  1  0  0  0
 74 75  1  0  0  0
 74 86  1  0  0  0
 75 83  1  0  0  0
 75 85  2  0  0  0
 76 77  1  0  0  0
 76 79  1  0  0  0
 76148  1  0  0  0
 76149  1  0  0  0
 77 83  1  0  0  0
 77150  1  0  0  0
 77151  1  0  0  0
 78 79  1  0  0  0
 78 80  1  0  0  0
 78 83  1  0  0  0
 78152  1  0  0  0
 79 81  1  0  0  0
 79 82  1  0  0  0
 80153  1  0  0  0
 80154  1  0  0  0
 80155  1  0  0  0
 81156  1  0  0  0
 81157  1  0  0  0
 81158  1  0  0  0
 82159  1  0  0  0
 82160  1  0  0  0
 84161  1  0  0  0
 85162  1  0  0  0
 85163  1  0  0  0
M  CHG  1  85   1
M  ISO  4   1 100  68 101  82 101  84 100
M  END
> <chiral flag>
0

> <version>
0

> <s_m_source_file>
/data/baiqing/PycharmProjects/Reinvent-master-3.2/result/LINK_invent/BTK/process_docking_weight1_custom_product_contain_oxygen_bond_distance_aromatic_linkinvent_7_9_3/rearranged_h_0151.sdf

> <i_m_source_file_index>
80

> <r_mmod_Potential_Energy-OPLS-2005>
67.7610397338867

> <r_mmod_Stretch_Energy-OPLS-2005>
66.0820922851562

> <r_mmod_Bend_Energy-OPLS-2005>
189.229415893555

> <r_mmod_Torsional_Energy-OPLS-2005>
303.44287109375

> <r_mmod_Improper_Torsional_Energy-OPLS-2005>
4.83695840835571

> <r_mmod_Van_der_Waal_Energy-OPLS-2005>
138.954040527344

> <r_mmod_Electrostatic_Energy-OPLS-2005>
-229.065292358398

> <r_mmod_Solvation_Energy-OPLS-2005>
-434.258819580078

> <b_mmod_Minimization_Converged-OPLS-2005>
0

> <r_mmod_RMS_Derivative-OPLS-2005>
2.33487153053284

$$$$
80
                    3D
 Structure written by MMmdl.
159168  0  0  1  0            999 V2000
  -30.6115  -14.6421   20.5040 C   0  0  0  0  0  0
  -30.4429  -12.3955   19.4507 C   0  0  0  0  0  0
  -29.5087  -12.5104   18.2246 C   0  0  0  0  0  0
  -28.0319  -12.3439   18.6373 C   0  0  0  0  0  0
  -27.6552  -13.2125   19.8665 C   0  0  2  0  0  0
  -28.7001  -13.0582   20.9949 C   0  0  0  0  0  0
  -25.2577  -13.8166   20.5693 C   0  0  0  0  0  0
  -24.1834  -13.0436   20.9188 C   0  0  0  0  0  0
  -24.6394  -11.6904   20.8739 C   0  0  0  0  0  0
  -23.9060  -10.4290   21.0412 C   0  0  0  0  0  0
  -24.3611   -9.4206   21.9191 C   0  0  0  0  0  0
  -23.6287   -8.2240   22.0759 C   0  0  0  0  0  0
  -22.4272   -8.0280   21.3546 C   0  0  0  0  0  0
  -21.9909   -9.0253   20.4645 C   0  0  0  0  0  0
  -22.7235  -10.2133   20.3056 C   0  0  0  0  0  0
  -21.6849   -6.0735   22.5281 C   0  0  0  0  0  0
  -21.4013   -6.5642   23.8214 C   0  0  0  0  0  0
  -21.3657   -5.6795   24.9176 C   0  0  0  0  0  0
  -21.6043   -4.3056   24.7227 C   0  0  0  0  0  0
  -21.8821   -3.8149   23.4349 C   0  0  0  0  0  0
  -21.9192   -4.6964   22.3404 C   0  0  0  0  0  0
  -22.7856  -13.5234   21.1847 C   0  0  0  0  0  0
  -22.1659   -4.2151   21.0982 F   0  0  0  0  0  0
  -21.5630   -3.4540   25.7740 F   0  0  0  0  0  0
  -30.0157  -13.4093   20.4351 N   0  0  0  0  0  0
  -26.2998  -12.9334   20.3329 N   0  0  0  0  0  0
  -25.9321  -11.6496   20.5760 N   0  0  0  0  0  0
  -22.0487  -12.8226   22.0395 N   0  0  0  0  0  0
  -25.4311  -15.1887   20.4119 N   0  0  0  0  0  0
  -31.7700  -14.8167   20.1134 O   0  0  0  0  0  0
  -21.6633   -6.8879   21.4245 O   0  0  0  0  0  0
  -22.3547  -14.5543   20.6699 O   0  0  0  0  0  0
  -24.6254  -31.8598   23.2027 C   0  0  0  0  0  0
  -25.9106  -32.4776   23.8356 C   0  0  1  0  0  0
  -27.2256  -27.3261   20.1258 C   0  0  0  0  0  0
  -25.5927  -33.8578   24.2285 N   0  0  0  0  0  0
  -23.4193  -30.4821   21.5447 C   0  0  2  0  0  0
  -24.8676  -28.9361   20.1117 C   0  0  0  0  0  0
  -22.7467  -29.4623   22.4943 C   0  0  0  0  0  0
  -18.0282  -28.1382   22.8491 C   0  0  0  0  0  0
  -24.1488  -36.7290   23.2640 C   0  0  0  0  0  0
  -25.9587  -30.7933   21.3722 C   0  0  0  0  0  0
  -26.0351  -29.4205   20.7164 C   0  0  0  0  0  0
  -27.2201  -28.6279   20.7114 C   0  0  0  0  0  0
  -26.0419  -26.8935   19.4906 C   0  0  0  0  0  0
  -24.8721  -27.6775   19.4885 C   0  0  0  0  0  0
  -23.6338  -29.8144   20.1606 C   0  0  0  0  0  0
  -25.4115  -36.3084   24.0329 C   0  0  1  0  0  0
  -20.5882  -28.3688   23.1286 C   0  0  2  0  0  0
  -20.6772  -26.9413   22.5409 C   0  0  0  0  0  0
  -19.5749  -26.6386   21.5210 C   0  0  0  0  0  0
  -18.1926  -26.7932   22.1616 C   0  0  0  0  0  0
  -19.1534  -28.8852   23.2885 C   0  0  0  0  0  0
  -18.9458  -30.1457   23.8896 C   0  0  0  0  0  0
  -17.6457  -30.6588   24.0561 C   0  0  0  0  0  0
  -25.9053  -34.9451   23.5108 C   0  0  0  0  0  0
  -16.5350  -29.9084   23.6334 C   0  0  0  0  0  0
  -16.7270  -28.6500   23.0359 C   0  0  0  0  0  0
  -26.4496  -31.6583   25.0722 C   0  0  0  0  0  0
  -25.3734  -31.3709   26.1450 C   0  0  0  0  0  0
  -27.0344  -30.3011   24.6169 C   0  0  0  0  0  0
  -27.6058  -32.4318   25.7494 C   0  0  0  0  0  0
  -27.5584  -37.1795   24.8462 C   0  0  0  0  0  0
  -21.4182  -29.3040   22.3678 N   0  0  0  0  0  0
  -26.4292  -37.3779   23.9412 N   0  0  0  0  0  0
  -24.6864  -31.0616   22.0971 N   0  0  0  0  0  0
  -23.4190  -28.8171   23.3031 O   0  0  0  0  0  0
  -28.3374  -26.4755   20.1499 O   0  0  0  0  0  0
  -26.5612  -34.8918   22.4668 O   0  0  0  0  0  0
  -23.5420  -32.1391   23.7359 O   0  0  0  0  0  0
  -28.6287  -19.3122   20.9072 C   0  0  0  0  0  0
  -28.6864  -17.8939   21.0544 C   0  0  0  0  0  0
  -30.9274  -17.8778   20.2040 C   0  0  0  0  0  0
  -29.7178  -20.0726   20.4062 C   0  0  0  0  0  0
  -29.8321  -17.1283   20.7066 C   0  0  0  0  0  0
  -30.8753  -19.2990   20.0573 C   0  0  0  0  0  0
  -30.3628  -23.8175   20.1498 C   0  0  0  0  0  0
  -30.7961  -22.3474   19.9380 C   0  0  0  0  0  0
  -28.4866  -22.4125   20.5133 C   0  0  0  0  0  0
  -28.8379  -23.8538   19.9457 C   0  0  2  0  0  0
  -28.4895  -23.9006   18.4448 C   0  0  0  0  0  0
  -28.1265  -25.0971   20.6560 C   0  0  0  0  0  0
  -29.6433  -21.5134   20.2676 N   0  0  0  0  0  0
  -29.7880  -15.6722   20.8813 N   0  0  0  0  0  0
  -31.9789  -19.9068   19.5561 F   0  0  0  0  0  0
  -31.4824  -12.5300   19.1458 H   0  0  0  0  0  0
  -30.3857  -11.3971   19.8871 H   0  0  0  0  0  0
  -29.7737  -11.7623   17.4759 H   0  0  0  0  0  0
  -29.6477  -13.4818   17.7472 H   0  0  0  0  0  0
  -27.8708  -11.2901   18.8683 H   0  0  0  0  0  0
  -27.3763  -12.5736   17.7967 H   0  0  0  0  0  0
  -27.6751  -14.2484   19.5286 H   0  0  0  0  0  0
  -28.7130  -12.0318   21.3648 H   0  0  0  0  0  0
  -28.4438  -13.6783   21.8551 H   0  0  0  0  0  0
  -25.2760   -9.5680   22.4761 H   0  0  0  0  0  0
  -23.9996   -7.4633   22.7482 H   0  0  0  0  0  0
  -21.0840   -8.8772   19.8948 H   0  0  0  0  0  0
  -22.3701  -10.9672   19.6161 H   0  0  0  0  0  0
  -21.2004   -7.6151   23.9718 H   0  0  0  0  0  0
  -21.1477   -6.0525   25.9079 H   0  0  0  0  0  0
  -22.0601   -2.7612   23.2851 H   0  0  0  0  0  0
  -22.4090  -11.9878   22.4777 H   0  0  0  0  0  0
  -21.1108  -13.1267   22.2601 H   0  0  0  0  0  0
  -24.6651  -15.8445   20.5196 H   0  0  0  0  0  0
  -26.2757  -15.6230   20.0627 H   0  0  0  0  0  0
  -26.7174  -32.5455   23.1106 H   0  0  0  0  0  0
  -25.0085  -33.9723   25.0436 H   0  0  0  0  0  0
  -22.7132  -31.3025   21.4008 H   0  0  0  0  0  0
  -23.3755  -35.9615   23.3289 H   0  0  0  0  0  0
  -24.3579  -36.8923   22.2056 H   0  0  0  0  0  0
  -23.7229  -37.6484   23.6668 H   0  0  0  0  0  0
  -26.0881  -31.5569   20.6039 H   0  0  0  0  0  0
  -26.8396  -30.8430   22.0004 H   0  0  0  0  0  0
  -28.1174  -28.9951   21.1893 H   0  0  0  0  0  0
  -26.0139  -25.9302   19.0011 H   0  0  0  0  0  0
  -23.9796  -27.3023   19.0069 H   0  0  0  0  0  0
  -23.7497  -30.5898   19.4024 H   0  0  0  0  0  0
  -22.7545  -29.2410   19.8615 H   0  0  0  0  0  0
  -25.1293  -36.1936   25.0821 H   0  0  0  0  0  0
  -20.9973  -28.3263   24.1409 H   0  0  0  0  0  0
  -20.5684  -26.2295   23.3606 H   0  0  0  0  0  0
  -21.6641  -26.7448   22.1202 H   0  0  0  0  0  0
  -19.6914  -25.6298   21.1239 H   0  0  0  0  0  0
  -19.6694  -27.3197   20.6742 H   0  0  0  0  0  0
  -17.4204  -26.6694   21.4008 H   0  0  0  0  0  0
  -18.0315  -26.0068   22.9006 H   0  0  0  0  0  0
  -19.7933  -30.7275   24.2265 H   0  0  0  0  0  0
  -17.5012  -31.6271   24.5160 H   0  0  0  0  0  0
  -15.5350  -30.2985   23.7663 H   0  0  0  0  0  0
  -15.8670  -28.0820   22.7074 H   0  0  0  0  0  0
  -24.5915  -30.7053   25.7774 H   0  0  0  0  0  0
  -24.8917  -32.2869   26.4882 H   0  0  0  0  0  0
  -25.8067  -30.8884   27.0220 H   0  0  0  0  0  0
  -26.2913  -29.6752   24.1215 H   0  0  0  0  0  0
  -27.4070  -29.7279   25.4669 H   0  0  0  0  0  0
  -27.8771  -30.4302   23.9371 H   0  0  0  0  0  0
  -27.2670  -33.3621   26.2068 H   0  0  0  0  0  0
  -28.3871  -32.6873   25.0322 H   0  0  0  0  0  0
  -28.0722  -31.8444   26.5413 H   0  0  0  0  0  0
  -28.2586  -38.0109   24.7535 H   0  0  0  0  0  0
  -28.1097  -36.2639   24.6258 H   0  0  0  0  0  0
  -27.2303  -37.1410   25.8864 H   0  0  0  0  0  0
  -20.9359  -29.8754   21.6881 H   0  0  0  0  0  0
  -26.0173  -38.2851   24.1426 H   0  0  0  0  0  0
  -27.7182  -19.8156   21.1955 H   0  0  0  0  0  0
  -27.8120  -17.3917   21.4445 H   0  0  0  0  0  0
  -31.8373  -17.3746   19.9155 H   0  0  0  0  0  0
  -30.8974  -24.5078   19.4961 H   0  0  0  0  0  0
  -30.5976  -24.1073   21.1751 H   0  0  0  0  0  0
  -31.6622  -22.1071   20.5566 H   0  0  0  0  0  0
  -31.0712  -22.1819   18.8953 H   0  0  0  0  0  0
  -27.5755  -22.0180   20.0597 H   0  0  0  0  0  0
  -28.3118  -22.4653   21.5894 H   0  0  0  0  0  0
  -28.9534  -23.0832   17.8920 H   0  0  0  0  0  0
  -28.8223  -24.8347   17.9906 H   0  0  0  0  0  0
  -27.4127  -23.8270   18.2905 H   0  0  0  0  0  0
  -28.4411  -25.1111   21.7001 H   0  0  0  0  0  0
  -27.0626  -24.8664   20.7120 H   0  0  0  0  0  0
  -28.9061  -15.3285   21.2299 H   0  0  0  0  0  0
  1 25  1  0  0  0
  1 30  2  0  0  0
  1 84  1  0  0  0
  2  3  1  0  0  0
  2 25  1  0  0  0
  2 86  1  0  0  0
  2 87  1  0  0  0
  3  4  1  0  0  0
  3 88  1  0  0  0
  3 89  1  0  0  0
  4  5  1  0  0  0
  4 90  1  0  0  0
  4 91  1  0  0  0
  5  6  1  0  0  0
  5 26  1  0  0  0
  5 92  1  0  0  0
  6 25  1  0  0  0
  6 93  1  0  0  0
  6 94  1  0  0  0
  7  8  2  0  0  0
  7 26  1  0  0  0
  7 29  1  0  0  0
  8  9  1  0  0  0
  8 22  1  0  0  0
  9 10  1  0  0  0
  9 27  2  0  0  0
 10 11  2  0  0  0
 10 15  1  0  0  0
 11 12  1  0  0  0
 11 95  1  0  0  0
 12 13  2  0  0  0
 12 96  1  0  0  0
 13 14  1  0  0  0
 13 31  1  0  0  0
 14 15  2  0  0  0
 14 97  1  0  0  0
 15 98  1  0  0  0
 16 17  2  0  0  0
 16 21  1  0  0  0
 16 31  1  0  0  0
 17 18  1  0  0  0
 17 99  1  0  0  0
 18 19  2  0  0  0
 18100  1  0  0  0
 19 20  1  0  0  0
 19 24  1  0  0  0
 20 21  2  0  0  0
 20101  1  0  0  0
 21 23  1  0  0  0
 22 28  1  0  0  0
 22 32  2  0  0  0
 26 27  1  0  0  0
 28102  1  0  0  0
 28103  1  0  0  0
 29104  1  0  0  0
 29105  1  0  0  0
 33 34  1  0  0  0
 33 66  1  0  0  0
 33 70  2  0  0  0
 34 36  1  0  0  0
 34 59  1  0  0  0
 34106  1  0  0  0
 35 44  2  0  0  0
 35 45  1  0  0  0
 35 68  1  0  0  0
 36 56  1  0  0  0
 36107  1  0  0  0
 37 39  1  0  0  0
 37 47  1  0  0  0
 37 66  1  0  0  0
 37108  1  0  0  0
 38 43  2  0  0  0
 38 46  1  0  0  0
 38 47  1  0  0  0
 39 64  1  0  0  0
 39 67  2  0  0  0
 40 52  1  0  0  0
 40 53  2  0  0  0
 40 58  1  0  0  0
 41109  1  0  0  0
 41110  1  0  0  0
 41111  1  0  0  0
 41 48  1  0  0  0
 42 43  1  0  0  0
 42 66  1  0  0  0
 42112  1  0  0  0
 42113  1  0  0  0
 43 44  1  0  0  0
 44114  1  0  0  0
 45 46  2  0  0  0
 45115  1  0  0  0
 46116  1  0  0  0
 47117  1  0  0  0
 47118  1  0  0  0
 48 56  1  0  0  0
 48 65  1  0  0  0
 48119  1  0  0  0
 49 50  1  0  0  0
 49 53  1  0  0  0
 49 64  1  0  0  0
 49120  1  0  0  0
 50 51  1  0  0  0
 50121  1  0  0  0
 50122  1  0  0  0
 51 52  1  0  0  0
 51123  1  0  0  0
 51124  1  0  0  0
 52125  1  0  0  0
 52126  1  0  0  0
 53 54  1  0  0  0
 54 55  2  0  0  0
 54127  1  0  0  0
 55 57  1  0  0  0
 55128  1  0  0  0
 56 69  2  0  0  0
 57 58  2  0  0  0
 57129  1  0  0  0
 58130  1  0  0  0
 59 60  1  0  0  0
 59 61  1  0  0  0
 59 62  1  0  0  0
 60131  1  0  0  0
 60132  1  0  0  0
 60133  1  0  0  0
 61134  1  0  0  0
 61135  1  0  0  0
 61136  1  0  0  0
 62137  1  0  0  0
 62138  1  0  0  0
 62139  1  0  0  0
 63 65  1  0  0  0
 63140  1  0  0  0
 63141  1  0  0  0
 63142  1  0  0  0
 64143  1  0  0  0
 65144  1  0  0  0
 68 82  1  0  0  0
 71 72  2  0  0  0
 71 74  1  0  0  0
 71145  1  0  0  0
 72 75  1  0  0  0
 72146  1  0  0  0
 73 75  2  0  0  0
 73 76  1  0  0  0
 73147  1  0  0  0
 74 76  2  0  0  0
 74 83  1  0  0  0
 75 84  1  0  0  0
 76 85  1  0  0  0
 77 78  1  0  0  0
 77 80  1  0  0  0
 77148  1  0  0  0
 77149  1  0  0  0
 78 83  1  0  0  0
 78150  1  0  0  0
 78151  1  0  0  0
 79 80  1  0  0  0
 79 83  1  0  0  0
 79152  1  0  0  0
 79153  1  0  0  0
 80 81  1  0  0  0
 80 82  1  0  0  0
 81154  1  0  0  0
 81155  1  0  0  0
 81156  1  0  0  0
 82157  1  0  0  0
 82158  1  0  0  0
 84159  1  0  0  0
M  ISO  4   1 100  68 101  82 101  84 100
M  END
> <chiral flag>
0

> <version>
0

> <s_m_source_file>
/data/baiqing/PycharmProjects/Reinvent-master-3.2/result/LINK_invent/BTK/process_docking_weight1_custom_product_contain_oxygen_bond_distance_aromatic_linkinvent_7_9_3/rearranged_h_0151.sdf

> <i_m_source_file_index>
81

> <r_mmod_Potential_Energy-OPLS-2005>
184.918243408203

> <r_mmod_Stretch_Energy-OPLS-2005>
79.448860168457

> <r_mmod_Bend_Energy-OPLS-2005>
185.612747192383

> <r_mmod_Torsional_Energy-OPLS-2005>
283.787994384766

> <r_mmod_Improper_Torsional_Energy-OPLS-2005>
3.94793367385864

> <r_mmod_Van_der_Waal_Energy-OPLS-2005>
142.03694152832

> <r_mmod_Electrostatic_Energy-OPLS-2005>
-339.567596435547

> <r_mmod_Solvation_Energy-OPLS-2005>
-217.701629638672

> <b_mmod_Minimization_Converged-OPLS-2005>
0

> <r_mmod_RMS_Derivative-OPLS-2005>
0.650366246700287

$$$$
81
                    3D
 Structure written by MMmdl.
158167  0  0  1  0            999 V2000
  -30.6616  -14.5783   20.4946 C   0  0  0  0  0  0
  -30.4255  -12.3490   19.4557 C   0  0  0  0  0  0
  -29.5032  -12.4892   18.2248 C   0  0  0  0  0  0
  -28.0242  -12.3454   18.6348 C   0  0  0  0  0  0
  -27.6548  -13.2147   19.8665 C   0  0  2  0  0  0
  -28.6971  -13.0659   20.9997 C   0  0  0  0  0  0
  -25.2566  -13.8173   20.5682 C   0  0  0  0  0  0
  -24.1834  -13.0448   20.9193 C   0  0  0  0  0  0
  -24.6405  -11.6912   20.8753 C   0  0  0  0  0  0
  -23.9067  -10.4299   21.0419 C   0  0  0  0  0  0
  -24.3616   -9.4212   21.9199 C   0  0  0  0  0  0
  -23.6297   -8.2243   22.0764 C   0  0  0  0  0  0
  -22.4282   -8.0284   21.3550 C   0  0  0  0  0  0
  -21.9919   -9.0253   20.4650 C   0  0  0  0  0  0
  -22.7240  -10.2138   20.3065 C   0  0  0  0  0  0
  -21.6850   -6.0737   22.5276 C   0  0  0  0  0  0
  -21.4015   -6.5641   23.8209 C   0  0  0  0  0  0
  -21.3660   -5.6798   24.9175 C   0  0  0  0  0  0
  -21.6043   -4.3056   24.7227 C   0  0  0  0  0  0
  -21.8818   -3.8149   23.4346 C   0  0  0  0  0  0
  -21.9194   -4.6967   22.3401 C   0  0  0  0  0  0
  -22.7862  -13.5247   21.1848 C   0  0  0  0  0  0
  -22.1661   -4.2153   21.0977 F   0  0  0  0  0  0
  -21.5630   -3.4541   25.7736 F   0  0  0  0  0  0
  -30.0206  -13.3727   20.4372 N   0  0  0  0  0  0
  -26.2997  -12.9354   20.3334 N   0  0  0  0  0  0
  -25.9329  -11.6513   20.5780 N   0  0  0  0  0  0
  -22.0488  -12.8233   22.0395 N   0  0  0  0  0  0
  -25.4307  -15.1887   20.4060 N   0  0  0  0  0  0
  -31.8149  -14.7211   20.0784 O   0  0  0  0  0  0
  -21.6641   -6.8884   21.4243 O   0  0  0  0  0  0
  -22.3554  -14.5565   20.6708 O   0  0  0  0  0  0
  -24.6201  -31.8637   23.2028 C   0  0  0  0  0  0
  -25.9056  -32.4806   23.8373 C   0  0  1  0  0  0
  -27.2434  -27.3708   20.1155 C   0  0  0  0  0  0
  -25.5885  -33.8603   24.2297 N   0  0  0  0  0  0
  -23.4160  -30.4807   21.5433 C   0  0  2  0  0  0
  -24.8677  -28.9358   20.1154 C   0  0  0  0  0  0
  -22.7472  -29.4626   22.4967 C   0  0  0  0  0  0
  -18.0272  -28.1376   22.8490 C   0  0  0  0  0  0
  -24.1493  -36.7302   23.2638 C   0  0  0  0  0  0
  -25.9495  -30.8075   21.3684 C   0  0  0  0  0  0
  -26.0300  -29.4344   20.7197 C   0  0  0  0  0  0
  -27.2219  -28.6615   20.7140 C   0  0  0  0  0  0
  -26.0700  -26.9156   19.4763 C   0  0  0  0  0  0
  -24.8852  -27.6774   19.4891 C   0  0  0  0  0  0
  -23.6311  -29.8086   20.1614 C   0  0  0  0  0  0
  -25.4114  -36.3103   24.0337 C   0  0  1  0  0  0
  -20.5871  -28.3680   23.1304 C   0  0  2  0  0  0
  -20.6760  -26.9410   22.5419 C   0  0  0  0  0  0
  -19.5728  -26.6381   21.5219 C   0  0  0  0  0  0
  -18.1901  -26.7919   22.1631 C   0  0  0  0  0  0
  -19.1522  -28.8842   23.2884 C   0  0  0  0  0  0
  -18.9456  -30.1439   23.8912 C   0  0  0  0  0  0
  -17.6457  -30.6580   24.0556 C   0  0  0  0  0  0
  -25.9055  -34.9465   23.5121 C   0  0  0  0  0  0
  -16.5344  -29.9089   23.6316 C   0  0  0  0  0  0
  -16.7263  -28.6500   23.0352 C   0  0  0  0  0  0
  -26.4452  -31.6605   25.0721 C   0  0  0  0  0  0
  -25.3688  -31.3707   26.1450 C   0  0  0  0  0  0
  -27.0289  -30.3043   24.6117 C   0  0  0  0  0  0
  -27.6041  -32.4323   25.7466 C   0  0  0  0  0  0
  -27.5597  -37.1770   24.8445 C   0  0  0  0  0  0
  -21.4189  -29.3038   22.3715 N   0  0  0  0  0  0
  -26.4289  -37.3795   23.9432 N   0  0  0  0  0  0
  -24.6801  -31.0667   22.0958 N   0  0  0  0  0  0
  -23.4200  -28.8184   23.3062 O   0  0  0  0  0  0
  -28.3911  -26.5809   20.1023 O   0  0  0  0  0  0
  -26.5645  -34.8920   22.4699 O   0  0  0  0  0  0
  -23.5368  -32.1439   23.7352 O   0  0  0  0  0  0
  -30.6470  -18.7970   19.1972 C   0  0  0  0  0  0
  -30.0047  -19.2938   20.3134 C   0  0  0  0  0  0
  -30.0997  -17.0342   20.4303 C   0  0  0  0  0  0
  -28.5090  -21.6260   20.5134 C   0  0  0  0  0  0
  -30.4431  -21.9691   20.0616 C   0  0  0  0  0  0
  -29.7694  -20.7552   20.7427 C   0  0  2  0  0  0
  -27.1298  -24.8468   21.4913 C   0  0  0  0  0  0
  -29.0185  -24.0965   19.8959 C   0  0  0  0  0  0
  -28.4322  -25.2691   20.7795 C   0  0  1  0  0  0
  -29.6513  -18.1548   21.0407 N   0  0  0  0  0  0
  -30.7030  -17.4263   19.3037 N   0  3  0  0  0  0
  -29.9177  -15.6588   20.8581 N   0  0  0  0  0  0
  -29.3802  -22.8230   20.6368 N   0  3  1  0  0  0
  -31.4708  -12.4470   19.1573 H   0  0  0  0  0  0
  -30.3335  -11.3536   19.8932 H   0  0  0  0  0  0
  -29.7557  -11.7342   17.4789 H   0  0  0  0  0  0
  -29.6619  -13.4556   17.7450 H   0  0  0  0  0  0
  -27.8479  -11.2936   18.8600 H   0  0  0  0  0  0
  -27.3738  -12.5872   17.7935 H   0  0  0  0  0  0
  -27.6777  -14.2502   19.5286 H   0  0  0  0  0  0
  -28.6891  -12.0509   21.3996 H   0  0  0  0  0  0
  -28.4529  -13.7181   21.8390 H   0  0  0  0  0  0
  -25.2762   -9.5682   22.4779 H   0  0  0  0  0  0
  -23.9999   -7.4637   22.7486 H   0  0  0  0  0  0
  -21.0853   -8.8782   19.8951 H   0  0  0  0  0  0
  -22.3712  -10.9684   19.6173 H   0  0  0  0  0  0
  -21.2005   -7.6151   23.9716 H   0  0  0  0  0  0
  -21.1485   -6.0527   25.9078 H   0  0  0  0  0  0
  -22.0597   -2.7614   23.2845 H   0  0  0  0  0  0
  -22.4087  -11.9863   22.4737 H   0  0  0  0  0  0
  -21.1124  -13.1287   22.2622 H   0  0  0  0  0  0
  -24.6633  -15.8450   20.5028 H   0  0  0  0  0  0
  -26.2743  -15.6190   20.0478 H   0  0  0  0  0  0
  -26.7139  -32.5523   23.1156 H   0  0  0  0  0  0
  -24.9967  -33.9765   25.0393 H   0  0  0  0  0  0
  -22.7075  -31.2971   21.3961 H   0  0  0  0  0  0
  -23.3767  -35.9615   23.3271 H   0  0  0  0  0  0
  -24.3591  -36.8948   22.2056 H   0  0  0  0  0  0
  -23.7220  -37.6477   23.6691 H   0  0  0  0  0  0
  -26.0709  -31.5706   20.5965 H   0  0  0  0  0  0
  -26.8326  -30.8640   21.9942 H   0  0  0  0  0  0
  -28.1209  -29.0413   21.1811 H   0  0  0  0  0  0
  -26.0707  -25.9602   18.9706 H   0  0  0  0  0  0
  -23.9955  -27.2923   19.0081 H   0  0  0  0  0  0
  -23.7475  -30.5800   19.4000 H   0  0  0  0  0  0
  -22.7549  -29.2281   19.8677 H   0  0  0  0  0  0
  -25.1279  -36.1954   25.0825 H   0  0  0  0  0  0
  -20.9936  -28.3245   24.1432 H   0  0  0  0  0  0
  -20.5655  -26.2304   23.3621 H   0  0  0  0  0  0
  -21.6630  -26.7440   22.1204 H   0  0  0  0  0  0
  -19.6896  -25.6292   21.1244 H   0  0  0  0  0  0
  -19.6651  -27.3209   20.6748 H   0  0  0  0  0  0
  -17.4177  -26.6671   21.4022 H   0  0  0  0  0  0
  -18.0275  -26.0067   22.9032 H   0  0  0  0  0  0
  -19.7933  -30.7220   24.2325 H   0  0  0  0  0  0
  -17.5020  -31.6268   24.5150 H   0  0  0  0  0  0
  -15.5342  -30.2990   23.7636 H   0  0  0  0  0  0
  -15.8663  -28.0811   22.7080 H   0  0  0  0  0  0
  -24.5873  -30.7059   25.7754 H   0  0  0  0  0  0
  -24.8851  -32.2854   26.4901 H   0  0  0  0  0  0
  -25.7995  -30.8860   27.0228 H   0  0  0  0  0  0
  -26.2837  -29.6794   24.1185 H   0  0  0  0  0  0
  -27.4070  -29.7288   25.4579 H   0  0  0  0  0  0
  -27.8680  -30.4354   23.9276 H   0  0  0  0  0  0
  -27.2704  -33.3657   26.2030 H   0  0  0  0  0  0
  -28.3847  -32.6837   25.0266 H   0  0  0  0  0  0
  -28.0739  -31.8461   26.5380 H   0  0  0  0  0  0
  -28.2535  -38.0149   24.7627 H   0  0  0  0  0  0
  -28.1175  -36.2684   24.6113 H   0  0  0  0  0  0
  -27.2335  -37.1216   25.8844 H   0  0  0  0  0  0
  -20.9391  -29.8793   21.6943 H   0  0  0  0  0  0
  -26.0174  -38.2858   24.1482 H   0  0  0  0  0  0
  -31.0864  -19.3152   18.3563 H   0  0  0  0  0  0
  -27.7507  -21.5494   21.2920 H   0  0  0  0  0  0
  -28.0737  -21.5085   19.5186 H   0  0  0  0  0  0
  -30.4188  -21.9257   18.9691 H   0  0  0  0  0  0
  -31.4452  -22.1993   20.4248 H   0  0  0  0  0  0
  -30.0122  -20.7801   21.8081 H   0  0  0  0  0  0
  -27.3042  -23.9979   22.1504 H   0  0  0  0  0  0
  -26.3605  -24.5481   20.7806 H   0  0  0  0  0  0
  -26.7336  -25.6471   22.1157 H   0  0  0  0  0  0
  -29.9428  -24.4734   19.4565 H   0  0  0  0  0  0
  -28.3576  -23.8779   19.0574 H   0  0  0  0  0  0
  -29.1567  -25.4370   21.5767 H   0  0  0  0  0  0
  -29.1633  -18.1648   21.9300 H   0  0  0  0  0  0
  -31.1484  -16.8143   18.6301 H   0  0  0  0  0  0
  -29.0467  -15.4505   21.3203 H   0  0  0  0  0  0
  -29.6063  -23.0101   21.6022 H   0  0  0  0  0  0
  1 25  1  0  0  0
  1 30  2  0  0  0
  1 82  1  0  0  0
  2  3  1  0  0  0
  2 25  1  0  0  0
  2 84  1  0  0  0
  2 85  1  0  0  0
  3  4  1  0  0  0
  3 86  1  0  0  0
  3 87  1  0  0  0
  4  5  1  0  0  0
  4 88  1  0  0  0
  4 89  1  0  0  0
  5  6  1  0  0  0
  5 26  1  0  0  0
  5 90  1  0  0  0
  6 25  1  0  0  0
  6 91  1  0  0  0
  6 92  1  0  0  0
  7  8  2  0  0  0
  7 26  1  0  0  0
  7 29  1  0  0  0
  8  9  1  0  0  0
  8 22  1  0  0  0
  9 10  1  0  0  0
  9 27  2  0  0  0
 10 11  2  0  0  0
 10 15  1  0  0  0
 11 12  1  0  0  0
 11 93  1  0  0  0
 12 13  2  0  0  0
 12 94  1  0  0  0
 13 14  1  0  0  0
 13 31  1  0  0  0
 14 15  2  0  0  0
 14 95  1  0  0  0
 15 96  1  0  0  0
 16 17  2  0  0  0
 16 21  1  0  0  0
 16 31  1  0  0  0
 17 18  1  0  0  0
 17 97  1  0  0  0
 18 19  2  0  0  0
 18 98  1  0  0  0
 19 20  1  0  0  0
 19 24  1  0  0  0
 20 21  2  0  0  0
 20 99  1  0  0  0
 21 23  1  0  0  0
 22 28  1  0  0  0
 22 32  2  0  0  0
 26 27  1  0  0  0
 28100  1  0  0  0
 28101  1  0  0  0
 29102  1  0  0  0
 29103  1  0  0  0
 33 34  1  0  0  0
 33 66  1  0  0  0
 33 70  2  0  0  0
 34 36  1  0  0  0
 34 59  1  0  0  0
 34104  1  0  0  0
 35 44  2  0  0  0
 35 45  1  0  0  0
 35 68  1  0  0  0
 36 56  1  0  0  0
 36105  1  0  0  0
 37 39  1  0  0  0
 37 47  1  0  0  0
 37 66  1  0  0  0
 37106  1  0  0  0
 38 43  2  0  0  0
 38 46  1  0  0  0
 38 47  1  0  0  0
 39 64  1  0  0  0
 39 67  2  0  0  0
 40 52  1  0  0  0
 40 53  2  0  0  0
 40 58  1  0  0  0
 41107  1  0  0  0
 41108  1  0  0  0
 41109  1  0  0  0
 41 48  1  0  0  0
 42 43  1  0  0  0
 42 66  1  0  0  0
 42110  1  0  0  0
 42111  1  0  0  0
 43 44  1  0  0  0
 44112  1  0  0  0
 45 46  2  0  0  0
 45113  1  0  0  0
 46114  1  0  0  0
 47115  1  0  0  0
 47116  1  0  0  0
 48 56  1  0  0  0
 48 65  1  0  0  0
 48117  1  0  0  0
 49 50  1  0  0  0
 49 53  1  0  0  0
 49 64  1  0  0  0
 49118  1  0  0  0
 50 51  1  0  0  0
 50119  1  0  0  0
 50120  1  0  0  0
 51 52  1  0  0  0
 51121  1  0  0  0
 51122  1  0  0  0
 52123  1  0  0  0
 52124  1  0  0  0
 53 54  1  0  0  0
 54 55  2  0  0  0
 54125  1  0  0  0
 55 57  1  0  0  0
 55126  1  0  0  0
 56 69  2  0  0  0
 57 58  2  0  0  0
 57127  1  0  0  0
 58128  1  0  0  0
 59 60  1  0  0  0
 59 61  1  0  0  0
 59 62  1  0  0  0
 60129  1  0  0  0
 60130  1  0  0  0
 60131  1  0  0  0
 61132  1  0  0  0
 61133  1  0  0  0
 61134  1  0  0  0
 62135  1  0  0  0
 62136  1  0  0  0
 62137  1  0  0  0
 63 65  1  0  0  0
 63138  1  0  0  0
 63139  1  0  0  0
 63140  1  0  0  0
 64141  1  0  0  0
 65142  1  0  0  0
 68 79  1  0  0  0
 71 72  2  0  0  0
 71 81  1  0  0  0
 71143  1  0  0  0
 72 80  1  0  0  0
 72 76  1  0  0  0
 73 80  1  0  0  0
 73 81  2  0  0  0
 73 82  1  0  0  0
 74 76  1  0  0  0
 74 83  1  0  0  0
 74144  1  0  0  0
 74145  1  0  0  0
 75 76  1  0  0  0
 75 83  1  0  0  0
 75146  1  0  0  0
 75147  1  0  0  0
 76148  1  0  0  0
 77149  1  0  0  0
 77150  1  0  0  0
 77151  1  0  0  0
 77 79  1  0  0  0
 78 79  1  0  0  0
 78152  1  0  0  0
 78153  1  0  0  0
 78 83  1  0  0  0
 79154  1  0  0  0
 80155  1  0  0  0
 81156  1  0  0  0
 82157  1  0  0  0
 83158  1  0  0  0
M  CHG  2  81   1  83   1
M  ISO  4   1 100  68 101  79 101  82 100
M  END
> <chiral flag>
0

> <version>
0

> <s_m_source_file>
/data/baiqing/PycharmProjects/Reinvent-master-3.2/result/LINK_invent/BTK/process_docking_weight1_custom_product_contain_oxygen_bond_distance_aromatic_linkinvent_7_9_3/rearranged_h_0151.sdf

> <i_m_source_file_index>
82

> <r_mmod_Potential_Energy-OPLS-2005>
-234.642730712891

> <r_mmod_Stretch_Energy-OPLS-2005>
60.619987487793

> <r_mmod_Bend_Energy-OPLS-2005>
156.120086669922

> <r_mmod_Torsional_Energy-OPLS-2005>
269.563873291016

> <r_mmod_Improper_Torsional_Energy-OPLS-2005>
4.93979644775391

> <r_mmod_Van_der_Waal_Energy-OPLS-2005>
126.705123901367

> <r_mmod_Electrostatic_Energy-OPLS-2005>
50.4332542419434

> <r_mmod_Solvation_Energy-OPLS-2005>
-932.413940429688

> <b_mmod_Minimization_Converged-OPLS-2005>
0

> <r_mmod_RMS_Derivative-OPLS-2005>
2.53317308425903

$$$$
82
                    3D
 Structure written by MMmdl.
151159  0  0  1  0            999 V2000
  -30.5573  -14.8114   20.4352 C   0  0  0  0  0  0
  -30.4413  -12.4913   19.4920 C   0  0  0  0  0  0
  -29.5227  -12.5226   18.2479 C   0  0  0  0  0  0
  -28.0473  -12.3391   18.6534 C   0  0  0  0  0  0
  -27.6426  -13.2359   19.8530 C   0  0  2  0  0  0
  -28.6812  -13.1782   20.9940 C   0  0  0  0  0  0
  -25.2514  -13.8203   20.5691 C   0  0  0  0  0  0
  -24.1806  -13.0454   20.9207 C   0  0  0  0  0  0
  -24.6391  -11.6929   20.8763 C   0  0  0  0  0  0
  -23.9078  -10.4308   21.0431 C   0  0  0  0  0  0
  -24.3626   -9.4227   21.9202 C   0  0  0  0  0  0
  -23.6303   -8.2256   22.0756 C   0  0  0  0  0  0
  -22.4276   -8.0292   21.3557 C   0  0  0  0  0  0
  -21.9918   -9.0274   20.4664 C   0  0  0  0  0  0
  -22.7258  -10.2143   20.3089 C   0  0  0  0  0  0
  -21.6845   -6.0753   22.5276 C   0  0  0  0  0  0
  -21.4020   -6.5656   23.8214 C   0  0  0  0  0  0
  -21.3664   -5.6803   24.9174 C   0  0  0  0  0  0
  -21.6027   -4.3065   24.7221 C   0  0  0  0  0  0
  -21.8825   -3.8166   23.4340 C   0  0  0  0  0  0
  -21.9187   -4.6985   22.3398 C   0  0  0  0  0  0
  -22.7822  -13.5260   21.1842 C   0  0  0  0  0  0
  -22.1660   -4.2190   21.0972 F   0  0  0  0  0  0
  -21.5613   -3.4539   25.7724 F   0  0  0  0  0  0
  -29.9781  -13.5550   20.4198 N   0  0  0  0  0  0
  -26.2936  -12.9420   20.3266 N   0  0  0  0  0  0
  -25.9316  -11.6562   20.5728 N   0  0  0  0  0  0
  -22.0434  -12.8288   22.0396 N   0  0  0  0  0  0
  -25.4223  -15.1911   20.4130 N   0  0  0  0  0  0
  -31.7366  -14.9265   20.0824 O   0  0  0  0  0  0
  -21.6631   -6.8893   21.4243 O   0  0  0  0  0  0
  -22.3523  -14.5578   20.6686 O   0  0  0  0  0  0
  -24.6357  -31.8517   23.1967 C   0  0  0  0  0  0
  -25.9165  -32.4744   23.8307 C   0  0  1  0  0  0
  -27.2089  -27.2158   20.1349 C   0  0  0  0  0  0
  -25.5931  -33.8540   24.2232 N   0  0  0  0  0  0
  -23.4325  -30.4771   21.5396 C   0  0  2  0  0  0
  -24.8793  -28.9213   20.1067 C   0  0  0  0  0  0
  -22.7526  -29.4577   22.4881 C   0  0  0  0  0  0
  -18.0299  -28.1383   22.8481 C   0  0  0  0  0  0
  -24.1489  -36.7286   23.2636 C   0  0  0  0  0  0
  -25.9844  -30.7510   21.3839 C   0  0  0  0  0  0
  -26.0516  -29.3700   20.7252 C   0  0  0  0  0  0
  -27.2176  -28.5314   20.7290 C   0  0  0  0  0  0
  -26.0183  -26.8609   19.4610 C   0  0  0  0  0  0
  -24.8699  -27.6761   19.4621 C   0  0  0  0  0  0
  -23.6537  -29.8135   20.1555 C   0  0  0  0  0  0
  -25.4117  -36.3066   24.0321 C   0  0  1  0  0  0
  -20.5897  -28.3696   23.1250 C   0  0  2  0  0  0
  -20.6779  -26.9408   22.5395 C   0  0  0  0  0  0
  -19.5756  -26.6372   21.5200 C   0  0  0  0  0  0
  -18.1940  -26.7923   22.1620 C   0  0  0  0  0  0
  -19.1552  -28.8858   23.2856 C   0  0  0  0  0  0
  -18.9476  -30.1456   23.8885 C   0  0  0  0  0  0
  -17.6472  -30.6576   24.0563 C   0  0  0  0  0  0
  -25.9055  -34.9433   23.5084 C   0  0  0  0  0  0
  -16.5363  -29.9075   23.6327 C   0  0  0  0  0  0
  -16.7285  -28.6490   23.0354 C   0  0  0  0  0  0
  -26.4489  -31.6587   25.0721 C   0  0  0  0  0  0
  -25.3688  -31.3774   26.1430 C   0  0  0  0  0  0
  -27.0344  -30.2996   24.6257 C   0  0  0  0  0  0
  -27.6028  -32.4338   25.7507 C   0  0  0  0  0  0
  -27.5587  -37.1790   24.8458 C   0  0  0  0  0  0
  -21.4224  -29.3039   22.3641 N   0  0  0  0  0  0
  -26.4289  -37.3773   23.9408 N   0  0  0  0  0  0
  -24.7036  -31.0459   22.0959 N   0  0  0  0  0  0
  -23.4219  -28.8103   23.2979 O   0  0  0  0  0  0
  -28.2792  -26.2776   20.2314 O   0  0  0  0  0  0
  -26.5648  -34.8913   22.4671 O   0  0  0  0  0  0
  -23.5499  -32.1333   23.7262 O   0  0  0  0  0  0
  -30.1277  -19.2121   19.1190 C   0  0  0  0  0  0
  -30.3772  -17.7892   19.1722 C   0  0  0  0  0  0
  -29.4602  -19.5844   20.2612 C   0  0  0  0  0  0
  -29.8449  -17.2928   20.3401 C   0  0  0  0  0  0
  -28.9551  -22.0932   19.9294 C   0  0  0  0  0  0
  -28.0793  -24.7988   19.8948 C   0  0  0  0  0  0
  -28.9072  -23.5702   20.6025 C   0  0  2  0  0  0
  -29.1285  -20.9084   20.6577 N   0  0  0  0  0  0
  -29.7586  -15.9287   20.7141 N   0  0  0  0  0  0
  -30.3058  -24.0067   20.7652 N   0  3  0  0  0  0
  -28.8784  -22.0463   18.7009 O   0  0  0  0  0  0
  -29.2661  -18.3983   21.0216 O   0  0  0  0  0  0
  -31.4827  -12.6338   19.1931 H   0  0  0  0  0  0
  -30.4024  -11.5168   19.9822 H   0  0  0  0  0  0
  -29.8148  -11.7484   17.5375 H   0  0  0  0  0  0
  -29.6412  -13.4743   17.7267 H   0  0  0  0  0  0
  -27.9090  -11.2901   18.9155 H   0  0  0  0  0  0
  -27.3958  -12.5284   17.7992 H   0  0  0  0  0  0
  -27.6347  -14.2564   19.4684 H   0  0  0  0  0  0
  -28.7281  -12.1800   21.4343 H   0  0  0  0  0  0
  -28.4039  -13.8514   21.8060 H   0  0  0  0  0  0
  -25.2775   -9.5692   22.4780 H   0  0  0  0  0  0
  -24.0023   -7.4638   22.7468 H   0  0  0  0  0  0
  -21.0860   -8.8820   19.8963 H   0  0  0  0  0  0
  -22.3747  -10.9694   19.6201 H   0  0  0  0  0  0
  -21.2036   -7.6164   23.9753 H   0  0  0  0  0  0
  -21.1464   -6.0509   25.9077 H   0  0  0  0  0  0
  -22.0597   -2.7632   23.2811 H   0  0  0  0  0  0
  -22.4027  -11.9989   22.4844 H   0  0  0  0  0  0
  -21.1053  -13.1341   22.2550 H   0  0  0  0  0  0
  -24.6552  -15.8458   20.5271 H   0  0  0  0  0  0
  -26.2668  -15.6297   20.0679 H   0  0  0  0  0  0
  -26.7243  -32.5383   23.1045 H   0  0  0  0  0  0
  -25.0050  -33.9654   25.0360 H   0  0  0  0  0  0
  -22.7287  -31.3009   21.3941 H   0  0  0  0  0  0
  -23.3759  -35.9606   23.3276 H   0  0  0  0  0  0
  -24.3590  -36.8947   22.2057 H   0  0  0  0  0  0
  -23.7221  -37.6467   23.6687 H   0  0  0  0  0  0
  -26.1311  -31.5088   20.6135 H   0  0  0  0  0  0
  -26.8597  -30.7973   22.0193 H   0  0  0  0  0  0
  -28.1094  -28.8693   21.2369 H   0  0  0  0  0  0
  -25.9298  -25.9223   18.9369 H   0  0  0  0  0  0
  -23.9753  -27.3320   18.9618 H   0  0  0  0  0  0
  -23.7854  -30.5896   19.4010 H   0  0  0  0  0  0
  -22.7702  -29.2494   19.8497 H   0  0  0  0  0  0
  -25.1287  -36.1912   25.0812 H   0  0  0  0  0  0
  -20.9993  -28.3294   24.1369 H   0  0  0  0  0  0
  -20.5665  -26.2310   23.3610 H   0  0  0  0  0  0
  -21.6654  -26.7412   22.1208 H   0  0  0  0  0  0
  -19.6912  -25.6274   21.1253 H   0  0  0  0  0  0
  -19.6702  -27.3168   20.6723 H   0  0  0  0  0  0
  -17.4202  -26.6670   21.4032 H   0  0  0  0  0  0
  -18.0348  -26.0056   22.9014 H   0  0  0  0  0  0
  -19.7955  -30.7283   24.2245 H   0  0  0  0  0  0
  -17.5024  -31.6266   24.5162 H   0  0  0  0  0  0
  -15.5363  -30.2983   23.7637 H   0  0  0  0  0  0
  -15.8685  -28.0803   22.7075 H   0  0  0  0  0  0
  -24.5842  -30.7146   25.7755 H   0  0  0  0  0  0
  -24.8896  -32.2962   26.4823 H   0  0  0  0  0  0
  -25.7964  -30.8956   27.0231 H   0  0  0  0  0  0
  -26.2947  -29.6735   24.1252 H   0  0  0  0  0  0
  -27.3971  -29.7275   25.4805 H   0  0  0  0  0  0
  -27.8849  -30.4264   23.9556 H   0  0  0  0  0  0
  -27.2619  -33.3648   26.2055 H   0  0  0  0  0  0
  -28.3851  -32.6889   25.0344 H   0  0  0  0  0  0
  -28.0675  -31.8479   26.5446 H   0  0  0  0  0  0
  -28.2571  -38.0116   24.7544 H   0  0  0  0  0  0
  -28.1111  -36.2649   24.6232 H   0  0  0  0  0  0
  -27.2315  -37.1395   25.8860 H   0  0  0  0  0  0
  -20.9413  -29.8796   21.6874 H   0  0  0  0  0  0
  -26.0169  -38.2844   24.1417 H   0  0  0  0  0  0
  -30.4251  -19.8849   18.3254 H   0  0  0  0  0  0
  -30.8730  -17.2021   18.4127 H   0  0  0  0  0  0
  -27.0369  -24.5375   20.0710 H   0  0  0  0  0  0
  -28.2170  -24.7231   18.8154 H   0  0  0  0  0  0
  -28.4947  -23.4475   21.6047 H   0  0  0  0  0  0
  -29.0163  -21.0198   21.6568 H   0  0  0  0  0  0
  -28.8932  -15.6897   21.1753 H   0  0  0  0  0  0
  -30.7323  -24.1177   19.8615 H   0  0  0  0  0  0
  -30.8331  -23.3224   21.2769 H   0  0  0  0  0  0
  -30.3504  -24.8812   21.2578 H   0  0  0  0  0  0
  1 25  1  0  0  0
  1 30  2  0  0  0
  1 79  1  0  0  0
  2  3  1  0  0  0
  2 25  1  0  0  0
  2 83  1  0  0  0
  2 84  1  0  0  0
  3  4  1  0  0  0
  3 85  1  0  0  0
  3 86  1  0  0  0
  4  5  1  0  0  0
  4 87  1  0  0  0
  4 88  1  0  0  0
  5  6  1  0  0  0
  5 26  1  0  0  0
  5 89  1  0  0  0
  6 25  1  0  0  0
  6 90  1  0  0  0
  6 91  1  0  0  0
  7  8  2  0  0  0
  7 26  1  0  0  0
  7 29  1  0  0  0
  8  9  1  0  0  0
  8 22  1  0  0  0
  9 10  1  0  0  0
  9 27  2  0  0  0
 10 11  2  0  0  0
 10 15  1  0  0  0
 11 12  1  0  0  0
 11 92  1  0  0  0
 12 13  2  0  0  0
 12 93  1  0  0  0
 13 14  1  0  0  0
 13 31  1  0  0  0
 14 15  2  0  0  0
 14 94  1  0  0  0
 15 95  1  0  0  0
 16 17  2  0  0  0
 16 21  1  0  0  0
 16 31  1  0  0  0
 17 18  1  0  0  0
 17 96  1  0  0  0
 18 19  2  0  0  0
 18 97  1  0  0  0
 19 20  1  0  0  0
 19 24  1  0  0  0
 20 21  2  0  0  0
 20 98  1  0  0  0
 21 23  1  0  0  0
 22 28  1  0  0  0
 22 32  2  0  0  0
 26 27  1  0  0  0
 28 99  1  0  0  0
 28100  1  0  0  0
 29101  1  0  0  0
 29102  1  0  0  0
 33 34  1  0  0  0
 33 66  1  0  0  0
 33 70  2  0  0  0
 34 36  1  0  0  0
 34 59  1  0  0  0
 34103  1  0  0  0
 35 44  2  0  0  0
 35 45  1  0  0  0
 35 68  1  0  0  0
 36 56  1  0  0  0
 36104  1  0  0  0
 37 39  1  0  0  0
 37 47  1  0  0  0
 37 66  1  0  0  0
 37105  1  0  0  0
 38 43  2  0  0  0
 38 46  1  0  0  0
 38 47  1  0  0  0
 39 64  1  0  0  0
 39 67  2  0  0  0
 40 52  1  0  0  0
 40 53  2  0  0  0
 40 58  1  0  0  0
 41106  1  0  0  0
 41107  1  0  0  0
 41108  1  0  0  0
 41 48  1  0  0  0
 42 43  1  0  0  0
 42 66  1  0  0  0
 42109  1  0  0  0
 42110  1  0  0  0
 43 44  1  0  0  0
 44111  1  0  0  0
 45 46  2  0  0  0
 45112  1  0  0  0
 46113  1  0  0  0
 47114  1  0  0  0
 47115  1  0  0  0
 48 56  1  0  0  0
 48 65  1  0  0  0
 48116  1  0  0  0
 49 50  1  0  0  0
 49 53  1  0  0  0
 49 64  1  0  0  0
 49117  1  0  0  0
 50 51  1  0  0  0
 50118  1  0  0  0
 50119  1  0  0  0
 51 52  1  0  0  0
 51120  1  0  0  0
 51121  1  0  0  0
 52122  1  0  0  0
 52123  1  0  0  0
 53 54  1  0  0  0
 54 55  2  0  0  0
 54124  1  0  0  0
 55 57  1  0  0  0
 55125  1  0  0  0
 56 69  2  0  0  0
 57 58  2  0  0  0
 57126  1  0  0  0
 58127  1  0  0  0
 59 60  1  0  0  0
 59 61  1  0  0  0
 59 62  1  0  0  0
 60128  1  0  0  0
 60129  1  0  0  0
 60130  1  0  0  0
 61131  1  0  0  0
 61132  1  0  0  0
 61133  1  0  0  0
 62134  1  0  0  0
 62135  1  0  0  0
 62136  1  0  0  0
 63 65  1  0  0  0
 63137  1  0  0  0
 63138  1  0  0  0
 63139  1  0  0  0
 64140  1  0  0  0
 65141  1  0  0  0
 68 76  1  0  0  0
 71 72  1  0  0  0
 71 73  2  0  0  0
 71142  1  0  0  0
 72 74  2  0  0  0
 72143  1  0  0  0
 73 78  1  0  0  0
 73 82  1  0  0  0
 74 79  1  0  0  0
 74 82  1  0  0  0
 75 77  1  0  0  0
 75 78  1  0  0  0
 75 81  2  0  0  0
 76 77  1  0  0  0
 76144  1  0  0  0
 76145  1  0  0  0
 77 80  1  0  0  0
 77146  1  0  0  0
 78147  1  0  0  0
 79148  1  0  0  0
 80149  1  0  0  0
 80150  1  0  0  0
 80151  1  0  0  0
M  CHG  1  80   1
M  ISO  4   1 100  68 101  76 101  79 100
M  END
> <chiral flag>
0

> <version>
0

> <s_m_source_file>
/data/baiqing/PycharmProjects/Reinvent-master-3.2/result/LINK_invent/BTK/process_docking_weight1_custom_product_contain_oxygen_bond_distance_aromatic_linkinvent_7_9_3/rearranged_h_0151.sdf

> <i_m_source_file_index>
83

> <r_mmod_Potential_Energy-OPLS-2005>
-118.192596435547

> <r_mmod_Stretch_Energy-OPLS-2005>
148.888916015625

> <r_mmod_Bend_Energy-OPLS-2005>
194.082794189453

> <r_mmod_Torsional_Energy-OPLS-2005>
260.855529785156

> <r_mmod_Improper_Torsional_Energy-OPLS-2005>
4.34348154067993

> <r_mmod_Van_der_Waal_Energy-OPLS-2005>
120.983726501465

> <r_mmod_Electrostatic_Energy-OPLS-2005>
-454.988616943359

> <r_mmod_Solvation_Energy-OPLS-2005>
-511.106262207031

> <b_mmod_Minimization_Converged-OPLS-2005>
0

> <r_mmod_RMS_Derivative-OPLS-2005>
3.09453535079956

$$$$
83
                    3D
 Structure written by MMmdl.
148157  0  0  1  0            999 V2000
  -30.5143  -15.0617   20.3858 C   0  0  0  0  0  0
  -30.4395  -12.6648   19.4899 C   0  0  0  0  0  0
  -29.5128  -12.5068   18.2608 C   0  0  0  0  0  0
  -28.0535  -12.2701   18.6943 C   0  0  0  0  0  0
  -27.6187  -13.2304   19.8297 C   0  0  2  0  0  0
  -28.6730  -13.3042   20.9547 C   0  0  0  0  0  0
  -25.2399  -13.8128   20.5768 C   0  0  0  0  0  0
  -24.1730  -13.0395   20.9275 C   0  0  0  0  0  0
  -24.6349  -11.6881   20.8810 C   0  0  0  0  0  0
  -23.9047  -10.4271   21.0431 C   0  0  0  0  0  0
  -24.3616   -9.4181   21.9193 C   0  0  0  0  0  0
  -23.6300   -8.2210   22.0742 C   0  0  0  0  0  0
  -22.4269   -8.0261   21.3540 C   0  0  0  0  0  0
  -21.9912   -9.0230   20.4638 C   0  0  0  0  0  0
  -22.7237  -10.2117   20.3063 C   0  0  0  0  0  0
  -21.6843   -6.0731   22.5279 C   0  0  0  0  0  0
  -21.4008   -6.5636   23.8214 C   0  0  0  0  0  0
  -21.3655   -5.6790   24.9177 C   0  0  0  0  0  0
  -21.6036   -4.3047   24.7222 C   0  0  0  0  0  0
  -21.8828   -3.8146   23.4347 C   0  0  0  0  0  0
  -21.9200   -4.6963   22.3406 C   0  0  0  0  0  0
  -22.7752  -13.5178   21.1900 C   0  0  0  0  0  0
  -22.1668   -4.2155   21.0985 F   0  0  0  0  0  0
  -21.5631   -3.4532   25.7735 F   0  0  0  0  0  0
  -29.9104  -13.7907   20.3272 N   0  0  0  0  0  0
  -26.2828  -12.9360   20.3300 N   0  0  0  0  0  0
  -25.9282  -11.6511   20.5820 N   0  0  0  0  0  0
  -22.0418  -12.8178   22.0463 N   0  0  0  0  0  0
  -25.3932  -15.1859   20.4156 N   0  0  0  0  0  0
  -31.7368  -15.0570   20.1845 O   0  0  0  0  0  0
  -21.6628   -6.8873   21.4236 O   0  0  0  0  0  0
  -22.3452  -14.5498   20.6747 O   0  0  0  0  0  0
  -24.6486  -31.8372   23.1843 C   0  0  0  0  0  0
  -25.9237  -32.4680   23.8224 C   0  0  1  0  0  0
  -27.2153  -27.0872   20.1548 C   0  0  0  0  0  0
  -25.5950  -33.8483   24.2159 N   0  0  0  0  0  0
  -23.4568  -30.4582   21.5276 C   0  0  2  0  0  0
  -24.9060  -28.8670   20.1183 C   0  0  0  0  0  0
  -22.7602  -29.4543   22.4813 C   0  0  0  0  0  0
  -18.0324  -28.1414   22.8487 C   0  0  0  0  0  0
  -24.1483  -36.7248   23.2651 C   0  0  0  0  0  0
  -26.0160  -30.6957   21.3873 C   0  0  0  0  0  0
  -26.0846  -29.2965   20.7407 C   0  0  0  0  0  0
  -27.2417  -28.4216   20.7420 C   0  0  0  0  0  0
  -26.0133  -26.7666   19.4950 C   0  0  0  0  0  0
  -24.8828  -27.6169   19.4807 C   0  0  0  0  0  0
  -23.6900  -29.7813   20.1504 C   0  0  0  0  0  0
  -25.4115  -36.3011   24.0312 C   0  0  1  0  0  0
  -20.5936  -28.3750   23.1222 C   0  0  2  0  0  0
  -20.6789  -26.9441   22.5409 C   0  0  0  0  0  0
  -19.5756  -26.6393   21.5223 C   0  0  0  0  0  0
  -18.1944  -26.7958   22.1636 C   0  0  0  0  0  0
  -19.1580  -28.8894   23.2855 C   0  0  0  0  0  0
  -18.9493  -30.1492   23.8885 C   0  0  0  0  0  0
  -17.6483  -30.6609   24.0573 C   0  0  0  0  0  0
  -25.9052  -34.9401   23.5040 C   0  0  0  0  0  0
  -16.5379  -29.9113   23.6333 C   0  0  0  0  0  0
  -16.7302  -28.6535   23.0353 C   0  0  0  0  0  0
  -26.4541  -31.6577   25.0697 C   0  0  0  0  0  0
  -25.3723  -31.3775   26.1388 C   0  0  0  0  0  0
  -27.0418  -30.2974   24.6306 C   0  0  0  0  0  0
  -27.6006  -32.4380   25.7521 C   0  0  0  0  0  0
  -27.5563  -37.1785   24.8473 C   0  0  0  0  0  0
  -21.4284  -29.3068   22.3572 N   0  0  0  0  0  0
  -26.4273  -37.3735   23.9417 N   0  0  0  0  0  0
  -24.7282  -31.0185   22.0886 N   0  0  0  0  0  0
  -23.4231  -28.8058   23.2952 O   0  0  0  0  0  0
  -28.2651  -26.0868   20.1163 O   0  0  0  0  0  0
  -26.5645  -34.8907   22.4627 O   0  0  0  0  0  0
  -23.5588  -32.1228   23.7054 O   0  0  0  0  0  0
  -29.0636  -20.6081   20.0596 C   0  0  0  0  0  0
  -28.4908  -23.2651   20.2733 C   0  0  0  0  0  0
  -28.0295  -18.1448   20.7320 C   0  0  0  0  0  0
  -28.3574  -16.6013   20.5937 C   0  0  0  0  0  0
  -30.3020  -17.8185   20.2249 C   0  0  0  0  0  0
  -29.1012  -18.9341   19.9729 C   0  0  2  0  0  0
  -29.5837  -21.4561   19.1195 N   0  0  0  0  0  0
  -29.2866  -22.8932   19.2381 N   0  0  0  0  0  0
  -29.8045  -16.3393   20.4132 N   0  0  0  0  0  0
  -27.9367  -24.6250   20.6386 N   0  0  0  0  0  0
  -28.1381  -21.7071   21.2176 S   0  0  0  0  0  0
  -31.4599  -12.8472   19.1541 H   0  0  0  0  0  0
  -30.4860  -11.7346   20.0607 H   0  0  0  0  0  0
  -29.8560  -11.6826   17.6336 H   0  0  0  0  0  0
  -29.5618  -13.4074   17.6484 H   0  0  0  0  0  0
  -27.9782  -11.2375   19.0415 H   0  0  0  0  0  0
  -27.3771  -12.3517   17.8420 H   0  0  0  0  0  0
  -27.5589  -14.2055   19.3558 H   0  0  0  0  0  0
  -28.8178  -12.3231   21.4087 H   0  0  0  0  0  0
  -28.3576  -13.9569   21.7650 H   0  0  0  0  0  0
  -25.2766   -9.5663   22.4766 H   0  0  0  0  0  0
  -24.0020   -7.4599   22.7454 H   0  0  0  0  0  0
  -21.0843   -8.8746   19.8945 H   0  0  0  0  0  0
  -22.3693  -10.9656   19.6177 H   0  0  0  0  0  0
  -21.1987   -7.6142   23.9719 H   0  0  0  0  0  0
  -21.1465   -6.0516   25.9083 H   0  0  0  0  0  0
  -22.0610   -2.7605   23.2838 H   0  0  0  0  0  0
  -22.4084  -11.9877   22.4884 H   0  0  0  0  0  0
  -21.1005  -13.1146   22.2636 H   0  0  0  0  0  0
  -24.6141  -15.8234   20.5370 H   0  0  0  0  0  0
  -26.2303  -15.6349   20.0737 H   0  0  0  0  0  0
  -26.7321  -32.5262   23.0950 H   0  0  0  0  0  0
  -25.0081  -33.9580   25.0302 H   0  0  0  0  0  0
  -22.7629  -31.2860   21.3654 H   0  0  0  0  0  0
  -23.3695  -35.9640   23.3393 H   0  0  0  0  0  0
  -24.3522  -36.8785   22.2045 H   0  0  0  0  0  0
  -23.7312  -37.6510   23.6612 H   0  0  0  0  0  0
  -26.1690  -31.4410   20.6052 H   0  0  0  0  0  0
  -26.8898  -30.7569   22.0252 H   0  0  0  0  0  0
  -28.1514  -28.7511   21.2238 H   0  0  0  0  0  0
  -25.9357  -25.8114   18.9959 H   0  0  0  0  0  0
  -23.9854  -27.2855   18.9760 H   0  0  0  0  0  0
  -23.8468  -30.5513   19.3936 H   0  0  0  0  0  0
  -22.8009  -29.2363   19.8270 H   0  0  0  0  0  0
  -25.1309  -36.1817   25.0800 H   0  0  0  0  0  0
  -21.0052  -28.3344   24.1323 H   0  0  0  0  0  0
  -20.5660  -26.2361   23.3635 H   0  0  0  0  0  0
  -21.6657  -26.7407   22.1202 H   0  0  0  0  0  0
  -19.6895  -25.6293   21.1269 H   0  0  0  0  0  0
  -19.6686  -27.3188   20.6739 H   0  0  0  0  0  0
  -17.4203  -26.6714   21.4057 H   0  0  0  0  0  0
  -18.0344  -26.0117   22.9038 H   0  0  0  0  0  0
  -19.7969  -30.7332   24.2228 H   0  0  0  0  0  0
  -17.5041  -31.6274   24.5205 H   0  0  0  0  0  0
  -15.5384  -30.3011   23.7667 H   0  0  0  0  0  0
  -15.8705  -28.0861   22.7047 H   0  0  0  0  0  0
  -24.5954  -30.7046   25.7765 H   0  0  0  0  0  0
  -24.8846  -32.2950   26.4680 H   0  0  0  0  0  0
  -25.8022  -30.9093   27.0251 H   0  0  0  0  0  0
  -26.3056  -29.6699   24.1277 H   0  0  0  0  0  0
  -27.3998  -29.7265   25.4886 H   0  0  0  0  0  0
  -27.8965  -30.4226   23.9656 H   0  0  0  0  0  0
  -27.2519  -33.3655   26.2081 H   0  0  0  0  0  0
  -28.3844  -32.7011   25.0409 H   0  0  0  0  0  0
  -28.0664  -31.8546   26.5477 H   0  0  0  0  0  0
  -28.2582  -38.0080   24.7451 H   0  0  0  0  0  0
  -28.1030  -36.2575   24.6345 H   0  0  0  0  0  0
  -27.2248  -37.1519   25.8874 H   0  0  0  0  0  0
  -20.9485  -29.8823   21.6798 H   0  0  0  0  0  0
  -26.0107  -38.2795   24.1416 H   0  0  0  0  0  0
  -28.0396  -18.4518   21.7787 H   0  0  0  0  0  0
  -27.0311  -18.3744   20.3526 H   0  0  0  0  0  0
  -27.9552  -16.0513   21.4403 H   0  0  0  0  0  0
  -27.8584  -16.2554   19.6920 H   0  0  0  0  0  0
  -31.0045  -17.8424   19.3901 H   0  0  0  0  0  0
  -30.8700  -18.0998   21.1129 H   0  0  0  0  0  0
  -28.8533  -18.7653   18.9236 H   0  0  0  0  0  0
  -27.2459  -24.6736   21.3801 H   0  0  0  0  0  0
  1 25  1  0  0  0
  1 30  2  0  0  0
  1 79  1  0  0  0
  2  3  1  0  0  0
  2 25  1  0  0  0
  2 82  1  0  0  0
  2 83  1  0  0  0
  3  4  1  0  0  0
  3 84  1  0  0  0
  3 85  1  0  0  0
  4  5  1  0  0  0
  4 86  1  0  0  0
  4 87  1  0  0  0
  5  6  1  0  0  0
  5 26  1  0  0  0
  5 88  1  0  0  0
  6 25  1  0  0  0
  6 89  1  0  0  0
  6 90  1  0  0  0
  7  8  2  0  0  0
  7 26  1  0  0  0
  7 29  1  0  0  0
  8  9  1  0  0  0
  8 22  1  0  0  0
  9 10  1  0  0  0
  9 27  2  0  0  0
 10 11  2  0  0  0
 10 15  1  0  0  0
 11 12  1  0  0  0
 11 91  1  0  0  0
 12 13  2  0  0  0
 12 92  1  0  0  0
 13 14  1  0  0  0
 13 31  1  0  0  0
 14 15  2  0  0  0
 14 93  1  0  0  0
 15 94  1  0  0  0
 16 17  2  0  0  0
 16 21  1  0  0  0
 16 31  1  0  0  0
 17 18  1  0  0  0
 17 95  1  0  0  0
 18 19  2  0  0  0
 18 96  1  0  0  0
 19 20  1  0  0  0
 19 24  1  0  0  0
 20 21  2  0  0  0
 20 97  1  0  0  0
 21 23  1  0  0  0
 22 28  1  0  0  0
 22 32  2  0  0  0
 26 27  1  0  0  0
 28 98  1  0  0  0
 28 99  1  0  0  0
 29100  1  0  0  0
 29101  1  0  0  0
 33 34  1  0  0  0
 33 66  1  0  0  0
 33 70  2  0  0  0
 34 36  1  0  0  0
 34 59  1  0  0  0
 34102  1  0  0  0
 35 44  2  0  0  0
 35 45  1  0  0  0
 35 68  1  0  0  0
 36 56  1  0  0  0
 36103  1  0  0  0
 37 39  1  0  0  0
 37 47  1  0  0  0
 37 66  1  0  0  0
 37104  1  0  0  0
 38 43  2  0  0  0
 38 46  1  0  0  0
 38 47  1  0  0  0
 39 64  1  0  0  0
 39 67  2  0  0  0
 40 52  1  0  0  0
 40 53  2  0  0  0
 40 58  1  0  0  0
 41105  1  0  0  0
 41106  1  0  0  0
 41107  1  0  0  0
 41 48  1  0  0  0
 42 43  1  0  0  0
 42 66  1  0  0  0
 42108  1  0  0  0
 42109  1  0  0  0
 43 44  1  0  0  0
 44110  1  0  0  0
 45 46  2  0  0  0
 45111  1  0  0  0
 46112  1  0  0  0
 47113  1  0  0  0
 47114  1  0  0  0
 48 56  1  0  0  0
 48 65  1  0  0  0
 48115  1  0  0  0
 49 50  1  0  0  0
 49 53  1  0  0  0
 49 64  1  0  0  0
 49116  1  0  0  0
 50 51  1  0  0  0
 50117  1  0  0  0
 50118  1  0  0  0
 51 52  1  0  0  0
 51119  1  0  0  0
 51120  1  0  0  0
 52121  1  0  0  0
 52122  1  0  0  0
 53 54  1  0  0  0
 54 55  2  0  0  0
 54123  1  0  0  0
 55 57  1  0  0  0
 55124  1  0  0  0
 56 69  2  0  0  0
 57 58  2  0  0  0
 57125  1  0  0  0
 58126  1  0  0  0
 59 60  1  0  0  0
 59 61  1  0  0  0
 59 62  1  0  0  0
 60127  1  0  0  0
 60128  1  0  0  0
 60129  1  0  0  0
 61130  1  0  0  0
 61131  1  0  0  0
 61132  1  0  0  0
 62133  1  0  0  0
 62134  1  0  0  0
 62135  1  0  0  0
 63 65  1  0  0  0
 63136  1  0  0  0
 63137  1  0  0  0
 63138  1  0  0  0
 64139  1  0  0  0
 65140  1  0  0  0
 68 80  1  0  0  0
 71 77  2  0  0  0
 71 81  1  0  0  0
 71 76  1  0  0  0
 72 78  2  0  0  0
 72 80  1  0  0  0
 72 81  1  0  0  0
 73 74  1  0  0  0
 73 76  1  0  0  0
 73141  1  0  0  0
 73142  1  0  0  0
 74 79  1  0  0  0
 74143  1  0  0  0
 74144  1  0  0  0
 75 76  1  0  0  0
 75 79  1  0  0  0
 75145  1  0  0  0
 75146  1  0  0  0
 76147  1  0  0  0
 77 78  1  0  0  0
 80148  1  0  0  0
M  ISO  4   1 100  68 101  79 100  80 101
M  END
> <chiral flag>
0

> <version>
0

> <s_m_source_file>
/data/baiqing/PycharmProjects/Reinvent-master-3.2/result/LINK_invent/BTK/process_docking_weight1_custom_product_contain_oxygen_bond_distance_aromatic_linkinvent_7_9_3/rearranged_h_0151.sdf

> <i_m_source_file_index>
84

> <r_mmod_Potential_Energy-OPLS-2005>
747.394653320312

> <r_mmod_Stretch_Energy-OPLS-2005>
288.123748779297

> <r_mmod_Bend_Energy-OPLS-2005>
366.077117919922

> <r_mmod_Torsional_Energy-OPLS-2005>
265.628112792969

> <r_mmod_Improper_Torsional_Energy-OPLS-2005>
6.58931303024292

> <r_mmod_Van_der_Waal_Energy-OPLS-2005>
106.568061828613

> <r_mmod_Electrostatic_Energy-OPLS-2005>
-294.868255615234

> <r_mmod_Solvation_Energy-OPLS-2005>
-244.600341796875

> <b_mmod_Minimization_Converged-OPLS-2005>
0

> <r_mmod_RMS_Derivative-OPLS-2005>
3.78645920753479

$$$$
84
                    3D
 Structure written by MMmdl.
155164  0  0  1  0            999 V2000
  -30.5967  -14.7737   20.4147 C   0  0  0  0  0  0
  -30.4314  -12.4619   19.4885 C   0  0  0  0  0  0
  -29.5132  -12.4987   18.2461 C   0  0  0  0  0  0
  -28.0389  -12.3268   18.6573 C   0  0  0  0  0  0
  -27.6413  -13.2307   19.8548 C   0  0  2  0  0  0
  -28.6865  -13.1860   20.9918 C   0  0  0  0  0  0
  -25.2501  -13.8175   20.5760 C   0  0  0  0  0  0
  -24.1794  -13.0413   20.9222 C   0  0  0  0  0  0
  -24.6391  -11.6897   20.8749 C   0  0  0  0  0  0
  -23.9072  -10.4275   21.0399 C   0  0  0  0  0  0
  -24.3620   -9.4194   21.9182 C   0  0  0  0  0  0
  -23.6291   -8.2232   22.0753 C   0  0  0  0  0  0
  -22.4276   -8.0270   21.3540 C   0  0  0  0  0  0
  -21.9912   -9.0245   20.4647 C   0  0  0  0  0  0
  -22.7243  -10.2120   20.3052 C   0  0  0  0  0  0
  -21.6849   -6.0730   22.5279 C   0  0  0  0  0  0
  -21.4011   -6.5636   23.8212 C   0  0  0  0  0  0
  -21.3661   -5.6791   24.9175 C   0  0  0  0  0  0
  -21.6049   -4.3055   24.7228 C   0  0  0  0  0  0
  -21.8823   -3.8144   23.4349 C   0  0  0  0  0  0
  -21.9191   -4.6958   22.3403 C   0  0  0  0  0  0
  -22.7816  -13.5193   21.1869 C   0  0  0  0  0  0
  -22.1660   -4.2142   21.0979 F   0  0  0  0  0  0
  -21.5629   -3.4543   25.7743 F   0  0  0  0  0  0
  -29.9855  -13.5374   20.4073 N   0  0  0  0  0  0
  -26.2935  -12.9394   20.3324 N   0  0  0  0  0  0
  -25.9324  -11.6531   20.5765 N   0  0  0  0  0  0
  -22.0456  -12.8189   22.0419 N   0  0  0  0  0  0
  -25.4146  -15.1907   20.4299 N   0  0  0  0  0  0
  -31.7833  -14.8612   20.0883 O   0  0  0  0  0  0
  -21.6631   -6.8873   21.4241 O   0  0  0  0  0  0
  -22.3503  -14.5497   20.6709 O   0  0  0  0  0  0
  -24.6296  -31.8526   23.1947 C   0  0  0  0  0  0
  -25.9119  -32.4735   23.8300 C   0  0  1  0  0  0
  -27.2297  -27.2525   20.1294 C   0  0  0  0  0  0
  -25.5918  -33.8541   24.2230 N   0  0  0  0  0  0
  -23.4270  -30.4714   21.5372 C   0  0  2  0  0  0
  -24.8777  -28.9103   20.1050 C   0  0  0  0  0  0
  -22.7475  -29.4594   22.4904 C   0  0  0  0  0  0
  -18.0279  -28.1374   22.8487 C   0  0  0  0  0  0
  -24.1490  -36.7274   23.2644 C   0  0  0  0  0  0
  -25.9714  -30.7607   21.3758 C   0  0  0  0  0  0
  -26.0443  -29.3813   20.7188 C   0  0  0  0  0  0
  -27.2165  -28.5613   20.7240 C   0  0  0  0  0  0
  -26.0417  -26.8442   19.4870 C   0  0  0  0  0  0
  -24.8819  -27.6508   19.4796 C   0  0  0  0  0  0
  -23.6458  -29.7968   20.1549 C   0  0  0  0  0  0
  -25.4121  -36.3060   24.0325 C   0  0  1  0  0  0
  -20.5872  -28.3705   23.1278 C   0  0  2  0  0  0
  -20.6762  -26.9424   22.5414 C   0  0  0  0  0  0
  -19.5743  -26.6383   21.5210 C   0  0  0  0  0  0
  -18.1935  -26.7910   22.1644 C   0  0  0  0  0  0
  -19.1522  -28.8855   23.2876 C   0  0  0  0  0  0
  -18.9434  -30.1453   23.8892 C   0  0  0  0  0  0
  -17.6424  -30.6558   24.0574 C   0  0  0  0  0  0
  -25.9059  -34.9431   23.5084 C   0  0  0  0  0  0
  -16.5325  -29.9045   23.6335 C   0  0  0  0  0  0
  -16.7262  -28.6475   23.0343 C   0  0  0  0  0  0
  -26.4492  -31.6574   25.0700 C   0  0  0  0  0  0
  -25.3711  -31.3730   26.1419 C   0  0  0  0  0  0
  -27.0350  -30.2989   24.6207 C   0  0  0  0  0  0
  -27.6036  -32.4329   25.7474 C   0  0  0  0  0  0
  -27.5577  -37.1796   24.8469 C   0  0  0  0  0  0
  -21.4178  -29.3055   22.3663 N   0  0  0  0  0  0
  -26.4292  -37.3761   23.9407 N   0  0  0  0  0  0
  -24.6947  -31.0476   22.0922 N   0  0  0  0  0  0
  -23.4170  -28.8152   23.3020 O   0  0  0  0  0  0
  -28.3428  -26.3874   20.2478 O   0  0  0  0  0  0
  -26.5643  -34.8910   22.4661 O   0  0  0  0  0  0
  -23.5446  -32.1363   23.7239 O   0  0  0  0  0  0
  -26.9551  -19.4558   19.1070 C   0  0  0  0  0  0
  -27.2807  -20.7593   19.5369 C   0  0  0  0  0  0
  -29.4798  -19.9397   20.2350 C   0  0  0  0  0  0
  -27.9029  -18.4228   19.2205 C   0  0  0  0  0  0
  -29.1166  -18.5644   19.8928 C   0  0  0  0  0  0
  -28.5732  -21.0782   20.0245 C   0  0  0  0  0  0
  -28.1512  -23.6699   20.2267 C   0  0  0  0  0  0
  -27.8959  -17.1792   18.3784 C   0  0  0  0  0  0
  -29.3955  -16.8126   18.3140 C   0  0  0  0  0  0
  -29.9803  -17.2217   19.6911 C   0  0  2  0  0  0
  -28.5293  -25.0750   19.5320 C   0  0  0  0  0  0
  -28.9417  -22.5262   20.0756 N   0  0  0  0  0  0
  -29.8057  -15.9198   20.4972 N   0  0  0  0  0  0
  -27.1190  -23.6258   20.9016 O   0  0  0  0  0  0
  -31.4744  -12.5771   19.1888 H   0  0  0  0  0  0
  -30.3713  -11.4915   19.9836 H   0  0  0  0  0  0
  -29.7977  -11.7136   17.5446 H   0  0  0  0  0  0
  -29.6417  -13.4426   17.7159 H   0  0  0  0  0  0
  -27.8961  -11.2788   18.9238 H   0  0  0  0  0  0
  -27.3835  -12.5169   17.8064 H   0  0  0  0  0  0
  -27.6305  -14.2462   19.4647 H   0  0  0  0  0  0
  -28.7264  -12.1962   21.4496 H   0  0  0  0  0  0
  -28.4225  -13.8835   21.7884 H   0  0  0  0  0  0
  -25.2760   -9.5674   22.4765 H   0  0  0  0  0  0
  -23.9995   -7.4627   22.7479 H   0  0  0  0  0  0
  -21.0841   -8.8779   19.8957 H   0  0  0  0  0  0
  -22.3704  -10.9664   19.6169 H   0  0  0  0  0  0
  -21.1999   -7.6143   23.9716 H   0  0  0  0  0  0
  -21.1479   -6.0517   25.9077 H   0  0  0  0  0  0
  -22.0601   -2.7605   23.2851 H   0  0  0  0  0  0
  -22.4062  -11.9856   22.4831 H   0  0  0  0  0  0
  -21.1070  -13.1223   22.2601 H   0  0  0  0  0  0
  -24.6472  -15.8382   20.5709 H   0  0  0  0  0  0
  -26.2736  -15.6497   20.1632 H   0  0  0  0  0  0
  -26.7179  -32.5377   23.1030 H   0  0  0  0  0  0
  -25.0045  -33.9677   25.0362 H   0  0  0  0  0  0
  -22.7246  -31.2939   21.3875 H   0  0  0  0  0  0
  -23.3752  -35.9604   23.3305 H   0  0  0  0  0  0
  -24.3577  -36.8900   22.2057 H   0  0  0  0  0  0
  -23.7245  -37.6473   23.6673 H   0  0  0  0  0  0
  -26.1132  -31.5208   20.6066 H   0  0  0  0  0  0
  -26.8473  -30.8098   22.0107 H   0  0  0  0  0  0
  -28.1068  -28.9127   21.2258 H   0  0  0  0  0  0
  -25.9780  -25.8697   19.0268 H   0  0  0  0  0  0
  -23.9854  -27.2827   19.0001 H   0  0  0  0  0  0
  -23.7650  -30.5699   19.3953 H   0  0  0  0  0  0
  -22.7651  -29.2260   19.8543 H   0  0  0  0  0  0
  -25.1306  -36.1898   25.0817 H   0  0  0  0  0  0
  -20.9960  -28.3292   24.1405 H   0  0  0  0  0  0
  -20.5639  -26.2324   23.3620 H   0  0  0  0  0  0
  -21.6634  -26.7436   22.1226 H   0  0  0  0  0  0
  -19.6902  -25.6293   21.1244 H   0  0  0  0  0  0
  -19.6665  -27.3172   20.6727 H   0  0  0  0  0  0
  -17.4186  -26.6616   21.4070 H   0  0  0  0  0  0
  -18.0379  -26.0062   22.9063 H   0  0  0  0  0  0
  -19.7899  -30.7286   24.2259 H   0  0  0  0  0  0
  -17.4957  -31.6229   24.5195 H   0  0  0  0  0  0
  -15.5318  -30.2922   23.7679 H   0  0  0  0  0  0
  -15.8668  -28.0794   22.7044 H   0  0  0  0  0  0
  -24.5888  -30.7076   25.7747 H   0  0  0  0  0  0
  -24.8896  -32.2897   26.4831 H   0  0  0  0  0  0
  -25.8022  -30.8916   27.0204 H   0  0  0  0  0  0
  -26.2941  -29.6723   24.1226 H   0  0  0  0  0  0
  -27.4018  -29.7270   25.4741 H   0  0  0  0  0  0
  -27.8822  -30.4258   23.9463 H   0  0  0  0  0  0
  -27.2633  -33.3637   26.2025 H   0  0  0  0  0  0
  -28.3854  -32.6879   25.0307 H   0  0  0  0  0  0
  -28.0693  -31.8475   26.5411 H   0  0  0  0  0  0
  -28.2601  -38.0087   24.7505 H   0  0  0  0  0  0
  -28.1068  -36.2616   24.6311 H   0  0  0  0  0  0
  -27.2294  -37.1464   25.8874 H   0  0  0  0  0  0
  -20.9367  -29.8751   21.6844 H   0  0  0  0  0  0
  -26.0167  -38.2834   24.1397 H   0  0  0  0  0  0
  -26.0252  -19.2852   18.5818 H   0  0  0  0  0  0
  -26.5589  -21.5419   19.3478 H   0  0  0  0  0  0
  -30.4905  -20.1344   20.5656 H   0  0  0  0  0  0
  -27.4773  -17.3573   17.3872 H   0  0  0  0  0  0
  -27.3080  -16.4074   18.8667 H   0  0  0  0  0  0
  -29.8634  -17.4364   17.5496 H   0  0  0  0  0  0
  -29.5735  -15.7834   18.0041 H   0  0  0  0  0  0
  -31.0416  -17.4612   19.6073 H   0  0  0  0  0  0
  -28.0365  -25.1147   18.5609 H   0  0  0  0  0  0
  -29.5925  -25.0214   19.2966 H   0  0  0  0  0  0
  -29.8810  -22.7241   19.7564 H   0  0  0  0  0  0
  -28.8745  -15.7646   20.8500 H   0  0  0  0  0  0
  1 25  1  0  0  0
  1 30  2  0  0  0
  1 83  1  0  0  0
  2  3  1  0  0  0
  2 25  1  0  0  0
  2 85  1  0  0  0
  2 86  1  0  0  0
  3  4  1  0  0  0
  3 87  1  0  0  0
  3 88  1  0  0  0
  4  5  1  0  0  0
  4 89  1  0  0  0
  4 90  1  0  0  0
  5  6  1  0  0  0
  5 26  1  0  0  0
  5 91  1  0  0  0
  6 25  1  0  0  0
  6 92  1  0  0  0
  6 93  1  0  0  0
  7  8  2  0  0  0
  7 26  1  0  0  0
  7 29  1  0  0  0
  8  9  1  0  0  0
  8 22  1  0  0  0
  9 10  1  0  0  0
  9 27  2  0  0  0
 10 11  2  0  0  0
 10 15  1  0  0  0
 11 12  1  0  0  0
 11 94  1  0  0  0
 12 13  2  0  0  0
 12 95  1  0  0  0
 13 14  1  0  0  0
 13 31  1  0  0  0
 14 15  2  0  0  0
 14 96  1  0  0  0
 15 97  1  0  0  0
 16 17  2  0  0  0
 16 21  1  0  0  0
 16 31  1  0  0  0
 17 18  1  0  0  0
 17 98  1  0  0  0
 18 19  2  0  0  0
 18 99  1  0  0  0
 19 20  1  0  0  0
 19 24  1  0  0  0
 20 21  2  0  0  0
 20100  1  0  0  0
 21 23  1  0  0  0
 22 28  1  0  0  0
 22 32  2  0  0  0
 26 27  1  0  0  0
 28101  1  0  0  0
 28102  1  0  0  0
 29103  1  0  0  0
 29104  1  0  0  0
 33 34  1  0  0  0
 33 66  1  0  0  0
 33 70  2  0  0  0
 34 36  1  0  0  0
 34 59  1  0  0  0
 34105  1  0  0  0
 35 44  2  0  0  0
 35 45  1  0  0  0
 35 68  1  0  0  0
 36 56  1  0  0  0
 36106  1  0  0  0
 37 39  1  0  0  0
 37 47  1  0  0  0
 37 66  1  0  0  0
 37107  1  0  0  0
 38 43  2  0  0  0
 38 46  1  0  0  0
 38 47  1  0  0  0
 39 64  1  0  0  0
 39 67  2  0  0  0
 40 52  1  0  0  0
 40 53  2  0  0  0
 40 58  1  0  0  0
 41108  1  0  0  0
 41109  1  0  0  0
 41110  1  0  0  0
 41 48  1  0  0  0
 42 43  1  0  0  0
 42 66  1  0  0  0
 42111  1  0  0  0
 42112  1  0  0  0
 43 44  1  0  0  0
 44113  1  0  0  0
 45 46  2  0  0  0
 45114  1  0  0  0
 46115  1  0  0  0
 47116  1  0  0  0
 47117  1  0  0  0
 48 56  1  0  0  0
 48 65  1  0  0  0
 48118  1  0  0  0
 49 50  1  0  0  0
 49 53  1  0  0  0
 49 64  1  0  0  0
 49119  1  0  0  0
 50 51  1  0  0  0
 50120  1  0  0  0
 50121  1  0  0  0
 51 52  1  0  0  0
 51122  1  0  0  0
 51123  1  0  0  0
 52124  1  0  0  0
 52125  1  0  0  0
 53 54  1  0  0  0
 54 55  2  0  0  0
 54126  1  0  0  0
 55 57  1  0  0  0
 55127  1  0  0  0
 56 69  2  0  0  0
 57 58  2  0  0  0
 57128  1  0  0  0
 58129  1  0  0  0
 59 60  1  0  0  0
 59 61  1  0  0  0
 59 62  1  0  0  0
 60130  1  0  0  0
 60131  1  0  0  0
 60132  1  0  0  0
 61133  1  0  0  0
 61134  1  0  0  0
 61135  1  0  0  0
 62136  1  0  0  0
 62137  1  0  0  0
 62138  1  0  0  0
 63 65  1  0  0  0
 63139  1  0  0  0
 63140  1  0  0  0
 63141  1  0  0  0
 64142  1  0  0  0
 65143  1  0  0  0
 68 81  1  0  0  0
 71 72  2  0  0  0
 71 74  1  0  0  0
 71144  1  0  0  0
 72 76  1  0  0  0
 72145  1  0  0  0
 73 75  1  0  0  0
 73 76  2  0  0  0
 73146  1  0  0  0
 74 75  2  0  0  0
 74 78  1  0  0  0
 75 80  1  0  0  0
 76 82  1  0  0  0
 77 81  1  0  0  0
 77 82  1  0  0  0
 77 84  2  0  0  0
 78 79  1  0  0  0
 78147  1  0  0  0
 78148  1  0  0  0
 79 80  1  0  0  0
 79149  1  0  0  0
 79150  1  0  0  0
 80 83  1  0  0  0
 80151  1  0  0  0
 81152  1  0  0  0
 81153  1  0  0  0
 82154  1  0  0  0
 83155  1  0  0  0
M  ISO  4   1 100  68 101  81 101  83 100
M  END
> <chiral flag>
0

> <version>
0

> <s_m_source_file>
/data/baiqing/PycharmProjects/Reinvent-master-3.2/result/LINK_invent/BTK/process_docking_weight1_custom_product_contain_oxygen_bond_distance_aromatic_linkinvent_7_9_3/rearranged_h_0151.sdf

> <i_m_source_file_index>
85

> <r_mmod_Potential_Energy-OPLS-2005>
244.924667358398

> <r_mmod_Stretch_Energy-OPLS-2005>
139.516555786133

> <r_mmod_Bend_Energy-OPLS-2005>
253.965866088867

> <r_mmod_Torsional_Energy-OPLS-2005>
274.364227294922

> <r_mmod_Improper_Torsional_Energy-OPLS-2005>
17.1125316619873

> <r_mmod_Van_der_Waal_Energy-OPLS-2005>
126.430084228516

> <r_mmod_Electrostatic_Energy-OPLS-2005>
-419.21630859375

> <r_mmod_Solvation_Energy-OPLS-2005>
-242.953979492188

> <b_mmod_Minimization_Converged-OPLS-2005>
0

> <r_mmod_RMS_Derivative-OPLS-2005>
1.01702558994293

$$$$
85
                    3D
 Structure written by MMmdl.
163172  0  0  1  0            999 V2000
  -30.5841  -14.7391   20.6325 C   0  0  0  0  0  0
  -30.4618  -12.4891   19.4940 C   0  0  0  0  0  0
  -29.5355  -12.5273   18.2537 C   0  0  0  0  0  0
  -28.0521  -12.3154   18.6285 C   0  0  0  0  0  0
  -27.6337  -13.1981   19.8284 C   0  0  2  0  0  0
  -28.6635  -13.0468   20.9645 C   0  0  0  0  0  0
  -25.2105  -13.7909   20.5152 C   0  0  0  0  0  0
  -24.1600  -13.0236   20.9135 C   0  0  0  0  0  0
  -24.6284  -11.6737   20.8803 C   0  0  0  0  0  0
  -23.8993  -10.4167   21.0504 C   0  0  0  0  0  0
  -24.3546   -9.4083   21.9284 C   0  0  0  0  0  0
  -23.6216   -8.2136   22.0790 C   0  0  0  0  0  0
  -22.4201   -8.0206   21.3565 C   0  0  0  0  0  0
  -21.9815   -9.0187   20.4684 C   0  0  0  0  0  0
  -22.7154  -10.2045   20.3160 C   0  0  0  0  0  0
  -21.6765   -6.0678   22.5316 C   0  0  0  0  0  0
  -21.3948   -6.5589   23.8245 C   0  0  0  0  0  0
  -21.3657   -5.6734   24.9217 C   0  0  0  0  0  0
  -21.6074   -4.3009   24.7223 C   0  0  0  0  0  0
  -21.8785   -3.8091   23.4335 C   0  0  0  0  0  0
  -21.9128   -4.6926   22.3398 C   0  0  0  0  0  0
  -22.7645  -13.5092   21.1859 C   0  0  0  0  0  0
  -22.1626   -4.2144   21.0974 F   0  0  0  0  0  0
  -21.5655   -3.4483   25.7717 F   0  0  0  0  0  0
  -29.9816  -13.4953   20.4762 N   0  0  0  0  0  0
  -26.2752  -12.9234   20.2990 N   0  0  0  0  0  0
  -25.9207  -11.6402   20.5761 N   0  0  0  0  0  0
  -22.0232  -12.8317   22.0527 N   0  0  0  0  0  0
  -25.2927  -15.1559   20.2787 N   0  0  0  0  0  0
  -31.6748  -14.9380   20.0815 O   0  0  0  0  0  0
  -21.6555   -6.8827   21.4259 O   0  0  0  0  0  0
  -22.3396  -14.5422   20.6644 O   0  0  0  0  0  0
  -24.6322  -31.8494   23.1980 C   0  0  0  0  0  0
  -25.9180  -32.4676   23.8306 C   0  0  1  0  0  0
  -27.1918  -27.2342   20.1211 C   0  0  0  0  0  0
  -25.5975  -33.8492   24.2219 N   0  0  0  0  0  0
  -23.4240  -30.4873   21.5335 C   0  0  2  0  0  0
  -24.8706  -28.9404   20.0945 C   0  0  0  0  0  0
  -22.7465  -29.4660   22.4799 C   0  0  0  0  0  0
  -18.0313  -28.1394   22.8493 C   0  0  0  0  0  0
  -24.1486  -36.7300   23.2630 C   0  0  0  0  0  0
  -25.9735  -30.7576   21.3782 C   0  0  0  0  0  0
  -26.0393  -29.3779   20.7256 C   0  0  0  0  0  0
  -27.2030  -28.5336   20.7438 C   0  0  0  0  0  0
  -26.0042  -26.8982   19.4285 C   0  0  0  0  0  0
  -24.8600  -27.7098   19.4295 C   0  0  0  0  0  0
  -23.6413  -29.8294   20.1453 C   0  0  0  0  0  0
  -25.4097  -36.2991   24.0291 C   0  0  1  0  0  0
  -20.5914  -28.3733   23.1232 C   0  0  2  0  0  0
  -20.6801  -26.9456   22.5381 C   0  0  0  0  0  0
  -19.5763  -26.6402   21.5191 C   0  0  0  0  0  0
  -18.1950  -26.7935   22.1620 C   0  0  0  0  0  0
  -19.1562  -28.8869   23.2860 C   0  0  0  0  0  0
  -18.9496  -30.1483   23.8876 C   0  0  0  0  0  0
  -17.6503  -30.6594   24.0602 C   0  0  0  0  0  0
  -25.9056  -34.9378   23.5038 C   0  0  0  0  0  0
  -16.5401  -29.9116   23.6342 C   0  0  0  0  0  0
  -16.7309  -28.6529   23.0349 C   0  0  0  0  0  0
  -26.4579  -31.6488   25.0683 C   0  0  0  0  0  0
  -25.3889  -31.3664   26.1470 C   0  0  0  0  0  0
  -27.0385  -30.2880   24.6144 C   0  0  0  0  0  0
  -27.6072  -32.4251   25.7516 C   0  0  0  0  0  0
  -27.5541  -37.1796   24.8457 C   0  0  0  0  0  0
  -21.4157  -29.3083   22.3564 N   0  0  0  0  0  0
  -26.4239  -37.3720   23.9414 N   0  0  0  0  0  0
  -24.6955  -31.0512   22.0913 N   0  0  0  0  0  0
  -23.4191  -28.8186   23.2868 O   0  0  0  0  0  0
  -28.2413  -26.2732   20.2052 O   0  0  0  0  0  0
  -26.5604  -34.8875   22.4598 O   0  0  0  0  0  0
  -23.5491  -32.1324   23.7298 O   0  0  0  0  0  0
  -28.5112  -22.1984   19.6304 C   0  0  0  0  0  0
  -29.5895  -23.2485   21.2144 C   0  0  0  0  0  0
  -28.6804  -23.5224   20.2232 C   0  0  0  0  0  0
  -29.2704  -21.2302   20.2834 C   0  0  0  0  0  0
  -28.1755  -16.0254   22.9315 C   0  0  0  0  0  0
  -27.7942  -16.5314   21.5331 C   0  0  0  0  0  0
  -29.6096  -15.4998   22.7581 C   0  0  0  0  0  0
  -29.1093  -16.9948   20.8985 C   0  0  1  0  0  0
  -30.6328  -18.6349   22.1986 C   0  0  0  0  0  0
  -28.2541  -19.3027   22.1362 C   0  0  0  0  0  0
  -27.8894  -24.8510   19.8296 C   0  0  0  0  0  0
  -29.5442  -19.6732   20.1005 C   0  0  0  0  0  0
  -29.3888  -18.5982   21.3062 C   0  0  0  0  0  0
  -29.9484  -15.7646   21.3548 N   0  0  0  0  0  0
  -29.9533  -21.9085   21.2556 O   0  0  0  0  0  0
  -31.4870  -12.6860   19.1756 H   0  0  0  0  0  0
  -30.4883  -11.4957   19.9507 H   0  0  0  0  0  0
  -29.8585  -11.7832   17.5282 H   0  0  0  0  0  0
  -29.6505  -13.4926   17.7575 H   0  0  0  0  0  0
  -27.9125  -11.2635   18.8827 H   0  0  0  0  0  0
  -27.4165  -12.4996   17.7598 H   0  0  0  0  0  0
  -27.6504  -14.2179   19.4484 H   0  0  0  0  0  0
  -28.7123  -11.9984   21.2586 H   0  0  0  0  0  0
  -28.3080  -13.5542   21.8487 H   0  0  0  0  0  0
  -25.2650   -9.5530   22.4939 H   0  0  0  0  0  0
  -23.9859   -7.4465   22.7470 H   0  0  0  0  0  0
  -21.0732   -8.8673   19.9012 H   0  0  0  0  0  0
  -22.3557  -10.9598   19.6315 H   0  0  0  0  0  0
  -21.1912   -7.6081   23.9771 H   0  0  0  0  0  0
  -21.1553   -6.0443   25.9149 H   0  0  0  0  0  0
  -22.0553   -2.7556   23.2788 H   0  0  0  0  0  0
  -22.3651  -12.0018   22.5165 H   0  0  0  0  0  0
  -21.0907  -13.1601   22.2645 H   0  0  0  0  0  0
  -24.4652  -15.7406   20.3478 H   0  0  0  0  0  0
  -26.0857  -15.6221   19.8627 H   0  0  0  0  0  0
  -26.7228  -32.5327   23.1018 H   0  0  0  0  0  0
  -25.0167  -33.9622   25.0398 H   0  0  0  0  0  0
  -22.7238  -31.3127   21.3909 H   0  0  0  0  0  0
  -23.3661  -35.9720   23.3239 H   0  0  0  0  0  0
  -24.3611  -36.8983   22.2061 H   0  0  0  0  0  0
  -23.7337  -37.6532   23.6702 H   0  0  0  0  0  0
  -26.1014  -31.5067   20.5963 H   0  0  0  0  0  0
  -26.8563  -30.8136   22.0008 H   0  0  0  0  0  0
  -28.0803  -28.8601   21.2818 H   0  0  0  0  0  0
  -25.9009  -25.9777   18.8764 H   0  0  0  0  0  0
  -23.9782  -27.3812   18.8987 H   0  0  0  0  0  0
  -23.7630  -30.6071   19.3901 H   0  0  0  0  0  0
  -22.7575  -29.2632   19.8399 H   0  0  0  0  0  0
  -25.1270  -36.1762   25.0771 H   0  0  0  0  0  0
  -21.0068  -28.3326   24.1329 H   0  0  0  0  0  0
  -20.5674  -26.2376   23.3600 H   0  0  0  0  0  0
  -21.6675  -26.7443   22.1199 H   0  0  0  0  0  0
  -19.6926  -25.6295   21.1230 H   0  0  0  0  0  0
  -19.6679  -27.3203   20.6701 H   0  0  0  0  0  0
  -17.4222  -26.6687   21.4036 H   0  0  0  0  0  0
  -18.0388  -26.0089   22.9018 H   0  0  0  0  0  0
  -19.7992  -30.7305   24.2215 H   0  0  0  0  0  0
  -17.5077  -31.6274   24.5204 H   0  0  0  0  0  0
  -15.5403  -30.3026   23.7656 H   0  0  0  0  0  0
  -15.8706  -28.0854   22.7045 H   0  0  0  0  0  0
  -24.6097  -30.6879   25.7968 H   0  0  0  0  0  0
  -24.9092  -32.2859   26.4831 H   0  0  0  0  0  0
  -25.8377  -30.9012   27.0260 H   0  0  0  0  0  0
  -26.2920  -29.6638   24.1206 H   0  0  0  0  0  0
  -27.4088  -29.7093   25.4617 H   0  0  0  0  0  0
  -27.8809  -30.4084   23.9327 H   0  0  0  0  0  0
  -27.2567  -33.3549   26.2012 H   0  0  0  0  0  0
  -28.4005  -32.6791   25.0473 H   0  0  0  0  0  0
  -28.0591  -31.8423   26.5555 H   0  0  0  0  0  0
  -28.2503  -38.0136   24.7464 H   0  0  0  0  0  0
  -28.1057  -36.2644   24.6248 H   0  0  0  0  0  0
  -27.2284  -37.1437   25.8872 H   0  0  0  0  0  0
  -20.9277  -29.8908   21.6888 H   0  0  0  0  0  0
  -26.0031  -38.2743   24.1485 H   0  0  0  0  0  0
  -27.8658  -21.9699   18.7927 H   0  0  0  0  0  0
  -30.0638  -23.8578   21.9729 H   0  0  0  0  0  0
  -27.4895  -15.2544   23.2888 H   0  0  0  0  0  0
  -28.1527  -16.8302   23.6655 H   0  0  0  0  0  0
  -26.9479  -17.2229   21.4942 H   0  0  0  0  0  0
  -27.4979  -15.6704   20.9613 H   0  0  0  0  0  0
  -29.7094  -14.4550   23.0581 H   0  0  0  0  0  0
  -30.3350  -15.9967   23.3950 H   0  0  0  0  0  0
  -29.0348  -16.9354   19.8140 H   0  0  0  0  0  0
  -30.4478  -18.1040   23.1293 H   0  0  0  0  0  0
  -30.9025  -19.6504   22.4870 H   0  0  0  0  0  0
  -31.4877  -18.1789   21.7074 H   0  0  0  0  0  0
  -27.7677  -18.7237   22.9109 H   0  0  0  0  0  0
  -27.4579  -19.7109   21.5047 H   0  0  0  0  0  0
  -28.6548  -20.1663   22.6707 H   0  0  0  0  0  0
  -26.9013  -24.6361   20.2411 H   0  0  0  0  0  0
  -27.7959  -24.8157   18.7417 H   0  0  0  0  0  0
  -30.5107  -19.5311   19.6137 H   0  0  0  0  0  0
  -28.8231  -19.3539   19.3449 H   0  0  0  0  0  0
  1 25  1  0  0  0
  1 30  2  0  0  0
  1 84  1  0  0  0
  2  3  1  0  0  0
  2 25  1  0  0  0
  2 86  1  0  0  0
  2 87  1  0  0  0
  3  4  1  0  0  0
  3 88  1  0  0  0
  3 89  1  0  0  0
  4  5  1  0  0  0
  4 90  1  0  0  0
  4 91  1  0  0  0
  5  6  1  0  0  0
  5 26  1  0  0  0
  5 92  1  0  0  0
  6 25  1  0  0  0
  6 93  1  0  0  0
  6 94  1  0  0  0
  7  8  2  0  0  0
  7 26  1  0  0  0
  7 29  1  0  0  0
  8  9  1  0  0  0
  8 22  1  0  0  0
  9 10  1  0  0  0
  9 27  2  0  0  0
 10 11  2  0  0  0
 10 15  1  0  0  0
 11 12  1  0  0  0
 11 95  1  0  0  0
 12 13  2  0  0  0
 12 96  1  0  0  0
 13 14  1  0  0  0
 13 31  1  0  0  0
 14 15  2  0  0  0
 14 97  1  0  0  0
 15 98  1  0  0  0
 16 17  2  0  0  0
 16 21  1  0  0  0
 16 31  1  0  0  0
 17 18  1  0  0  0
 17 99  1  0  0  0
 18 19  2  0  0  0
 18100  1  0  0  0
 19 20  1  0  0  0
 19 24  1  0  0  0
 20 21  2  0  0  0
 20101  1  0  0  0
 21 23  1  0  0  0
 22 28  1  0  0  0
 22 32  2  0  0  0
 26 27  1  0  0  0
 28102  1  0  0  0
 28103  1  0  0  0
 29104  1  0  0  0
 29105  1  0  0  0
 33 34  1  0  0  0
 33 66  1  0  0  0
 33 70  2  0  0  0
 34 36  1  0  0  0
 34 59  1  0  0  0
 34106  1  0  0  0
 35 44  2  0  0  0
 35 45  1  0  0  0
 35 68  1  0  0  0
 36 56  1  0  0  0
 36107  1  0  0  0
 37 39  1  0  0  0
 37 47  1  0  0  0
 37 66  1  0  0  0
 37108  1  0  0  0
 38 43  2  0  0  0
 38 46  1  0  0  0
 38 47  1  0  0  0
 39 64  1  0  0  0
 39 67  2  0  0  0
 40 52  1  0  0  0
 40 53  2  0  0  0
 40 58  1  0  0  0
 41109  1  0  0  0
 41110  1  0  0  0
 41111  1  0  0  0
 41 48  1  0  0  0
 42 43  1  0  0  0
 42 66  1  0  0  0
 42112  1  0  0  0
 42113  1  0  0  0
 43 44  1  0  0  0
 44114  1  0  0  0
 45 46  2  0  0  0
 45115  1  0  0  0
 46116  1  0  0  0
 47117  1  0  0  0
 47118  1  0  0  0
 48 56  1  0  0  0
 48 65  1  0  0  0
 48119  1  0  0  0
 49 50  1  0  0  0
 49 53  1  0  0  0
 49 64  1  0  0  0
 49120  1  0  0  0
 50 51  1  0  0  0
 50121  1  0  0  0
 50122  1  0  0  0
 51 52  1  0  0  0
 51123  1  0  0  0
 51124  1  0  0  0
 52125  1  0  0  0
 52126  1  0  0  0
 53 54  1  0  0  0
 54 55  2  0  0  0
 54127  1  0  0  0
 55 57  1  0  0  0
 55128  1  0  0  0
 56 69  2  0  0  0
 57 58  2  0  0  0
 57129  1  0  0  0
 58130  1  0  0  0
 59 60  1  0  0  0
 59 61  1  0  0  0
 59 62  1  0  0  0
 60131  1  0  0  0
 60132  1  0  0  0
 60133  1  0  0  0
 61134  1  0  0  0
 61135  1  0  0  0
 61136  1  0  0  0
 62137  1  0  0  0
 62138  1  0  0  0
 62139  1  0  0  0
 63 65  1  0  0  0
 63140  1  0  0  0
 63141  1  0  0  0
 63142  1  0  0  0
 64143  1  0  0  0
 65144  1  0  0  0
 68 81  1  0  0  0
 71 73  1  0  0  0
 71 74  2  0  0  0
 71145  1  0  0  0
 72 73  2  0  0  0
 72 85  1  0  0  0
 72146  1  0  0  0
 73 81  1  0  0  0
 74 82  1  0  0  0
 74 85  1  0  0  0
 75 76  1  0  0  0
 75 77  1  0  0  0
 75147  1  0  0  0
 75148  1  0  0  0
 76149  1  0  0  0
 76150  1  0  0  0
 76 78  1  0  0  0
 77 84  1  0  0  0
 77151  1  0  0  0
 77152  1  0  0  0
 78 83  1  0  0  0
 78 84  1  0  0  0
 78153  1  0  0  0
 79154  1  0  0  0
 79155  1  0  0  0
 79156  1  0  0  0
 79 83  1  0  0  0
 80 83  1  0  0  0
 80157  1  0  0  0
 80158  1  0  0  0
 80159  1  0  0  0
 81160  1  0  0  0
 81161  1  0  0  0
 82 83  1  0  0  0
 82162  1  0  0  0
 82163  1  0  0  0
M  ISO  4   1 100  68 101  81 101  84 100
M  END
> <chiral flag>
0

> <version>
0

> <s_m_source_file>
/data/baiqing/PycharmProjects/Reinvent-master-3.2/result/LINK_invent/BTK/process_docking_weight1_custom_product_contain_oxygen_bond_distance_aromatic_linkinvent_7_9_3/rearranged_h_0151.sdf

> <i_m_source_file_index>
86

> <r_mmod_Potential_Energy-OPLS-2005>
642.435180664062

> <r_mmod_Stretch_Energy-OPLS-2005>
158.782791137695

> <r_mmod_Bend_Energy-OPLS-2005>
267.138580322266

> <r_mmod_Torsional_Energy-OPLS-2005>
406.347412109375

> <r_mmod_Improper_Torsional_Energy-OPLS-2005>
4.3134388923645

> <r_mmod_Van_der_Waal_Energy-OPLS-2005>
159.449981689453

> <r_mmod_Electrostatic_Energy-OPLS-2005>
-270.333465576172

> <r_mmod_Solvation_Energy-OPLS-2005>
-188.057632446289

> <b_mmod_Minimization_Converged-OPLS-2005>
0

> <r_mmod_RMS_Derivative-OPLS-2005>
7.49537467956543

$$$$
86
                    3D
 Structure written by MMmdl.
151159  0  0  1  0            999 V2000
  -30.6591  -14.6454   20.5296 C   0  0  0  0  0  0
  -30.4302  -12.3970   19.4749 C   0  0  0  0  0  0
  -29.5149  -12.5057   18.2349 C   0  0  0  0  0  0
  -28.0340  -12.3562   18.6343 C   0  0  0  0  0  0
  -27.6494  -13.2299   19.8600 C   0  0  2  0  0  0
  -28.6907  -13.1102   20.9949 C   0  0  0  0  0  0
  -25.2525  -13.8203   20.5680 C   0  0  0  0  0  0
  -24.1812  -13.0446   20.9187 C   0  0  0  0  0  0
  -24.6399  -11.6926   20.8727 C   0  0  0  0  0  0
  -23.9079  -10.4301   21.0398 C   0  0  0  0  0  0
  -24.3623   -9.4214   21.9181 C   0  0  0  0  0  0
  -23.6298   -8.2248   22.0754 C   0  0  0  0  0  0
  -22.4283   -8.0280   21.3543 C   0  0  0  0  0  0
  -21.9918   -9.0251   20.4647 C   0  0  0  0  0  0
  -22.7246  -10.2130   20.3054 C   0  0  0  0  0  0
  -21.6855   -6.0730   22.5276 C   0  0  0  0  0  0
  -21.4013   -6.5640   23.8211 C   0  0  0  0  0  0
  -21.3661   -5.6786   24.9175 C   0  0  0  0  0  0
  -21.6043   -4.3046   24.7232 C   0  0  0  0  0  0
  -21.8818   -3.8143   23.4353 C   0  0  0  0  0  0
  -21.9198   -4.6956   22.3404 C   0  0  0  0  0  0
  -22.7838  -13.5224   21.1856 C   0  0  0  0  0  0
  -22.1658   -4.2143   21.0979 F   0  0  0  0  0  0
  -21.5637   -3.4525   25.7744 F   0  0  0  0  0  0
  -30.0102  -13.4374   20.4387 N   0  0  0  0  0  0
  -26.2968  -12.9411   20.3297 N   0  0  0  0  0  0
  -25.9334  -11.6557   20.5735 N   0  0  0  0  0  0
  -22.0477  -12.8218   22.0412 N   0  0  0  0  0  0
  -25.4242  -15.1931   20.4103 N   0  0  0  0  0  0
  -31.8116  -14.7497   20.0985 O   0  0  0  0  0  0
  -21.6647   -6.8873   21.4235 O   0  0  0  0  0  0
  -22.3525  -14.5528   20.6700 O   0  0  0  0  0  0
  -24.6255  -31.8580   23.2019 C   0  0  0  0  0  0
  -25.9102  -32.4771   23.8355 C   0  0  1  0  0  0
  -27.2277  -27.3180   20.1309 C   0  0  0  0  0  0
  -25.5919  -33.8580   24.2274 N   0  0  0  0  0  0
  -23.4208  -30.4787   21.5446 C   0  0  2  0  0  0
  -24.8694  -28.9289   20.1157 C   0  0  0  0  0  0
  -22.7473  -29.4617   22.4968 C   0  0  0  0  0  0
  -18.0281  -28.1383   22.8494 C   0  0  0  0  0  0
  -24.1488  -36.7279   23.2642 C   0  0  0  0  0  0
  -25.9607  -30.7888   21.3716 C   0  0  0  0  0  0
  -26.0379  -29.4148   20.7175 C   0  0  0  0  0  0
  -27.2237  -28.6222   20.7129 C   0  0  0  0  0  0
  -26.0407  -26.8803   19.5074 C   0  0  0  0  0  0
  -24.8717  -27.6657   19.5013 C   0  0  0  0  0  0
  -23.6351  -29.8060   20.1633 C   0  0  0  0  0  0
  -25.4117  -36.3087   24.0340 C   0  0  1  0  0  0
  -20.5878  -28.3681   23.1293 C   0  0  2  0  0  0
  -20.6771  -26.9402   22.5423 C   0  0  0  0  0  0
  -19.5753  -26.6376   21.5220 C   0  0  0  0  0  0
  -18.1929  -26.7929   22.1624 C   0  0  0  0  0  0
  -19.1534  -28.8857   23.2884 C   0  0  0  0  0  0
  -18.9457  -30.1462   23.8895 C   0  0  0  0  0  0
  -17.6455  -30.6588   24.0564 C   0  0  0  0  0  0
  -25.9049  -34.9459   23.5109 C   0  0  0  0  0  0
  -16.5345  -29.9084   23.6341 C   0  0  0  0  0  0
  -16.7263  -28.6502   23.0360 C   0  0  0  0  0  0
  -26.4480  -31.6589   25.0729 C   0  0  0  0  0  0
  -25.3701  -31.3755   26.1448 C   0  0  0  0  0  0
  -27.0286  -30.2996   24.6186 C   0  0  0  0  0  0
  -27.6049  -32.4308   25.7486 C   0  0  0  0  0  0
  -27.5573  -37.1816   24.8481 C   0  0  0  0  0  0
  -21.4191  -29.3033   22.3698 N   0  0  0  0  0  0
  -26.4299  -37.3771   23.9396 N   0  0  0  0  0  0
  -24.6874  -31.0593   22.0960 N   0  0  0  0  0  0
  -23.4193  -28.8166   23.3054 O   0  0  0  0  0  0
  -28.3292  -26.4532   20.1491 O   0  0  0  0  0  0
  -26.5615  -34.8928   22.4670 O   0  0  0  0  0  0
  -23.5416  -32.1373   23.7349 O   0  0  0  0  0  0
  -29.2995  -20.6806   19.5007 C   0  0  0  0  0  0
  -29.7000  -19.2852   19.6286 C   0  0  0  0  0  0
  -29.1718  -21.3878   20.6838 C   0  0  0  0  0  0
  -29.9103  -18.8878   20.9326 C   0  0  0  0  0  0
  -28.7512  -23.8466   20.1885 C   0  0  0  0  0  0
  -29.9148  -18.3763   18.4549 C   0  0  0  0  0  0
  -28.1283  -25.1544   20.8405 C   0  0  0  0  0  0
  -28.7906  -22.7016   20.9494 N   0  0  0  0  0  0
  -29.9695  -15.8023   21.0177 N   0  0  0  0  0  0
  -29.1840  -23.8817   19.0332 O   0  0  0  0  0  0
  -32.0742  -17.3972   21.2280 O   0  0  0  0  0  0
  -30.3407  -17.3700   23.0686 O   0  0  0  0  0  0
  -29.5276  -20.2509   21.9978 S   0  0  0  0  0  0
  -30.6569  -17.3299   21.6296 S   0  0  0  0  0  0
  -31.4768  -12.4961   19.1812 H   0  0  0  0  0  0
  -30.3447  -11.4069   19.9256 H   0  0  0  0  0  0
  -29.7833  -11.7438   17.5018 H   0  0  0  0  0  0
  -29.6706  -13.4678   17.7439 H   0  0  0  0  0  0
  -27.8586  -11.3024   18.8572 H   0  0  0  0  0  0
  -27.3912  -12.5948   17.7854 H   0  0  0  0  0  0
  -27.6626  -14.2636   19.5158 H   0  0  0  0  0  0
  -28.6991  -12.0971   21.3977 H   0  0  0  0  0  0
  -28.4336  -13.7623   21.8310 H   0  0  0  0  0  0
  -25.2774   -9.5690   22.4742 H   0  0  0  0  0  0
  -24.0015   -7.4637   22.7469 H   0  0  0  0  0  0
  -21.0853   -8.8749   19.8955 H   0  0  0  0  0  0
  -22.3697  -10.9650   19.6149 H   0  0  0  0  0  0
  -21.1985   -7.6144   23.9718 H   0  0  0  0  0  0
  -21.1487   -6.0516   25.9081 H   0  0  0  0  0  0
  -22.0597   -2.7600   23.2853 H   0  0  0  0  0  0
  -22.4074  -11.9878   22.4823 H   0  0  0  0  0  0
  -21.1081  -13.1224   22.2565 H   0  0  0  0  0  0
  -24.6579  -15.8484   20.5211 H   0  0  0  0  0  0
  -26.2668  -15.6302   20.0617 H   0  0  0  0  0  0
  -26.7176  -32.5441   23.1119 H   0  0  0  0  0  0
  -25.0109  -33.9717   25.0448 H   0  0  0  0  0  0
  -22.7162  -31.2998   21.3997 H   0  0  0  0  0  0
  -23.3737  -35.9632   23.3383 H   0  0  0  0  0  0
  -24.3560  -36.8796   22.2037 H   0  0  0  0  0  0
  -23.7275  -37.6527   23.6593 H   0  0  0  0  0  0
  -26.0919  -31.5487   20.6008 H   0  0  0  0  0  0
  -26.8422  -30.8408   21.9993 H   0  0  0  0  0  0
  -28.1207  -28.9895   21.1919 H   0  0  0  0  0  0
  -26.0118  -25.9062   19.0400 H   0  0  0  0  0  0
  -23.9753  -27.2828   19.0332 H   0  0  0  0  0  0
  -23.7498  -30.5783   19.4022 H   0  0  0  0  0  0
  -22.7573  -29.2283   19.8670 H   0  0  0  0  0  0
  -25.1310  -36.1952   25.0835 H   0  0  0  0  0  0
  -20.9967  -28.3249   24.1413 H   0  0  0  0  0  0
  -20.5669  -26.2288   23.3626 H   0  0  0  0  0  0
  -21.6638  -26.7440   22.1204 H   0  0  0  0  0  0
  -19.6916  -25.6283   21.1257 H   0  0  0  0  0  0
  -19.6707  -27.3193   20.6757 H   0  0  0  0  0  0
  -17.4205  -26.6686   21.4016 H   0  0  0  0  0  0
  -18.0322  -26.0068   22.9014 H   0  0  0  0  0  0
  -19.7932  -30.7290   24.2247 H   0  0  0  0  0  0
  -17.5006  -31.6274   24.5154 H   0  0  0  0  0  0
  -15.5346  -30.2982   23.7679 H   0  0  0  0  0  0
  -15.8652  -28.0821   22.7077 H   0  0  0  0  0  0
  -24.5909  -30.7051   25.7810 H   0  0  0  0  0  0
  -24.8840  -32.2918   26.4802 H   0  0  0  0  0  0
  -25.8003  -30.9013   27.0275 H   0  0  0  0  0  0
  -26.2850  -29.6791   24.1160 H   0  0  0  0  0  0
  -27.3912  -29.7223   25.4706 H   0  0  0  0  0  0
  -27.8772  -30.4272   23.9457 H   0  0  0  0  0  0
  -27.2688  -33.3646   26.2014 H   0  0  0  0  0  0
  -28.3878  -32.6787   25.0305 H   0  0  0  0  0  0
  -28.0688  -31.8445   26.5431 H   0  0  0  0  0  0
  -28.2653  -38.0042   24.7422 H   0  0  0  0  0  0
  -28.0993  -36.2576   24.6440 H   0  0  0  0  0  0
  -27.2276  -37.1627   25.8879 H   0  0  0  0  0  0
  -20.9379  -29.8743   21.6892 H   0  0  0  0  0  0
  -26.0194  -38.2863   24.1324 H   0  0  0  0  0  0
  -29.1205  -21.1163   18.5281 H   0  0  0  0  0  0
  -29.6209  -18.8445   17.5158 H   0  0  0  0  0  0
  -29.3306  -17.4613   18.5551 H   0  0  0  0  0  0
  -30.9626  -18.0862   18.3648 H   0  0  0  0  0  0
  -28.5587  -25.2607   21.8365 H   0  0  0  0  0  0
  -27.0691  -24.9526   21.0065 H   0  0  0  0  0  0
  -28.4957  -22.8612   21.9038 H   0  0  0  0  0  0
  -29.0194  -15.6997   21.3607 H   0  0  0  0  0  0
  1 25  1  0  0  0
  1 30  2  0  0  0
  1 79  1  0  0  0
  2  3  1  0  0  0
  2 25  1  0  0  0
  2 85  1  0  0  0
  2 86  1  0  0  0
  3  4  1  0  0  0
  3 87  1  0  0  0
  3 88  1  0  0  0
  4  5  1  0  0  0
  4 89  1  0  0  0
  4 90  1  0  0  0
  5  6  1  0  0  0
  5 26  1  0  0  0
  5 91  1  0  0  0
  6 25  1  0  0  0
  6 92  1  0  0  0
  6 93  1  0  0  0
  7  8  2  0  0  0
  7 26  1  0  0  0
  7 29  1  0  0  0
  8  9  1  0  0  0
  8 22  1  0  0  0
  9 10  1  0  0  0
  9 27  2  0  0  0
 10 11  2  0  0  0
 10 15  1  0  0  0
 11 12  1  0  0  0
 11 94  1  0  0  0
 12 13  2  0  0  0
 12 95  1  0  0  0
 13 14  1  0  0  0
 13 31  1  0  0  0
 14 15  2  0  0  0
 14 96  1  0  0  0
 15 97  1  0  0  0
 16 17  2  0  0  0
 16 21  1  0  0  0
 16 31  1  0  0  0
 17 18  1  0  0  0
 17 98  1  0  0  0
 18 19  2  0  0  0
 18 99  1  0  0  0
 19 20  1  0  0  0
 19 24  1  0  0  0
 20 21  2  0  0  0
 20100  1  0  0  0
 21 23  1  0  0  0
 22 28  1  0  0  0
 22 32  2  0  0  0
 26 27  1  0  0  0
 28101  1  0  0  0
 28102  1  0  0  0
 29103  1  0  0  0
 29104  1  0  0  0
 33 34  1  0  0  0
 33 66  1  0  0  0
 33 70  2  0  0  0
 34 36  1  0  0  0
 34 59  1  0  0  0
 34105  1  0  0  0
 35 44  2  0  0  0
 35 45  1  0  0  0
 35 68  1  0  0  0
 36 56  1  0  0  0
 36106  1  0  0  0
 37 39  1  0  0  0
 37 47  1  0  0  0
 37 66  1  0  0  0
 37107  1  0  0  0
 38 43  2  0  0  0
 38 46  1  0  0  0
 38 47  1  0  0  0
 39 64  1  0  0  0
 39 67  2  0  0  0
 40 52  1  0  0  0
 40 53  2  0  0  0
 40 58  1  0  0  0
 41108  1  0  0  0
 41109  1  0  0  0
 41110  1  0  0  0
 41 48  1  0  0  0
 42 43  1  0  0  0
 42 66  1  0  0  0
 42111  1  0  0  0
 42112  1  0  0  0
 43 44  1  0  0  0
 44113  1  0  0  0
 45 46  2  0  0  0
 45114  1  0  0  0
 46115  1  0  0  0
 47116  1  0  0  0
 47117  1  0  0  0
 48 56  1  0  0  0
 48 65  1  0  0  0
 48118  1  0  0  0
 49 50  1  0  0  0
 49 53  1  0  0  0
 49 64  1  0  0  0
 49119  1  0  0  0
 50 51  1  0  0  0
 50120  1  0  0  0
 50121  1  0  0  0
 51 52  1  0  0  0
 51122  1  0  0  0
 51123  1  0  0  0
 52124  1  0  0  0
 52125  1  0  0  0
 53 54  1  0  0  0
 54 55  2  0  0  0
 54126  1  0  0  0
 55 57  1  0  0  0
 55127  1  0  0  0
 56 69  2  0  0  0
 57 58  2  0  0  0
 57128  1  0  0  0
 58129  1  0  0  0
 59 60  1  0  0  0
 59 61  1  0  0  0
 59 62  1  0  0  0
 60130  1  0  0  0
 60131  1  0  0  0
 60132  1  0  0  0
 61133  1  0  0  0
 61134  1  0  0  0
 61135  1  0  0  0
 62136  1  0  0  0
 62137  1  0  0  0
 62138  1  0  0  0
 63 65  1  0  0  0
 63139  1  0  0  0
 63140  1  0  0  0
 63141  1  0  0  0
 64142  1  0  0  0
 65143  1  0  0  0
 68 77  1  0  0  0
 71 72  1  0  0  0
 71 73  2  0  0  0
 71144  1  0  0  0
 72 74  2  0  0  0
 72 76  1  0  0  0
 73 78  1  0  0  0
 73 83  1  0  0  0
 74 83  1  0  0  0
 74 84  1  0  0  0
 75 77  1  0  0  0
 75 78  1  0  0  0
 75 80  2  0  0  0
 76145  1  0  0  0
 76146  1  0  0  0
 76147  1  0  0  0
 77148  1  0  0  0
 77149  1  0  0  0
 78150  1  0  0  0
 79151  1  0  0  0
 79 84  1  0  0  0
 81 84  2  0  0  0
 82 84  2  0  0  0
M  ISO  4   1 100  68 101  77 101  79 100
M  END
> <chiral flag>
0

> <version>
0

> <s_m_source_file>
/data/baiqing/PycharmProjects/Reinvent-master-3.2/result/LINK_invent/BTK/process_docking_weight1_custom_product_contain_oxygen_bond_distance_aromatic_linkinvent_7_9_3/rearranged_h_0151.sdf

> <i_m_source_file_index>
87

> <r_mmod_Potential_Energy-OPLS-2005>
-128.949417114258

> <r_mmod_Stretch_Energy-OPLS-2005>
77.7834091186523

> <r_mmod_Bend_Energy-OPLS-2005>
155.580017089844

> <r_mmod_Torsional_Energy-OPLS-2005>
214.867172241211

> <r_mmod_Improper_Torsional_Energy-OPLS-2005>
4.41434240341187

> <r_mmod_Van_der_Waal_Energy-OPLS-2005>
108.339561462402

> <r_mmod_Electrostatic_Energy-OPLS-2005>
-455.095916748047

> <r_mmod_Solvation_Energy-OPLS-2005>
-284.191192626953

> <b_mmod_Minimization_Converged-OPLS-2005>
0

> <r_mmod_RMS_Derivative-OPLS-2005>
2.21445631980896

$$$$
87
                    3D
 Structure written by MMmdl.
158167  0  0  1  0            999 V2000
  -30.6561  -14.5879   20.4873 C   0  0  0  0  0  0
  -30.4235  -12.3558   19.4459 C   0  0  0  0  0  0
  -29.5030  -12.4977   18.2148 C   0  0  0  0  0  0
  -28.0228  -12.3528   18.6241 C   0  0  0  0  0  0
  -27.6524  -13.2182   19.8591 C   0  0  2  0  0  0
  -28.6957  -13.0687   20.9894 C   0  0  0  0  0  0
  -25.2565  -13.8169   20.5677 C   0  0  0  0  0  0
  -24.1837  -13.0432   20.9182 C   0  0  0  0  0  0
  -24.6405  -11.6903   20.8723 C   0  0  0  0  0  0
  -23.9076  -10.4286   21.0392 C   0  0  0  0  0  0
  -24.3631   -9.4205   21.9167 C   0  0  0  0  0  0
  -23.6303   -8.2241   22.0747 C   0  0  0  0  0  0
  -22.4275   -8.0278   21.3544 C   0  0  0  0  0  0
  -21.9915   -9.0254   20.4643 C   0  0  0  0  0  0
  -22.7248  -10.2130   20.3047 C   0  0  0  0  0  0
  -21.6855   -6.0734   22.5276 C   0  0  0  0  0  0
  -21.4014   -6.5640   23.8210 C   0  0  0  0  0  0
  -21.3657   -5.6790   24.9169 C   0  0  0  0  0  0
  -21.6041   -4.3053   24.7222 C   0  0  0  0  0  0
  -21.8823   -3.8148   23.4344 C   0  0  0  0  0  0
  -21.9197   -4.6961   22.3398 C   0  0  0  0  0  0
  -22.7859  -13.5221   21.1841 C   0  0  0  0  0  0
  -22.1665   -4.2151   21.0974 F   0  0  0  0  0  0
  -21.5630   -3.4536   25.7739 F   0  0  0  0  0  0
  -30.0145  -13.3833   20.4234 N   0  0  0  0  0  0
  -26.2992  -12.9358   20.3289 N   0  0  0  0  0  0
  -25.9331  -11.6507   20.5729 N   0  0  0  0  0  0
  -22.0508  -12.8216   22.0403 N   0  0  0  0  0  0
  -25.4263  -15.1890   20.4082 N   0  0  0  0  0  0
  -31.8325  -14.6938   20.1332 O   0  0  0  0  0  0
  -21.6635   -6.8879   21.4240 O   0  0  0  0  0  0
  -22.3543  -14.5523   20.6681 O   0  0  0  0  0  0
  -24.6220  -31.8633   23.2033 C   0  0  0  0  0  0
  -25.9088  -32.4798   23.8350 C   0  0  1  0  0  0
  -27.2262  -27.3586   20.1087 C   0  0  0  0  0  0
  -25.5922  -33.8593   24.2299 N   0  0  0  0  0  0
  -23.4128  -30.4855   21.5449 C   0  0  2  0  0  0
  -24.8575  -28.9403   20.1086 C   0  0  0  0  0  0
  -22.7448  -29.4650   22.4948 C   0  0  0  0  0  0
  -18.0290  -28.1413   22.8506 C   0  0  0  0  0  0
  -24.1481  -36.7278   23.2642 C   0  0  0  0  0  0
  -25.9482  -30.8044   21.3671 C   0  0  0  0  0  0
  -26.0201  -29.4340   20.7122 C   0  0  0  0  0  0
  -27.2036  -28.6497   20.7067 C   0  0  0  0  0  0
  -26.0438  -26.8968   19.4913 C   0  0  0  0  0  0
  -24.8687  -27.6762   19.4922 C   0  0  0  0  0  0
  -23.6249  -29.8186   20.1596 C   0  0  0  0  0  0
  -25.4110  -36.3092   24.0341 C   0  0  1  0  0  0
  -20.5890  -28.3708   23.1310 C   0  0  2  0  0  0
  -20.6776  -26.9432   22.5438 C   0  0  0  0  0  0
  -19.5753  -26.6412   21.5233 C   0  0  0  0  0  0
  -18.1928  -26.7966   22.1627 C   0  0  0  0  0  0
  -19.1541  -28.8873   23.2910 C   0  0  0  0  0  0
  -18.9464  -30.1479   23.8925 C   0  0  0  0  0  0
  -17.6463  -30.6605   24.0594 C   0  0  0  0  0  0
  -25.9051  -34.9465   23.5119 C   0  0  0  0  0  0
  -16.5360  -29.9114   23.6335 C   0  0  0  0  0  0
  -16.7277  -28.6535   23.0350 C   0  0  0  0  0  0
  -26.4481  -31.6604   25.0706 C   0  0  0  0  0  0
  -25.3730  -31.3745   26.1447 C   0  0  0  0  0  0
  -27.0307  -30.3034   24.6131 C   0  0  0  0  0  0
  -27.6070  -32.4324   25.7453 C   0  0  0  0  0  0
  -27.5588  -37.1791   24.8469 C   0  0  0  0  0  0
  -21.4159  -29.3052   22.3685 N   0  0  0  0  0  0
  -26.4286  -37.3794   23.9434 N   0  0  0  0  0  0
  -24.6796  -31.0671   22.0966 N   0  0  0  0  0  0
  -23.4176  -28.8193   23.3027 O   0  0  0  0  0  0
  -28.3821  -26.5851   20.1645 O   0  0  0  0  0  0
  -26.5614  -34.8927   22.4680 O   0  0  0  0  0  0
  -23.5394  -32.1430   23.7388 O   0  0  0  0  0  0
  -31.4384  -18.9416   19.5675 C   0  0  0  0  0  0
  -30.6015  -19.9074   20.1586 C   0  0  0  0  0  0
  -31.2077  -17.5634   19.7524 C   0  0  0  0  0  0
  -29.2503  -18.1015   21.0810 C   0  0  0  0  0  0
  -29.4817  -19.5154   20.9205 C   0  0  0  0  0  0
  -30.1235  -17.0999   20.5408 C   0  0  0  0  0  0
  -28.3418  -24.1520   20.5312 C   0  0  0  0  0  0
  -28.4447  -25.2557   19.7340 C   0  0  0  0  0  0
  -28.6896  -20.5351   21.6899 C   0  0  0  0  0  0
  -27.9327  -24.1991   21.9752 C   0  0  0  0  0  0
  -28.6503  -22.6783   20.1574 C   0  0  0  0  0  0
  -27.7492  -22.7394   22.4054 C   0  0  0  0  0  0
  -28.4058  -21.8631   21.3969 N   0  0  0  0  0  0
  -29.8855  -15.6787   20.7892 N   0  0  0  0  0  0
  -28.2394  -20.0876   22.8637 N   0  3  0  0  0  0
  -31.4690  -12.4521   19.1474 H   0  0  0  0  0  0
  -30.3290  -11.3600   19.8811 H   0  0  0  0  0  0
  -29.7545  -11.7463   17.4648 H   0  0  0  0  0  0
  -29.6650  -13.4668   17.7406 H   0  0  0  0  0  0
  -27.8445  -11.2996   18.8423 H   0  0  0  0  0  0
  -27.3739  -12.6000   17.7828 H   0  0  0  0  0  0
  -27.6722  -14.2548   19.5231 H   0  0  0  0  0  0
  -28.6941  -12.0502   21.3797 H   0  0  0  0  0  0
  -28.4545  -13.7136   21.8364 H   0  0  0  0  0  0
  -25.2785   -9.5673   22.4733 H   0  0  0  0  0  0
  -24.0015   -7.4631   22.7466 H   0  0  0  0  0  0
  -21.0845   -8.8777   19.8954 H   0  0  0  0  0  0
  -22.3711  -10.9668   19.6155 H   0  0  0  0  0  0
  -21.2003   -7.6149   23.9714 H   0  0  0  0  0  0
  -21.1470   -6.0515   25.9071 H   0  0  0  0  0  0
  -22.0605   -2.7611   23.2838 H   0  0  0  0  0  0
  -22.4134  -11.9889   22.4805 H   0  0  0  0  0  0
  -21.1121  -13.1229   22.2596 H   0  0  0  0  0  0
  -24.6520  -15.8368   20.5042 H   0  0  0  0  0  0
  -26.2636  -15.6264   20.0458 H   0  0  0  0  0  0
  -26.7154  -32.5481   23.1099 H   0  0  0  0  0  0
  -25.0080  -33.9744   25.0446 H   0  0  0  0  0  0
  -22.7061  -31.3060   21.4052 H   0  0  0  0  0  0
  -23.3756  -35.9599   23.3303 H   0  0  0  0  0  0
  -24.3575  -36.8891   22.2060 H   0  0  0  0  0  0
  -23.7206  -37.6468   23.6647 H   0  0  0  0  0  0
  -26.0748  -31.5675   20.5985 H   0  0  0  0  0  0
  -26.8302  -30.8542   21.9943 H   0  0  0  0  0  0
  -28.1005  -29.0235   21.1794 H   0  0  0  0  0  0
  -26.0134  -25.9241   19.0221 H   0  0  0  0  0  0
  -23.9758  -27.2929   19.0185 H   0  0  0  0  0  0
  -23.7449  -30.5948   19.4030 H   0  0  0  0  0  0
  -22.7437  -29.2492   19.8567 H   0  0  0  0  0  0
  -25.1287  -36.1946   25.0832 H   0  0  0  0  0  0
  -21.0014  -28.3306   24.1420 H   0  0  0  0  0  0
  -20.5685  -26.2314   23.3635 H   0  0  0  0  0  0
  -21.6644  -26.7479   22.1238 H   0  0  0  0  0  0
  -19.6898  -25.6320   21.1264 H   0  0  0  0  0  0
  -19.6693  -27.3212   20.6754 H   0  0  0  0  0  0
  -17.4210  -26.6756   21.4010 H   0  0  0  0  0  0
  -18.0295  -26.0101   22.9003 H   0  0  0  0  0  0
  -19.7933  -30.7304   24.2296 H   0  0  0  0  0  0
  -17.5009  -31.6284   24.5198 H   0  0  0  0  0  0
  -15.5356  -30.3025   23.7629 H   0  0  0  0  0  0
  -15.8683  -28.0856   22.7053 H   0  0  0  0  0  0
  -24.5931  -30.7043   25.7791 H   0  0  0  0  0  0
  -24.8873  -32.2903   26.4830 H   0  0  0  0  0  0
  -25.8075  -30.8976   27.0243 H   0  0  0  0  0  0
  -26.2854  -29.6785   24.1187 H   0  0  0  0  0  0
  -27.4046  -29.7290   25.4620 H   0  0  0  0  0  0
  -27.8706  -30.4323   23.9303 H   0  0  0  0  0  0
  -27.2716  -33.3636   26.2033 H   0  0  0  0  0  0
  -28.3859  -32.6868   25.0249 H   0  0  0  0  0  0
  -28.0750  -31.8437   26.5358 H   0  0  0  0  0  0
  -28.2624  -38.0078   24.7549 H   0  0  0  0  0  0
  -28.1068  -36.2618   24.6248 H   0  0  0  0  0  0
  -27.2327  -37.1415   25.8879 H   0  0  0  0  0  0
  -20.9317  -29.8733   21.6878 H   0  0  0  0  0  0
  -26.0166  -38.2864   24.1448 H   0  0  0  0  0  0
  -32.2918  -19.2614   18.9863 H   0  0  0  0  0  0
  -30.8631  -20.9472   20.0518 H   0  0  0  0  0  0
  -31.8968  -16.8861   19.2731 H   0  0  0  0  0  0
  -28.4088  -17.7738   21.6748 H   0  0  0  0  0  0
  -28.7553  -25.1960   18.6993 H   0  0  0  0  0  0
  -27.0130  -24.7742   22.0934 H   0  0  0  0  0  0
  -28.7147  -24.6812   22.5618 H   0  0  0  0  0  0
  -29.6827  -22.6214   19.8205 H   0  0  0  0  0  0
  -28.0042  -22.3480   19.3427 H   0  0  0  0  0  0
  -26.6861  -22.4937   22.4542 H   0  0  0  0  0  0
  -28.1654  -22.6006   23.4045 H   0  0  0  0  0  0
  -28.9761  -15.4478   21.1578 H   0  0  0  0  0  0
  -28.4986  -19.1584   23.1547 H   0  0  0  0  0  0
  -27.6634  -20.6386   23.4744 H   0  0  0  0  0  0
  1 25  1  0  0  0
  1 30  2  0  0  0
  1 84  1  0  0  0
  2  3  1  0  0  0
  2 25  1  0  0  0
  2 86  1  0  0  0
  2 87  1  0  0  0
  3  4  1  0  0  0
  3 88  1  0  0  0
  3 89  1  0  0  0
  4  5  1  0  0  0
  4 90  1  0  0  0
  4 91  1  0  0  0
  5  6  1  0  0  0
  5 26  1  0  0  0
  5 92  1  0  0  0
  6 25  1  0  0  0
  6 93  1  0  0  0
  6 94  1  0  0  0
  7  8  2  0  0  0
  7 26  1  0  0  0
  7 29  1  0  0  0
  8  9  1  0  0  0
  8 22  1  0  0  0
  9 10  1  0  0  0
  9 27  2  0  0  0
 10 11  2  0  0  0
 10 15  1  0  0  0
 11 12  1  0  0  0
 11 95  1  0  0  0
 12 13  2  0  0  0
 12 96  1  0  0  0
 13 14  1  0  0  0
 13 31  1  0  0  0
 14 15  2  0  0  0
 14 97  1  0  0  0
 15 98  1  0  0  0
 16 17  2  0  0  0
 16 21  1  0  0  0
 16 31  1  0  0  0
 17 18  1  0  0  0
 17 99  1  0  0  0
 18 19  2  0  0  0
 18100  1  0  0  0
 19 20  1  0  0  0
 19 24  1  0  0  0
 20 21  2  0  0  0
 20101  1  0  0  0
 21 23  1  0  0  0
 22 28  1  0  0  0
 22 32  2  0  0  0
 26 27  1  0  0  0
 28102  1  0  0  0
 28103  1  0  0  0
 29104  1  0  0  0
 29105  1  0  0  0
 33 34  1  0  0  0
 33 66  1  0  0  0
 33 70  2  0  0  0
 34 36  1  0  0  0
 34 59  1  0  0  0
 34106  1  0  0  0
 35 44  2  0  0  0
 35 45  1  0  0  0
 35 68  1  0  0  0
 36 56  1  0  0  0
 36107  1  0  0  0
 37 39  1  0  0  0
 37 47  1  0  0  0
 37 66  1  0  0  0
 37108  1  0  0  0
 38 43  2  0  0  0
 38 46  1  0  0  0
 38 47  1  0  0  0
 39 64  1  0  0  0
 39 67  2  0  0  0
 40 52  1  0  0  0
 40 53  2  0  0  0
 40 58  1  0  0  0
 41109  1  0  0  0
 41110  1  0  0  0
 41111  1  0  0  0
 41 48  1  0  0  0
 42 43  1  0  0  0
 42 66  1  0  0  0
 42112  1  0  0  0
 42113  1  0  0  0
 43 44  1  0  0  0
 44114  1  0  0  0
 45 46  2  0  0  0
 45115  1  0  0  0
 46116  1  0  0  0
 47117  1  0  0  0
 47118  1  0  0  0
 48 56  1  0  0  0
 48 65  1  0  0  0
 48119  1  0  0  0
 49 50  1  0  0  0
 49 53  1  0  0  0
 49 64  1  0  0  0
 49120  1  0  0  0
 50 51  1  0  0  0
 50121  1  0  0  0
 50122  1  0  0  0
 51 52  1  0  0  0
 51123  1  0  0  0
 51124  1  0  0  0
 52125  1  0  0  0
 52126  1  0  0  0
 53 54  1  0  0  0
 54 55  2  0  0  0
 54127  1  0  0  0
 55 57  1  0  0  0
 55128  1  0  0  0
 56 69  2  0  0  0
 57 58  2  0  0  0
 57129  1  0  0  0
 58130  1  0  0  0
 59 60  1  0  0  0
 59 61  1  0  0  0
 59 62  1  0  0  0
 60131  1  0  0  0
 60132  1  0  0  0
 60133  1  0  0  0
 61134  1  0  0  0
 61135  1  0  0  0
 61136  1  0  0  0
 62137  1  0  0  0
 62138  1  0  0  0
 62139  1  0  0  0
 63 65  1  0  0  0
 63140  1  0  0  0
 63141  1  0  0  0
 63142  1  0  0  0
 64143  1  0  0  0
 65144  1  0  0  0
 68 78  1  0  0  0
 71 72  2  0  0  0
 71 73  1  0  0  0
 71145  1  0  0  0
 72 75  1  0  0  0
 72146  1  0  0  0
 73 76  2  0  0  0
 73147  1  0  0  0
 74 75  2  0  0  0
 74 76  1  0  0  0
 74148  1  0  0  0
 75 79  1  0  0  0
 76 84  1  0  0  0
 77 78  2  0  0  0
 77 80  1  0  0  0
 77 81  1  0  0  0
 78149  1  0  0  0
 79 83  1  0  0  0
 79 85  2  0  0  0
 80 82  1  0  0  0
 80150  1  0  0  0
 80151  1  0  0  0
 81 83  1  0  0  0
 81152  1  0  0  0
 81153  1  0  0  0
 82 83  1  0  0  0
 82154  1  0  0  0
 82155  1  0  0  0
 84156  1  0  0  0
 85157  1  0  0  0
 85158  1  0  0  0
M  CHG  1  85   1
M  ISO  4   1 100  68 101  78 101  84 100
M  END
> <chiral flag>
0

> <version>
0

> <s_m_source_file>
/data/baiqing/PycharmProjects/Reinvent-master-3.2/result/LINK_invent/BTK/process_docking_weight1_custom_product_contain_oxygen_bond_distance_aromatic_linkinvent_7_9_3/rearranged_h_0151.sdf

> <i_m_source_file_index>
88

> <r_mmod_Potential_Energy-OPLS-2005>
-123.983612060547

> <r_mmod_Stretch_Energy-OPLS-2005>
66.2931060791016

> <r_mmod_Bend_Energy-OPLS-2005>
152.779052734375

> <r_mmod_Torsional_Energy-OPLS-2005>
249.567001342773

> <r_mmod_Improper_Torsional_Energy-OPLS-2005>
5.48828172683716

> <r_mmod_Van_der_Waal_Energy-OPLS-2005>
156.79557800293

> <r_mmod_Electrostatic_Energy-OPLS-2005>
-383.349273681641

> <r_mmod_Solvation_Energy-OPLS-2005>
-405.175048828125

> <b_mmod_Minimization_Converged-OPLS-2005>
0

> <r_mmod_RMS_Derivative-OPLS-2005>
1.91596722602844

$$$$
88
                    3D
 Structure written by MMmdl.
161170  0  0  1  0            999 V2000
  -30.7367  -14.4350   20.6254 C   0  0  0  0  0  0
  -30.4192  -12.3075   19.4120 C   0  0  0  0  0  0
  -29.4890  -12.5196   18.1989 C   0  0  0  0  0  0
  -28.0064  -12.3893   18.6052 C   0  0  0  0  0  0
  -27.6634  -13.2012   19.8830 C   0  0  2  0  0  0
  -28.7031  -12.9072   20.9825 C   0  0  0  0  0  0
  -25.2590  -13.8158   20.5675 C   0  0  0  0  0  0
  -24.1835  -13.0437   20.9170 C   0  0  0  0  0  0
  -24.6382  -11.6902   20.8728 C   0  0  0  0  0  0
  -23.9049  -10.4288   21.0402 C   0  0  0  0  0  0
  -24.3606   -9.4208   21.9185 C   0  0  0  0  0  0
  -23.6285   -8.2243   22.0752 C   0  0  0  0  0  0
  -22.4268   -8.0281   21.3545 C   0  0  0  0  0  0
  -21.9903   -9.0249   20.4642 C   0  0  0  0  0  0
  -22.7225  -10.2128   20.3050 C   0  0  0  0  0  0
  -21.6854   -6.0736   22.5277 C   0  0  0  0  0  0
  -21.4009   -6.5635   23.8210 C   0  0  0  0  0  0
  -21.3659   -5.6791   24.9173 C   0  0  0  0  0  0
  -21.6044   -4.3053   24.7223 C   0  0  0  0  0  0
  -21.8820   -3.8145   23.4344 C   0  0  0  0  0  0
  -21.9187   -4.6964   22.3401 C   0  0  0  0  0  0
  -22.7859  -13.5239   21.1837 C   0  0  0  0  0  0
  -22.1657   -4.2149   21.0983 F   0  0  0  0  0  0
  -21.5635   -3.4537   25.7735 F   0  0  0  0  0  0
  -30.0285  -13.2757   20.4559 N   0  0  0  0  0  0
  -26.3025  -12.9310   20.3393 N   0  0  0  0  0  0
  -25.9305  -11.6471   20.5765 N   0  0  0  0  0  0
  -22.0501  -12.8223   22.0389 N   0  0  0  0  0  0
  -25.4332  -15.1872   20.4086 N   0  0  0  0  0  0
  -31.8421  -14.5801   20.0888 O   0  0  0  0  0  0
  -21.6639   -6.8875   21.4239 O   0  0  0  0  0  0
  -22.3543  -14.5554   20.6701 O   0  0  0  0  0  0
  -24.6122  -31.8692   23.2111 C   0  0  0  0  0  0
  -25.9028  -32.4832   23.8398 C   0  0  1  0  0  0
  -27.2341  -27.4546   20.0933 C   0  0  0  0  0  0
  -25.5896  -33.8626   24.2333 N   0  0  0  0  0  0
  -23.3982  -30.4928   21.5515 C   0  0  2  0  0  0
  -24.8431  -28.9602   20.1158 C   0  0  0  0  0  0
  -22.7389  -29.4665   22.5007 C   0  0  0  0  0  0
  -18.0259  -28.1384   22.8487 C   0  0  0  0  0  0
  -24.1486  -36.7313   23.2633 C   0  0  0  0  0  0
  -25.9242  -30.8418   21.3601 C   0  0  0  0  0  0
  -26.0021  -29.4781   20.7077 C   0  0  0  0  0  0
  -27.2001  -28.7325   20.6912 C   0  0  0  0  0  0
  -26.0575  -26.9451   19.4968 C   0  0  0  0  0  0
  -24.8653  -27.6921   19.5090 C   0  0  0  0  0  0
  -23.6037  -29.8231   20.1664 C   0  0  0  0  0  0
  -25.4106  -36.3115   24.0337 C   0  0  1  0  0  0
  -20.5850  -28.3654   23.1331 C   0  0  2  0  0  0
  -20.6752  -26.9397   22.5414 C   0  0  0  0  0  0
  -19.5736  -26.6381   21.5213 C   0  0  0  0  0  0
  -18.1905  -26.7929   22.1614 C   0  0  0  0  0  0
  -19.1514  -28.8832   23.2904 C   0  0  0  0  0  0
  -18.9449  -30.1435   23.8918 C   0  0  0  0  0  0
  -17.6456  -30.6588   24.0568 C   0  0  0  0  0  0
  -25.9038  -34.9478   23.5131 C   0  0  0  0  0  0
  -16.5342  -29.9098   23.6335 C   0  0  0  0  0  0
  -16.7250  -28.6517   23.0349 C   0  0  0  0  0  0
  -26.4470  -31.6610   25.0717 C   0  0  0  0  0  0
  -25.3747  -31.3712   26.1474 C   0  0  0  0  0  0
  -27.0294  -30.3053   24.6061 C   0  0  0  0  0  0
  -27.6039  -32.4331   25.7485 C   0  0  0  0  0  0
  -27.5599  -37.1788   24.8448 C   0  0  0  0  0  0
  -21.4118  -29.3033   22.3751 N   0  0  0  0  0  0
  -26.4287  -37.3808   23.9436 N   0  0  0  0  0  0
  -24.6632  -31.0818   22.0999 N   0  0  0  0  0  0
  -23.4177  -28.8210   23.3036 O   0  0  0  0  0  0
  -28.4148  -26.7498   20.1047 O   0  0  0  0  0  0
  -26.5591  -34.8926   22.4688 O   0  0  0  0  0  0
  -23.5321  -32.1433   23.7520 O   0  0  0  0  0  0
  -32.7320  -20.0532   23.1951 C   0  0  0  0  0  0
  -31.9753  -18.9336   22.8098 C   0  0  0  0  0  0
  -32.2483  -21.3485   22.9416 C   0  0  0  0  0  0
  -30.2538  -20.4067   21.9010 C   0  0  0  0  0  0
  -30.7315  -19.0988   22.1598 C   0  0  0  0  0  0
  -31.0103  -21.5375   22.2965 C   0  0  0  0  0  0
  -29.5229  -24.7280   20.8764 C   0  0  0  0  0  0
  -29.4837  -17.0086   22.9500 C   0  0  0  0  0  0
  -29.2784  -15.6177   22.3477 C   0  0  0  0  0  0
  -30.6389  -16.8799   20.8529 C   0  0  0  0  0  0
  -29.9093  -17.8709   21.7699 C   0  0  2  0  0  0
  -29.5310  -23.2132   21.1463 C   0  0  0  0  0  0
  -28.3101  -25.3216   20.1492 C   0  0  0  0  0  0
  -30.1169  -15.5327   21.1455 N   0  0  0  0  0  0
  -30.5848  -22.8569   22.0959 N   0  0  0  0  0  0
  -30.4688  -25.4366   21.2484 O   0  0  0  0  0  0
  -31.4617  -12.4034   19.1035 H   0  0  0  0  0  0
  -30.3295  -11.2873   19.7879 H   0  0  0  0  0  0
  -29.7244  -11.7997   17.4139 H   0  0  0  0  0  0
  -29.6642  -13.5067   17.7691 H   0  0  0  0  0  0
  -27.8007  -11.3314   18.7735 H   0  0  0  0  0  0
  -27.3611  -12.6953   17.7808 H   0  0  0  0  0  0
  -27.7265  -14.2595   19.6292 H   0  0  0  0  0  0
  -28.6942  -11.8402   21.2099 H   0  0  0  0  0  0
  -28.4334  -13.3547   21.9299 H   0  0  0  0  0  0
  -25.2754   -9.5690   22.4756 H   0  0  0  0  0  0
  -23.9996   -7.4636   22.7472 H   0  0  0  0  0  0
  -21.0840   -8.8763   19.8947 H   0  0  0  0  0  0
  -22.3689  -10.9667   19.6155 H   0  0  0  0  0  0
  -21.2001   -7.6142   23.9712 H   0  0  0  0  0  0
  -21.1482   -6.0523   25.9076 H   0  0  0  0  0  0
  -22.0600   -2.7606   23.2845 H   0  0  0  0  0  0
  -22.4104  -11.9863   22.4749 H   0  0  0  0  0  0
  -21.1125  -13.1253   22.2618 H   0  0  0  0  0  0
  -24.6723  -15.8480   20.5204 H   0  0  0  0  0  0
  -26.2938  -15.6232   20.1022 H   0  0  0  0  0  0
  -26.7095  -32.5558   23.1163 H   0  0  0  0  0  0
  -25.0075  -33.9790   25.0497 H   0  0  0  0  0  0
  -22.6859  -31.3085   21.4122 H   0  0  0  0  0  0
  -23.3766  -35.9625   23.3262 H   0  0  0  0  0  0
  -24.3599  -36.8964   22.2058 H   0  0  0  0  0  0
  -23.7198  -37.6488   23.6669 H   0  0  0  0  0  0
  -26.0310  -31.6081   20.5919 H   0  0  0  0  0  0
  -26.8136  -30.8958   21.9762 H   0  0  0  0  0  0
  -28.0965  -29.1290   21.1475 H   0  0  0  0  0  0
  -26.0505  -25.9791   19.0129 H   0  0  0  0  0  0
  -23.9747  -27.2873   19.0484 H   0  0  0  0  0  0
  -23.7056  -30.5957   19.4034 H   0  0  0  0  0  0
  -22.7287  -29.2391   19.8750 H   0  0  0  0  0  0
  -25.1274  -36.1976   25.0826 H   0  0  0  0  0  0
  -20.9929  -28.3217   24.1460 H   0  0  0  0  0  0
  -20.5661  -26.2265   23.3600 H   0  0  0  0  0  0
  -21.6624  -26.7446   22.1208 H   0  0  0  0  0  0
  -19.6902  -25.6301   21.1226 H   0  0  0  0  0  0
  -19.6687  -27.3205   20.6760 H   0  0  0  0  0  0
  -17.4180  -26.6682   21.4007 H   0  0  0  0  0  0
  -18.0296  -26.0063   22.9003 H   0  0  0  0  0  0
  -19.7931  -30.7232   24.2298 H   0  0  0  0  0  0
  -17.5022  -31.6276   24.5154 H   0  0  0  0  0  0
  -15.5348  -30.3012   23.7656 H   0  0  0  0  0  0
  -15.8644  -28.0844   22.7067 H   0  0  0  0  0  0
  -24.5904  -30.7073   25.7828 H   0  0  0  0  0  0
  -24.8952  -32.2868   26.4947 H   0  0  0  0  0  0
  -25.8101  -30.8868   27.0221 H   0  0  0  0  0  0
  -26.2815  -29.6828   24.1126 H   0  0  0  0  0  0
  -27.4102  -29.7278   25.4498 H   0  0  0  0  0  0
  -27.8643  -30.4397   23.9174 H   0  0  0  0  0  0
  -27.2640  -33.3623   26.2076 H   0  0  0  0  0  0
  -28.3844  -32.6907   25.0314 H   0  0  0  0  0  0
  -28.0707  -31.8447   26.5395 H   0  0  0  0  0  0
  -28.2543  -38.0159   24.7607 H   0  0  0  0  0  0
  -28.1164  -36.2692   24.6126 H   0  0  0  0  0  0
  -27.2330  -37.1260   25.8846 H   0  0  0  0  0  0
  -20.9265  -29.8788   21.7013 H   0  0  0  0  0  0
  -26.0177  -38.2873   24.1501 H   0  0  0  0  0  0
  -33.6833  -19.9195   23.6911 H   0  0  0  0  0  0
  -32.3554  -17.9440   23.0237 H   0  0  0  0  0  0
  -32.8414  -22.1969   23.2539 H   0  0  0  0  0  0
  -29.2984  -20.5328   21.4115 H   0  0  0  0  0  0
  -30.2779  -16.9495   23.6945 H   0  0  0  0  0  0
  -28.5955  -17.3943   23.4528 H   0  0  0  0  0  0
  -28.2322  -15.5122   22.0572 H   0  0  0  0  0  0
  -29.5254  -14.8487   23.0814 H   0  0  0  0  0  0
  -31.7108  -16.8940   21.0553 H   0  0  0  0  0  0
  -30.5107  -17.1408   19.8016 H   0  0  0  0  0  0
  -29.0064  -18.1984   21.2513 H   0  0  0  0  0  0
  -29.6767  -22.6902   20.2002 H   0  0  0  0  0  0
  -28.5586  -22.9167   21.5420 H   0  0  0  0  0  0
  -27.4144  -25.0152   20.6897 H   0  0  0  0  0  0
  -28.2509  -24.9151   19.1398 H   0  0  0  0  0  0
  -31.2279  -23.6203   22.2993 H   0  0  0  0  0  0
  1 25  1  0  0  0
  1 30  2  0  0  0
  1 84  1  0  0  0
  2  3  1  0  0  0
  2 25  1  0  0  0
  2 87  1  0  0  0
  2 88  1  0  0  0
  3  4  1  0  0  0
  3 89  1  0  0  0
  3 90  1  0  0  0
  4  5  1  0  0  0
  4 91  1  0  0  0
  4 92  1  0  0  0
  5  6  1  0  0  0
  5 26  1  0  0  0
  5 93  1  0  0  0
  6 25  1  0  0  0
  6 94  1  0  0  0
  6 95  1  0  0  0
  7  8  2  0  0  0
  7 26  1  0  0  0
  7 29  1  0  0  0
  8  9  1  0  0  0
  8 22  1  0  0  0
  9 10  1  0  0  0
  9 27  2  0  0  0
 10 11  2  0  0  0
 10 15  1  0  0  0
 11 12  1  0  0  0
 11 96  1  0  0  0
 12 13  2  0  0  0
 12 97  1  0  0  0
 13 14  1  0  0  0
 13 31  1  0  0  0
 14 15  2  0  0  0
 14 98  1  0  0  0
 15 99  1  0  0  0
 16 17  2  0  0  0
 16 21  1  0  0  0
 16 31  1  0  0  0
 17 18  1  0  0  0
 17100  1  0  0  0
 18 19  2  0  0  0
 18101  1  0  0  0
 19 20  1  0  0  0
 19 24  1  0  0  0
 20 21  2  0  0  0
 20102  1  0  0  0
 21 23  1  0  0  0
 22 28  1  0  0  0
 22 32  2  0  0  0
 26 27  1  0  0  0
 28103  1  0  0  0
 28104  1  0  0  0
 29105  1  0  0  0
 29106  1  0  0  0
 33 34  1  0  0  0
 33 66  1  0  0  0
 33 70  2  0  0  0
 34 36  1  0  0  0
 34 59  1  0  0  0
 34107  1  0  0  0
 35 44  2  0  0  0
 35 45  1  0  0  0
 35 68  1  0  0  0
 36 56  1  0  0  0
 36108  1  0  0  0
 37 39  1  0  0  0
 37 47  1  0  0  0
 37 66  1  0  0  0
 37109  1  0  0  0
 38 43  2  0  0  0
 38 46  1  0  0  0
 38 47  1  0  0  0
 39 64  1  0  0  0
 39 67  2  0  0  0
 40 52  1  0  0  0
 40 53  2  0  0  0
 40 58  1  0  0  0
 41110  1  0  0  0
 41111  1  0  0  0
 41112  1  0  0  0
 41 48  1  0  0  0
 42 43  1  0  0  0
 42 66  1  0  0  0
 42113  1  0  0  0
 42114  1  0  0  0
 43 44  1  0  0  0
 44115  1  0  0  0
 45 46  2  0  0  0
 45116  1  0  0  0
 46117  1  0  0  0
 47118  1  0  0  0
 47119  1  0  0  0
 48 56  1  0  0  0
 48 65  1  0  0  0
 48120  1  0  0  0
 49 50  1  0  0  0
 49 53  1  0  0  0
 49 64  1  0  0  0
 49121  1  0  0  0
 50 51  1  0  0  0
 50122  1  0  0  0
 50123  1  0  0  0
 51 52  1  0  0  0
 51124  1  0  0  0
 51125  1  0  0  0
 52126  1  0  0  0
 52127  1  0  0  0
 53 54  1  0  0  0
 54 55  2  0  0  0
 54128  1  0  0  0
 55 57  1  0  0  0
 55129  1  0  0  0
 56 69  2  0  0  0
 57 58  2  0  0  0
 57130  1  0  0  0
 58131  1  0  0  0
 59 60  1  0  0  0
 59 61  1  0  0  0
 59 62  1  0  0  0
 60132  1  0  0  0
 60133  1  0  0  0
 60134  1  0  0  0
 61135  1  0  0  0
 61136  1  0  0  0
 61137  1  0  0  0
 62138  1  0  0  0
 62139  1  0  0  0
 62140  1  0  0  0
 63 65  1  0  0  0
 63141  1  0  0  0
 63142  1  0  0  0
 63143  1  0  0  0
 64144  1  0  0  0
 65145  1  0  0  0
 68 83  1  0  0  0
 71 72  2  0  0  0
 71 73  1  0  0  0
 71146  1  0  0  0
 72 75  1  0  0  0
 72147  1  0  0  0
 73 76  2  0  0  0
 73148  1  0  0  0
 74 75  2  0  0  0
 74 76  1  0  0  0
 74149  1  0  0  0
 75 81  1  0  0  0
 76 85  1  0  0  0
 77 82  1  0  0  0
 77 83  1  0  0  0
 77 86  2  0  0  0
 78 79  1  0  0  0
 78 81  1  0  0  0
 78150  1  0  0  0
 78151  1  0  0  0
 79 84  1  0  0  0
 79152  1  0  0  0
 79153  1  0  0  0
 80 81  1  0  0  0
 80 84  1  0  0  0
 80154  1  0  0  0
 80155  1  0  0  0
 81156  1  0  0  0
 82 85  1  0  0  0
 82157  1  0  0  0
 82158  1  0  0  0
 83159  1  0  0  0
 83160  1  0  0  0
 85161  1  0  0  0
M  ISO  4   1 100  68 101  83 101  84 100
M  END
> <chiral flag>
0

> <version>
0

> <s_m_source_file>
/data/baiqing/PycharmProjects/Reinvent-master-3.2/result/LINK_invent/BTK/process_docking_weight1_custom_product_contain_oxygen_bond_distance_aromatic_linkinvent_7_9_3/rearranged_h_0151.sdf

> <i_m_source_file_index>
89

> <r_mmod_Potential_Energy-OPLS-2005>
160.358474731445

> <r_mmod_Stretch_Energy-OPLS-2005>
37.7914428710938

> <r_mmod_Bend_Energy-OPLS-2005>
135.404235839844

> <r_mmod_Torsional_Energy-OPLS-2005>
301.071533203125

> <r_mmod_Improper_Torsional_Energy-OPLS-2005>
9.37506771087646

> <r_mmod_Van_der_Waal_Energy-OPLS-2005>
164.513977050781

> <r_mmod_Electrostatic_Energy-OPLS-2005>
-265.425750732422

> <r_mmod_Solvation_Energy-OPLS-2005>
-232.982162475586

> <b_mmod_Minimization_Converged-OPLS-2005>
0

> <r_mmod_RMS_Derivative-OPLS-2005>
1.28817105293274

$$$$
89
                    3D
 Structure written by MMmdl.
163172  0  0  1  0            999 V2000
  -30.6979  -14.4724   20.5705 C   0  0  0  0  0  0
  -30.4302  -12.3053   19.4195 C   0  0  0  0  0  0
  -29.4981  -12.5056   18.2052 C   0  0  0  0  0  0
  -28.0190  -12.3630   18.6189 C   0  0  0  0  0  0
  -27.6653  -13.2032   19.8754 C   0  0  2  0  0  0
  -28.7081  -12.9790   20.9950 C   0  0  0  0  0  0
  -25.2619  -13.8160   20.5673 C   0  0  0  0  0  0
  -24.1860  -13.0444   20.9170 C   0  0  0  0  0  0
  -24.6406  -11.6908   20.8734 C   0  0  0  0  0  0
  -23.9061  -10.4296   21.0409 C   0  0  0  0  0  0
  -24.3614   -9.4213   21.9183 C   0  0  0  0  0  0
  -23.6293   -8.2240   22.0754 C   0  0  0  0  0  0
  -22.4270   -8.0284   21.3545 C   0  0  0  0  0  0
  -21.9904   -9.0253   20.4652 C   0  0  0  0  0  0
  -22.7229  -10.2133   20.3062 C   0  0  0  0  0  0
  -21.6851   -6.0736   22.5282 C   0  0  0  0  0  0
  -21.4011   -6.5644   23.8215 C   0  0  0  0  0  0
  -21.3661   -5.6793   24.9177 C   0  0  0  0  0  0
  -21.6044   -4.3057   24.7225 C   0  0  0  0  0  0
  -21.8822   -3.8145   23.4351 C   0  0  0  0  0  0
  -21.9196   -4.6964   22.3400 C   0  0  0  0  0  0
  -22.7885  -13.5252   21.1824 C   0  0  0  0  0  0
  -22.1665   -4.2149   21.0978 F   0  0  0  0  0  0
  -21.5625   -3.4535   25.7738 F   0  0  0  0  0  0
  -30.0412  -13.2865   20.4447 N   0  0  0  0  0  0
  -26.3048  -12.9313   20.3363 N   0  0  0  0  0  0
  -25.9336  -11.6479   20.5770 N   0  0  0  0  0  0
  -22.0516  -12.8263   22.0381 N   0  0  0  0  0  0
  -25.4379  -15.1873   20.4083 N   0  0  0  0  0  0
  -31.8265  -14.6630   20.1068 O   0  0  0  0  0  0
  -21.6645   -6.8875   21.4239 O   0  0  0  0  0  0
  -22.3583  -14.5564   20.6674 O   0  0  0  0  0  0
  -24.6193  -31.8670   23.2119 C   0  0  0  0  0  0
  -25.9088  -32.4816   23.8397 C   0  0  1  0  0  0
  -27.2220  -27.4136   20.0850 C   0  0  0  0  0  0
  -25.5951  -33.8616   24.2329 N   0  0  0  0  0  0
  -23.4044  -30.4957   21.5545 C   0  0  2  0  0  0
  -24.8441  -28.9680   20.1114 C   0  0  0  0  0  0
  -22.7421  -29.4678   22.5010 C   0  0  0  0  0  0
  -18.0267  -28.1375   22.8506 C   0  0  0  0  0  0
  -24.1482  -36.7304   23.2623 C   0  0  0  0  0  0
  -25.9374  -30.8261   21.3672 C   0  0  0  0  0  0
  -26.0095  -29.4610   20.7109 C   0  0  0  0  0  0
  -27.1995  -28.6911   20.6979 C   0  0  0  0  0  0
  -26.0304  -26.9540   19.4670 C   0  0  0  0  0  0
  -24.8518  -27.7141   19.4856 C   0  0  0  0  0  0
  -23.6080  -29.8357   20.1665 C   0  0  0  0  0  0
  -25.4094  -36.3107   24.0338 C   0  0  1  0  0  0
  -20.5859  -28.3669   23.1326 C   0  0  2  0  0  0
  -20.6761  -26.9409   22.5426 C   0  0  0  0  0  0
  -19.5743  -26.6383   21.5219 C   0  0  0  0  0  0
  -18.1911  -26.7938   22.1608 C   0  0  0  0  0  0
  -19.1517  -28.8839   23.2912 C   0  0  0  0  0  0
  -18.9449  -30.1443   23.8917 C   0  0  0  0  0  0
  -17.6452  -30.6589   24.0566 C   0  0  0  0  0  0
  -25.9040  -34.9478   23.5118 C   0  0  0  0  0  0
  -16.5341  -29.9090   23.6332 C   0  0  0  0  0  0
  -16.7255  -28.6500   23.0368 C   0  0  0  0  0  0
  -26.4504  -31.6600   25.0730 C   0  0  0  0  0  0
  -25.3782  -31.3764   26.1509 C   0  0  0  0  0  0
  -27.0279  -30.3017   24.6110 C   0  0  0  0  0  0
  -27.6108  -32.4302   25.7459 C   0  0  0  0  0  0
  -27.5602  -37.1753   24.8432 C   0  0  0  0  0  0
  -21.4149  -29.3044   22.3746 N   0  0  0  0  0  0
  -26.4259  -37.3811   23.9467 N   0  0  0  0  0  0
  -24.6727  -31.0769   22.1024 N   0  0  0  0  0  0
  -23.4191  -28.8208   23.3044 O   0  0  0  0  0  0
  -28.3792  -26.6440   20.1124 O   0  0  0  0  0  0
  -26.5574  -34.8942   22.4660 O   0  0  0  0  0  0
  -23.5386  -32.1427   23.7511 O   0  0  0  0  0  0
  -31.3000  -17.5590   20.9118 C   0  0  0  0  0  0
  -31.0927  -18.9789   20.8187 C   0  0  0  0  0  0
  -29.7549  -19.3232   20.8456 C   0  0  0  0  0  0
  -30.1496  -16.8122   21.0174 C   0  0  0  0  0  0
  -29.6044  -24.0444   21.5698 C   0  0  0  0  0  0
  -30.2325  -22.6407   21.6595 C   0  0  0  0  0  0
  -29.1089  -22.8683   19.5672 C   0  0  0  0  0  0
  -29.4198  -24.3049   20.0690 C   0  0  2  0  0  0
  -32.2495  -19.9303   20.7026 C   0  0  0  0  0  0
  -30.7106  -24.8480   19.4237 C   0  0  0  0  0  0
  -29.0121  -20.6469   20.7245 C   0  0  0  0  0  0
  -28.2307  -25.2550   19.7484 C   0  0  0  0  0  0
  -29.9671  -15.4631   21.1207 N   0  0  0  0  0  0
  -29.7999  -21.8891   20.4546 N   0  3  2  0  0  0
  -28.7729  -17.8833   21.0347 S   0  0  0  0  0  0
  -31.4747  -12.4059   19.1179 H   0  0  0  0  0  0
  -30.3326  -11.2921   19.8136 H   0  0  0  0  0  0
  -29.7391  -11.7832   17.4245 H   0  0  0  0  0  0
  -29.6640  -13.4931   17.7693 H   0  0  0  0  0  0
  -27.8325  -11.3067   18.8153 H   0  0  0  0  0  0
  -27.3673  -12.6351   17.7881 H   0  0  0  0  0  0
  -27.7121  -14.2515   19.5796 H   0  0  0  0  0  0
  -28.6844  -11.9417   21.3313 H   0  0  0  0  0  0
  -28.4696  -13.5727   21.8786 H   0  0  0  0  0  0
  -25.2761   -9.5691   22.4745 H   0  0  0  0  0  0
  -24.0011   -7.4636   22.7469 H   0  0  0  0  0  0
  -21.0824   -8.8779   19.8955 H   0  0  0  0  0  0
  -22.3696  -10.9674   19.6166 H   0  0  0  0  0  0
  -21.2004   -7.6155   23.9722 H   0  0  0  0  0  0
  -21.1474   -6.0519   25.9078 H   0  0  0  0  0  0
  -22.0600   -2.7609   23.2848 H   0  0  0  0  0  0
  -22.4102  -11.9922   22.4793 H   0  0  0  0  0  0
  -21.1136  -13.1309   22.2567 H   0  0  0  0  0  0
  -24.6724  -15.8447   20.5095 H   0  0  0  0  0  0
  -26.2921  -15.6215   20.0825 H   0  0  0  0  0  0
  -26.7160  -32.5503   23.1160 H   0  0  0  0  0  0
  -25.0213  -33.9786   25.0548 H   0  0  0  0  0  0
  -22.6951  -31.3148   21.4202 H   0  0  0  0  0  0
  -23.3778  -35.9597   23.3196 H   0  0  0  0  0  0
  -24.3636  -36.8996   22.2061 H   0  0  0  0  0  0
  -23.7167  -37.6456   23.6688 H   0  0  0  0  0  0
  -26.0506  -31.5919   20.5989 H   0  0  0  0  0  0
  -26.8272  -30.8762   21.9832 H   0  0  0  0  0  0
  -28.0953  -29.0657   21.1733 H   0  0  0  0  0  0
  -25.9721  -26.0048   18.9560 H   0  0  0  0  0  0
  -23.9598  -27.3318   19.0086 H   0  0  0  0  0  0
  -23.7122  -30.6133   19.4091 H   0  0  0  0  0  0
  -22.7311  -29.2573   19.8703 H   0  0  0  0  0  0
  -25.1241  -36.1946   25.0821 H   0  0  0  0  0  0
  -20.9936  -28.3217   24.1454 H   0  0  0  0  0  0
  -20.5661  -26.2280   23.3613 H   0  0  0  0  0  0
  -21.6632  -26.7466   22.1215 H   0  0  0  0  0  0
  -19.6910  -25.6291   21.1251 H   0  0  0  0  0  0
  -19.6693  -27.3203   20.6756 H   0  0  0  0  0  0
  -17.4207  -26.6742   21.3975 H   0  0  0  0  0  0
  -18.0265  -26.0048   22.8953 H   0  0  0  0  0  0
  -19.7924  -30.7255   24.2292 H   0  0  0  0  0  0
  -17.5011  -31.6283   24.5142 H   0  0  0  0  0  0
  -15.5342  -30.2997   23.7660 H   0  0  0  0  0  0
  -15.8650  -28.0818   22.7091 H   0  0  0  0  0  0
  -24.5979  -30.7039   25.7933 H   0  0  0  0  0  0
  -24.8941  -32.2931   26.4885 H   0  0  0  0  0  0
  -25.8161  -30.9049   27.0312 H   0  0  0  0  0  0
  -26.2776  -29.6806   24.1198 H   0  0  0  0  0  0
  -27.4048  -29.7252   25.4567 H   0  0  0  0  0  0
  -27.8645  -30.4297   23.9238 H   0  0  0  0  0  0
  -27.2760  -33.3616   26.2041 H   0  0  0  0  0  0
  -28.3909  -32.6821   25.0263 H   0  0  0  0  0  0
  -28.0784  -31.8410   26.5360 H   0  0  0  0  0  0
  -28.2510  -38.0158   24.7673 H   0  0  0  0  0  0
  -28.1191  -36.2714   24.5964 H   0  0  0  0  0  0
  -27.2388  -37.1053   25.8836 H   0  0  0  0  0  0
  -20.9306  -29.8795   21.6994 H   0  0  0  0  0  0
  -26.0132  -38.2852   24.1601 H   0  0  0  0  0  0
  -32.2965  -17.1376   20.8978 H   0  0  0  0  0  0
  -30.2083  -24.8066   22.0637 H   0  0  0  0  0  0
  -28.6354  -24.0314   22.0705 H   0  0  0  0  0  0
  -29.9782  -22.1408   22.5949 H   0  0  0  0  0  0
  -31.3193  -22.7260   21.6312 H   0  0  0  0  0  0
  -29.3837  -22.7183   18.5216 H   0  0  0  0  0  0
  -28.0324  -22.7031   19.6307 H   0  0  0  0  0  0
  -33.1926  -19.3980   20.5709 H   0  0  0  0  0  0
  -32.3577  -20.5353   21.6028 H   0  0  0  0  0  0
  -32.1482  -20.5957   19.8464 H   0  0  0  0  0  0
  -31.5564  -24.1728   19.5543 H   0  0  0  0  0  0
  -30.9909  -25.8084   19.8585 H   0  0  0  0  0  0
  -30.5771  -25.0040   18.3527 H   0  0  0  0  0  0
  -28.3863  -20.7986   21.6049 H   0  0  0  0  0  0
  -28.3027  -20.5169   19.9059 H   0  0  0  0  0  0
  -27.3518  -24.8469   20.2517 H   0  0  0  0  0  0
  -28.0356  -25.2053   18.6751 H   0  0  0  0  0  0
  -29.0555  -15.1683   21.4354 H   0  0  0  0  0  0
  -30.6317  -21.5964   19.9652 H   0  0  0  0  0  0
  1 25  1  0  0  0
  1 30  2  0  0  0
  1 83  1  0  0  0
  2  3  1  0  0  0
  2 25  1  0  0  0
  2 86  1  0  0  0
  2 87  1  0  0  0
  3  4  1  0  0  0
  3 88  1  0  0  0
  3 89  1  0  0  0
  4  5  1  0  0  0
  4 90  1  0  0  0
  4 91  1  0  0  0
  5  6  1  0  0  0
  5 26  1  0  0  0
  5 92  1  0  0  0
  6 25  1  0  0  0
  6 93  1  0  0  0
  6 94  1  0  0  0
  7  8  2  0  0  0
  7 26  1  0  0  0
  7 29  1  0  0  0
  8  9  1  0  0  0
  8 22  1  0  0  0
  9 10  1  0  0  0
  9 27  2  0  0  0
 10 11  2  0  0  0
 10 15  1  0  0  0
 11 12  1  0  0  0
 11 95  1  0  0  0
 12 13  2  0  0  0
 12 96  1  0  0  0
 13 14  1  0  0  0
 13 31  1  0  0  0
 14 15  2  0  0  0
 14 97  1  0  0  0
 15 98  1  0  0  0
 16 17  2  0  0  0
 16 21  1  0  0  0
 16 31  1  0  0  0
 17 18  1  0  0  0
 17 99  1  0  0  0
 18 19  2  0  0  0
 18100  1  0  0  0
 19 20  1  0  0  0
 19 24  1  0  0  0
 20 21  2  0  0  0
 20101  1  0  0  0
 21 23  1  0  0  0
 22 28  1  0  0  0
 22 32  2  0  0  0
 26 27  1  0  0  0
 28102  1  0  0  0
 28103  1  0  0  0
 29104  1  0  0  0
 29105  1  0  0  0
 33 34  1  0  0  0
 33 66  1  0  0  0
 33 70  2  0  0  0
 34 36  1  0  0  0
 34 59  1  0  0  0
 34106  1  0  0  0
 35 44  2  0  0  0
 35 45  1  0  0  0
 35 68  1  0  0  0
 36 56  1  0  0  0
 36107  1  0  0  0
 37 39  1  0  0  0
 37 47  1  0  0  0
 37 66  1  0  0  0
 37108  1  0  0  0
 38 43  2  0  0  0
 38 46  1  0  0  0
 38 47  1  0  0  0
 39 64  1  0  0  0
 39 67  2  0  0  0
 40 52  1  0  0  0
 40 53  2  0  0  0
 40 58  1  0  0  0
 41109  1  0  0  0
 41110  1  0  0  0
 41111  1  0  0  0
 41 48  1  0  0  0
 42 43  1  0  0  0
 42 66  1  0  0  0
 42112  1  0  0  0
 42113  1  0  0  0
 43 44  1  0  0  0
 44114  1  0  0  0
 45 46  2  0  0  0
 45115  1  0  0  0
 46116  1  0  0  0
 47117  1  0  0  0
 47118  1  0  0  0
 48 56  1  0  0  0
 48 65  1  0  0  0
 48119  1  0  0  0
 49 50  1  0  0  0
 49 53  1  0  0  0
 49 64  1  0  0  0
 49120  1  0  0  0
 50 51  1  0  0  0
 50121  1  0  0  0
 50122  1  0  0  0
 51 52  1  0  0  0
 51123  1  0  0  0
 51124  1  0  0  0
 52125  1  0  0  0
 52126  1  0  0  0
 53 54  1  0  0  0
 54 55  2  0  0  0
 54127  1  0  0  0
 55 57  1  0  0  0
 55128  1  0  0  0
 56 69  2  0  0  0
 57 58  2  0  0  0
 57129  1  0  0  0
 58130  1  0  0  0
 59 60  1  0  0  0
 59 61  1  0  0  0
 59 62  1  0  0  0
 60131  1  0  0  0
 60132  1  0  0  0
 60133  1  0  0  0
 61134  1  0  0  0
 61135  1  0  0  0
 61136  1  0  0  0
 62137  1  0  0  0
 62138  1  0  0  0
 62139  1  0  0  0
 63 65  1  0  0  0
 63140  1  0  0  0
 63141  1  0  0  0
 63142  1  0  0  0
 64143  1  0  0  0
 65144  1  0  0  0
 68 82  1  0  0  0
 71 72  1  0  0  0
 71 74  2  0  0  0
 71145  1  0  0  0
 72 73  2  0  0  0
 72 79  1  0  0  0
 73 81  1  0  0  0
 73 85  1  0  0  0
 74 83  1  0  0  0
 74 85  1  0  0  0
 75 76  1  0  0  0
 75 78  1  0  0  0
 75146  1  0  0  0
 75147  1  0  0  0
 76 84  1  0  0  0
 76148  1  0  0  0
 76149  1  0  0  0
 77 78  1  0  0  0
 77 84  1  0  0  0
 77150  1  0  0  0
 77151  1  0  0  0
 78 80  1  0  0  0
 78 82  1  0  0  0
 79152  1  0  0  0
 79153  1  0  0  0
 79154  1  0  0  0
 80155  1  0  0  0
 80156  1  0  0  0
 80157  1  0  0  0
 81158  1  0  0  0
 81159  1  0  0  0
 81 84  1  0  0  0
 82160  1  0  0  0
 82161  1  0  0  0
 83162  1  0  0  0
 84163  1  0  0  0
M  CHG  1  84   1
M  ISO  4   1 100  68 101  82 101  83 100
M  END
> <chiral flag>
0

> <version>
0

> <s_m_source_file>
/data/baiqing/PycharmProjects/Reinvent-master-3.2/result/LINK_invent/BTK/process_docking_weight1_custom_product_contain_oxygen_bond_distance_aromatic_linkinvent_7_9_3/rearranged_h_0151.sdf

> <i_m_source_file_index>
90

> <r_mmod_Potential_Energy-OPLS-2005>
-94.605583190918

> <r_mmod_Stretch_Energy-OPLS-2005>
39.9846382141113

> <r_mmod_Bend_Energy-OPLS-2005>
138.092910766602

> <r_mmod_Torsional_Energy-OPLS-2005>
286.031341552734

> <r_mmod_Improper_Torsional_Energy-OPLS-2005>
3.83651161193848

> <r_mmod_Van_der_Waal_Energy-OPLS-2005>
135.002090454102

> <r_mmod_Electrostatic_Energy-OPLS-2005>
-275.631134033203

> <r_mmod_Solvation_Energy-OPLS-2005>
-437.214874267578

> <b_mmod_Minimization_Converged-OPLS-2005>
0

> <r_mmod_RMS_Derivative-OPLS-2005>
1.70396995544434

$$$$
90
                    3D
 Structure written by MMmdl.
156165  0  0  1  0            999 V2000
  -30.5599  -14.8226   20.4534 C   0  0  0  0  0  0
  -30.4397  -12.4953   19.5159 C   0  0  0  0  0  0
  -29.5371  -12.5480   18.2608 C   0  0  0  0  0  0
  -28.0550  -12.3621   18.6458 C   0  0  0  0  0  0
  -27.6452  -13.2411   19.8601 C   0  0  2  0  0  0
  -28.6795  -13.1821   21.0079 C   0  0  0  0  0  0
  -25.2514  -13.8182   20.5681 C   0  0  0  0  0  0
  -24.1786  -13.0426   20.9184 C   0  0  0  0  0  0
  -24.6380  -11.6918   20.8700 C   0  0  0  0  0  0
  -23.9028  -10.4310   21.0393 C   0  0  0  0  0  0
  -24.3579   -9.4215   21.9176 C   0  0  0  0  0  0
  -23.6278   -8.2227   22.0730 C   0  0  0  0  0  0
  -22.4284   -8.0267   21.3511 C   0  0  0  0  0  0
  -21.9884   -9.0235   20.4635 C   0  0  0  0  0  0
  -22.7187  -10.2140   20.3051 C   0  0  0  0  0  0
  -21.6833   -6.0742   22.5284 C   0  0  0  0  0  0
  -21.4004   -6.5635   23.8227 C   0  0  0  0  0  0
  -21.3666   -5.6784   24.9191 C   0  0  0  0  0  0
  -21.6058   -4.3039   24.7223 C   0  0  0  0  0  0
  -21.8820   -3.8139   23.4339 C   0  0  0  0  0  0
  -21.9188   -4.6968   22.3409 C   0  0  0  0  0  0
  -22.7835  -13.5245   21.1878 C   0  0  0  0  0  0
  -22.1669   -4.2149   21.0994 F   0  0  0  0  0  0
  -21.5633   -3.4536   25.7740 F   0  0  0  0  0  0
  -29.9817  -13.5615   20.4461 N   0  0  0  0  0  0
  -26.2949  -12.9401   20.3248 N   0  0  0  0  0  0
  -25.9308  -11.6545   20.5672 N   0  0  0  0  0  0
  -22.0419  -12.8273   22.0432 N   0  0  0  0  0  0
  -25.4168  -15.1906   20.4163 N   0  0  0  0  0  0
  -31.7211  -14.9404   20.0397 O   0  0  0  0  0  0
  -21.6617   -6.8882   21.4255 O   0  0  0  0  0  0
  -22.3566  -14.5587   20.6752 O   0  0  0  0  0  0
  -24.6388  -31.8507   23.1917 C   0  0  0  0  0  0
  -25.9176  -32.4731   23.8266 C   0  0  1  0  0  0
  -27.2366  -27.2216   20.1383 C   0  0  0  0  0  0
  -25.5953  -33.8517   24.2198 N   0  0  0  0  0  0
  -23.4354  -30.4686   21.5380 C   0  0  2  0  0  0
  -24.8845  -28.9084   20.1007 C   0  0  0  0  0  0
  -22.7553  -29.4600   22.4963 C   0  0  0  0  0  0
  -18.0303  -28.1403   22.8484 C   0  0  0  0  0  0
  -24.1483  -36.7294   23.2644 C   0  0  0  0  0  0
  -25.9805  -30.7535   21.3666 C   0  0  0  0  0  0
  -26.0545  -29.3680   20.7198 C   0  0  0  0  0  0
  -27.2279  -28.5378   20.7279 C   0  0  0  0  0  0
  -26.0458  -26.8496   19.4673 C   0  0  0  0  0  0
  -24.8917  -27.6605   19.4583 C   0  0  0  0  0  0
  -23.6471  -29.7863   20.1588 C   0  0  0  0  0  0
  -25.4102  -36.3050   24.0333 C   0  0  1  0  0  0
  -20.5896  -28.3711   23.1283 C   0  0  2  0  0  0
  -20.6794  -26.9422   22.5426 C   0  0  0  0  0  0
  -19.5787  -26.6376   21.5231 C   0  0  0  0  0  0
  -18.1960  -26.7937   22.1628 C   0  0  0  0  0  0
  -19.1553  -28.8885   23.2840 C   0  0  0  0  0  0
  -18.9456  -30.1484   23.8850 C   0  0  0  0  0  0
  -17.6448  -30.6580   24.0573 C   0  0  0  0  0  0
  -25.9069  -34.9437   23.5089 C   0  0  0  0  0  0
  -16.5345  -29.9080   23.6340 C   0  0  0  0  0  0
  -16.7280  -28.6513   23.0344 C   0  0  0  0  0  0
  -26.4499  -31.6580   25.0676 C   0  0  0  0  0  0
  -25.3726  -31.3736   26.1408 C   0  0  0  0  0  0
  -27.0331  -30.3004   24.6151 C   0  0  0  0  0  0
  -27.6060  -32.4318   25.7443 C   0  0  0  0  0  0
  -27.5572  -37.1793   24.8430 C   0  0  0  0  0  0
  -21.4256  -29.3049   22.3677 N   0  0  0  0  0  0
  -26.4254  -37.3767   23.9408 N   0  0  0  0  0  0
  -24.7055  -31.0436   22.0900 N   0  0  0  0  0  0
  -23.4228  -28.8206   23.3122 O   0  0  0  0  0  0
  -28.3305  -26.3051   20.2427 O   0  0  0  0  0  0
  -26.5644  -34.8943   22.4661 O   0  0  0  0  0  0
  -23.5532  -32.1338   23.7232 O   0  0  0  0  0  0
  -29.4432  -19.0537   18.9340 C   0  0  0  0  0  0
  -29.6803  -17.6294   19.0224 C   0  0  0  0  0  0
  -29.3932  -19.5660   20.2069 C   0  0  0  0  0  0
  -29.7605  -17.2756   20.3518 C   0  0  0  0  0  0
  -28.5541  -22.9765   21.8153 C   0  0  0  0  0  0
  -28.9795  -21.4739   21.9243 C   0  0  0  0  0  0
  -29.0834  -22.1743   19.6504 C   0  0  0  0  0  0
  -29.0874  -23.5663   20.4793 C   0  0  2  0  0  0
  -30.5598  -24.0239   20.6475 C   0  0  0  0  0  0
  -28.1743  -24.8254   19.9092 C   0  0  0  0  0  0
  -29.1821  -20.9792   20.5675 N   0  0  0  0  0  0
  -29.8050  -15.9387   20.8335 N   0  0  0  0  0  0
  -29.5404  -18.4698   21.1046 O   0  0  0  0  0  0
  -31.4882  -12.6156   19.2384 H   0  0  0  0  0  0
  -30.3749  -11.5131   19.9902 H   0  0  0  0  0  0
  -29.8495  -11.7899   17.5414 H   0  0  0  0  0  0
  -29.6749  -13.5087   17.7630 H   0  0  0  0  0  0
  -27.9050  -11.3113   18.8839 H   0  0  0  0  0  0
  -27.4118  -12.5784   17.7921 H   0  0  0  0  0  0
  -27.6394  -14.2671   19.4925 H   0  0  0  0  0  0
  -28.7232  -12.1827   21.4430 H   0  0  0  0  0  0
  -28.3874  -13.8503   21.8189 H   0  0  0  0  0  0
  -25.2720   -9.5706   22.4749 H   0  0  0  0  0  0
  -23.9999   -7.4617   22.7465 H   0  0  0  0  0  0
  -21.0764   -8.8710   19.8973 H   0  0  0  0  0  0
  -22.3574  -10.9656   19.6156 H   0  0  0  0  0  0
  -21.1975   -7.6147   23.9739 H   0  0  0  0  0  0
  -21.1515   -6.0510   25.9111 H   0  0  0  0  0  0
  -22.0596   -2.7604   23.2810 H   0  0  0  0  0  0
  -22.3888  -11.9901   22.4874 H   0  0  0  0  0  0
  -21.1075  -13.1386   22.2627 H   0  0  0  0  0  0
  -24.6536  -15.8435   20.5497 H   0  0  0  0  0  0
  -26.2524  -15.6309   20.0499 H   0  0  0  0  0  0
  -26.7274  -32.5342   23.1026 H   0  0  0  0  0  0
  -25.0103  -33.9614   25.0348 H   0  0  0  0  0  0
  -22.7267  -31.2864   21.3873 H   0  0  0  0  0  0
  -23.3743  -35.9629   23.3260 H   0  0  0  0  0  0
  -24.3582  -36.8968   22.2068 H   0  0  0  0  0  0
  -23.7248  -37.6487   23.6705 H   0  0  0  0  0  0
  -26.0934  -31.5001   20.5794 H   0  0  0  0  0  0
  -26.8694  -30.8234   21.9821 H   0  0  0  0  0  0
  -28.1172  -28.8900   21.2318 H   0  0  0  0  0  0
  -25.9726  -25.9018   18.9581 H   0  0  0  0  0  0
  -24.0045  -27.3072   18.9499 H   0  0  0  0  0  0
  -23.7367  -30.5466   19.3819 H   0  0  0  0  0  0
  -22.7685  -29.1949   19.8908 H   0  0  0  0  0  0
  -25.1297  -36.1862   25.0823 H   0  0  0  0  0  0
  -20.9963  -28.3287   24.1421 H   0  0  0  0  0  0
  -20.5728  -26.2327   23.3644 H   0  0  0  0  0  0
  -21.6660  -26.7496   22.1199 H   0  0  0  0  0  0
  -19.6936  -25.6280   21.1292 H   0  0  0  0  0  0
  -19.6717  -27.3174   20.6758 H   0  0  0  0  0  0
  -17.4240  -26.6714   21.3996 H   0  0  0  0  0  0
  -18.0317  -26.0049   22.8999 H   0  0  0  0  0  0
  -19.7914  -30.7341   24.2189 H   0  0  0  0  0  0
  -17.4977  -31.6259   24.5181 H   0  0  0  0  0  0
  -15.5330  -30.2962   23.7690 H   0  0  0  0  0  0
  -15.8688  -28.0843   22.7054 H   0  0  0  0  0  0
  -24.5913  -30.7064   25.7738 H   0  0  0  0  0  0
  -24.8907  -32.2914   26.4798 H   0  0  0  0  0  0
  -25.8072  -30.8945   27.0194 H   0  0  0  0  0  0
  -26.2908  -29.6741   24.1200 H   0  0  0  0  0  0
  -27.4032  -29.7276   25.4651 H   0  0  0  0  0  0
  -27.8768  -30.4255   23.9368 H   0  0  0  0  0  0
  -27.2650  -33.3576   26.2085 H   0  0  0  0  0  0
  -28.3840  -32.6949   25.0260 H   0  0  0  0  0  0
  -28.0771  -31.8399   26.5298 H   0  0  0  0  0  0
  -28.2580  -38.0092   24.7506 H   0  0  0  0  0  0
  -28.1089  -36.2655   24.6202 H   0  0  0  0  0  0
  -27.2342  -37.1389   25.8839 H   0  0  0  0  0  0
  -20.9491  -29.8686   21.6776 H   0  0  0  0  0  0
  -26.0141  -38.2850   24.1374 H   0  0  0  0  0  0
  -29.3028  -19.6233   18.0258 H   0  0  0  0  0  0
  -29.7376  -16.9449   18.1875 H   0  0  0  0  0  0
  -28.8639  -23.5578   22.6870 H   0  0  0  0  0  0
  -27.4649  -23.0149   21.8046 H   0  0  0  0  0  0
  -28.2202  -20.8936   22.4543 H   0  0  0  0  0  0
  -29.9092  -21.3859   22.4863 H   0  0  0  0  0  0
  -29.9049  -22.1522   18.9312 H   0  0  0  0  0  0
  -28.1639  -22.0993   19.0664 H   0  0  0  0  0  0
  -31.1802  -23.2187   21.0481 H   0  0  0  0  0  0
  -30.6609  -24.8735   21.3302 H   0  0  0  0  0  0
  -31.0026  -24.3183   19.6942 H   0  0  0  0  0  0
  -27.1510  -24.5504   20.1635 H   0  0  0  0  0  0
  -28.2212  -24.7724   18.8205 H   0  0  0  0  0  0
  -29.0367  -15.7043   21.4443 H   0  0  0  0  0  0
  1 25  1  0  0  0
  1 30  2  0  0  0
  1 82  1  0  0  0
  2  3  1  0  0  0
  2 25  1  0  0  0
  2 84  1  0  0  0
  2 85  1  0  0  0
  3  4  1  0  0  0
  3 86  1  0  0  0
  3 87  1  0  0  0
  4  5  1  0  0  0
  4 88  1  0  0  0
  4 89  1  0  0  0
  5  6  1  0  0  0
  5 26  1  0  0  0
  5 90  1  0  0  0
  6 25  1  0  0  0
  6 91  1  0  0  0
  6 92  1  0  0  0
  7  8  2  0  0  0
  7 26  1  0  0  0
  7 29  1  0  0  0
  8  9  1  0  0  0
  8 22  1  0  0  0
  9 10  1  0  0  0
  9 27  2  0  0  0
 10 11  2  0  0  0
 10 15  1  0  0  0
 11 12  1  0  0  0
 11 93  1  0  0  0
 12 13  2  0  0  0
 12 94  1  0  0  0
 13 14  1  0  0  0
 13 31  1  0  0  0
 14 15  2  0  0  0
 14 95  1  0  0  0
 15 96  1  0  0  0
 16 17  2  0  0  0
 16 21  1  0  0  0
 16 31  1  0  0  0
 17 18  1  0  0  0
 17 97  1  0  0  0
 18 19  2  0  0  0
 18 98  1  0  0  0
 19 20  1  0  0  0
 19 24  1  0  0  0
 20 21  2  0  0  0
 20 99  1  0  0  0
 21 23  1  0  0  0
 22 28  1  0  0  0
 22 32  2  0  0  0
 26 27  1  0  0  0
 28100  1  0  0  0
 28101  1  0  0  0
 29102  1  0  0  0
 29103  1  0  0  0
 33 34  1  0  0  0
 33 66  1  0  0  0
 33 70  2  0  0  0
 34 36  1  0  0  0
 34 59  1  0  0  0
 34104  1  0  0  0
 35 44  2  0  0  0
 35 45  1  0  0  0
 35 68  1  0  0  0
 36 56  1  0  0  0
 36105  1  0  0  0
 37 39  1  0  0  0
 37 47  1  0  0  0
 37 66  1  0  0  0
 37106  1  0  0  0
 38 43  2  0  0  0
 38 46  1  0  0  0
 38 47  1  0  0  0
 39 64  1  0  0  0
 39 67  2  0  0  0
 40 52  1  0  0  0
 40 53  2  0  0  0
 40 58  1  0  0  0
 41107  1  0  0  0
 41108  1  0  0  0
 41109  1  0  0  0
 41 48  1  0  0  0
 42 43  1  0  0  0
 42 66  1  0  0  0
 42110  1  0  0  0
 42111  1  0  0  0
 43 44  1  0  0  0
 44112  1  0  0  0
 45 46  2  0  0  0
 45113  1  0  0  0
 46114  1  0  0  0
 47115  1  0  0  0
 47116  1  0  0  0
 48 56  1  0  0  0
 48 65  1  0  0  0
 48117  1  0  0  0
 49 50  1  0  0  0
 49 53  1  0  0  0
 49 64  1  0  0  0
 49118  1  0  0  0
 50 51  1  0  0  0
 50119  1  0  0  0
 50120  1  0  0  0
 51 52  1  0  0  0
 51121  1  0  0  0
 51122  1  0  0  0
 52123  1  0  0  0
 52124  1  0  0  0
 53 54  1  0  0  0
 54 55  2  0  0  0
 54125  1  0  0  0
 55 57  1  0  0  0
 55126  1  0  0  0
 56 69  2  0  0  0
 57 58  2  0  0  0
 57127  1  0  0  0
 58128  1  0  0  0
 59 60  1  0  0  0
 59 61  1  0  0  0
 59 62  1  0  0  0
 60129  1  0  0  0
 60130  1  0  0  0
 60131  1  0  0  0
 61132  1  0  0  0
 61133  1  0  0  0
 61134  1  0  0  0
 62135  1  0  0  0
 62136  1  0  0  0
 62137  1  0  0  0
 63 65  1  0  0  0
 63138  1  0  0  0
 63139  1  0  0  0
 63140  1  0  0  0
 64141  1  0  0  0
 65142  1  0  0  0
 68 80  1  0  0  0
 71 72  1  0  0  0
 71 73  2  0  0  0
 71143  1  0  0  0
 72 74  2  0  0  0
 72144  1  0  0  0
 73 81  1  0  0  0
 73 83  1  0  0  0
 74 82  1  0  0  0
 74 83  1  0  0  0
 75 76  1  0  0  0
 75 78  1  0  0  0
 75145  1  0  0  0
 75146  1  0  0  0
 76 81  1  0  0  0
 76147  1  0  0  0
 76148  1  0  0  0
 77 78  1  0  0  0
 77 81  1  0  0  0
 77149  1  0  0  0
 77150  1  0  0  0
 78 79  1  0  0  0
 78 80  1  0  0  0
 79151  1  0  0  0
 79152  1  0  0  0
 79153  1  0  0  0
 80154  1  0  0  0
 80155  1  0  0  0
 82156  1  0  0  0
M  ISO  4   1 100  68 101  80 101  82 100
M  END
> <chiral flag>
0

> <version>
0

> <s_m_source_file>
/data/baiqing/PycharmProjects/Reinvent-master-3.2/result/LINK_invent/BTK/process_docking_weight1_custom_product_contain_oxygen_bond_distance_aromatic_linkinvent_7_9_3/rearranged_h_0151.sdf

> <i_m_source_file_index>
91

> <r_mmod_Potential_Energy-OPLS-2005>
324.654907226562

> <r_mmod_Stretch_Energy-OPLS-2005>
153.810012817383

> <r_mmod_Bend_Energy-OPLS-2005>
233.498870849609

> <r_mmod_Torsional_Energy-OPLS-2005>
310.383880615234

> <r_mmod_Improper_Torsional_Energy-OPLS-2005>
4.33053636550903

> <r_mmod_Van_der_Waal_Energy-OPLS-2005>
111.802444458008

> <r_mmod_Electrostatic_Energy-OPLS-2005>
-376.896240234375

> <r_mmod_Solvation_Energy-OPLS-2005>
-229.830978393555

> <b_mmod_Minimization_Converged-OPLS-2005>
0

> <r_mmod_RMS_Derivative-OPLS-2005>
6.03532361984253

$$$$
91
                    3D
 Structure written by MMmdl.
161170  0  0  1  0            999 V2000
  -30.6739  -14.6025   20.4950 C   0  0  0  0  0  0
  -30.4245  -12.3684   19.4571 C   0  0  0  0  0  0
  -29.5045  -12.5002   18.2252 C   0  0  0  0  0  0
  -28.0273  -12.3470   18.6359 C   0  0  0  0  0  0
  -27.6529  -13.2224   19.8622 C   0  0  2  0  0  0
  -28.6971  -13.0930   20.9951 C   0  0  0  0  0  0
  -25.2555  -13.8189   20.5697 C   0  0  0  0  0  0
  -24.1823  -13.0446   20.9197 C   0  0  0  0  0  0
  -24.6396  -11.6919   20.8739 C   0  0  0  0  0  0
  -23.9065  -10.4299   21.0402 C   0  0  0  0  0  0
  -24.3619   -9.4213   21.9179 C   0  0  0  0  0  0
  -23.6299   -8.2244   22.0749 C   0  0  0  0  0  0
  -22.4278   -8.0284   21.3548 C   0  0  0  0  0  0
  -21.9911   -9.0257   20.4650 C   0  0  0  0  0  0
  -22.7237  -10.2138   20.3050 C   0  0  0  0  0  0
  -21.6854   -6.0737   22.5281 C   0  0  0  0  0  0
  -21.4016   -6.5635   23.8217 C   0  0  0  0  0  0
  -21.3654   -5.6791   24.9178 C   0  0  0  0  0  0
  -21.6042   -4.3055   24.7229 C   0  0  0  0  0  0
  -21.8817   -3.8148   23.4351 C   0  0  0  0  0  0
  -21.9194   -4.6961   22.3406 C   0  0  0  0  0  0
  -22.7842  -13.5233   21.1856 C   0  0  0  0  0  0
  -22.1664   -4.2147   21.0984 F   0  0  0  0  0  0
  -21.5624   -3.4537   25.7740 F   0  0  0  0  0  0
  -30.0168  -13.4038   20.4274 N   0  0  0  0  0  0
  -26.2988  -12.9384   20.3324 N   0  0  0  0  0  0
  -25.9328  -11.6529   20.5753 N   0  0  0  0  0  0
  -22.0483  -12.8227   22.0411 N   0  0  0  0  0  0
  -25.4267  -15.1913   20.4109 N   0  0  0  0  0  0
  -31.8451  -14.6997   20.1197 O   0  0  0  0  0  0
  -21.6642   -6.8880   21.4243 O   0  0  0  0  0  0
  -22.3526  -14.5532   20.6696 O   0  0  0  0  0  0
  -24.6230  -31.8623   23.2054 C   0  0  0  0  0  0
  -25.9092  -32.4789   23.8370 C   0  0  1  0  0  0
  -27.2203  -27.3551   20.1158 C   0  0  0  0  0  0
  -25.5926  -33.8591   24.2295 N   0  0  0  0  0  0
  -23.4154  -30.4870   21.5462 C   0  0  2  0  0  0
  -24.8633  -28.9495   20.1073 C   0  0  0  0  0  0
  -22.7460  -29.4634   22.4940 C   0  0  0  0  0  0
  -18.0283  -28.1388   22.8482 C   0  0  0  0  0  0
  -24.1486  -36.7289   23.2626 C   0  0  0  0  0  0
  -25.9536  -30.8045   21.3724 C   0  0  0  0  0  0
  -26.0300  -29.4352   20.7141 C   0  0  0  0  0  0
  -27.2154  -28.6472   20.7139 C   0  0  0  0  0  0
  -26.0429  -26.9188   19.4725 C   0  0  0  0  0  0
  -24.8692  -27.6944   19.4778 C   0  0  0  0  0  0
  -23.6287  -29.8242   20.1602 C   0  0  0  0  0  0
  -25.4095  -36.3086   24.0335 C   0  0  1  0  0  0
  -20.5881  -28.3682   23.1292 C   0  0  2  0  0  0
  -20.6768  -26.9408   22.5419 C   0  0  0  0  0  0
  -19.5751  -26.6389   21.5211 C   0  0  0  0  0  0
  -18.1928  -26.7930   22.1616 C   0  0  0  0  0  0
  -19.1537  -28.8848   23.2883 C   0  0  0  0  0  0
  -18.9460  -30.1452   23.8895 C   0  0  0  0  0  0
  -17.6463  -30.6586   24.0561 C   0  0  0  0  0  0
  -25.9048  -34.9459   23.5113 C   0  0  0  0  0  0
  -16.5352  -29.9085   23.6335 C   0  0  0  0  0  0
  -16.7270  -28.6505   23.0347 C   0  0  0  0  0  0
  -26.4487  -31.6584   25.0725 C   0  0  0  0  0  0
  -25.3735  -31.3734   26.1469 C   0  0  0  0  0  0
  -27.0306  -30.3003   24.6158 C   0  0  0  0  0  0
  -27.6063  -32.4301   25.7482 C   0  0  0  0  0  0
  -27.5607  -37.1746   24.8420 C   0  0  0  0  0  0
  -21.4175  -29.3037   22.3683 N   0  0  0  0  0  0
  -26.4255  -37.3803   23.9470 N   0  0  0  0  0  0
  -24.6821  -31.0670   22.0984 N   0  0  0  0  0  0
  -23.4197  -28.8169   23.3004 O   0  0  0  0  0  0
  -28.2986  -26.4736   20.1782 O   0  0  0  0  0  0
  -26.5619  -34.8923   22.4682 O   0  0  0  0  0  0
  -23.5403  -32.1409   23.7404 O   0  0  0  0  0  0
  -31.2824  -17.6246   19.9449 C   0  0  0  0  0  0
  -31.2252  -19.0502   19.7656 C   0  0  0  0  0  0
  -30.0762  -19.6380   20.2540 C   0  0  0  0  0  0
  -30.1934  -17.0468   20.5614 C   0  0  0  0  0  0
  -29.8098  -23.4743   21.4055 C   0  0  0  0  0  0
  -28.7290  -23.9176   20.7093 C   0  0  0  0  0  0
  -30.3306  -22.0224   21.3198 C   0  0  0  0  0  0
  -28.0139  -22.9368   19.7590 C   0  0  0  0  0  0
  -29.7296  -21.1529   20.1819 C   0  0  2  0  0  0
  -32.3367  -19.8046   19.0932 C   0  0  0  0  0  0
  -30.5454  -24.3156   22.4375 C   0  0  0  0  0  0
  -28.0055  -25.2826   20.9871 C   0  0  0  0  0  0
  -29.9336  -15.7077   20.8221 N   0  0  0  0  0  0
  -28.2941  -21.4875   20.0350 N   0  3  0  0  0  0
  -29.0711  -18.3633   20.9724 S   0  0  0  0  0  0
  -31.4699  -12.4600   19.1574 H   0  0  0  0  0  0
  -30.3302  -11.3775   19.9035 H   0  0  0  0  0  0
  -29.7652  -11.7500   17.4774 H   0  0  0  0  0  0
  -29.6577  -13.4708   17.7506 H   0  0  0  0  0  0
  -27.8586  -11.2946   18.8680 H   0  0  0  0  0  0
  -27.3753  -12.5796   17.7931 H   0  0  0  0  0  0
  -27.6691  -14.2558   19.5148 H   0  0  0  0  0  0
  -28.6978  -12.0820   21.4045 H   0  0  0  0  0  0
  -28.4513  -13.7543   21.8271 H   0  0  0  0  0  0
  -25.2765   -9.5688   22.4747 H   0  0  0  0  0  0
  -24.0014   -7.4632   22.7458 H   0  0  0  0  0  0
  -21.0844   -8.8772   19.8961 H   0  0  0  0  0  0
  -22.3691  -10.9672   19.6153 H   0  0  0  0  0  0
  -21.2013   -7.6145   23.9716 H   0  0  0  0  0  0
  -21.1472   -6.0523   25.9080 H   0  0  0  0  0  0
  -22.0600   -2.7611   23.2851 H   0  0  0  0  0  0
  -22.4093  -11.9893   22.4813 H   0  0  0  0  0  0
  -21.1095  -13.1250   22.2602 H   0  0  0  0  0  0
  -24.6593  -15.8463   20.5163 H   0  0  0  0  0  0
  -26.2763  -15.6292   20.0792 H   0  0  0  0  0  0
  -26.7161  -32.5475   23.1122 H   0  0  0  0  0  0
  -25.0085  -33.9742   25.0447 H   0  0  0  0  0  0
  -22.7074  -31.3068   21.4061 H   0  0  0  0  0  0
  -23.3787  -35.9576   23.3182 H   0  0  0  0  0  0
  -24.3624  -36.9010   22.2066 H   0  0  0  0  0  0
  -23.7168  -37.6430   23.6705 H   0  0  0  0  0  0
  -26.0822  -31.5710   20.6069 H   0  0  0  0  0  0
  -26.8353  -30.8525   21.9999 H   0  0  0  0  0  0
  -28.1066  -29.0065   21.2089 H   0  0  0  0  0  0
  -26.0221  -25.9520   18.9901 H   0  0  0  0  0  0
  -23.9761  -27.3174   18.9989 H   0  0  0  0  0  0
  -23.7414  -30.6014   19.4028 H   0  0  0  0  0  0
  -22.7507  -29.2494   19.8601 H   0  0  0  0  0  0
  -25.1248  -36.1917   25.0818 H   0  0  0  0  0  0
  -20.9982  -28.3262   24.1408 H   0  0  0  0  0  0
  -20.5667  -26.2289   23.3616 H   0  0  0  0  0  0
  -21.6638  -26.7444   22.1218 H   0  0  0  0  0  0
  -19.6912  -25.6302   21.1237 H   0  0  0  0  0  0
  -19.6697  -27.3197   20.6740 H   0  0  0  0  0  0
  -17.4208  -26.6690   21.4007 H   0  0  0  0  0  0
  -18.0316  -26.0072   22.9011 H   0  0  0  0  0  0
  -19.7940  -30.7268   24.2262 H   0  0  0  0  0  0
  -17.5021  -31.6265   24.5166 H   0  0  0  0  0  0
  -15.5350  -30.2985   23.7662 H   0  0  0  0  0  0
  -15.8670  -28.0827   22.7059 H   0  0  0  0  0  0
  -24.5912  -30.7063   25.7823 H   0  0  0  0  0  0
  -24.8923  -32.2909   26.4870 H   0  0  0  0  0  0
  -25.8085  -30.8949   27.0254 H   0  0  0  0  0  0
  -26.2862  -29.6774   24.1184 H   0  0  0  0  0  0
  -27.3997  -29.7237   25.4649 H   0  0  0  0  0  0
  -27.8740  -30.4276   23.9368 H   0  0  0  0  0  0
  -27.2689  -33.3599   26.2075 H   0  0  0  0  0  0
  -28.3863  -32.6864   25.0299 H   0  0  0  0  0  0
  -28.0741  -31.8414   26.5383 H   0  0  0  0  0  0
  -28.2464  -38.0201   24.7727 H   0  0  0  0  0  0
  -28.1260  -36.2761   24.5894 H   0  0  0  0  0  0
  -27.2394  -37.0971   25.8822 H   0  0  0  0  0  0
  -20.9343  -29.8763   21.6907 H   0  0  0  0  0  0
  -26.0122  -38.2836   24.1638 H   0  0  0  0  0  0
  -32.1416  -17.0759   19.5858 H   0  0  0  0  0  0
  -30.1162  -21.5494   22.2784 H   0  0  0  0  0  0
  -31.4167  -22.0348   21.2258 H   0  0  0  0  0  0
  -28.2992  -23.1798   18.7347 H   0  0  0  0  0  0
  -26.9352  -23.0819   19.8222 H   0  0  0  0  0  0
  -30.1759  -21.5242   19.2578 H   0  0  0  0  0  0
  -33.1805  -19.1545   18.8588 H   0  0  0  0  0  0
  -32.7201  -20.6043   19.7268 H   0  0  0  0  0  0
  -32.0064  -20.2495   18.1541 H   0  0  0  0  0  0
  -30.3549  -25.3825   22.3297 H   0  0  0  0  0  0
  -31.6223  -24.1794   22.3368 H   0  0  0  0  0  0
  -30.2592  -24.0131   23.4448 H   0  0  0  0  0  0
  -28.1920  -25.5688   22.0217 H   0  0  0  0  0  0
  -26.9387  -25.0561   20.9938 H   0  0  0  0  0  0
  -29.0126  -15.5037   21.1803 H   0  0  0  0  0  0
  -27.9099  -20.9399   19.2820 H   0  0  0  0  0  0
  -27.8150  -21.2169   20.8775 H   0  0  0  0  0  0
  1 25  1  0  0  0
  1 30  2  0  0  0
  1 83  1  0  0  0
  2  3  1  0  0  0
  2 25  1  0  0  0
  2 86  1  0  0  0
  2 87  1  0  0  0
  3  4  1  0  0  0
  3 88  1  0  0  0
  3 89  1  0  0  0
  4  5  1  0  0  0
  4 90  1  0  0  0
  4 91  1  0  0  0
  5  6  1  0  0  0
  5 26  1  0  0  0
  5 92  1  0  0  0
  6 25  1  0  0  0
  6 93  1  0  0  0
  6 94  1  0  0  0
  7  8  2  0  0  0
  7 26  1  0  0  0
  7 29  1  0  0  0
  8  9  1  0  0  0
  8 22  1  0  0  0
  9 10  1  0  0  0
  9 27  2  0  0  0
 10 11  2  0  0  0
 10 15  1  0  0  0
 11 12  1  0  0  0
 11 95  1  0  0  0
 12 13  2  0  0  0
 12 96  1  0  0  0
 13 14  1  0  0  0
 13 31  1  0  0  0
 14 15  2  0  0  0
 14 97  1  0  0  0
 15 98  1  0  0  0
 16 17  2  0  0  0
 16 21  1  0  0  0
 16 31  1  0  0  0
 17 18  1  0  0  0
 17 99  1  0  0  0
 18 19  2  0  0  0
 18100  1  0  0  0
 19 20  1  0  0  0
 19 24  1  0  0  0
 20 21  2  0  0  0
 20101  1  0  0  0
 21 23  1  0  0  0
 22 28  1  0  0  0
 22 32  2  0  0  0
 26 27  1  0  0  0
 28102  1  0  0  0
 28103  1  0  0  0
 29104  1  0  0  0
 29105  1  0  0  0
 33 34  1  0  0  0
 33 66  1  0  0  0
 33 70  2  0  0  0
 34 36  1  0  0  0
 34 59  1  0  0  0
 34106  1  0  0  0
 35 44  2  0  0  0
 35 45  1  0  0  0
 35 68  1  0  0  0
 36 56  1  0  0  0
 36107  1  0  0  0
 37 39  1  0  0  0
 37 47  1  0  0  0
 37 66  1  0  0  0
 37108  1  0  0  0
 38 43  2  0  0  0
 38 46  1  0  0  0
 38 47  1  0  0  0
 39 64  1  0  0  0
 39 67  2  0  0  0
 40 52  1  0  0  0
 40 53  2  0  0  0
 40 58  1  0  0  0
 41109  1  0  0  0
 41110  1  0  0  0
 41111  1  0  0  0
 41 48  1  0  0  0
 42 43  1  0  0  0
 42 66  1  0  0  0
 42112  1  0  0  0
 42113  1  0  0  0
 43 44  1  0  0  0
 44114  1  0  0  0
 45 46  2  0  0  0
 45115  1  0  0  0
 46116  1  0  0  0
 47117  1  0  0  0
 47118  1  0  0  0
 48 56  1  0  0  0
 48 65  1  0  0  0
 48119  1  0  0  0
 49 50  1  0  0  0
 49 53  1  0  0  0
 49 64  1  0  0  0
 49120  1  0  0  0
 50 51  1  0  0  0
 50121  1  0  0  0
 50122  1  0  0  0
 51 52  1  0  0  0
 51123  1  0  0  0
 51124  1  0  0  0
 52125  1  0  0  0
 52126  1  0  0  0
 53 54  1  0  0  0
 54 55  2  0  0  0
 54127  1  0  0  0
 55 57  1  0  0  0
 55128  1  0  0  0
 56 69  2  0  0  0
 57 58  2  0  0  0
 57129  1  0  0  0
 58130  1  0  0  0
 59 60  1  0  0  0
 59 61  1  0  0  0
 59 62  1  0  0  0
 60131  1  0  0  0
 60132  1  0  0  0
 60133  1  0  0  0
 61134  1  0  0  0
 61135  1  0  0  0
 61136  1  0  0  0
 62137  1  0  0  0
 62138  1  0  0  0
 62139  1  0  0  0
 63 65  1  0  0  0
 63140  1  0  0  0
 63141  1  0  0  0
 63142  1  0  0  0
 64143  1  0  0  0
 65144  1  0  0  0
 68 82  1  0  0  0
 71 72  1  0  0  0
 71 74  2  0  0  0
 71145  1  0  0  0
 72 73  2  0  0  0
 72 80  1  0  0  0
 73 85  1  0  0  0
 73 79  1  0  0  0
 74 83  1  0  0  0
 74 85  1  0  0  0
 75 76  2  0  0  0
 75 77  1  0  0  0
 75 81  1  0  0  0
 76 78  1  0  0  0
 76 82  1  0  0  0
 77 79  1  0  0  0
 77146  1  0  0  0
 77147  1  0  0  0
 78 84  1  0  0  0
 78148  1  0  0  0
 78149  1  0  0  0
 79 84  1  0  0  0
 79150  1  0  0  0
 80151  1  0  0  0
 80152  1  0  0  0
 80153  1  0  0  0
 81154  1  0  0  0
 81155  1  0  0  0
 81156  1  0  0  0
 82157  1  0  0  0
 82158  1  0  0  0
 83159  1  0  0  0
 84160  1  0  0  0
 84161  1  0  0  0
M  CHG  1  84   1
M  ISO  4   1 100  68 101  82 101  83 100
M  END
> <chiral flag>
0

> <version>
0

> <s_m_source_file>
/data/baiqing/PycharmProjects/Reinvent-master-3.2/result/LINK_invent/BTK/process_docking_weight1_custom_product_contain_oxygen_bond_distance_aromatic_linkinvent_7_9_3/rearranged_h_0151.sdf

> <i_m_source_file_index>
92

> <r_mmod_Potential_Energy-OPLS-2005>
-136.818115234375

> <r_mmod_Stretch_Energy-OPLS-2005>
64.5521392822266

> <r_mmod_Bend_Energy-OPLS-2005>
133.936325073242

> <r_mmod_Torsional_Energy-OPLS-2005>
233.01985168457

> <r_mmod_Improper_Torsional_Energy-OPLS-2005>
4.59286165237427

> <r_mmod_Van_der_Waal_Energy-OPLS-2005>
134.191787719727

> <r_mmod_Electrostatic_Energy-OPLS-2005>
-300.297271728516

> <r_mmod_Solvation_Energy-OPLS-2005>
-448.717102050781

> <b_mmod_Minimization_Converged-OPLS-2005>
0

> <r_mmod_RMS_Derivative-OPLS-2005>
1.11003541946411

$$$$
92
                    3D
 Structure written by MMmdl.
164174  0  0  1  0            999 V2000
  -30.4764  -15.1152   20.3840 C   0  0  0  0  0  0
  -30.4405  -12.6977   19.5192 C   0  0  0  0  0  0
  -29.5299  -12.5548   18.2749 C   0  0  0  0  0  0
  -28.0681  -12.3134   18.6941 C   0  0  0  0  0  0
  -27.6205  -13.2650   19.8331 C   0  0  2  0  0  0
  -28.6587  -13.3612   20.9715 C   0  0  0  0  0  0
  -25.2410  -13.8234   20.5721 C   0  0  0  0  0  0
  -24.1755  -13.0438   20.9254 C   0  0  0  0  0  0
  -24.6402  -11.6931   20.8767 C   0  0  0  0  0  0
  -23.9090  -10.4295   21.0413 C   0  0  0  0  0  0
  -24.3633   -9.4207   21.9190 C   0  0  0  0  0  0
  -23.6305   -8.2241   22.0755 C   0  0  0  0  0  0
  -22.4285   -8.0284   21.3545 C   0  0  0  0  0  0
  -21.9928   -9.0257   20.4645 C   0  0  0  0  0  0
  -22.7261  -10.2135   20.3060 C   0  0  0  0  0  0
  -21.6856   -6.0738   22.5278 C   0  0  0  0  0  0
  -21.4014   -6.5642   23.8211 C   0  0  0  0  0  0
  -21.3659   -5.6794   24.9173 C   0  0  0  0  0  0
  -21.6047   -4.3057   24.7224 C   0  0  0  0  0  0
  -21.8818   -3.8148   23.4344 C   0  0  0  0  0  0
  -21.9193   -4.6965   22.3400 C   0  0  0  0  0  0
  -22.7773  -13.5195   21.1907 C   0  0  0  0  0  0
  -22.1662   -4.2152   21.0978 F   0  0  0  0  0  0
  -21.5631   -3.4538   25.7736 F   0  0  0  0  0  0
  -29.9138  -13.8226   20.3619 N   0  0  0  0  0  0
  -26.2845  -12.9501   20.3233 N   0  0  0  0  0  0
  -25.9337  -11.6613   20.5737 N   0  0  0  0  0  0
  -22.0430  -12.8168   22.0456 N   0  0  0  0  0  0
  -25.4029  -15.1960   20.4111 N   0  0  0  0  0  0
  -31.6834  -15.1603   20.1149 O   0  0  0  0  0  0
  -21.6646   -6.8884   21.4242 O   0  0  0  0  0  0
  -22.3448  -14.5496   20.6752 O   0  0  0  0  0  0
  -24.6545  -31.8322   23.1778 C   0  0  0  0  0  0
  -25.9263  -32.4631   23.8206 C   0  0  1  0  0  0
  -27.2154  -27.0168   20.1700 C   0  0  0  0  0  0
  -25.5966  -33.8442   24.2121 N   0  0  0  0  0  0
  -23.4642  -30.4473   21.5252 C   0  0  2  0  0  0
  -24.9155  -28.8524   20.1097 C   0  0  0  0  0  0
  -22.7626  -29.4484   22.4810 C   0  0  0  0  0  0
  -18.0312  -28.1409   22.8463 C   0  0  0  0  0  0
  -24.1491  -36.7221   23.2646 C   0  0  0  0  0  0
  -26.0283  -30.6681   21.3936 C   0  0  0  0  0  0
  -26.0968  -29.2673   20.7364 C   0  0  0  0  0  0
  -27.2444  -28.3688   20.7445 C   0  0  0  0  0  0
  -26.0061  -26.7322   19.4985 C   0  0  0  0  0  0
  -24.8902  -27.6023   19.4717 C   0  0  0  0  0  0
  -23.6975  -29.7693   20.1481 C   0  0  0  0  0  0
  -25.4128  -36.2995   24.0311 C   0  0  1  0  0  0
  -20.5934  -28.3737   23.1210 C   0  0  2  0  0  0
  -20.6793  -26.9427   22.5402 C   0  0  0  0  0  0
  -19.5773  -26.6380   21.5210 C   0  0  0  0  0  0
  -18.1952  -26.7944   22.1616 C   0  0  0  0  0  0
  -19.1572  -28.8892   23.2826 C   0  0  0  0  0  0
  -18.9491  -30.1487   23.8857 C   0  0  0  0  0  0
  -17.6487  -30.6600   24.0555 C   0  0  0  0  0  0
  -25.9088  -34.9374   23.5031 C   0  0  0  0  0  0
  -16.5375  -29.9088   23.6346 C   0  0  0  0  0  0
  -16.7294  -28.6509   23.0358 C   0  0  0  0  0  0
  -26.4537  -31.6543   25.0698 C   0  0  0  0  0  0
  -25.3686  -31.3779   26.1373 C   0  0  0  0  0  0
  -27.0418  -30.2921   24.6365 C   0  0  0  0  0  0
  -27.6056  -32.4323   25.7489 C   0  0  0  0  0  0
  -27.5569  -37.1765   24.8467 C   0  0  0  0  0  0
  -21.4305  -29.3042   22.3567 N   0  0  0  0  0  0
  -26.4279  -37.3720   23.9410 N   0  0  0  0  0  0
  -24.7363  -31.0072   22.0864 N   0  0  0  0  0  0
  -23.4217  -28.8041   23.3011 O   0  0  0  0  0  0
  -28.2349  -25.9588   20.2498 O   0  0  0  0  0  0
  -26.5685  -34.8898   22.4621 O   0  0  0  0  0  0
  -23.5635  -32.1248   23.6921 O   0  0  0  0  0  0
  -26.5744  -18.3439   18.1328 C   0  0  0  0  0  0
  -25.9846  -19.3700   19.0904 C   0  0  0  0  0  0
  -27.8120  -17.7478   18.7880 C   0  0  0  0  0  0
  -26.9297  -20.5619   19.1755 C   0  0  0  0  0  0
  -28.7297  -21.8577   21.5063 C   0  0  0  0  0  0
  -29.6372  -19.0589   21.4258 C   0  0  0  0  0  0
  -29.1001  -21.7084   19.2044 C   0  0  0  0  0  0
  -28.9426  -18.7479   19.1604 C   0  0  2  0  0  0
  -28.5938  -20.2747   21.0911 C   0  0  2  0  0  0
  -28.9067  -22.9147   20.2906 C   0  0  1  0  0  0
  -29.8416  -17.9448   20.2596 C   0  0  2  0  0  0
  -28.4096  -20.2767   19.5934 C   0  0  2  0  0  0
  -27.9565  -24.3823   20.0640 C   0  0  0  0  0  0
  -29.6809  -16.3286   20.5084 N   0  0  0  0  0  0
  -31.4687  -12.8767   19.2016 H   0  0  0  0  0  0
  -30.4662  -11.7672   20.0887 H   0  0  0  0  0  0
  -29.8778  -11.7384   17.6406 H   0  0  0  0  0  0
  -29.5923  -13.4614   17.6709 H   0  0  0  0  0  0
  -27.9900  -11.2788   19.0298 H   0  0  0  0  0  0
  -27.4033  -12.4063   17.8343 H   0  0  0  0  0  0
  -27.5611  -14.2523   19.3736 H   0  0  0  0  0  0
  -28.7860  -12.4022   21.4756 H   0  0  0  0  0  0
  -28.3289  -14.0708   21.7321 H   0  0  0  0  0  0
  -25.2772   -9.5682   22.4774 H   0  0  0  0  0  0
  -24.0010   -7.4630   22.7473 H   0  0  0  0  0  0
  -21.0860   -8.8781   19.8944 H   0  0  0  0  0  0
  -22.3721  -10.9679   19.6172 H   0  0  0  0  0  0
  -21.2005   -7.6150   23.9716 H   0  0  0  0  0  0
  -21.1485   -6.0524   25.9078 H   0  0  0  0  0  0
  -22.0597   -2.7611   23.2842 H   0  0  0  0  0  0
  -22.4059  -11.9830   22.4830 H   0  0  0  0  0  0
  -21.1044  -13.1177   22.2673 H   0  0  0  0  0  0
  -24.6229  -15.8369   20.5057 H   0  0  0  0  0  0
  -26.2239  -15.6290   20.0122 H   0  0  0  0  0  0
  -26.7328  -32.5191   23.0923 H   0  0  0  0  0  0
  -25.0085  -33.9531   25.0253 H   0  0  0  0  0  0
  -22.7727  -31.2766   21.3617 H   0  0  0  0  0  0
  -23.3768  -35.9538   23.3287 H   0  0  0  0  0  0
  -24.3579  -36.8879   22.2066 H   0  0  0  0  0  0
  -23.7232  -37.6402   23.6702 H   0  0  0  0  0  0
  -26.1986  -31.4157   20.6175 H   0  0  0  0  0  0
  -26.8933  -30.7205   22.0429 H   0  0  0  0  0  0
  -28.1405  -28.6828   21.2613 H   0  0  0  0  0  0
  -25.8875  -25.7762   19.0110 H   0  0  0  0  0  0
  -23.9902  -27.2788   18.9665 H   0  0  0  0  0  0
  -23.8429  -30.5407   19.3908 H   0  0  0  0  0  0
  -22.8090  -29.2181   19.8345 H   0  0  0  0  0  0
  -25.1321  -36.1803   25.0800 H   0  0  0  0  0  0
  -21.0017  -28.3334   24.1334 H   0  0  0  0  0  0
  -20.5680  -26.2348   23.3628 H   0  0  0  0  0  0
  -21.6658  -26.7415   22.1207 H   0  0  0  0  0  0
  -19.6937  -25.6281   21.1261 H   0  0  0  0  0  0
  -19.6725  -27.3172   20.6729 H   0  0  0  0  0  0
  -17.4218  -26.6677   21.4022 H   0  0  0  0  0  0
  -18.0354  -26.0103   22.9033 H   0  0  0  0  0  0
  -19.7969  -30.7310   24.2205 H   0  0  0  0  0  0
  -17.5044  -31.6279   24.5162 H   0  0  0  0  0  0
  -15.5375  -30.2981   23.7705 H   0  0  0  0  0  0
  -15.8692  -28.0823   22.7095 H   0  0  0  0  0  0
  -24.5882  -30.7106   25.7691 H   0  0  0  0  0  0
  -24.8857  -32.2979   26.4679 H   0  0  0  0  0  0
  -25.7940  -30.9029   27.0224 H   0  0  0  0  0  0
  -26.3063  -29.6618   24.1352 H   0  0  0  0  0  0
  -27.3972  -29.7252   25.4980 H   0  0  0  0  0  0
  -27.8994  -30.4131   23.9747 H   0  0  0  0  0  0
  -27.2661  -33.3689   26.1922 H   0  0  0  0  0  0
  -28.3944  -32.6763   25.0360 H   0  0  0  0  0  0
  -28.0627  -31.8526   26.5517 H   0  0  0  0  0  0
  -28.2566  -38.0077   24.7518 H   0  0  0  0  0  0
  -28.1083  -36.2605   24.6292 H   0  0  0  0  0  0
  -27.2288  -37.1409   25.8870 H   0  0  0  0  0  0
  -20.9535  -29.8737   21.6712 H   0  0  0  0  0  0
  -26.0136  -38.2781   24.1423 H   0  0  0  0  0  0
  -26.8178  -18.7917   17.1680 H   0  0  0  0  0  0
  -25.8437  -17.5571   17.9393 H   0  0  0  0  0  0
  -25.8144  -18.9387   20.0779 H   0  0  0  0  0  0
  -25.0116  -19.7018   18.7255 H   0  0  0  0  0  0
  -28.2149  -16.9538   18.1570 H   0  0  0  0  0  0
  -27.4523  -17.2583   19.6925 H   0  0  0  0  0  0
  -26.4898  -21.3178   19.8281 H   0  0  0  0  0  0
  -26.9162  -21.0117   18.1819 H   0  0  0  0  0  0
  -29.5495  -21.9737   22.2156 H   0  0  0  0  0  0
  -27.8356  -22.1399   22.0632 H   0  0  0  0  0  0
  -29.3470  -18.5736   22.3579 H   0  0  0  0  0  0
  -30.6114  -19.5047   21.6294 H   0  0  0  0  0  0
  -30.1724  -21.5172   19.1375 H   0  0  0  0  0  0
  -28.8356  -22.0476   18.2024 H   0  0  0  0  0  0
  -29.5397  -18.8800   18.2572 H   0  0  0  0  0  0
  -27.6563  -19.9297   21.5310 H   0  0  0  0  0  0
  -29.9117  -23.3241   20.4027 H   0  0  0  0  0  0
  -30.8776  -18.0457   19.9319 H   0  0  0  0  0  0
  -27.0319  -24.2023   20.6133 H   0  0  0  0  0  0
  -27.6489  -24.3197   19.0201 H   0  0  0  0  0  0
  -28.7293  -16.0892   20.7420 H   0  0  0  0  0  0
  1 25  1  0  0  0
  1 30  2  0  0  0
  1 84  1  0  0  0
  2  3  1  0  0  0
  2 25  1  0  0  0
  2 85  1  0  0  0
  2 86  1  0  0  0
  3  4  1  0  0  0
  3 87  1  0  0  0
  3 88  1  0  0  0
  4  5  1  0  0  0
  4 89  1  0  0  0
  4 90  1  0  0  0
  5  6  1  0  0  0
  5 26  1  0  0  0
  5 91  1  0  0  0
  6 25  1  0  0  0
  6 92  1  0  0  0
  6 93  1  0  0  0
  7  8  2  0  0  0
  7 26  1  0  0  0
  7 29  1  0  0  0
  8  9  1  0  0  0
  8 22  1  0  0  0
  9 10  1  0  0  0
  9 27  2  0  0  0
 10 11  2  0  0  0
 10 15  1  0  0  0
 11 12  1  0  0  0
 11 94  1  0  0  0
 12 13  2  0  0  0
 12 95  1  0  0  0
 13 14  1  0  0  0
 13 31  1  0  0  0
 14 15  2  0  0  0
 14 96  1  0  0  0
 15 97  1  0  0  0
 16 17  2  0  0  0
 16 21  1  0  0  0
 16 31  1  0  0  0
 17 18  1  0  0  0
 17 98  1  0  0  0
 18 19  2  0  0  0
 18 99  1  0  0  0
 19 20  1  0  0  0
 19 24  1  0  0  0
 20 21  2  0  0  0
 20100  1  0  0  0
 21 23  1  0  0  0
 22 28  1  0  0  0
 22 32  2  0  0  0
 26 27  1  0  0  0
 28101  1  0  0  0
 28102  1  0  0  0
 29103  1  0  0  0
 29104  1  0  0  0
 33 34  1  0  0  0
 33 66  1  0  0  0
 33 70  2  0  0  0
 34 36  1  0  0  0
 34 59  1  0  0  0
 34105  1  0  0  0
 35 44  2  0  0  0
 35 45  1  0  0  0
 35 68  1  0  0  0
 36 56  1  0  0  0
 36106  1  0  0  0
 37 39  1  0  0  0
 37 47  1  0  0  0
 37 66  1  0  0  0
 37107  1  0  0  0
 38 43  2  0  0  0
 38 46  1  0  0  0
 38 47  1  0  0  0
 39 64  1  0  0  0
 39 67  2  0  0  0
 40 52  1  0  0  0
 40 53  2  0  0  0
 40 58  1  0  0  0
 41108  1  0  0  0
 41109  1  0  0  0
 41110  1  0  0  0
 41 48  1  0  0  0
 42 43  1  0  0  0
 42 66  1  0  0  0
 42111  1  0  0  0
 42112  1  0  0  0
 43 44  1  0  0  0
 44113  1  0  0  0
 45 46  2  0  0  0
 45114  1  0  0  0
 46115  1  0  0  0
 47116  1  0  0  0
 47117  1  0  0  0
 48 56  1  0  0  0
 48 65  1  0  0  0
 48118  1  0  0  0
 49 50  1  0  0  0
 49 53  1  0  0  0
 49 64  1  0  0  0
 49119  1  0  0  0
 50 51  1  0  0  0
 50120  1  0  0  0
 50121  1  0  0  0
 51 52  1  0  0  0
 51122  1  0  0  0
 51123  1  0  0  0
 52124  1  0  0  0
 52125  1  0  0  0
 53 54  1  0  0  0
 54 55  2  0  0  0
 54126  1  0  0  0
 55 57  1  0  0  0
 55127  1  0  0  0
 56 69  2  0  0  0
 57 58  2  0  0  0
 57128  1  0  0  0
 58129  1  0  0  0
 59 60  1  0  0  0
 59 61  1  0  0  0
 59 62  1  0  0  0
 60130  1  0  0  0
 60131  1  0  0  0
 60132  1  0  0  0
 61133  1  0  0  0
 61134  1  0  0  0
 61135  1  0  0  0
 62136  1  0  0  0
 62137  1  0  0  0
 62138  1  0  0  0
 63 65  1  0  0  0
 63139  1  0  0  0
 63140  1  0  0  0
 63141  1  0  0  0
 64142  1  0  0  0
 65143  1  0  0  0
 68 83  1  0  0  0
 71 72  1  0  0  0
 71 73  1  0  0  0
 71144  1  0  0  0
 71145  1  0  0  0
 72 74  1  0  0  0
 72146  1  0  0  0
 72147  1  0  0  0
 73148  1  0  0  0
 73149  1  0  0  0
 73 78  1  0  0  0
 74150  1  0  0  0
 74151  1  0  0  0
 74 82  1  0  0  0
 75 80  1  0  0  0
 75152  1  0  0  0
 75153  1  0  0  0
 75 79  1  0  0  0
 76 79  1  0  0  0
 76 81  1  0  0  0
 76154  1  0  0  0
 76155  1  0  0  0
 77 80  1  0  0  0
 77 82  1  0  0  0
 77156  1  0  0  0
 77157  1  0  0  0
 78 81  1  0  0  0
 78 82  1  0  0  0
 78158  1  0  0  0
 79 82  1  0  0  0
 79159  1  0  0  0
 80 83  1  0  0  0
 80160  1  0  0  0
 81 84  1  0  0  0
 81161  1  0  0  0
 83162  1  0  0  0
 83163  1  0  0  0
 84164  1  0  0  0
M  ISO  4   1 100  68 101  83 101  84 100
M  END
> <chiral flag>
0

> <version>
0

> <s_m_source_file>
/data/baiqing/PycharmProjects/Reinvent-master-3.2/result/LINK_invent/BTK/process_docking_weight1_custom_product_contain_oxygen_bond_distance_aromatic_linkinvent_7_9_3/rearranged_h_0151.sdf

> <i_m_source_file_index>
93

> <r_mmod_Potential_Energy-OPLS-2005>
1069.970703125

> <r_mmod_Stretch_Energy-OPLS-2005>
396.944915771484

> <r_mmod_Bend_Energy-OPLS-2005>
438.6650390625

> <r_mmod_Torsional_Energy-OPLS-2005>
368.042114257812

> <r_mmod_Improper_Torsional_Energy-OPLS-2005>
4.4467716217041

> <r_mmod_Van_der_Waal_Energy-OPLS-2005>
108.603233337402

> <r_mmod_Electrostatic_Energy-OPLS-2005>
-373.294799804688

> <r_mmod_Solvation_Energy-OPLS-2005>
-197.134338378906

> <b_mmod_Minimization_Converged-OPLS-2005>
0

> <r_mmod_RMS_Derivative-OPLS-2005>
0.931821465492249

$$$$
