0
                    3D
 Structure written by MMmdl.
157165  0  0  1  0            999 V2000
  -30.6958  -14.4721   20.5097 C   0  0  0  0  0  0
  -30.4228  -12.2855   19.4386 C   0  0  0  0  0  0
  -29.5033  -12.4898   18.2141 C   0  0  0  0  0  0
  -28.0221  -12.3573   18.6207 C   0  0  0  0  0  0
  -27.6625  -13.2034   19.8717 C   0  0  2  0  0  0
  -28.7048  -13.0053   21.0000 C   0  0  0  0  0  0
  -25.2583  -13.8152   20.5656 C   0  0  0  0  0  0
  -24.1826  -13.0440   20.9153 C   0  0  0  0  0  0
  -24.6393  -11.6904   20.8725 C   0  0  0  0  0  0
  -23.9067  -10.4290   21.0404 C   0  0  0  0  0  0
  -24.3628   -9.4207   21.9186 C   0  0  0  0  0  0
  -23.6285   -8.2251   22.0768 C   0  0  0  0  0  0
  -22.4260   -8.0303   21.3566 C   0  0  0  0  0  0
  -21.9900   -9.0275   20.4669 C   0  0  0  0  0  0
  -22.7242  -10.2144   20.3061 C   0  0  0  0  0  0
  -21.6847   -6.0747   22.5287 C   0  0  0  0  0  0
  -21.4022   -6.5641   23.8219 C   0  0  0  0  0  0
  -21.3653   -5.6789   24.9174 C   0  0  0  0  0  0
  -21.6036   -4.3052   24.7215 C   0  0  0  0  0  0
  -21.8816   -3.8152   23.4329 C   0  0  0  0  0  0
  -21.9185   -4.6974   22.3394 C   0  0  0  0  0  0
  -22.7853  -13.5251   21.1799 C   0  0  0  0  0  0
  -22.1656   -4.2177   21.0966 F   0  0  0  0  0  0
  -21.5618   -3.4532   25.7722 F   0  0  0  0  0  0
  -30.0417  -13.2828   20.4488 N   0  0  0  0  0  0
  -26.3030  -12.9323   20.3330 N   0  0  0  0  0  0
  -25.9314  -11.6489   20.5763 N   0  0  0  0  0  0
  -22.0488  -12.8274   22.0382 N   0  0  0  0  0  0
  -25.4287  -15.1876   20.4068 N   0  0  0  0  0  0
  -31.8478  -14.6297   20.0968 O   0  0  0  0  0  0
  -21.6636   -6.8899   21.4248 O   0  0  0  0  0  0
  -22.3544  -14.5550   20.6626 O   0  0  0  0  0  0
  -24.6146  -31.8669   23.2088 C   0  0  0  0  0  0
  -25.9049  -32.4814   23.8380 C   0  0  1  0  0  0
  -27.2320  -27.4331   20.1064 C   0  0  0  0  0  0
  -25.5903  -33.8611   24.2311 N   0  0  0  0  0  0
  -23.4024  -30.4917   21.5487 C   0  0  2  0  0  0
  -24.8501  -28.9564   20.1124 C   0  0  0  0  0  0
  -22.7412  -29.4659   22.4974 C   0  0  0  0  0  0
  -18.0281  -28.1381   22.8486 C   0  0  0  0  0  0
  -24.1485  -36.7315   23.2632 C   0  0  0  0  0  0
  -25.9307  -30.8353   21.3599 C   0  0  0  0  0  0
  -26.0101  -29.4695   20.7075 C   0  0  0  0  0  0
  -27.2077  -28.7170   20.6972 C   0  0  0  0  0  0
  -26.0597  -26.9358   19.4977 C   0  0  0  0  0  0
  -24.8698  -27.6895   19.5025 C   0  0  0  0  0  0
  -23.6112  -29.8241   20.1628 C   0  0  0  0  0  0
  -25.4100  -36.3103   24.0333 C   0  0  1  0  0  0
  -20.5870  -28.3664   23.1310 C   0  0  2  0  0  0
  -20.6768  -26.9399   22.5422 C   0  0  0  0  0  0
  -19.5751  -26.6380   21.5214 C   0  0  0  0  0  0
  -18.1926  -26.7934   22.1616 C   0  0  0  0  0  0
  -19.1534  -28.8840   23.2900 C   0  0  0  0  0  0
  -18.9465  -30.1444   23.8913 C   0  0  0  0  0  0
  -17.6467  -30.6571   24.0573 C   0  0  0  0  0  0
  -25.9036  -34.9469   23.5119 C   0  0  0  0  0  0
  -16.5362  -29.9078   23.6331 C   0  0  0  0  0  0
  -16.7267  -28.6504   23.0337 C   0  0  0  0  0  0
  -26.4475  -31.6592   25.0706 C   0  0  0  0  0  0
  -25.3746  -31.3732   26.1466 C   0  0  0  0  0  0
  -27.0284  -30.3023   24.6076 C   0  0  0  0  0  0
  -27.6055  -32.4309   25.7463 C   0  0  0  0  0  0
  -27.5590  -37.1790   24.8451 C   0  0  0  0  0  0
  -21.4142  -29.3029   22.3708 N   0  0  0  0  0  0
  -26.4279  -37.3795   23.9431 N   0  0  0  0  0  0
  -24.6674  -31.0787   22.0980 N   0  0  0  0  0  0
  -23.4187  -28.8208   23.3020 O   0  0  0  0  0  0
  -28.3773  -26.6677   20.1239 O   0  0  0  0  0  0
  -26.5600  -34.8930   22.4682 O   0  0  0  0  0  0
  -23.5347  -32.1418   23.7490 O   0  0  0  0  0  0
  -29.6098  -19.2650   19.9960 C   0  0  0  0  0  0
  -30.6315  -18.2101   21.9383 C   0  0  0  0  0  0
  -30.3098  -20.6388   21.8752 C   0  0  0  0  0  0
  -30.0583  -18.0946   20.6560 C   0  0  0  0  0  0
  -29.7132  -20.5429   20.5970 C   0  0  0  0  0  0
  -30.7567  -19.4785   22.5433 C   0  0  0  0  0  0
  -28.8516  -24.2202   20.0691 C   0  0  0  0  0  0
  -27.8559  -22.6804   21.7292 C   0  0  0  0  0  0
  -29.9555  -16.7517   19.9323 C   0  0  0  0  0  0
  -29.2248  -21.7777   19.8152 C   0  0  0  0  0  0
  -28.2572  -25.4212   20.8507 C   0  0  0  0  0  0
  -29.9046  -15.5300   20.7511 N   0  0  0  0  0  0
  -28.7062  -22.9546   20.5614 N   0  0  0  0  0  0
  -29.4509  -24.4462   19.0121 O   0  0  0  0  0  0
  -31.4714  -19.6118   24.1070 Cl  0  0  0  0  0  0
  -31.4717  -12.3624   19.1477 H   0  0  0  0  0  0
  -30.3018  -11.2814   19.8469 H   0  0  0  0  0  0
  -29.7439  -11.7619   17.4366 H   0  0  0  0  0  0
  -29.6792  -13.4711   17.7727 H   0  0  0  0  0  0
  -27.8278  -11.3030   18.8196 H   0  0  0  0  0  0
  -27.3770  -12.6317   17.7852 H   0  0  0  0  0  0
  -27.6996  -14.2456   19.5581 H   0  0  0  0  0  0
  -28.6692  -11.9818   21.3740 H   0  0  0  0  0  0
  -28.4781  -13.6433   21.8548 H   0  0  0  0  0  0
  -25.2789   -9.5648   22.4744 H   0  0  0  0  0  0
  -23.9996   -7.4619   22.7454 H   0  0  0  0  0  0
  -21.0849   -8.8792   19.8962 H   0  0  0  0  0  0
  -22.3726  -10.9678   19.6154 H   0  0  0  0  0  0
  -21.2049   -7.6156   23.9722 H   0  0  0  0  0  0
  -21.1470   -6.0526   25.9076 H   0  0  0  0  0  0
  -22.0601   -2.7615   23.2814 H   0  0  0  0  0  0
  -22.4101  -11.9995   22.4875 H   0  0  0  0  0  0
  -21.1095  -13.1320   22.2532 H   0  0  0  0  0  0
  -24.6570  -15.8371   20.5137 H   0  0  0  0  0  0
  -26.2779  -15.6312   20.0825 H   0  0  0  0  0  0
  -26.7120  -32.5529   23.1151 H   0  0  0  0  0  0
  -25.0069  -33.9762   25.0467 H   0  0  0  0  0  0
  -22.6909  -31.3086   21.4103 H   0  0  0  0  0  0
  -23.3743  -35.9649   23.3269 H   0  0  0  0  0  0
  -24.3603  -36.8957   22.2056 H   0  0  0  0  0  0
  -23.7229  -37.6508   23.6665 H   0  0  0  0  0  0
  -26.0412  -31.5999   20.5897 H   0  0  0  0  0  0
  -26.8195  -30.8910   21.9766 H   0  0  0  0  0  0
  -28.1039  -29.1075   21.1601 H   0  0  0  0  0  0
  -26.0651  -25.9629   19.0253 H   0  0  0  0  0  0
  -23.9792  -27.2891   19.0375 H   0  0  0  0  0  0
  -23.7217  -30.6001   19.4049 H   0  0  0  0  0  0
  -22.7339  -29.2472   19.8657 H   0  0  0  0  0  0
  -25.1265  -36.1956   25.0820 H   0  0  0  0  0  0
  -20.9967  -28.3247   24.1429 H   0  0  0  0  0  0
  -20.5670  -26.2274   23.3613 H   0  0  0  0  0  0
  -21.6640  -26.7455   22.1212 H   0  0  0  0  0  0
  -19.6914  -25.6290   21.1240 H   0  0  0  0  0  0
  -19.6688  -27.3199   20.6752 H   0  0  0  0  0  0
  -17.4195  -26.6686   21.4018 H   0  0  0  0  0  0
  -18.0336  -26.0077   22.9014 H   0  0  0  0  0  0
  -19.7930  -30.7278   24.2286 H   0  0  0  0  0  0
  -17.5011  -31.6250   24.5169 H   0  0  0  0  0  0
  -15.5364  -30.2993   23.7639 H   0  0  0  0  0  0
  -15.8663  -28.0841   22.7035 H   0  0  0  0  0  0
  -24.5894  -30.7097   25.7830 H   0  0  0  0  0  0
  -24.8971  -32.2906   26.4915 H   0  0  0  0  0  0
  -25.8099  -30.8904   27.0220 H   0  0  0  0  0  0
  -26.2810  -29.6798   24.1136 H   0  0  0  0  0  0
  -27.4059  -29.7255   25.4531 H   0  0  0  0  0  0
  -27.8654  -30.4332   23.9213 H   0  0  0  0  0  0
  -27.2664  -33.3586   26.2088 H   0  0  0  0  0  0
  -28.3836  -32.6901   25.0271 H   0  0  0  0  0  0
  -28.0751  -31.8404   26.5340 H   0  0  0  0  0  0
  -28.2563  -38.0131   24.7561 H   0  0  0  0  0  0
  -28.1126  -36.2670   24.6170 H   0  0  0  0  0  0
  -27.2337  -37.1316   25.8858 H   0  0  0  0  0  0
  -20.9302  -29.8746   21.6928 H   0  0  0  0  0  0
  -26.0162  -38.2860   24.1477 H   0  0  0  0  0  0
  -29.1851  -19.1794   19.0049 H   0  0  0  0  0  0
  -30.9940  -17.3338   22.4572 H   0  0  0  0  0  0
  -30.4273  -21.5994   22.3561 H   0  0  0  0  0  0
  -26.8347  -23.0244   21.5645 H   0  0  0  0  0  0
  -28.2497  -23.1737   22.6193 H   0  0  0  0  0  0
  -27.7766  -21.6201   21.9607 H   0  0  0  0  0  0
  -30.7676  -16.7114   19.2036 H   0  0  0  0  0  0
  -29.0406  -16.7550   19.3375 H   0  0  0  0  0  0
  -28.4395  -21.4630   19.1265 H   0  0  0  0  0  0
  -30.0647  -22.0674   19.1824 H   0  0  0  0  0  0
  -28.8066  -25.5197   21.7868 H   0  0  0  0  0  0
  -27.2230  -25.2072   21.1218 H   0  0  0  0  0  0
  -29.0031  -15.3067   21.1438 H   0  0  0  0  0  0
  1 25  1  0  0  0
  1 30  2  0  0  0
  1 82  1  0  0  0
  2  3  1  0  0  0
  2 25  1  0  0  0
  2 86  1  0  0  0
  2 87  1  0  0  0
  3  4  1  0  0  0
  3 88  1  0  0  0
  3 89  1  0  0  0
  4  5  1  0  0  0
  4 90  1  0  0  0
  4 91  1  0  0  0
  5  6  1  0  0  0
  5 26  1  0  0  0
  5 92  1  0  0  0
  6 25  1  0  0  0
  6 93  1  0  0  0
  6 94  1  0  0  0
  7  8  2  0  0  0
  7 26  1  0  0  0
  7 29  1  0  0  0
  8  9  1  0  0  0
  8 22  1  0  0  0
  9 10  1  0  0  0
  9 27  2  0  0  0
 10 11  2  0  0  0
 10 15  1  0  0  0
 11 12  1  0  0  0
 11 95  1  0  0  0
 12 13  2  0  0  0
 12 96  1  0  0  0
 13 14  1  0  0  0
 13 31  1  0  0  0
 14 15  2  0  0  0
 14 97  1  0  0  0
 15 98  1  0  0  0
 16 17  2  0  0  0
 16 21  1  0  0  0
 16 31  1  0  0  0
 17 18  1  0  0  0
 17 99  1  0  0  0
 18 19  2  0  0  0
 18100  1  0  0  0
 19 20  1  0  0  0
 19 24  1  0  0  0
 20 21  2  0  0  0
 20101  1  0  0  0
 21 23  1  0  0  0
 22 28  1  0  0  0
 22 32  2  0  0  0
 26 27  1  0  0  0
 28102  1  0  0  0
 28103  1  0  0  0
 29104  1  0  0  0
 29105  1  0  0  0
 33 34  1  0  0  0
 33 66  1  0  0  0
 33 70  2  0  0  0
 34 36  1  0  0  0
 34 59  1  0  0  0
 34106  1  0  0  0
 35 44  2  0  0  0
 35 45  1  0  0  0
 35 68  1  0  0  0
 36 56  1  0  0  0
 36107  1  0  0  0
 37 39  1  0  0  0
 37 47  1  0  0  0
 37 66  1  0  0  0
 37108  1  0  0  0
 38 43  2  0  0  0
 38 46  1  0  0  0
 38 47  1  0  0  0
 39 64  1  0  0  0
 39 67  2  0  0  0
 40 52  1  0  0  0
 40 53  2  0  0  0
 40 58  1  0  0  0
 41109  1  0  0  0
 41110  1  0  0  0
 41111  1  0  0  0
 41 48  1  0  0  0
 42 43  1  0  0  0
 42 66  1  0  0  0
 42112  1  0  0  0
 42113  1  0  0  0
 43 44  1  0  0  0
 44114  1  0  0  0
 45 46  2  0  0  0
 45115  1  0  0  0
 46116  1  0  0  0
 47117  1  0  0  0
 47118  1  0  0  0
 48 56  1  0  0  0
 48 65  1  0  0  0
 48119  1  0  0  0
 49 50  1  0  0  0
 49 53  1  0  0  0
 49 64  1  0  0  0
 49120  1  0  0  0
 50 51  1  0  0  0
 50121  1  0  0  0
 50122  1  0  0  0
 51 52  1  0  0  0
 51123  1  0  0  0
 51124  1  0  0  0
 52125  1  0  0  0
 52126  1  0  0  0
 53 54  1  0  0  0
 54 55  2  0  0  0
 54127  1  0  0  0
 55 57  1  0  0  0
 55128  1  0  0  0
 56 69  2  0  0  0
 57 58  2  0  0  0
 57129  1  0  0  0
 58130  1  0  0  0
 59 60  1  0  0  0
 59 61  1  0  0  0
 59 62  1  0  0  0
 60131  1  0  0  0
 60132  1  0  0  0
 60133  1  0  0  0
 61134  1  0  0  0
 61135  1  0  0  0
 61136  1  0  0  0
 62137  1  0  0  0
 62138  1  0  0  0
 62139  1  0  0  0
 63 65  1  0  0  0
 63140  1  0  0  0
 63141  1  0  0  0
 63142  1  0  0  0
 64143  1  0  0  0
 65144  1  0  0  0
 68 81  1  0  0  0
 71 74  2  0  0  0
 71 75  1  0  0  0
 71145  1  0  0  0
 72 74  1  0  0  0
 72 76  2  0  0  0
 72146  1  0  0  0
 73 75  2  0  0  0
 73 76  1  0  0  0
 73147  1  0  0  0
 74 79  1  0  0  0
 75 80  1  0  0  0
 76 85  1  0  0  0
 77 81  1  0  0  0
 77 83  1  0  0  0
 77 84  2  0  0  0
 78 83  1  0  0  0
 78148  1  0  0  0
 78149  1  0  0  0
 78150  1  0  0  0
 79 82  1  0  0  0
 79151  1  0  0  0
 79152  1  0  0  0
 80 83  1  0  0  0
 80153  1  0  0  0
 80154  1  0  0  0
 81155  1  0  0  0
 81156  1  0  0  0
 82157  1  0  0  0
M  ISO  4   1 100  68 101  81 101  82 100
M  END
> <chiral flag>
0

> <version>
0

> <s_m_source_file>
/data/baiqing/PycharmProjects/Reinvent-master-3.2/result/LINK_invent/BTK/process_docking_weight1_custom_product_contain_oxygen_bond_distance_aromatic_linkinvent_7_9_3/rearranged_h_0047.sdf

> <i_m_source_file_index>
1

> <r_mmod_Potential_Energy-OPLS-2005>
-56.2373847961426

> <r_mmod_Stretch_Energy-OPLS-2005>
41.8028144836426

> <r_mmod_Bend_Energy-OPLS-2005>
95.8620681762695

> <r_mmod_Torsional_Energy-OPLS-2005>
247.610122680664

> <r_mmod_Improper_Torsional_Energy-OPLS-2005>
10.5691871643066

> <r_mmod_Van_der_Waal_Energy-OPLS-2005>
160.923568725586

> <r_mmod_Electrostatic_Energy-OPLS-2005>
-385.920623779297

> <r_mmod_Solvation_Energy-OPLS-2005>
-242.474502563477

> <b_mmod_Minimization_Converged-OPLS-2005>
0

> <r_mmod_RMS_Derivative-OPLS-2005>
2.42267489433289

$$$$
1
                    3D
 Structure written by MMmdl.
154162  0  0  1  0            999 V2000
  -30.6676  -14.5677   20.5233 C   0  0  0  0  0  0
  -30.4272  -12.3659   19.4370 C   0  0  0  0  0  0
  -29.4952  -12.5183   18.2144 C   0  0  0  0  0  0
  -28.0202  -12.3585   18.6315 C   0  0  0  0  0  0
  -27.6541  -13.2174   19.8707 C   0  0  2  0  0  0
  -28.7004  -13.0607   20.9996 C   0  0  0  0  0  0
  -25.2545  -13.8176   20.5690 C   0  0  0  0  0  0
  -24.1818  -13.0438   20.9193 C   0  0  0  0  0  0
  -24.6400  -11.6916   20.8746 C   0  0  0  0  0  0
  -23.9080  -10.4284   21.0400 C   0  0  0  0  0  0
  -24.3624   -9.4212   21.9193 C   0  0  0  0  0  0
  -23.6304   -8.2243   22.0760 C   0  0  0  0  0  0
  -22.4278   -8.0293   21.3556 C   0  0  0  0  0  0
  -21.9921   -9.0262   20.4648 C   0  0  0  0  0  0
  -22.7243  -10.2143   20.3065 C   0  0  0  0  0  0
  -21.6866   -6.0740   22.5272 C   0  0  0  0  0  0
  -21.4006   -6.5642   23.8204 C   0  0  0  0  0  0
  -21.3658   -5.6795   24.9167 C   0  0  0  0  0  0
  -21.6054   -4.3057   24.7216 C   0  0  0  0  0  0
  -21.8826   -3.8154   23.4338 C   0  0  0  0  0  0
  -21.9189   -4.6967   22.3393 C   0  0  0  0  0  0
  -22.7845  -13.5240   21.1848 C   0  0  0  0  0  0
  -22.1661   -4.2159   21.0973 F   0  0  0  0  0  0
  -21.5635   -3.4545   25.7728 F   0  0  0  0  0  0
  -30.0215  -13.3713   20.4337 N   0  0  0  0  0  0
  -26.2995  -12.9356   20.3374 N   0  0  0  0  0  0
  -25.9319  -11.6509   20.5782 N   0  0  0  0  0  0
  -22.0484  -12.8234   22.0406 N   0  0  0  0  0  0
  -25.4201  -15.1895   20.4074 N   0  0  0  0  0  0
  -31.8241  -14.7242   20.1222 O   0  0  0  0  0  0
  -21.6660   -6.8884   21.4238 O   0  0  0  0  0  0
  -22.3519  -14.5553   20.6716 O   0  0  0  0  0  0
  -24.6169  -31.8646   23.2077 C   0  0  0  0  0  0
  -25.9055  -32.4797   23.8389 C   0  0  1  0  0  0
  -27.2138  -27.3794   20.0889 C   0  0  0  0  0  0
  -25.5914  -33.8612   24.2318 N   0  0  0  0  0  0
  -23.4090  -30.4899   21.5456 C   0  0  2  0  0  0
  -24.8494  -28.9555   20.1069 C   0  0  0  0  0  0
  -22.7414  -29.4657   22.4922 C   0  0  0  0  0  0
  -18.0264  -28.1358   22.8543 C   0  0  0  0  0  0
  -24.1497  -36.7316   23.2642 C   0  0  0  0  0  0
  -25.9434  -30.8070   21.3758 C   0  0  0  0  0  0
  -26.0114  -29.4395   20.7195 C   0  0  0  0  0  0
  -27.1920  -28.6525   20.7190 C   0  0  0  0  0  0
  -26.0353  -26.9370   19.4466 C   0  0  0  0  0  0
  -24.8579  -27.7036   19.4726 C   0  0  0  0  0  0
  -23.6175  -29.8304   20.1586 C   0  0  0  0  0  0
  -25.4117  -36.3107   24.0334 C   0  0  1  0  0  0
  -20.5835  -28.3775   23.1312 C   0  0  2  0  0  0
  -20.6709  -26.9461   22.5546 C   0  0  0  0  0  0
  -19.5763  -26.6501   21.5246 C   0  0  0  0  0  0
  -18.1991  -26.7876   22.1763 C   0  0  0  0  0  0
  -19.1483  -28.8897   23.2892 C   0  0  0  0  0  0
  -18.9364  -30.1500   23.8867 C   0  0  0  0  0  0
  -17.6357  -30.6624   24.0481 C   0  0  0  0  0  0
  -25.9040  -34.9458   23.5121 C   0  0  0  0  0  0
  -16.5282  -29.9064   23.6288 C   0  0  0  0  0  0
  -16.7246  -28.6437   23.0392 C   0  0  0  0  0  0
  -26.4487  -31.6611   25.0735 C   0  0  0  0  0  0
  -25.3757  -31.3709   26.1482 C   0  0  0  0  0  0
  -27.0318  -30.3043   24.6152 C   0  0  0  0  0  0
  -27.6052  -32.4350   25.7522 C   0  0  0  0  0  0
  -27.5583  -37.1814   24.8460 C   0  0  0  0  0  0
  -21.4141  -29.3057   22.3646 N   0  0  0  0  0  0
  -26.4297  -37.3789   23.9398 N   0  0  0  0  0  0
  -24.6739  -31.0705   22.1001 N   0  0  0  0  0  0
  -23.4145  -28.8200   23.2998 O   0  0  0  0  0  0
  -28.3640  -26.6035   20.1577 O   0  0  0  0  0  0
  -26.5595  -34.8915   22.4680 O   0  0  0  0  0  0
  -23.5349  -32.1445   23.7410 O   0  0  0  0  0  0
  -28.2728  -17.9537   21.9335 C   0  0  0  0  0  0
  -27.3343  -18.9547   22.2385 C   0  0  0  0  0  0
  -29.1826  -19.3766   20.1779 C   0  0  0  0  0  0
  -29.2165  -18.1445   20.9017 C   0  0  0  0  0  0
  -28.2058  -20.3876   20.4494 C   0  0  0  0  0  0
  -27.2905  -20.1584   21.5090 C   0  0  0  0  0  0
  -27.9046  -24.0804   19.9467 C   0  0  0  0  0  0
  -30.2738  -17.0527   20.5996 C   0  0  0  0  0  0
  -28.0120  -21.5944   19.4954 C   0  0  0  0  0  0
  -28.5297  -25.3924   19.3639 C   0  0  0  0  0  0
  -28.6002  -22.9210   19.8156 N   0  0  0  0  0  0
  -29.9070  -15.6354   20.8589 N   0  0  0  0  0  0
  -26.7609  -24.0928   20.4015 O   0  0  0  0  0  0
  -26.0509  -21.2935   21.9076 Cl  0  0  0  0  0  0
  -31.4658  -12.4867   19.1259 H   0  0  0  0  0  0
  -30.3582  -11.3670   19.8653 H   0  0  0  0  0  0
  -29.7526  -11.7800   17.4540 H   0  0  0  0  0  0
  -29.6410  -13.4949   17.7500 H   0  0  0  0  0  0
  -27.8530  -11.3035   18.8469 H   0  0  0  0  0  0
  -27.3639  -12.6087   17.7966 H   0  0  0  0  0  0
  -27.6751  -14.2561   19.5425 H   0  0  0  0  0  0
  -28.6992  -12.0471   21.4003 H   0  0  0  0  0  0
  -28.4552  -13.7118   21.8395 H   0  0  0  0  0  0
  -25.2767   -9.5718   22.4763 H   0  0  0  0  0  0
  -24.0035   -7.4638   22.7474 H   0  0  0  0  0  0
  -21.0862   -8.8776   19.8941 H   0  0  0  0  0  0
  -22.3699  -10.9689   19.6183 H   0  0  0  0  0  0
  -21.1991   -7.6154   23.9706 H   0  0  0  0  0  0
  -21.1477   -6.0532   25.9073 H   0  0  0  0  0  0
  -22.0602   -2.7623   23.2833 H   0  0  0  0  0  0
  -22.4117  -11.9934   22.4839 H   0  0  0  0  0  0
  -21.1065  -13.1203   22.2528 H   0  0  0  0  0  0
  -24.6487  -15.8379   20.5235 H   0  0  0  0  0  0
  -26.2686  -15.6371   20.0860 H   0  0  0  0  0  0
  -26.7097  -32.5474   23.1124 H   0  0  0  0  0  0
  -25.0097  -33.9808   25.0486 H   0  0  0  0  0  0
  -22.6995  -31.3085   21.4050 H   0  0  0  0  0  0
  -23.3752  -35.9661   23.3320 H   0  0  0  0  0  0
  -24.3580  -36.8919   22.2051 H   0  0  0  0  0  0
  -23.7259  -37.6527   23.6654 H   0  0  0  0  0  0
  -26.0720  -31.5720   20.6096 H   0  0  0  0  0  0
  -26.8257  -30.8525   22.0020 H   0  0  0  0  0  0
  -28.0837  -29.0091   21.2187 H   0  0  0  0  0  0
  -25.9867  -25.9877   18.9378 H   0  0  0  0  0  0
  -23.9650  -27.3282   18.9933 H   0  0  0  0  0  0
  -23.7415  -30.6071   19.4013 H   0  0  0  0  0  0
  -22.7391  -29.2593   19.8498 H   0  0  0  0  0  0
  -25.1299  -36.1982   25.0826 H   0  0  0  0  0  0
  -20.9886  -28.3443   24.1439 H   0  0  0  0  0  0
  -20.5341  -26.2409   23.3755 H   0  0  0  0  0  0
  -21.6625  -26.7323   22.1566 H   0  0  0  0  0  0
  -19.6969  -25.6447   21.1220 H   0  0  0  0  0  0
  -19.6708  -27.3415   20.6861 H   0  0  0  0  0  0
  -17.4182  -26.6358   21.4308 H   0  0  0  0  0  0
  -18.0614  -26.0072   22.9275 H   0  0  0  0  0  0
  -19.7794  -30.7358   24.2222 H   0  0  0  0  0  0
  -17.4867  -31.6341   24.4993 H   0  0  0  0  0  0
  -15.5281  -30.2944   23.7534 H   0  0  0  0  0  0
  -15.8677  -28.0691   22.7130 H   0  0  0  0  0  0
  -24.5938  -30.7061   25.7806 H   0  0  0  0  0  0
  -24.8960  -32.2853   26.4973 H   0  0  0  0  0  0
  -25.8127  -30.8845   27.0213 H   0  0  0  0  0  0
  -26.2858  -29.6813   24.1208 H   0  0  0  0  0  0
  -27.4044  -29.7288   25.4638 H   0  0  0  0  0  0
  -27.8731  -30.4337   23.9346 H   0  0  0  0  0  0
  -27.2658  -33.3635   26.2136 H   0  0  0  0  0  0
  -28.3870  -32.6941   25.0370 H   0  0  0  0  0  0
  -28.0731  -31.8461   26.5424 H   0  0  0  0  0  0
  -28.2600  -38.0106   24.7489 H   0  0  0  0  0  0
  -28.1072  -36.2628   24.6321 H   0  0  0  0  0  0
  -27.2281  -37.1509   25.8857 H   0  0  0  0  0  0
  -20.9367  -29.8622   21.6712 H   0  0  0  0  0  0
  -26.0187  -38.2872   24.1391 H   0  0  0  0  0  0
  -28.2622  -17.0386   22.5059 H   0  0  0  0  0  0
  -26.6101  -18.7840   23.0241 H   0  0  0  0  0  0
  -29.8814  -19.5253   19.3653 H   0  0  0  0  0  0
  -31.1719  -17.2962   21.1716 H   0  0  0  0  0  0
  -30.5580  -17.1354   19.5499 H   0  0  0  0  0  0
  -26.9442  -21.6992   19.2935 H   0  0  0  0  0  0
  -28.4296  -21.3050   18.5295 H   0  0  0  0  0  0
  -28.1636  -25.5502   18.3475 H   0  0  0  0  0  0
  -29.6030  -25.2388   19.2587 H   0  0  0  0  0  0
  -29.5635  -23.0252   19.5329 H   0  0  0  0  0  0
  -28.9620  -15.4444   21.1451 H   0  0  0  0  0  0
  1 25  1  0  0  0
  1 30  2  0  0  0
  1 82  1  0  0  0
  2  3  1  0  0  0
  2 25  1  0  0  0
  2 85  1  0  0  0
  2 86  1  0  0  0
  3  4  1  0  0  0
  3 87  1  0  0  0
  3 88  1  0  0  0
  4  5  1  0  0  0
  4 89  1  0  0  0
  4 90  1  0  0  0
  5  6  1  0  0  0
  5 26  1  0  0  0
  5 91  1  0  0  0
  6 25  1  0  0  0
  6 92  1  0  0  0
  6 93  1  0  0  0
  7  8  2  0  0  0
  7 26  1  0  0  0
  7 29  1  0  0  0
  8  9  1  0  0  0
  8 22  1  0  0  0
  9 10  1  0  0  0
  9 27  2  0  0  0
 10 11  2  0  0  0
 10 15  1  0  0  0
 11 12  1  0  0  0
 11 94  1  0  0  0
 12 13  2  0  0  0
 12 95  1  0  0  0
 13 14  1  0  0  0
 13 31  1  0  0  0
 14 15  2  0  0  0
 14 96  1  0  0  0
 15 97  1  0  0  0
 16 17  2  0  0  0
 16 21  1  0  0  0
 16 31  1  0  0  0
 17 18  1  0  0  0
 17 98  1  0  0  0
 18 19  2  0  0  0
 18 99  1  0  0  0
 19 20  1  0  0  0
 19 24  1  0  0  0
 20 21  2  0  0  0
 20100  1  0  0  0
 21 23  1  0  0  0
 22 28  1  0  0  0
 22 32  2  0  0  0
 26 27  1  0  0  0
 28101  1  0  0  0
 28102  1  0  0  0
 29103  1  0  0  0
 29104  1  0  0  0
 33 34  1  0  0  0
 33 66  1  0  0  0
 33 70  2  0  0  0
 34 36  1  0  0  0
 34 59  1  0  0  0
 34105  1  0  0  0
 35 44  2  0  0  0
 35 45  1  0  0  0
 35 68  1  0  0  0
 36 56  1  0  0  0
 36106  1  0  0  0
 37 39  1  0  0  0
 37 47  1  0  0  0
 37 66  1  0  0  0
 37107  1  0  0  0
 38 43  2  0  0  0
 38 46  1  0  0  0
 38 47  1  0  0  0
 39 64  1  0  0  0
 39 67  2  0  0  0
 40 52  1  0  0  0
 40 53  2  0  0  0
 40 58  1  0  0  0
 41108  1  0  0  0
 41109  1  0  0  0
 41110  1  0  0  0
 41 48  1  0  0  0
 42 43  1  0  0  0
 42 66  1  0  0  0
 42111  1  0  0  0
 42112  1  0  0  0
 43 44  1  0  0  0
 44113  1  0  0  0
 45 46  2  0  0  0
 45114  1  0  0  0
 46115  1  0  0  0
 47116  1  0  0  0
 47117  1  0  0  0
 48 56  1  0  0  0
 48 65  1  0  0  0
 48118  1  0  0  0
 49 50  1  0  0  0
 49 53  1  0  0  0
 49 64  1  0  0  0
 49119  1  0  0  0
 50 51  1  0  0  0
 50120  1  0  0  0
 50121  1  0  0  0
 51 52  1  0  0  0
 51122  1  0  0  0
 51123  1  0  0  0
 52124  1  0  0  0
 52125  1  0  0  0
 53 54  1  0  0  0
 54 55  2  0  0  0
 54126  1  0  0  0
 55 57  1  0  0  0
 55127  1  0  0  0
 56 69  2  0  0  0
 57 58  2  0  0  0
 57128  1  0  0  0
 58129  1  0  0  0
 59 60  1  0  0  0
 59 61  1  0  0  0
 59 62  1  0  0  0
 60130  1  0  0  0
 60131  1  0  0  0
 60132  1  0  0  0
 61133  1  0  0  0
 61134  1  0  0  0
 61135  1  0  0  0
 62136  1  0  0  0
 62137  1  0  0  0
 62138  1  0  0  0
 63 65  1  0  0  0
 63139  1  0  0  0
 63140  1  0  0  0
 63141  1  0  0  0
 64142  1  0  0  0
 65143  1  0  0  0
 68 80  1  0  0  0
 71 72  2  0  0  0
 71 74  1  0  0  0
 71144  1  0  0  0
 72 76  1  0  0  0
 72145  1  0  0  0
 73 74  2  0  0  0
 73 75  1  0  0  0
 73146  1  0  0  0
 74 78  1  0  0  0
 75 76  2  0  0  0
 75 79  1  0  0  0
 76 84  1  0  0  0
 77 80  1  0  0  0
 77 81  1  0  0  0
 77 83  2  0  0  0
 78 82  1  0  0  0
 78147  1  0  0  0
 78148  1  0  0  0
 79 81  1  0  0  0
 79149  1  0  0  0
 79150  1  0  0  0
 80151  1  0  0  0
 80152  1  0  0  0
 81153  1  0  0  0
 82154  1  0  0  0
M  ISO  4   1 100  68 101  80 101  82 100
M  END
> <chiral flag>
0

> <version>
0

> <s_m_source_file>
/data/baiqing/PycharmProjects/Reinvent-master-3.2/result/LINK_invent/BTK/process_docking_weight1_custom_product_contain_oxygen_bond_distance_aromatic_linkinvent_7_9_3/rearranged_h_0047.sdf

> <i_m_source_file_index>
2

> <r_mmod_Potential_Energy-OPLS-2005>
-105.054550170898

> <r_mmod_Stretch_Energy-OPLS-2005>
51.7291030883789

> <r_mmod_Bend_Energy-OPLS-2005>
118.696029663086

> <r_mmod_Torsional_Energy-OPLS-2005>
214.512969970703

> <r_mmod_Improper_Torsional_Energy-OPLS-2005>
9.23788833618164

> <r_mmod_Van_der_Waal_Energy-OPLS-2005>
143.873733520508

> <r_mmod_Electrostatic_Energy-OPLS-2005>
-422.4013671875

> <r_mmod_Solvation_Energy-OPLS-2005>
-249.790374755859

> <b_mmod_Minimization_Converged-OPLS-2005>
0

> <r_mmod_RMS_Derivative-OPLS-2005>
4.19771003723145

$$$$
2
                    3D
 Structure written by MMmdl.
164173  0  0  1  0            999 V2000
  -30.5935  -14.7510   20.4508 C   0  0  0  0  0  0
  -30.4331  -12.4563   19.4669 C   0  0  0  0  0  0
  -29.5092  -12.5017   18.2305 C   0  0  0  0  0  0
  -28.0355  -12.3230   18.6462 C   0  0  0  0  0  0
  -27.6379  -13.2258   19.8442 C   0  0  2  0  0  0
  -28.6821  -13.1635   20.9789 C   0  0  0  0  0  0
  -25.2494  -13.8166   20.5674 C   0  0  0  0  0  0
  -24.1797  -13.0423   20.9224 C   0  0  0  0  0  0
  -24.6388  -11.6903   20.8757 C   0  0  0  0  0  0
  -23.9072  -10.4285   21.0422 C   0  0  0  0  0  0
  -24.3623   -9.4199   21.9194 C   0  0  0  0  0  0
  -23.6298   -8.2238   22.0761 C   0  0  0  0  0  0
  -22.4277   -8.0280   21.3557 C   0  0  0  0  0  0
  -21.9915   -9.0252   20.4649 C   0  0  0  0  0  0
  -22.7248  -10.2131   20.3059 C   0  0  0  0  0  0
  -21.6848   -6.0740   22.5285 C   0  0  0  0  0  0
  -21.4007   -6.5644   23.8220 C   0  0  0  0  0  0
  -21.3656   -5.6794   24.9182 C   0  0  0  0  0  0
  -21.6042   -4.3057   24.7227 C   0  0  0  0  0  0
  -21.8819   -3.8153   23.4346 C   0  0  0  0  0  0
  -21.9192   -4.6969   22.3403 C   0  0  0  0  0  0
  -22.7822  -13.5218   21.1876 C   0  0  0  0  0  0
  -22.1663   -4.2159   21.0975 F   0  0  0  0  0  0
  -21.5627   -3.4533   25.7738 F   0  0  0  0  0  0
  -29.9801  -13.5197   20.3930 N   0  0  0  0  0  0
  -26.2910  -12.9364   20.3236 N   0  0  0  0  0  0
  -25.9309  -11.6521   20.5744 N   0  0  0  0  0  0
  -22.0457  -12.8208   22.0416 N   0  0  0  0  0  0
  -25.4146  -15.1875   20.4064 N   0  0  0  0  0  0
  -31.7899  -14.8421   20.1583 O   0  0  0  0  0  0
  -21.6634   -6.8882   21.4249 O   0  0  0  0  0  0
  -22.3519  -14.5533   20.6723 O   0  0  0  0  0  0
  -24.6294  -31.8543   23.1948 C   0  0  0  0  0  0
  -25.9120  -32.4751   23.8305 C   0  0  1  0  0  0
  -27.2222  -27.2552   20.1289 C   0  0  0  0  0  0
  -25.5922  -33.8562   24.2236 N   0  0  0  0  0  0
  -23.4266  -30.4724   21.5386 C   0  0  2  0  0  0
  -24.8721  -28.9133   20.1071 C   0  0  0  0  0  0
  -22.7497  -29.4589   22.4925 C   0  0  0  0  0  0
  -18.0291  -28.1376   22.8513 C   0  0  0  0  0  0
  -24.1485  -36.7264   23.2641 C   0  0  0  0  0  0
  -25.9708  -30.7631   21.3740 C   0  0  0  0  0  0
  -26.0408  -29.3840   20.7177 C   0  0  0  0  0  0
  -27.2118  -28.5637   20.7216 C   0  0  0  0  0  0
  -26.0285  -26.8466   19.4936 C   0  0  0  0  0  0
  -24.8701  -27.6536   19.4873 C   0  0  0  0  0  0
  -23.6424  -29.8000   20.1553 C   0  0  0  0  0  0
  -25.4116  -36.3077   24.0333 C   0  0  1  0  0  0
  -20.5896  -28.3680   23.1281 C   0  0  2  0  0  0
  -20.6786  -26.9399   22.5412 C   0  0  0  0  0  0
  -19.5761  -26.6378   21.5214 C   0  0  0  0  0  0
  -18.1935  -26.7938   22.1622 C   0  0  0  0  0  0
  -19.1544  -28.8850   23.2891 C   0  0  0  0  0  0
  -18.9477  -30.1465   23.8889 C   0  0  0  0  0  0
  -17.6471  -30.6585   24.0566 C   0  0  0  0  0  0
  -25.9066  -34.9446   23.5087 C   0  0  0  0  0  0
  -16.5359  -29.9089   23.6339 C   0  0  0  0  0  0
  -16.7277  -28.6496   23.0375 C   0  0  0  0  0  0
  -26.4495  -31.6587   25.0698 C   0  0  0  0  0  0
  -25.3719  -31.3737   26.1415 C   0  0  0  0  0  0
  -27.0360  -30.3036   24.6163 C   0  0  0  0  0  0
  -27.6050  -32.4334   25.7466 C   0  0  0  0  0  0
  -27.5584  -37.1793   24.8469 C   0  0  0  0  0  0
  -21.4203  -29.3035   22.3683 N   0  0  0  0  0  0
  -26.4291  -37.3777   23.9421 N   0  0  0  0  0  0
  -24.6943  -31.0505   22.0916 N   0  0  0  0  0  0
  -23.4195  -28.8142   23.3032 O   0  0  0  0  0  0
  -28.3401  -26.3969   20.2419 O   0  0  0  0  0  0
  -26.5635  -34.8923   22.4665 O   0  0  0  0  0  0
  -23.5450  -32.1348   23.7261 O   0  0  0  0  0  0
  -30.7601  -20.1400   20.9378 C   0  0  0  0  0  0
  -31.3685  -17.7597   21.0703 C   0  0  0  0  0  0
  -31.7000  -19.1249   21.2132 C   0  0  0  0  0  0
  -29.4501  -19.8379   20.5185 C   0  0  0  0  0  0
  -29.1261  -18.4145   20.3829 C   0  0  0  0  0  0
  -30.0845  -17.3396   20.6525 C   0  0  0  0  0  0
  -28.2665  -23.6962   20.3756 C   0  0  0  0  0  0
  -30.6977  -23.7610   18.9172 C   0  0  0  0  0  0
  -29.9494  -25.1111   18.9656 C   0  0  0  0  0  0
  -29.7376  -22.5677   18.7809 C   0  0  0  0  0  0
  -28.5159  -25.0658   19.5576 C   0  0  2  0  0  0
  -33.0864  -19.5104   21.6911 C   0  0  0  0  0  0
  -27.7182  -18.0470   19.9390 C   0  0  0  0  0  0
  -28.4244  -21.0586   20.3301 C   0  0  0  0  0  0
  -28.8294  -22.4906   19.9315 N   0  0  0  0  0  0
  -29.7835  -15.8773   20.5887 N   0  0  0  0  0  0
  -27.5194  -23.7285   21.3583 O   0  0  0  0  0  0
  -31.4722  -12.5868   19.1623 H   0  0  0  0  0  0
  -30.3836  -11.4805   19.9536 H   0  0  0  0  0  0
  -29.7950  -11.7267   17.5181 H   0  0  0  0  0  0
  -29.6317  -13.4540   17.7129 H   0  0  0  0  0  0
  -27.8955  -11.2736   18.9123 H   0  0  0  0  0  0
  -27.3775  -12.5076   17.7956 H   0  0  0  0  0  0
  -27.6304  -14.2445   19.4579 H   0  0  0  0  0  0
  -28.7201  -12.1662   21.4195 H   0  0  0  0  0  0
  -28.4150  -13.8457   21.7869 H   0  0  0  0  0  0
  -25.2771   -9.5670   22.4765 H   0  0  0  0  0  0
  -24.0006   -7.4622   22.7473 H   0  0  0  0  0  0
  -21.0853   -8.8774   19.8941 H   0  0  0  0  0  0
  -22.3722  -10.9671   19.6160 H   0  0  0  0  0  0
  -21.1991   -7.6154   23.9730 H   0  0  0  0  0  0
  -21.1474   -6.0518   25.9086 H   0  0  0  0  0  0
  -22.0595   -2.7615   23.2838 H   0  0  0  0  0  0
  -22.4065  -11.9864   22.4794 H   0  0  0  0  0  0
  -21.1070  -13.1235   22.2617 H   0  0  0  0  0  0
  -24.6377  -15.8315   20.5067 H   0  0  0  0  0  0
  -26.2409  -15.6218   20.0208 H   0  0  0  0  0  0
  -26.7182  -32.5400   23.1035 H   0  0  0  0  0  0
  -25.0128  -33.9709   25.0424 H   0  0  0  0  0  0
  -22.7258  -31.2958   21.3924 H   0  0  0  0  0  0
  -23.3777  -35.9565   23.3287 H   0  0  0  0  0  0
  -24.3585  -36.8892   22.2056 H   0  0  0  0  0  0
  -23.7200  -37.6448   23.6674 H   0  0  0  0  0  0
  -26.1143  -31.5221   20.6040 H   0  0  0  0  0  0
  -26.8468  -30.8099   22.0095 H   0  0  0  0  0  0
  -28.1040  -28.9154   21.2220 H   0  0  0  0  0  0
  -25.9481  -25.8719   19.0380 H   0  0  0  0  0  0
  -23.9686  -27.2851   19.0157 H   0  0  0  0  0  0
  -23.7630  -30.5713   19.3933 H   0  0  0  0  0  0
  -22.7602  -29.2297   19.8588 H   0  0  0  0  0  0
  -25.1305  -36.1908   25.0825 H   0  0  0  0  0  0
  -20.9996  -28.3224   24.1393 H   0  0  0  0  0  0
  -20.5688  -26.2275   23.3614 H   0  0  0  0  0  0
  -21.6659  -26.7431   22.1201 H   0  0  0  0  0  0
  -19.6908  -25.6282   21.1250 H   0  0  0  0  0  0
  -19.6693  -27.3202   20.6754 H   0  0  0  0  0  0
  -17.4222  -26.6721   21.3996 H   0  0  0  0  0  0
  -18.0298  -26.0058   22.8987 H   0  0  0  0  0  0
  -19.7945  -30.7304   24.2224 H   0  0  0  0  0  0
  -17.5020  -31.6267   24.5180 H   0  0  0  0  0  0
  -15.5357  -30.2991   23.7673 H   0  0  0  0  0  0
  -15.8677  -28.0810   22.7097 H   0  0  0  0  0  0
  -24.5921  -30.7042   25.7763 H   0  0  0  0  0  0
  -24.8860  -32.2897   26.4794 H   0  0  0  0  0  0
  -25.8029  -30.8969   27.0222 H   0  0  0  0  0  0
  -26.2936  -29.6782   24.1201 H   0  0  0  0  0  0
  -27.4104  -29.7295   25.4643 H   0  0  0  0  0  0
  -27.8772  -30.4370   23.9365 H   0  0  0  0  0  0
  -27.2682  -33.3673   26.1983 H   0  0  0  0  0  0
  -28.3889  -32.6827   25.0301 H   0  0  0  0  0  0
  -28.0691  -31.8491   26.5426 H   0  0  0  0  0  0
  -28.2603  -38.0098   24.7573 H   0  0  0  0  0  0
  -28.1084  -36.2643   24.6231 H   0  0  0  0  0  0
  -27.2321  -37.1352   25.8877 H   0  0  0  0  0  0
  -20.9380  -29.8739   21.6880 H   0  0  0  0  0  0
  -26.0159  -38.2842   24.1446 H   0  0  0  0  0  0
  -31.0439  -21.1741   21.0759 H   0  0  0  0  0  0
  -32.1224  -17.0264   21.3188 H   0  0  0  0  0  0
  -31.2811  -23.6397   19.8321 H   0  0  0  0  0  0
  -31.4226  -23.7628   18.1027 H   0  0  0  0  0  0
  -29.8840  -25.5164   17.9556 H   0  0  0  0  0  0
  -30.5630  -25.8230   19.5215 H   0  0  0  0  0  0
  -30.3149  -21.6493   18.6778 H   0  0  0  0  0  0
  -29.1513  -22.6571   17.8644 H   0  0  0  0  0  0
  -27.8439  -25.0076   18.7031 H   0  0  0  0  0  0
  -33.0709  -20.4663   22.2167 H   0  0  0  0  0  0
  -33.7676  -19.6000   20.8453 H   0  0  0  0  0  0
  -33.4856  -18.7633   22.3783 H   0  0  0  0  0  0
  -26.9831  -18.4009   20.6620 H   0  0  0  0  0  0
  -27.5790  -16.9746   19.8231 H   0  0  0  0  0  0
  -27.4946  -18.4981   18.9722 H   0  0  0  0  0  0
  -27.8641  -21.1161   21.2637 H   0  0  0  0  0  0
  -27.6897  -20.7524   19.5871 H   0  0  0  0  0  0
  -28.8039  -15.6473   20.6400 H   0  0  0  0  0  0
  1 25  1  0  0  0
  1 30  2  0  0  0
  1 86  1  0  0  0
  2  3  1  0  0  0
  2 25  1  0  0  0
  2 88  1  0  0  0
  2 89  1  0  0  0
  3  4  1  0  0  0
  3 90  1  0  0  0
  3 91  1  0  0  0
  4  5  1  0  0  0
  4 92  1  0  0  0
  4 93  1  0  0  0
  5  6  1  0  0  0
  5 26  1  0  0  0
  5 94  1  0  0  0
  6 25  1  0  0  0
  6 95  1  0  0  0
  6 96  1  0  0  0
  7  8  2  0  0  0
  7 26  1  0  0  0
  7 29  1  0  0  0
  8  9  1  0  0  0
  8 22  1  0  0  0
  9 10  1  0  0  0
  9 27  2  0  0  0
 10 11  2  0  0  0
 10 15  1  0  0  0
 11 12  1  0  0  0
 11 97  1  0  0  0
 12 13  2  0  0  0
 12 98  1  0  0  0
 13 14  1  0  0  0
 13 31  1  0  0  0
 14 15  2  0  0  0
 14 99  1  0  0  0
 15100  1  0  0  0
 16 17  2  0  0  0
 16 21  1  0  0  0
 16 31  1  0  0  0
 17 18  1  0  0  0
 17101  1  0  0  0
 18 19  2  0  0  0
 18102  1  0  0  0
 19 20  1  0  0  0
 19 24  1  0  0  0
 20 21  2  0  0  0
 20103  1  0  0  0
 21 23  1  0  0  0
 22 28  1  0  0  0
 22 32  2  0  0  0
 26 27  1  0  0  0
 28104  1  0  0  0
 28105  1  0  0  0
 29106  1  0  0  0
 29107  1  0  0  0
 33 34  1  0  0  0
 33 66  1  0  0  0
 33 70  2  0  0  0
 34 36  1  0  0  0
 34 59  1  0  0  0
 34108  1  0  0  0
 35 44  2  0  0  0
 35 45  1  0  0  0
 35 68  1  0  0  0
 36 56  1  0  0  0
 36109  1  0  0  0
 37 39  1  0  0  0
 37 47  1  0  0  0
 37 66  1  0  0  0
 37110  1  0  0  0
 38 43  2  0  0  0
 38 46  1  0  0  0
 38 47  1  0  0  0
 39 64  1  0  0  0
 39 67  2  0  0  0
 40 52  1  0  0  0
 40 53  2  0  0  0
 40 58  1  0  0  0
 41111  1  0  0  0
 41112  1  0  0  0
 41113  1  0  0  0
 41 48  1  0  0  0
 42 43  1  0  0  0
 42 66  1  0  0  0
 42114  1  0  0  0
 42115  1  0  0  0
 43 44  1  0  0  0
 44116  1  0  0  0
 45 46  2  0  0  0
 45117  1  0  0  0
 46118  1  0  0  0
 47119  1  0  0  0
 47120  1  0  0  0
 48 56  1  0  0  0
 48 65  1  0  0  0
 48121  1  0  0  0
 49 50  1  0  0  0
 49 53  1  0  0  0
 49 64  1  0  0  0
 49122  1  0  0  0
 50 51  1  0  0  0
 50123  1  0  0  0
 50124  1  0  0  0
 51 52  1  0  0  0
 51125  1  0  0  0
 51126  1  0  0  0
 52127  1  0  0  0
 52128  1  0  0  0
 53 54  1  0  0  0
 54 55  2  0  0  0
 54129  1  0  0  0
 55 57  1  0  0  0
 55130  1  0  0  0
 56 69  2  0  0  0
 57 58  2  0  0  0
 57131  1  0  0  0
 58132  1  0  0  0
 59 60  1  0  0  0
 59 61  1  0  0  0
 59 62  1  0  0  0
 60133  1  0  0  0
 60134  1  0  0  0
 60135  1  0  0  0
 61136  1  0  0  0
 61137  1  0  0  0
 61138  1  0  0  0
 62139  1  0  0  0
 62140  1  0  0  0
 62141  1  0  0  0
 63 65  1  0  0  0
 63142  1  0  0  0
 63143  1  0  0  0
 63144  1  0  0  0
 64145  1  0  0  0
 65146  1  0  0  0
 68 81  1  0  0  0
 71 73  2  0  0  0
 71 74  1  0  0  0
 71147  1  0  0  0
 72 73  1  0  0  0
 72 76  2  0  0  0
 72148  1  0  0  0
 73 82  1  0  0  0
 74 75  2  0  0  0
 74 84  1  0  0  0
 75 76  1  0  0  0
 75 83  1  0  0  0
 76 86  1  0  0  0
 77 81  1  0  0  0
 77 85  1  0  0  0
 77 87  2  0  0  0
 78 79  1  0  0  0
 78 80  1  0  0  0
 78149  1  0  0  0
 78150  1  0  0  0
 79 81  1  0  0  0
 79151  1  0  0  0
 79152  1  0  0  0
 80 85  1  0  0  0
 80153  1  0  0  0
 80154  1  0  0  0
 81155  1  0  0  0
 82156  1  0  0  0
 82157  1  0  0  0
 82158  1  0  0  0
 83159  1  0  0  0
 83160  1  0  0  0
 83161  1  0  0  0
 84 85  1  0  0  0
 84162  1  0  0  0
 84163  1  0  0  0
 86164  1  0  0  0
M  ISO  4   1 100  68 101  81 101  86 100
M  END
> <chiral flag>
0

> <version>
0

> <s_m_source_file>
/data/baiqing/PycharmProjects/Reinvent-master-3.2/result/LINK_invent/BTK/process_docking_weight1_custom_product_contain_oxygen_bond_distance_aromatic_linkinvent_7_9_3/rearranged_h_0047.sdf

> <i_m_source_file_index>
3

> <r_mmod_Potential_Energy-OPLS-2005>
223.066864013672

> <r_mmod_Stretch_Energy-OPLS-2005>
138.927810668945

> <r_mmod_Bend_Energy-OPLS-2005>
178.305847167969

> <r_mmod_Torsional_Energy-OPLS-2005>
244.098785400391

> <r_mmod_Improper_Torsional_Energy-OPLS-2005>
7.17205715179443

> <r_mmod_Van_der_Waal_Energy-OPLS-2005>
145.731216430664

> <r_mmod_Electrostatic_Energy-OPLS-2005>
-346.040466308594

> <r_mmod_Solvation_Energy-OPLS-2005>
-233.608840942383

> <b_mmod_Minimization_Converged-OPLS-2005>
0

> <r_mmod_RMS_Derivative-OPLS-2005>
2.28498148918152

$$$$
3
                    3D
 Structure written by MMmdl.
157165  0  0  1  0            999 V2000
  -30.7141  -14.4825   20.6012 C   0  0  0  0  0  0
  -30.4217  -12.3242   19.4192 C   0  0  0  0  0  0
  -29.4989  -12.5184   18.1994 C   0  0  0  0  0  0
  -28.0194  -12.3777   18.6127 C   0  0  0  0  0  0
  -27.6620  -13.2156   19.8720 C   0  0  2  0  0  0
  -28.7032  -12.9973   20.9895 C   0  0  0  0  0  0
  -25.2609  -13.8162   20.5686 C   0  0  0  0  0  0
  -24.1852  -13.0434   20.9165 C   0  0  0  0  0  0
  -24.6425  -11.6902   20.8722 C   0  0  0  0  0  0
  -23.9075  -10.4308   21.0384 C   0  0  0  0  0  0
  -24.3634   -9.4220   21.9170 C   0  0  0  0  0  0
  -23.6295   -8.2254   22.0740 C   0  0  0  0  0  0
  -22.4271   -8.0287   21.3552 C   0  0  0  0  0  0
  -21.9919   -9.0253   20.4643 C   0  0  0  0  0  0
  -22.7239  -10.2134   20.3037 C   0  0  0  0  0  0
  -21.6862   -6.0732   22.5272 C   0  0  0  0  0  0
  -21.4016   -6.5639   23.8207 C   0  0  0  0  0  0
  -21.3657   -5.6794   24.9170 C   0  0  0  0  0  0
  -21.6045   -4.3052   24.7198 C   0  0  0  0  0  0
  -21.8827   -3.8139   23.4318 C   0  0  0  0  0  0
  -21.9192   -4.6964   22.3379 C   0  0  0  0  0  0
  -22.7891  -13.5229   21.1811 C   0  0  0  0  0  0
  -22.1668   -4.2157   21.0953 F   0  0  0  0  0  0
  -21.5623   -3.4534   25.7709 F   0  0  0  0  0  0
  -30.0300  -13.3154   20.4355 N   0  0  0  0  0  0
  -26.3048  -12.9340   20.3341 N   0  0  0  0  0  0
  -25.9355  -11.6493   20.5737 N   0  0  0  0  0  0
  -22.0553  -12.8243   22.0393 N   0  0  0  0  0  0
  -25.4322  -15.1877   20.4101 N   0  0  0  0  0  0
  -31.8357  -14.6667   20.1224 O   0  0  0  0  0  0
  -21.6648   -6.8866   21.4233 O   0  0  0  0  0  0
  -22.3568  -14.5541   20.6654 O   0  0  0  0  0  0
  -24.6185  -31.8668   23.2106 C   0  0  0  0  0  0
  -25.9087  -32.4799   23.8394 C   0  0  1  0  0  0
  -27.2144  -27.4056   20.0901 C   0  0  0  0  0  0
  -25.5941  -33.8607   24.2318 N   0  0  0  0  0  0
  -23.4042  -30.4966   21.5522 C   0  0  2  0  0  0
  -24.8444  -28.9663   20.1052 C   0  0  0  0  0  0
  -22.7422  -29.4665   22.4964 C   0  0  0  0  0  0
  -18.0282  -28.1364   22.8495 C   0  0  0  0  0  0
  -24.1493  -36.7290   23.2642 C   0  0  0  0  0  0
  -25.9394  -30.8208   21.3748 C   0  0  0  0  0  0
  -26.0076  -29.4586   20.7106 C   0  0  0  0  0  0
  -27.1936  -28.6864   20.6992 C   0  0  0  0  0  0
  -26.0328  -26.9455   19.4656 C   0  0  0  0  0  0
  -24.8538  -27.7119   19.4784 C   0  0  0  0  0  0
  -23.6113  -29.8412   20.1624 C   0  0  0  0  0  0
  -25.4117  -36.3079   24.0330 C   0  0  1  0  0  0
  -20.5873  -28.3663   23.1311 C   0  0  2  0  0  0
  -20.6756  -26.9392   22.5412 C   0  0  0  0  0  0
  -19.5729  -26.6376   21.5212 C   0  0  0  0  0  0
  -18.1921  -26.7918   22.1633 C   0  0  0  0  0  0
  -19.1528  -28.8825   23.2901 C   0  0  0  0  0  0
  -18.9451  -30.1435   23.8915 C   0  0  0  0  0  0
  -17.6447  -30.6568   24.0565 C   0  0  0  0  0  0
  -25.9050  -34.9461   23.5108 C   0  0  0  0  0  0
  -16.5342  -29.9067   23.6320 C   0  0  0  0  0  0
  -16.7270  -28.6484   23.0345 C   0  0  0  0  0  0
  -26.4502  -31.6600   25.0750 C   0  0  0  0  0  0
  -25.3778  -31.3711   26.1501 C   0  0  0  0  0  0
  -27.0340  -30.3034   24.6173 C   0  0  0  0  0  0
  -27.6055  -32.4354   25.7507 C   0  0  0  0  0  0
  -27.5573  -37.1800   24.8465 C   0  0  0  0  0  0
  -21.4145  -29.3034   22.3716 N   0  0  0  0  0  0
  -26.4286  -37.3777   23.9410 N   0  0  0  0  0  0
  -24.6723  -31.0753   22.1030 N   0  0  0  0  0  0
  -23.4198  -28.8206   23.3003 O   0  0  0  0  0  0
  -28.3695  -26.6387   20.1312 O   0  0  0  0  0  0
  -26.5587  -34.8913   22.4664 O   0  0  0  0  0  0
  -23.5381  -32.1447   23.7496 O   0  0  0  0  0  0
  -30.1278  -20.2140   18.9807 C   0  0  0  0  0  0
  -30.5405  -17.8484   19.3642 C   0  0  0  0  0  0
  -29.8794  -20.4397   20.3551 C   0  0  0  0  0  0
  -30.2990  -18.0054   20.7459 C   0  0  0  0  0  0
  -29.9304  -19.3063   21.2405 C   0  0  0  0  0  0
  -30.4605  -18.9441   18.4901 C   0  0  0  0  0  0
  -29.6472  -21.8563   20.8167 C   0  0  0  0  0  0
  -29.5050  -22.9560   20.0339 C   0  0  0  0  0  0
  -29.6237  -19.4836   22.7269 C   0  0  0  0  0  0
  -30.5916  -16.7861   21.6571 C   0  0  0  0  0  0
  -29.4036  -24.4122   20.5099 C   0  0  0  0  0  0
  -28.2454  -25.2198   19.8779 C   0  0  0  0  0  0
  -30.0548  -15.4697   21.2414 N   0  0  0  0  0  0
  -30.8412  -18.7396   16.8194 Cl  0  0  0  0  0  0
  -31.4750  -12.4080   19.1352 H   0  0  0  0  0  0
  -30.2995  -11.3169   19.8182 H   0  0  0  0  0  0
  -29.7434  -11.7865   17.4286 H   0  0  0  0  0  0
  -29.6659  -13.4971   17.7503 H   0  0  0  0  0  0
  -27.8369  -11.3226   18.8134 H   0  0  0  0  0  0
  -27.3674  -12.6459   17.7789 H   0  0  0  0  0  0
  -27.7024  -14.2667   19.5834 H   0  0  0  0  0  0
  -28.6777  -11.9590   21.3163 H   0  0  0  0  0  0
  -28.4615  -13.5827   21.8781 H   0  0  0  0  0  0
  -25.2789   -9.5684   22.4722 H   0  0  0  0  0  0
  -24.0031   -7.4638   22.7450 H   0  0  0  0  0  0
  -21.0838   -8.8741   19.8949 H   0  0  0  0  0  0
  -22.3692  -10.9655   19.6130 H   0  0  0  0  0  0
  -21.2020   -7.6154   23.9704 H   0  0  0  0  0  0
  -21.1485   -6.0523   25.9075 H   0  0  0  0  0  0
  -22.0610   -2.7601   23.2814 H   0  0  0  0  0  0
  -22.4223  -11.9935   22.4824 H   0  0  0  0  0  0
  -21.1151  -13.1206   22.2545 H   0  0  0  0  0  0
  -24.6710  -15.8436   20.5359 H   0  0  0  0  0  0
  -26.2791  -15.6287   20.0779 H   0  0  0  0  0  0
  -26.7161  -32.5464   23.1145 H   0  0  0  0  0  0
  -25.0151  -33.9775   25.0499 H   0  0  0  0  0  0
  -22.6951  -31.3162   21.4199 H   0  0  0  0  0  0
  -23.3748  -35.9623   23.3309 H   0  0  0  0  0  0
  -24.3594  -36.8910   22.2053 H   0  0  0  0  0  0
  -23.7248  -37.6501   23.6663 H   0  0  0  0  0  0
  -26.0760  -31.5952   20.6168 H   0  0  0  0  0  0
  -26.8191  -30.8496   22.0074 H   0  0  0  0  0  0
  -28.0885  -29.0607   21.1778 H   0  0  0  0  0  0
  -25.9962  -25.9933   18.9576 H   0  0  0  0  0  0
  -23.9621  -27.3329   18.9972 H   0  0  0  0  0  0
  -23.7233  -30.6273   19.4129 H   0  0  0  0  0  0
  -22.7316  -29.2706   19.8576 H   0  0  0  0  0  0
  -25.1294  -36.1927   25.0819 H   0  0  0  0  0  0
  -20.9970  -28.3215   24.1425 H   0  0  0  0  0  0
  -20.5654  -26.2270   23.3603 H   0  0  0  0  0  0
  -21.6631  -26.7412   22.1201 H   0  0  0  0  0  0
  -19.6884  -25.6284   21.1237 H   0  0  0  0  0  0
  -19.6667  -27.3195   20.6751 H   0  0  0  0  0  0
  -17.4183  -26.6684   21.4033 H   0  0  0  0  0  0
  -18.0305  -26.0047   22.9019 H   0  0  0  0  0  0
  -19.7927  -30.7245   24.2300 H   0  0  0  0  0  0
  -17.5001  -31.6262   24.5144 H   0  0  0  0  0  0
  -15.5341  -30.2971   23.7618 H   0  0  0  0  0  0
  -15.8684  -28.0804   22.7046 H   0  0  0  0  0  0
  -24.5927  -30.7077   25.7859 H   0  0  0  0  0  0
  -24.8994  -32.2858   26.5005 H   0  0  0  0  0  0
  -25.8139  -30.8851   27.0233 H   0  0  0  0  0  0
  -26.2893  -29.6783   24.1231 H   0  0  0  0  0  0
  -27.4091  -29.7289   25.4650 H   0  0  0  0  0  0
  -27.8740  -30.4338   23.9351 H   0  0  0  0  0  0
  -27.2643  -33.3646   26.2093 H   0  0  0  0  0  0
  -28.3842  -32.6954   25.0322 H   0  0  0  0  0  0
  -28.0754  -31.8498   26.5416 H   0  0  0  0  0  0
  -28.2580  -38.0106   24.7503 H   0  0  0  0  0  0
  -28.1068  -36.2628   24.6283 H   0  0  0  0  0  0
  -27.2294  -37.1450   25.8872 H   0  0  0  0  0  0
  -20.9295  -29.8809   21.6985 H   0  0  0  0  0  0
  -26.0155  -38.2844   24.1431 H   0  0  0  0  0  0
  -30.1160  -21.0190   18.2628 H   0  0  0  0  0  0
  -30.8416  -16.8932   18.9634 H   0  0  0  0  0  0
  -29.6394  -22.0283   21.8825 H   0  0  0  0  0  0
  -29.4911  -22.8625   18.9591 H   0  0  0  0  0  0
  -28.9734  -20.3299   22.9357 H   0  0  0  0  0  0
  -30.5440  -19.6020   23.3027 H   0  0  0  0  0  0
  -29.0749  -18.6273   23.1173 H   0  0  0  0  0  0
  -30.2806  -16.9504   22.6850 H   0  0  0  0  0  0
  -31.6770  -16.7097   21.7302 H   0  0  0  0  0  0
  -30.3438  -24.8899   20.2383 H   0  0  0  0  0  0
  -29.3384  -24.4581   21.5985 H   0  0  0  0  0  0
  -27.3145  -24.8191   20.2873 H   0  0  0  0  0  0
  -28.2161  -25.0560   18.7979 H   0  0  0  0  0  0
  -29.1292  -15.2379   21.5720 H   0  0  0  0  0  0
  1 25  1  0  0  0
  1 30  2  0  0  0
  1 83  1  0  0  0
  2  3  1  0  0  0
  2 25  1  0  0  0
  2 85  1  0  0  0
  2 86  1  0  0  0
  3  4  1  0  0  0
  3 87  1  0  0  0
  3 88  1  0  0  0
  4  5  1  0  0  0
  4 89  1  0  0  0
  4 90  1  0  0  0
  5  6  1  0  0  0
  5 26  1  0  0  0
  5 91  1  0  0  0
  6 25  1  0  0  0
  6 92  1  0  0  0
  6 93  1  0  0  0
  7  8  2  0  0  0
  7 26  1  0  0  0
  7 29  1  0  0  0
  8  9  1  0  0  0
  8 22  1  0  0  0
  9 10  1  0  0  0
  9 27  2  0  0  0
 10 11  2  0  0  0
 10 15  1  0  0  0
 11 12  1  0  0  0
 11 94  1  0  0  0
 12 13  2  0  0  0
 12 95  1  0  0  0
 13 14  1  0  0  0
 13 31  1  0  0  0
 14 15  2  0  0  0
 14 96  1  0  0  0
 15 97  1  0  0  0
 16 17  2  0  0  0
 16 21  1  0  0  0
 16 31  1  0  0  0
 17 18  1  0  0  0
 17 98  1  0  0  0
 18 19  2  0  0  0
 18 99  1  0  0  0
 19 20  1  0  0  0
 19 24  1  0  0  0
 20 21  2  0  0  0
 20100  1  0  0  0
 21 23  1  0  0  0
 22 28  1  0  0  0
 22 32  2  0  0  0
 26 27  1  0  0  0
 28101  1  0  0  0
 28102  1  0  0  0
 29103  1  0  0  0
 29104  1  0  0  0
 33 34  1  0  0  0
 33 66  1  0  0  0
 33 70  2  0  0  0
 34 36  1  0  0  0
 34 59  1  0  0  0
 34105  1  0  0  0
 35 44  2  0  0  0
 35 45  1  0  0  0
 35 68  1  0  0  0
 36 56  1  0  0  0
 36106  1  0  0  0
 37 39  1  0  0  0
 37 47  1  0  0  0
 37 66  1  0  0  0
 37107  1  0  0  0
 38 43  2  0  0  0
 38 46  1  0  0  0
 38 47  1  0  0  0
 39 64  1  0  0  0
 39 67  2  0  0  0
 40 52  1  0  0  0
 40 53  2  0  0  0
 40 58  1  0  0  0
 41108  1  0  0  0
 41109  1  0  0  0
 41110  1  0  0  0
 41 48  1  0  0  0
 42 43  1  0  0  0
 42 66  1  0  0  0
 42111  1  0  0  0
 42112  1  0  0  0
 43 44  1  0  0  0
 44113  1  0  0  0
 45 46  2  0  0  0
 45114  1  0  0  0
 46115  1  0  0  0
 47116  1  0  0  0
 47117  1  0  0  0
 48 56  1  0  0  0
 48 65  1  0  0  0
 48118  1  0  0  0
 49 50  1  0  0  0
 49 53  1  0  0  0
 49 64  1  0  0  0
 49119  1  0  0  0
 50 51  1  0  0  0
 50120  1  0  0  0
 50121  1  0  0  0
 51 52  1  0  0  0
 51122  1  0  0  0
 51123  1  0  0  0
 52124  1  0  0  0
 52125  1  0  0  0
 53 54  1  0  0  0
 54 55  2  0  0  0
 54126  1  0  0  0
 55 57  1  0  0  0
 55127  1  0  0  0
 56 69  2  0  0  0
 57 58  2  0  0  0
 57128  1  0  0  0
 58129  1  0  0  0
 59 60  1  0  0  0
 59 61  1  0  0  0
 59 62  1  0  0  0
 60130  1  0  0  0
 60131  1  0  0  0
 60132  1  0  0  0
 61133  1  0  0  0
 61134  1  0  0  0
 61135  1  0  0  0
 62136  1  0  0  0
 62137  1  0  0  0
 62138  1  0  0  0
 63 65  1  0  0  0
 63139  1  0  0  0
 63140  1  0  0  0
 63141  1  0  0  0
 64142  1  0  0  0
 65143  1  0  0  0
 68 82  1  0  0  0
 71 73  2  0  0  0
 71 76  1  0  0  0
 71144  1  0  0  0
 72 74  1  0  0  0
 72 76  2  0  0  0
 72145  1  0  0  0
 73 75  1  0  0  0
 73 77  1  0  0  0
 74 75  2  0  0  0
 74 80  1  0  0  0
 75 79  1  0  0  0
 76 84  1  0  0  0
 77 78  2  0  0  0
 77146  1  0  0  0
 78 81  1  0  0  0
 78147  1  0  0  0
 79148  1  0  0  0
 79149  1  0  0  0
 79150  1  0  0  0
 80 83  1  0  0  0
 80151  1  0  0  0
 80152  1  0  0  0
 81 82  1  0  0  0
 81153  1  0  0  0
 81154  1  0  0  0
 82155  1  0  0  0
 82156  1  0  0  0
 83157  1  0  0  0
M  ISO  4   1 100  68 101  82 101  83 100
M  END
> <chiral flag>
0

> <version>
0

> <s_m_source_file>
/data/baiqing/PycharmProjects/Reinvent-master-3.2/result/LINK_invent/BTK/process_docking_weight1_custom_product_contain_oxygen_bond_distance_aromatic_linkinvent_7_9_3/rearranged_h_0047.sdf

> <i_m_source_file_index>
4

> <r_mmod_Potential_Energy-OPLS-2005>
-95.4013214111328

> <r_mmod_Stretch_Energy-OPLS-2005>
48.8262596130371

> <r_mmod_Bend_Energy-OPLS-2005>
102.879783630371

> <r_mmod_Torsional_Energy-OPLS-2005>
192.137176513672

> <r_mmod_Improper_Torsional_Energy-OPLS-2005>
3.55421948432922

> <r_mmod_Van_der_Waal_Energy-OPLS-2005>
163.173843383789

> <r_mmod_Electrostatic_Energy-OPLS-2005>
-416.314056396484

> <r_mmod_Solvation_Energy-OPLS-2005>
-206.515960693359

> <b_mmod_Minimization_Converged-OPLS-2005>
0

> <r_mmod_RMS_Derivative-OPLS-2005>
4.39298820495605

$$$$
4
                    3D
 Structure written by MMmdl.
166174  0  0  1  0            999 V2000
  -30.6560  -14.4385   20.5680 C   0  0  0  0  0  0
  -30.4338  -12.2860   19.3898 C   0  0  0  0  0  0
  -29.4876  -12.4843   18.1860 C   0  0  0  0  0  0
  -28.0063  -12.3560   18.5997 C   0  0  0  0  0  0
  -27.6572  -13.1829   19.8654 C   0  0  2  0  0  0
  -28.7014  -12.9379   20.9783 C   0  0  0  0  0  0
  -25.2595  -13.8089   20.5655 C   0  0  0  0  0  0
  -24.1834  -13.0407   20.9204 C   0  0  0  0  0  0
  -24.6365  -11.6862   20.8771 C   0  0  0  0  0  0
  -23.9019  -10.4264   21.0447 C   0  0  0  0  0  0
  -24.3585   -9.4193   21.9230 C   0  0  0  0  0  0
  -23.6271   -8.2228   22.0758 C   0  0  0  0  0  0
  -22.4268   -8.0270   21.3531 C   0  0  0  0  0  0
  -21.9897   -9.0252   20.4656 C   0  0  0  0  0  0
  -22.7197  -10.2141   20.3089 C   0  0  0  0  0  0
  -21.6843   -6.0735   22.5284 C   0  0  0  0  0  0
  -21.4006   -6.5639   23.8220 C   0  0  0  0  0  0
  -21.3655   -5.6792   24.9191 C   0  0  0  0  0  0
  -21.6034   -4.3050   24.7245 C   0  0  0  0  0  0
  -21.8806   -3.8143   23.4366 C   0  0  0  0  0  0
  -21.9187   -4.6959   22.3420 C   0  0  0  0  0  0
  -22.7880  -13.5272   21.1865 C   0  0  0  0  0  0
  -22.1661   -4.2148   21.1001 F   0  0  0  0  0  0
  -21.5637   -3.4537   25.7758 F   0  0  0  0  0  0
  -30.0281  -13.2496   20.4150 N   0  0  0  0  0  0
  -26.3000  -12.9204   20.3354 N   0  0  0  0  0  0
  -25.9282  -11.6377   20.5762 N   0  0  0  0  0  0
  -22.0473  -12.8284   22.0397 N   0  0  0  0  0  0
  -25.4275  -15.1785   20.3962 N   0  0  0  0  0  0
  -31.8413  -14.6447   20.2806 O   0  0  0  0  0  0
  -21.6619   -6.8883   21.4243 O   0  0  0  0  0  0
  -22.3596  -14.5566   20.6681 O   0  0  0  0  0  0
  -24.6287  -31.8802   23.2177 C   0  0  0  0  0  0
  -25.9138  -32.4887   23.8520 C   0  0  1  0  0  0
  -27.2504  -27.4818   20.0874 C   0  0  0  0  0  0
  -25.5987  -33.8670   24.2449 N   0  0  0  0  0  0
  -23.4278  -30.5059   21.5704 C   0  0  2  0  0  0
  -24.8549  -28.9640   20.1324 C   0  0  0  0  0  0
  -22.7704  -29.4905   22.5295 C   0  0  0  0  0  0
  -17.9931  -28.1202   22.8794 C   0  0  0  0  0  0
  -24.1476  -36.7319   23.2633 C   0  0  0  0  0  0
  -25.9394  -30.8535   21.3634 C   0  0  0  0  0  0
  -26.0134  -29.4853   20.7194 C   0  0  0  0  0  0
  -27.2130  -28.7472   20.7012 C   0  0  0  0  0  0
  -26.0757  -26.9611   19.5064 C   0  0  0  0  0  0
  -24.8768  -27.6957   19.5307 C   0  0  0  0  0  0
  -23.6162  -29.8254   20.1877 C   0  0  0  0  0  0
  -25.4101  -36.3129   24.0348 C   0  0  1  0  0  0
  -20.4787  -28.4594   22.7920 C   0  0  2  0  0  0
  -20.6943  -26.9658   22.5250 C   0  0  0  0  0  0
  -19.5483  -26.4583   21.6201 C   0  0  0  0  0  0
  -18.1545  -26.7467   22.2236 C   0  0  0  0  0  0
  -19.1138  -28.8982   23.2594 C   0  0  0  0  0  0
  -18.9299  -30.1508   23.8815 C   0  0  0  0  0  0
  -17.6320  -30.6525   24.0816 C   0  0  0  0  0  0
  -25.9048  -34.9487   23.5157 C   0  0  0  0  0  0
  -16.5200  -29.8947   23.6776 C   0  0  0  0  0  0
  -16.6971  -28.6247   23.0997 C   0  0  0  0  0  0
  -26.4505  -31.6616   25.0831 C   0  0  0  0  0  0
  -25.3737  -31.3711   26.1547 C   0  0  0  0  0  0
  -27.0311  -30.3068   24.6134 C   0  0  0  0  0  0
  -27.6088  -32.4321   25.7591 C   0  0  0  0  0  0
  -27.5570  -37.1833   24.8473 C   0  0  0  0  0  0
  -21.4483  -29.4502   22.4068 N   0  0  0  0  0  0
  -26.4282  -37.3819   23.9410 N   0  0  0  0  0  0
  -24.6854  -31.0951   22.1087 N   0  0  0  0  0  0
  -23.4196  -28.7700   23.2897 O   0  0  0  0  0  0
  -28.4318  -26.7875   20.0314 O   0  0  0  0  0  0
  -26.5539  -34.8915   22.4672 O   0  0  0  0  0  0
  -23.5482  -32.1507   23.7593 O   0  0  0  0  0  0
  -29.8505  -17.4335   23.8125 C   0  0  0  0  0  0
  -30.2528  -16.5034   22.8329 C   0  0  0  0  0  0
  -28.3886  -17.2169   21.4395 C   0  0  0  0  0  0
  -28.7121  -18.2550   23.6199 C   0  0  0  0  0  0
  -27.9545  -18.1191   22.4275 C   0  0  0  0  0  0
  -29.5186  -16.3959   21.6337 C   0  0  0  0  0  0
  -26.1809  -21.2289   21.5281 C   0  0  0  0  0  0
  -28.3055  -19.2380   24.7058 C   0  0  0  0  0  0
  -26.6478  -18.8760   22.1944 C   0  0  0  0  0  0
  -28.1269  -24.3990   20.3946 C   0  0  0  0  0  0
  -27.1347  -23.6091   21.2805 C   0  0  0  0  0  0
  -28.5621  -25.7499   20.9934 C   0  0  0  0  0  0
  -26.5486  -22.3607   20.5562 C   0  0  2  0  0  0
  -29.7800  -15.4486   20.6122 N   0  0  0  0  0  0
  -26.8306  -20.0661   21.3760 N   0  0  0  0  0  0
  -25.3667  -22.7076   19.7503 N   0  3  0  0  0  0
  -25.3139  -21.4069   22.3839 O   0  0  0  0  0  0
  -31.4660  -12.4397   19.0732 H   0  0  0  0  0  0
  -30.3787  -11.2666   19.7717 H   0  0  0  0  0  0
  -29.7229  -11.7618   17.4035 H   0  0  0  0  0  0
  -29.6549  -13.4677   17.7421 H   0  0  0  0  0  0
  -27.8007  -11.2992   18.7735 H   0  0  0  0  0  0
  -27.3633  -12.6558   17.7723 H   0  0  0  0  0  0
  -27.6957  -14.2318   19.5726 H   0  0  0  0  0  0
  -28.6729  -11.9001   21.3128 H   0  0  0  0  0  0
  -28.4802  -13.5431   21.8605 H   0  0  0  0  0  0
  -25.2728   -9.5677   22.4803 H   0  0  0  0  0  0
  -23.9981   -7.4615   22.7447 H   0  0  0  0  0  0
  -21.0855   -8.8765   19.8952 H   0  0  0  0  0  0
  -22.3662  -10.9695   19.6200 H   0  0  0  0  0  0
  -21.1972   -7.6145   23.9734 H   0  0  0  0  0  0
  -21.1501   -6.0531   25.9107 H   0  0  0  0  0  0
  -22.0583   -2.7605   23.2867 H   0  0  0  0  0  0
  -22.4082  -11.9956   22.4794 H   0  0  0  0  0  0
  -21.1091  -13.1313   22.2571 H   0  0  0  0  0  0
  -24.6376  -15.8090   20.4626 H   0  0  0  0  0  0
  -26.2438  -15.6019   19.9784 H   0  0  0  0  0  0
  -26.7286  -32.5593   23.1377 H   0  0  0  0  0  0
  -25.0170  -33.9819   25.0623 H   0  0  0  0  0  0
  -22.7319  -31.3343   21.4248 H   0  0  0  0  0  0
  -23.3723  -35.9658   23.3309 H   0  0  0  0  0  0
  -24.3613  -36.8905   22.2051 H   0  0  0  0  0  0
  -23.7223  -37.6544   23.6609 H   0  0  0  0  0  0
  -26.0380  -31.6230   20.5937 H   0  0  0  0  0  0
  -26.8326  -30.9175   21.9715 H   0  0  0  0  0  0
  -28.1109  -29.1495   21.1489 H   0  0  0  0  0  0
  -26.0829  -26.0006   19.0204 H   0  0  0  0  0  0
  -23.9839  -27.2905   19.0782 H   0  0  0  0  0  0
  -23.7087  -30.5899   19.4164 H   0  0  0  0  0  0
  -22.7389  -29.2376   19.9125 H   0  0  0  0  0  0
  -25.1270  -36.2028   25.0851 H   0  0  0  0  0  0
  -20.1539  -28.6816   21.7750 H   0  0  0  0  0  0
  -20.7001  -26.4160   23.4646 H   0  0  0  0  0  0
  -21.6601  -26.7942   22.0498 H   0  0  0  0  0  0
  -19.6202  -26.9252   20.6359 H   0  0  0  0  0  0
  -19.6607  -25.3845   21.4443 H   0  0  0  0  0  0
  -17.3922  -26.6143   21.4548 H   0  0  0  0  0  0
  -17.9304  -26.0035   22.9913 H   0  0  0  0  0  0
  -19.7828  -30.7472   24.1680 H   0  0  0  0  0  0
  -17.4937  -31.6219   24.5498 H   0  0  0  0  0  0
  -15.5238  -30.2762   23.8381 H   0  0  0  0  0  0
  -15.8308  -28.0345   22.8220 H   0  0  0  0  0  0
  -24.5929  -30.7057   25.7865 H   0  0  0  0  0  0
  -24.8875  -32.2854   26.4960 H   0  0  0  0  0  0
  -25.8039  -30.8916   27.0341 H   0  0  0  0  0  0
  -26.2866  -29.6891   24.1104 H   0  0  0  0  0  0
  -27.4051  -29.7236   25.4557 H   0  0  0  0  0  0
  -27.8701  -30.4424   23.9303 H   0  0  0  0  0  0
  -27.2731  -33.3630   26.2156 H   0  0  0  0  0  0
  -28.3870  -32.6872   25.0394 H   0  0  0  0  0  0
  -28.0744  -31.8446   26.5501 H   0  0  0  0  0  0
  -28.2630  -38.0097   24.7522 H   0  0  0  0  0  0
  -28.1035  -36.2643   24.6303 H   0  0  0  0  0  0
  -27.2301  -37.1505   25.8882 H   0  0  0  0  0  0
  -21.0605  -30.1633   21.8014 H   0  0  0  0  0  0
  -26.0183  -38.2906   24.1382 H   0  0  0  0  0  0
  -30.4155  -17.4895   24.7328 H   0  0  0  0  0  0
  -31.1098  -15.8689   23.0281 H   0  0  0  0  0  0
  -27.8185  -17.1325   20.5263 H   0  0  0  0  0  0
  -29.0870  -19.3575   25.4578 H   0  0  0  0  0  0
  -27.4033  -18.8980   25.2117 H   0  0  0  0  0  0
  -28.1111  -20.2273   24.2869 H   0  0  0  0  0  0
  -26.1691  -19.1005   23.1435 H   0  0  0  0  0  0
  -25.9447  -18.2144   21.6805 H   0  0  0  0  0  0
  -27.6974  -24.5567   19.4044 H   0  0  0  0  0  0
  -29.0184  -23.7962   20.2180 H   0  0  0  0  0  0
  -26.3211  -24.2631   21.6043 H   0  0  0  0  0  0
  -27.6518  -23.3188   22.1993 H   0  0  0  0  0  0
  -29.6140  -25.7067   21.2827 H   0  0  0  0  0  0
  -28.0127  -25.9923   21.9067 H   0  0  0  0  0  0
  -27.3112  -21.9758   19.8762 H   0  0  0  0  0  0
  -28.9561  -15.2154   20.0860 H   0  0  0  0  0  0
  -27.4820  -19.9988   20.6047 H   0  0  0  0  0  0
  -25.5507  -23.4799   19.1348 H   0  0  0  0  0  0
  -24.5908  -22.9212   20.3585 H   0  0  0  0  0  0
  -25.1003  -21.9161   19.1971 H   0  0  0  0  0  0
  1 25  1  0  0  0
  1 30  2  0  0  0
  1 84  1  0  0  0
  2  3  1  0  0  0
  2 25  1  0  0  0
  2 88  1  0  0  0
  2 89  1  0  0  0
  3  4  1  0  0  0
  3 90  1  0  0  0
  3 91  1  0  0  0
  4  5  1  0  0  0
  4 92  1  0  0  0
  4 93  1  0  0  0
  5  6  1  0  0  0
  5 26  1  0  0  0
  5 94  1  0  0  0
  6 25  1  0  0  0
  6 95  1  0  0  0
  6 96  1  0  0  0
  7  8  2  0  0  0
  7 26  1  0  0  0
  7 29  1  0  0  0
  8  9  1  0  0  0
  8 22  1  0  0  0
  9 10  1  0  0  0
  9 27  2  0  0  0
 10 11  2  0  0  0
 10 15  1  0  0  0
 11 12  1  0  0  0
 11 97  1  0  0  0
 12 13  2  0  0  0
 12 98  1  0  0  0
 13 14  1  0  0  0
 13 31  1  0  0  0
 14 15  2  0  0  0
 14 99  1  0  0  0
 15100  1  0  0  0
 16 17  2  0  0  0
 16 21  1  0  0  0
 16 31  1  0  0  0
 17 18  1  0  0  0
 17101  1  0  0  0
 18 19  2  0  0  0
 18102  1  0  0  0
 19 20  1  0  0  0
 19 24  1  0  0  0
 20 21  2  0  0  0
 20103  1  0  0  0
 21 23  1  0  0  0
 22 28  1  0  0  0
 22 32  2  0  0  0
 26 27  1  0  0  0
 28104  1  0  0  0
 28105  1  0  0  0
 29106  1  0  0  0
 29107  1  0  0  0
 33 34  1  0  0  0
 33 66  1  0  0  0
 33 70  2  0  0  0
 34 36  1  0  0  0
 34 59  1  0  0  0
 34108  1  0  0  0
 35 44  2  0  0  0
 35 45  1  0  0  0
 35 68  1  0  0  0
 36 56  1  0  0  0
 36109  1  0  0  0
 37 39  1  0  0  0
 37 47  1  0  0  0
 37 66  1  0  0  0
 37110  1  0  0  0
 38 43  2  0  0  0
 38 46  1  0  0  0
 38 47  1  0  0  0
 39 64  1  0  0  0
 39 67  2  0  0  0
 40 52  1  0  0  0
 40 53  2  0  0  0
 40 58  1  0  0  0
 41111  1  0  0  0
 41112  1  0  0  0
 41113  1  0  0  0
 41 48  1  0  0  0
 42 43  1  0  0  0
 42 66  1  0  0  0
 42114  1  0  0  0
 42115  1  0  0  0
 43 44  1  0  0  0
 44116  1  0  0  0
 45 46  2  0  0  0
 45117  1  0  0  0
 46118  1  0  0  0
 47119  1  0  0  0
 47120  1  0  0  0
 48 56  1  0  0  0
 48 65  1  0  0  0
 48121  1  0  0  0
 49 50  1  0  0  0
 49 53  1  0  0  0
 49 64  1  0  0  0
 49122  1  0  0  0
 50 51  1  0  0  0
 50123  1  0  0  0
 50124  1  0  0  0
 51 52  1  0  0  0
 51125  1  0  0  0
 51126  1  0  0  0
 52127  1  0  0  0
 52128  1  0  0  0
 53 54  1  0  0  0
 54 55  2  0  0  0
 54129  1  0  0  0
 55 57  1  0  0  0
 55130  1  0  0  0
 56 69  2  0  0  0
 57 58  2  0  0  0
 57131  1  0  0  0
 58132  1  0  0  0
 59 60  1  0  0  0
 59 61  1  0  0  0
 59 62  1  0  0  0
 60133  1  0  0  0
 60134  1  0  0  0
 60135  1  0  0  0
 61136  1  0  0  0
 61137  1  0  0  0
 61138  1  0  0  0
 62139  1  0  0  0
 62140  1  0  0  0
 62141  1  0  0  0
 63 65  1  0  0  0
 63142  1  0  0  0
 63143  1  0  0  0
 63144  1  0  0  0
 64145  1  0  0  0
 65146  1  0  0  0
 68 82  1  0  0  0
 71 72  2  0  0  0
 71 74  1  0  0  0
 71147  1  0  0  0
 72 76  1  0  0  0
 72148  1  0  0  0
 73 75  1  0  0  0
 73 76  2  0  0  0
 73149  1  0  0  0
 74 75  2  0  0  0
 74 78  1  0  0  0
 75 79  1  0  0  0
 76 84  1  0  0  0
 77 83  1  0  0  0
 77 85  1  0  0  0
 77 87  2  0  0  0
 78150  1  0  0  0
 78151  1  0  0  0
 78152  1  0  0  0
 79 85  1  0  0  0
 79153  1  0  0  0
 79154  1  0  0  0
 80 81  1  0  0  0
 80 82  1  0  0  0
 80155  1  0  0  0
 80156  1  0  0  0
 81 83  1  0  0  0
 81157  1  0  0  0
 81158  1  0  0  0
 82159  1  0  0  0
 82160  1  0  0  0
 83 86  1  0  0  0
 83161  1  0  0  0
 84162  1  0  0  0
 85163  1  0  0  0
 86164  1  0  0  0
 86165  1  0  0  0
 86166  1  0  0  0
M  CHG  1  86   1
M  ISO  4   1 100  68 101  82 101  84 100
M  END
> <chiral flag>
0

> <version>
0

> <s_m_source_file>
/data/baiqing/PycharmProjects/Reinvent-master-3.2/result/LINK_invent/BTK/process_docking_weight1_custom_product_contain_oxygen_bond_distance_aromatic_linkinvent_7_9_3/rearranged_h_0047.sdf

> <i_m_source_file_index>
5

> <r_mmod_Potential_Energy-OPLS-2005>
-248.425674438477

> <r_mmod_Stretch_Energy-OPLS-2005>
29.7830619812012

> <r_mmod_Bend_Energy-OPLS-2005>
203.024688720703

> <r_mmod_Torsional_Energy-OPLS-2005>
305.946990966797

> <r_mmod_Improper_Torsional_Energy-OPLS-2005>
17.5157699584961

> <r_mmod_Van_der_Waal_Energy-OPLS-2005>
149.752227783203

> <r_mmod_Electrostatic_Energy-OPLS-2005>
-459.304138183594

> <r_mmod_Solvation_Energy-OPLS-2005>
-530.166137695312

> <b_mmod_Minimization_Converged-OPLS-2005>
0

> <r_mmod_RMS_Derivative-OPLS-2005>
7.4167857170105

$$$$
5
                    3D
 Structure written by MMmdl.
170179  0  0  1  0            999 V2000
  -30.5499  -14.7858   20.3808 C   0  0  0  0  0  0
  -30.4180  -12.4576   19.5145 C   0  0  0  0  0  0
  -29.5200  -12.4748   18.2592 C   0  0  0  0  0  0
  -28.0494  -12.2722   18.6694 C   0  0  0  0  0  0
  -27.6254  -13.2152   19.8272 C   0  0  2  0  0  0
  -28.6511  -13.2047   20.9750 C   0  0  0  0  0  0
  -25.2441  -13.8143   20.5630 C   0  0  0  0  0  0
  -24.1744  -13.0444   20.9208 C   0  0  0  0  0  0
  -24.6291  -11.6897   20.8718 C   0  0  0  0  0  0
  -23.8991  -10.4274   21.0391 C   0  0  0  0  0  0
  -24.3574   -9.4213   21.9159 C   0  0  0  0  0  0
  -23.6265   -8.2254   22.0747 C   0  0  0  0  0  0
  -22.4250   -8.0261   21.3544 C   0  0  0  0  0  0
  -21.9879   -9.0223   20.4650 C   0  0  0  0  0  0
  -22.7185  -10.2092   20.3042 C   0  0  0  0  0  0
  -21.6839   -6.0732   22.5284 C   0  0  0  0  0  0
  -21.4008   -6.5635   23.8222 C   0  0  0  0  0  0
  -21.3669   -5.6789   24.9178 C   0  0  0  0  0  0
  -21.6071   -4.3055   24.7233 C   0  0  0  0  0  0
  -21.8818   -3.8144   23.4346 C   0  0  0  0  0  0
  -21.9199   -4.6963   22.3405 C   0  0  0  0  0  0
  -22.7786  -13.5243   21.1887 C   0  0  0  0  0  0
  -22.1648   -4.2157   21.0977 F   0  0  0  0  0  0
  -21.5652   -3.4535   25.7734 F   0  0  0  0  0  0
  -29.9521  -13.5463   20.3971 N   0  0  0  0  0  0
  -26.2818  -12.9317   20.3133 N   0  0  0  0  0  0
  -25.9195  -11.6488   20.5682 N   0  0  0  0  0  0
  -22.0412  -12.8262   22.0433 N   0  0  0  0  0  0
  -25.4196  -15.1855   20.4005 N   0  0  0  0  0  0
  -31.7612  -14.8568   20.1482 O   0  0  0  0  0  0
  -21.6636   -6.8840   21.4233 O   0  0  0  0  0  0
  -22.3514  -14.5577   20.6718 O   0  0  0  0  0  0
  -24.6273  -31.8571   23.2036 C   0  0  0  0  0  0
  -25.9084  -32.4810   23.8374 C   0  0  1  0  0  0
  -27.1928  -27.2780   20.1289 C   0  0  0  0  0  0
  -25.5868  -33.8612   24.2273 N   0  0  0  0  0  0
  -23.4238  -30.4874   21.5412 C   0  0  2  0  0  0
  -24.8682  -28.9403   20.1068 C   0  0  0  0  0  0
  -22.7507  -29.4630   22.4862 C   0  0  0  0  0  0
  -18.0282  -28.1416   22.8483 C   0  0  0  0  0  0
  -24.1457  -36.7288   23.2658 C   0  0  0  0  0  0
  -25.9699  -30.7796   21.3789 C   0  0  0  0  0  0
  -26.0390  -29.4032   20.7212 C   0  0  0  0  0  0
  -27.2114  -28.5829   20.7233 C   0  0  0  0  0  0
  -26.0095  -26.8880   19.4735 C   0  0  0  0  0  0
  -24.8544  -27.6899   19.4752 C   0  0  0  0  0  0
  -23.6419  -29.8299   20.1535 C   0  0  0  0  0  0
  -25.4079  -36.3110   24.0362 C   0  0  1  0  0  0
  -20.5904  -28.3707   23.1270 C   0  0  2  0  0  0
  -20.6774  -26.9407   22.5440 C   0  0  0  0  0  0
  -19.5743  -26.6373   21.5246 C   0  0  0  0  0  0
  -18.1912  -26.7962   22.1620 C   0  0  0  0  0  0
  -19.1549  -28.8869   23.2882 C   0  0  0  0  0  0
  -18.9474  -30.1480   23.8906 C   0  0  0  0  0  0
  -17.6487  -30.6620   24.0575 C   0  0  0  0  0  0
  -25.9014  -34.9492   23.5130 C   0  0  0  0  0  0
  -16.5370  -29.9132   23.6352 C   0  0  0  0  0  0
  -16.7272  -28.6542   23.0356 C   0  0  0  0  0  0
  -26.4440  -31.6670   25.0781 C   0  0  0  0  0  0
  -25.3651  -31.3857   26.1501 C   0  0  0  0  0  0
  -27.0314  -30.3112   24.6251 C   0  0  0  0  0  0
  -27.5997  -32.4432   25.7526 C   0  0  0  0  0  0
  -27.5559  -37.1785   24.8463 C   0  0  0  0  0  0
  -21.4200  -29.3078   22.3663 N   0  0  0  0  0  0
  -26.4248  -37.3815   23.9448 N   0  0  0  0  0  0
  -24.6935  -31.0588   22.0984 N   0  0  0  0  0  0
  -23.4240  -28.8118   23.2906 O   0  0  0  0  0  0
  -28.2691  -26.3723   20.1564 O   0  0  0  0  0  0
  -26.5609  -34.8950   22.4710 O   0  0  0  0  0  0
  -23.5414  -32.1370   23.7320 O   0  0  0  0  0  0
  -29.1910  -18.4969   20.1421 C   0  0  0  0  0  0
  -30.9150  -17.4278   18.8164 C   0  0  0  0  0  0
  -29.3546  -19.7758   19.4527 C   0  0  0  0  0  0
  -30.2901  -19.7594   18.3700 C   0  0  0  0  0  0
  -29.9527  -17.2841   19.8405 C   0  0  0  0  0  0
  -31.0766  -18.6226   18.1062 C   0  0  0  0  0  0
  -29.3525  -22.4904   21.7236 C   0  0  0  0  0  0
  -30.6389  -22.1346   21.9740 C   0  0  0  0  0  0
  -28.4507  -23.3723   22.5894 C   0  0  0  0  0  0
  -28.4294  -24.8280   22.0542 C   0  0  0  0  0  0
  -28.6110  -23.7305   19.6985 C   0  0  0  0  0  0
  -27.9999  -24.9495   20.5660 C   0  0  2  0  0  0
  -30.4395  -20.8872   17.3601 C   0  0  0  0  0  0
  -31.5256  -21.4094   20.9894 C   0  0  0  0  0  0
  -31.3878  -22.5238   23.2401 C   0  0  0  0  0  0
  -28.3865  -21.0399   19.6685 C   0  0  0  0  0  0
  -29.7442  -15.9265   20.4322 N   0  0  0  0  0  0
  -28.6425  -22.3721   20.4147 N   0  3  2  0  0  0
  -31.9810  -18.6521   17.0959 F   0  0  0  0  0  0
  -31.4652  -12.5722   19.2308 H   0  0  0  0  0  0
  -30.3505  -11.5005   20.0358 H   0  0  0  0  0  0
  -29.8306  -11.6849   17.5737 H   0  0  0  0  0  0
  -29.6372  -13.4226   17.7274 H   0  0  0  0  0  0
  -27.9597  -11.2372   19.0009 H   0  0  0  0  0  0
  -27.3901  -12.3842   17.8075 H   0  0  0  0  0  0
  -27.6064  -14.2165   19.3991 H   0  0  0  0  0  0
  -28.6834  -12.2317   21.4684 H   0  0  0  0  0  0
  -28.3600  -13.9313   21.7346 H   0  0  0  0  0  0
  -25.2689   -9.5744   22.4768 H   0  0  0  0  0  0
  -24.0017   -7.4646   22.7451 H   0  0  0  0  0  0
  -21.0847   -8.8698   19.8930 H   0  0  0  0  0  0
  -22.3607  -10.9638   19.6180 H   0  0  0  0  0  0
  -21.1957   -7.6131   23.9731 H   0  0  0  0  0  0
  -21.1509   -6.0499   25.9081 H   0  0  0  0  0  0
  -22.0580   -2.7617   23.2835 H   0  0  0  0  0  0
  -22.3974  -11.9904   22.4865 H   0  0  0  0  0  0
  -21.1025  -13.1320   22.2589 H   0  0  0  0  0  0
  -24.6495  -15.8389   20.4777 H   0  0  0  0  0  0
  -26.2751  -15.6204   20.0803 H   0  0  0  0  0  0
  -26.7153  -32.5469   23.1116 H   0  0  0  0  0  0
  -25.0041  -33.9766   25.0437 H   0  0  0  0  0  0
  -22.7192  -31.3104   21.3962 H   0  0  0  0  0  0
  -23.3769  -35.9573   23.3312 H   0  0  0  0  0  0
  -24.3537  -36.8903   22.2073 H   0  0  0  0  0  0
  -23.7143  -37.6462   23.6668 H   0  0  0  0  0  0
  -26.1067  -31.5421   20.6094 H   0  0  0  0  0  0
  -26.8523  -30.8295   22.0072 H   0  0  0  0  0  0
  -28.1082  -28.9247   21.2170 H   0  0  0  0  0  0
  -25.9530  -25.9389   18.9593 H   0  0  0  0  0  0
  -23.9587  -27.3300   18.9929 H   0  0  0  0  0  0
  -23.7787  -30.6109   19.4037 H   0  0  0  0  0  0
  -22.7582  -29.2721   19.8381 H   0  0  0  0  0  0
  -25.1260  -36.1972   25.0853 H   0  0  0  0  0  0
  -21.0006  -28.3291   24.1388 H   0  0  0  0  0  0
  -20.5661  -26.2323   23.3650 H   0  0  0  0  0  0
  -21.6634  -26.7406   22.1240 H   0  0  0  0  0  0
  -19.6904  -25.6277   21.1282 H   0  0  0  0  0  0
  -19.6716  -27.3189   20.6771 H   0  0  0  0  0  0
  -17.4206  -26.6759   21.3988 H   0  0  0  0  0  0
  -18.0235  -26.0117   22.8998 H   0  0  0  0  0  0
  -19.7962  -30.7283   24.2272 H   0  0  0  0  0  0
  -17.5049  -31.6291   24.5178 H   0  0  0  0  0  0
  -15.5382  -30.3044   23.7681 H   0  0  0  0  0  0
  -15.8645  -28.0876   22.7072 H   0  0  0  0  0  0
  -24.5846  -30.7146   25.7860 H   0  0  0  0  0  0
  -24.8788  -32.3041   26.4813 H   0  0  0  0  0  0
  -25.7960  -30.9152   27.0338 H   0  0  0  0  0  0
  -26.2923  -29.6878   24.1185 H   0  0  0  0  0  0
  -27.3964  -29.7347   25.4755 H   0  0  0  0  0  0
  -27.8798  -30.4484   23.9545 H   0  0  0  0  0  0
  -27.2625  -33.3794   26.1972 H   0  0  0  0  0  0
  -28.3843  -32.6867   25.0362 H   0  0  0  0  0  0
  -28.0587  -31.8628   26.5519 H   0  0  0  0  0  0
  -28.2581  -38.0081   24.7549 H   0  0  0  0  0  0
  -28.1049  -36.2625   24.6237 H   0  0  0  0  0  0
  -27.2292  -37.1385   25.8865 H   0  0  0  0  0  0
  -20.9348  -29.8900   21.6967 H   0  0  0  0  0  0
  -26.0156  -38.2883   24.1511 H   0  0  0  0  0  0
  -28.4052  -18.4507   20.8823 H   0  0  0  0  0  0
  -31.5240  -16.6030   18.4896 H   0  0  0  0  0  0
  -28.7419  -23.3501   23.6380 H   0  0  0  0  0  0
  -27.4350  -22.9740   22.5762 H   0  0  0  0  0  0
  -29.4198  -25.2604   22.1906 H   0  0  0  0  0  0
  -27.7555  -25.4269   22.6691 H   0  0  0  0  0  0
  -29.6253  -23.9824   19.3919 H   0  0  0  0  0  0
  -28.0399  -23.6408   18.7756 H   0  0  0  0  0  0
  -26.9213  -24.7747   20.5794 H   0  0  0  0  0  0
  -30.0162  -21.8320   17.6806 H   0  0  0  0  0  0
  -29.9642  -20.5857   16.4238 H   0  0  0  0  0  0
  -31.4913  -21.0561   17.1241 H   0  0  0  0  0  0
  -31.4085  -20.3297   21.0981 H   0  0  0  0  0  0
  -32.5758  -21.6405   21.1733 H   0  0  0  0  0  0
  -31.3071  -21.7109   19.9670 H   0  0  0  0  0  0
  -30.7369  -22.7802   24.0706 H   0  0  0  0  0  0
  -32.0218  -23.3894   23.0405 H   0  0  0  0  0  0
  -32.0447  -21.7180   23.5729 H   0  0  0  0  0  0
  -27.4964  -20.6368   20.1514 H   0  0  0  0  0  0
  -28.0356  -21.3426   18.6835 H   0  0  0  0  0  0
  -28.8006  -15.7553   20.7548 H   0  0  0  0  0  0
  -27.6860  -22.4025   20.7429 H   0  0  0  0  0  0
  1 25  1  0  0  0
  1 30  2  0  0  0
  1 87  1  0  0  0
  2  3  1  0  0  0
  2 25  1  0  0  0
  2 90  1  0  0  0
  2 91  1  0  0  0
  3  4  1  0  0  0
  3 92  1  0  0  0
  3 93  1  0  0  0
  4  5  1  0  0  0
  4 94  1  0  0  0
  4 95  1  0  0  0
  5  6  1  0  0  0
  5 26  1  0  0  0
  5 96  1  0  0  0
  6 25  1  0  0  0
  6 97  1  0  0  0
  6 98  1  0  0  0
  7  8  2  0  0  0
  7 26  1  0  0  0
  7 29  1  0  0  0
  8  9  1  0  0  0
  8 22  1  0  0  0
  9 10  1  0  0  0
  9 27  2  0  0  0
 10 11  2  0  0  0
 10 15  1  0  0  0
 11 12  1  0  0  0
 11 99  1  0  0  0
 12 13  2  0  0  0
 12100  1  0  0  0
 13 14  1  0  0  0
 13 31  1  0  0  0
 14 15  2  0  0  0
 14101  1  0  0  0
 15102  1  0  0  0
 16 17  2  0  0  0
 16 21  1  0  0  0
 16 31  1  0  0  0
 17 18  1  0  0  0
 17103  1  0  0  0
 18 19  2  0  0  0
 18104  1  0  0  0
 19 20  1  0  0  0
 19 24  1  0  0  0
 20 21  2  0  0  0
 20105  1  0  0  0
 21 23  1  0  0  0
 22 28  1  0  0  0
 22 32  2  0  0  0
 26 27  1  0  0  0
 28106  1  0  0  0
 28107  1  0  0  0
 29108  1  0  0  0
 29109  1  0  0  0
 33 34  1  0  0  0
 33 66  1  0  0  0
 33 70  2  0  0  0
 34 36  1  0  0  0
 34 59  1  0  0  0
 34110  1  0  0  0
 35 44  2  0  0  0
 35 45  1  0  0  0
 35 68  1  0  0  0
 36 56  1  0  0  0
 36111  1  0  0  0
 37 39  1  0  0  0
 37 47  1  0  0  0
 37 66  1  0  0  0
 37112  1  0  0  0
 38 43  2  0  0  0
 38 46  1  0  0  0
 38 47  1  0  0  0
 39 64  1  0  0  0
 39 67  2  0  0  0
 40 52  1  0  0  0
 40 53  2  0  0  0
 40 58  1  0  0  0
 41113  1  0  0  0
 41114  1  0  0  0
 41115  1  0  0  0
 41 48  1  0  0  0
 42 43  1  0  0  0
 42 66  1  0  0  0
 42116  1  0  0  0
 42117  1  0  0  0
 43 44  1  0  0  0
 44118  1  0  0  0
 45 46  2  0  0  0
 45119  1  0  0  0
 46120  1  0  0  0
 47121  1  0  0  0
 47122  1  0  0  0
 48 56  1  0  0  0
 48 65  1  0  0  0
 48123  1  0  0  0
 49 50  1  0  0  0
 49 53  1  0  0  0
 49 64  1  0  0  0
 49124  1  0  0  0
 50 51  1  0  0  0
 50125  1  0  0  0
 50126  1  0  0  0
 51 52  1  0  0  0
 51127  1  0  0  0
 51128  1  0  0  0
 52129  1  0  0  0
 52130  1  0  0  0
 53 54  1  0  0  0
 54 55  2  0  0  0
 54131  1  0  0  0
 55 57  1  0  0  0
 55132  1  0  0  0
 56 69  2  0  0  0
 57 58  2  0  0  0
 57133  1  0  0  0
 58134  1  0  0  0
 59 60  1  0  0  0
 59 61  1  0  0  0
 59 62  1  0  0  0
 60135  1  0  0  0
 60136  1  0  0  0
 60137  1  0  0  0
 61138  1  0  0  0
 61139  1  0  0  0
 61140  1  0  0  0
 62141  1  0  0  0
 62142  1  0  0  0
 62143  1  0  0  0
 63 65  1  0  0  0
 63144  1  0  0  0
 63145  1  0  0  0
 63146  1  0  0  0
 64147  1  0  0  0
 65148  1  0  0  0
 68 82  1  0  0  0
 71 73  2  0  0  0
 71 75  1  0  0  0
 71149  1  0  0  0
 72 75  2  0  0  0
 72 76  1  0  0  0
 72150  1  0  0  0
 73 74  1  0  0  0
 73 86  1  0  0  0
 74 76  2  0  0  0
 74 83  1  0  0  0
 75 87  1  0  0  0
 76 89  1  0  0  0
 77 78  2  0  0  0
 77 79  1  0  0  0
 77 88  1  0  0  0
 78 84  1  0  0  0
 78 85  1  0  0  0
 79 80  1  0  0  0
 79151  1  0  0  0
 79152  1  0  0  0
 80 82  1  0  0  0
 80153  1  0  0  0
 80154  1  0  0  0
 81 82  1  0  0  0
 81 88  1  0  0  0
 81155  1  0  0  0
 81156  1  0  0  0
 82157  1  0  0  0
 83158  1  0  0  0
 83159  1  0  0  0
 83160  1  0  0  0
 84161  1  0  0  0
 84162  1  0  0  0
 84163  1  0  0  0
 85164  1  0  0  0
 85165  1  0  0  0
 85166  1  0  0  0
 86167  1  0  0  0
 86168  1  0  0  0
 86 88  1  0  0  0
 87169  1  0  0  0
 88170  1  0  0  0
M  CHG  1  88   1
M  ISO  4   1 100  68 101  82 101  87 100
M  END
> <chiral flag>
0

> <version>
0

> <s_m_source_file>
/data/baiqing/PycharmProjects/Reinvent-master-3.2/result/LINK_invent/BTK/process_docking_weight1_custom_product_contain_oxygen_bond_distance_aromatic_linkinvent_7_9_3/rearranged_h_0047.sdf

> <i_m_source_file_index>
6

> <r_mmod_Potential_Energy-OPLS-2005>
202.01643371582

> <r_mmod_Stretch_Energy-OPLS-2005>
129.577774047852

> <r_mmod_Bend_Energy-OPLS-2005>
236.667938232422

> <r_mmod_Torsional_Energy-OPLS-2005>
279.420074462891

> <r_mmod_Improper_Torsional_Energy-OPLS-2005>
7.43351173400879

> <r_mmod_Van_der_Waal_Energy-OPLS-2005>
148.081604003906

> <r_mmod_Electrostatic_Energy-OPLS-2005>
-261.531311035156

> <r_mmod_Solvation_Energy-OPLS-2005>
-439.370422363281

> <b_mmod_Minimization_Converged-OPLS-2005>
0

> <r_mmod_RMS_Derivative-OPLS-2005>
6.8727011680603

$$$$
6
                    3D
 Structure written by MMmdl.
167176  0  0  1  0            999 V2000
  -30.7152  -14.4422   20.5261 C   0  0  0  0  0  0
  -30.4162  -12.2766   19.4154 C   0  0  0  0  0  0
  -29.4926  -12.4913   18.1994 C   0  0  0  0  0  0
  -28.0123  -12.3647   18.6136 C   0  0  0  0  0  0
  -27.6629  -13.2017   19.8752 C   0  0  2  0  0  0
  -28.7103  -12.9818   20.9917 C   0  0  0  0  0  0
  -25.2612  -13.8135   20.5684 C   0  0  0  0  0  0
  -24.1860  -13.0429   20.9196 C   0  0  0  0  0  0
  -24.6400  -11.6894   20.8746 C   0  0  0  0  0  0
  -23.9059  -10.4288   21.0407 C   0  0  0  0  0  0
  -24.3611   -9.4203   21.9183 C   0  0  0  0  0  0
  -23.6286   -8.2239   22.0754 C   0  0  0  0  0  0
  -22.4270   -8.0279   21.3548 C   0  0  0  0  0  0
  -21.9906   -9.0250   20.4648 C   0  0  0  0  0  0
  -22.7232  -10.2131   20.3055 C   0  0  0  0  0  0
  -21.6843   -6.0734   22.5278 C   0  0  0  0  0  0
  -21.4009   -6.5636   23.8215 C   0  0  0  0  0  0
  -21.3668   -5.6794   24.9180 C   0  0  0  0  0  0
  -21.6048   -4.3057   24.7231 C   0  0  0  0  0  0
  -21.8816   -3.8140   23.4353 C   0  0  0  0  0  0
  -21.9196   -4.6960   22.3404 C   0  0  0  0  0  0
  -22.7888  -13.5238   21.1847 C   0  0  0  0  0  0
  -22.1661   -4.2143   21.0985 F   0  0  0  0  0  0
  -21.5639   -3.4542   25.7746 F   0  0  0  0  0  0
  -30.0362  -13.2718   20.4259 N   0  0  0  0  0  0
  -26.3050  -12.9297   20.3384 N   0  0  0  0  0  0
  -25.9331  -11.6457   20.5778 N   0  0  0  0  0  0
  -22.0507  -12.8243   22.0398 N   0  0  0  0  0  0
  -25.4334  -15.1835   20.4042 N   0  0  0  0  0  0
  -31.8754  -14.5882   20.1413 O   0  0  0  0  0  0
  -21.6640   -6.8874   21.4239 O   0  0  0  0  0  0
  -22.3595  -14.5558   20.6699 O   0  0  0  0  0  0
  -24.6145  -31.8726   23.2161 C   0  0  0  0  0  0
  -25.9057  -32.4838   23.8434 C   0  0  1  0  0  0
  -27.2171  -27.4451   20.0699 C   0  0  0  0  0  0
  -25.5927  -33.8642   24.2364 N   0  0  0  0  0  0
  -23.3991  -30.5039   21.5564 C   0  0  2  0  0  0
  -24.8400  -28.9822   20.1136 C   0  0  0  0  0  0
  -22.7392  -29.4708   22.4988 C   0  0  0  0  0  0
  -18.0287  -28.1379   22.8470 C   0  0  0  0  0  0
  -24.1493  -36.7313   23.2638 C   0  0  0  0  0  0
  -25.9331  -30.8388   21.3719 C   0  0  0  0  0  0
  -26.0063  -29.4798   20.7079 C   0  0  0  0  0  0
  -27.1989  -28.7176   20.6868 C   0  0  0  0  0  0
  -26.0282  -26.9822   19.4518 C   0  0  0  0  0  0
  -24.8451  -27.7312   19.4860 C   0  0  0  0  0  0
  -23.6038  -29.8475   20.1690 C   0  0  0  0  0  0
  -25.4111  -36.3119   24.0345 C   0  0  1  0  0  0
  -20.5878  -28.3664   23.1308 C   0  0  2  0  0  0
  -20.6813  -26.9386   22.5427 C   0  0  0  0  0  0
  -19.5784  -26.6339   21.5228 C   0  0  0  0  0  0
  -18.1952  -26.7919   22.1608 C   0  0  0  0  0  0
  -19.1538  -28.8822   23.2887 C   0  0  0  0  0  0
  -18.9473  -30.1427   23.8919 C   0  0  0  0  0  0
  -17.6490  -30.6573   24.0587 C   0  0  0  0  0  0
  -25.9040  -34.9476   23.5146 C   0  0  0  0  0  0
  -16.5370  -29.9094   23.6329 C   0  0  0  0  0  0
  -16.7285  -28.6516   23.0328 C   0  0  0  0  0  0
  -26.4470  -31.6597   25.0746 C   0  0  0  0  0  0
  -25.3738  -31.3697   26.1489 C   0  0  0  0  0  0
  -27.0299  -30.3044   24.6108 C   0  0  0  0  0  0
  -27.6053  -32.4295   25.7509 C   0  0  0  0  0  0
  -27.5583  -37.1812   24.8471 C   0  0  0  0  0  0
  -21.4123  -29.3070   22.3733 N   0  0  0  0  0  0
  -26.4301  -37.3796   23.9403 N   0  0  0  0  0  0
  -24.6673  -31.0840   22.1057 N   0  0  0  0  0  0
  -23.4177  -28.8216   23.2987 O   0  0  0  0  0  0
  -28.3675  -26.6745   20.0993 O   0  0  0  0  0  0
  -26.5587  -34.8919   22.4700 O   0  0  0  0  0  0
  -23.5340  -32.1493   23.7546 O   0  0  0  0  0  0
  -31.3924  -19.3822   21.7543 C   0  0  0  0  0  0
  -31.0297  -18.0278   21.7939 C   0  0  0  0  0  0
  -30.4010  -20.3723   21.6767 C   0  0  0  0  0  0
  -29.6751  -17.6425   21.7638 C   0  0  0  0  0  0
  -29.0297  -20.0226   21.6326 C   0  0  0  0  0  0
  -28.6629  -18.6423   21.6939 C   0  0  0  0  0  0
  -29.0507  -22.9188   20.0500 C   0  0  0  0  0  0
  -29.2406  -22.0726   19.0201 C   0  0  0  0  0  0
  -29.4154  -24.4068   20.0180 C   0  0  0  0  0  0
  -27.5806  -24.9176   21.6144 C   0  0  0  0  0  0
  -27.2337  -23.4255   21.7007 C   0  0  0  0  0  0
  -28.1582  -25.2566   20.2318 C   0  0  1  0  0  0
  -27.1962  -18.2132   21.6788 C   0  0  0  0  0  0
  -29.3767  -16.1412   21.7589 C   0  0  0  0  0  0
  -27.9457  -21.1109   21.5196 C   0  0  0  0  0  0
  -29.9482  -15.5357   20.5651 N   0  0  0  0  0  0
  -28.3786  -22.5340   21.3587 N   0  3  1  0  0  0
  -31.4628  -12.3548   19.1167 H   0  0  0  0  0  0
  -30.2951  -11.2694   19.8154 H   0  0  0  0  0  0
  -29.7237  -11.7672   17.4181 H   0  0  0  0  0  0
  -29.6717  -13.4755   17.7636 H   0  0  0  0  0  0
  -27.8144  -11.3095   18.8033 H   0  0  0  0  0  0
  -27.3630  -12.6495   17.7839 H   0  0  0  0  0  0
  -27.7065  -14.2495   19.5777 H   0  0  0  0  0  0
  -28.6804  -11.9497   21.3432 H   0  0  0  0  0  0
  -28.4971  -13.5957   21.8655 H   0  0  0  0  0  0
  -25.2751   -9.5688   22.4769 H   0  0  0  0  0  0
  -23.9998   -7.4631   22.7472 H   0  0  0  0  0  0
  -21.0842   -8.8770   19.8950 H   0  0  0  0  0  0
  -22.3681  -10.9681   19.6174 H   0  0  0  0  0  0
  -21.1982   -7.6142   23.9718 H   0  0  0  0  0  0
  -21.1499   -6.0523   25.9089 H   0  0  0  0  0  0
  -22.0584   -2.7601   23.2855 H   0  0  0  0  0  0
  -22.4104  -11.9905   22.4809 H   0  0  0  0  0  0
  -21.1120  -13.1279   22.2562 H   0  0  0  0  0  0
  -24.6591  -15.8327   20.4887 H   0  0  0  0  0  0
  -26.2775  -15.6111   20.0435 H   0  0  0  0  0  0
  -26.7126  -32.5542   23.1193 H   0  0  0  0  0  0
  -25.0085  -33.9808   25.0514 H   0  0  0  0  0  0
  -22.6890  -31.3228   21.4224 H   0  0  0  0  0  0
  -23.3745  -35.9662   23.3322 H   0  0  0  0  0  0
  -24.3590  -36.8890   22.2049 H   0  0  0  0  0  0
  -23.7256  -37.6532   23.6629 H   0  0  0  0  0  0
  -26.0563  -31.6119   20.6126 H   0  0  0  0  0  0
  -26.8186  -30.8804   21.9939 H   0  0  0  0  0  0
  -28.0945  -29.0938   21.1610 H   0  0  0  0  0  0
  -25.9665  -26.0504   18.9162 H   0  0  0  0  0  0
  -23.9502  -27.3476   19.0144 H   0  0  0  0  0  0
  -23.7128  -30.6248   19.4120 H   0  0  0  0  0  0
  -22.7268  -29.2697   19.8739 H   0  0  0  0  0  0
  -25.1285  -36.1988   25.0841 H   0  0  0  0  0  0
  -20.9970  -28.3276   24.1446 H   0  0  0  0  0  0
  -20.5754  -26.2256   23.3632 H   0  0  0  0  0  0
  -21.6695  -26.7462   22.1202 H   0  0  0  0  0  0
  -19.6910  -25.6238   21.1268 H   0  0  0  0  0  0
  -19.6720  -27.3129   20.6739 H   0  0  0  0  0  0
  -17.4228  -26.6725   21.3995 H   0  0  0  0  0  0
  -18.0291  -26.0050   22.8979 H   0  0  0  0  0  0
  -19.7955  -30.7223   24.2328 H   0  0  0  0  0  0
  -17.5065  -31.6243   24.5213 H   0  0  0  0  0  0
  -15.5383  -30.3017   23.7650 H   0  0  0  0  0  0
  -15.8686  -28.0851   22.6998 H   0  0  0  0  0  0
  -24.5918  -30.7040   25.7814 H   0  0  0  0  0  0
  -24.8930  -32.2856   26.4936 H   0  0  0  0  0  0
  -25.8087  -30.8858   27.0244 H   0  0  0  0  0  0
  -26.2863  -29.6808   24.1134 H   0  0  0  0  0  0
  -27.4050  -29.7257   25.4552 H   0  0  0  0  0  0
  -27.8701  -30.4351   23.9289 H   0  0  0  0  0  0
  -27.2688  -33.3584   26.2119 H   0  0  0  0  0  0
  -28.3855  -32.6855   25.0333 H   0  0  0  0  0  0
  -28.0737  -31.8396   26.5391 H   0  0  0  0  0  0
  -28.2612  -38.0094   24.7508 H   0  0  0  0  0  0
  -28.1060  -36.2624   24.6315 H   0  0  0  0  0  0
  -27.2300  -37.1498   25.8874 H   0  0  0  0  0  0
  -20.9258  -29.8843   21.7018 H   0  0  0  0  0  0
  -26.0185  -38.2880   24.1380 H   0  0  0  0  0  0
  -32.4379  -19.6586   21.7721 H   0  0  0  0  0  0
  -31.8060  -17.2762   21.8436 H   0  0  0  0  0  0
  -30.7282  -21.4009   21.6367 H   0  0  0  0  0  0
  -29.6993  -22.4208   18.1071 H   0  0  0  0  0  0
  -28.9546  -21.0319   19.0471 H   0  0  0  0  0  0
  -29.8559  -24.6476   19.0486 H   0  0  0  0  0  0
  -30.1774  -24.6244   20.7671 H   0  0  0  0  0  0
  -28.2903  -25.1958   22.3955 H   0  0  0  0  0  0
  -26.6735  -25.4898   21.8127 H   0  0  0  0  0  0
  -26.4019  -23.2170   21.0251 H   0  0  0  0  0  0
  -26.8787  -23.2110   22.7096 H   0  0  0  0  0  0
  -27.4915  -24.8962   19.4520 H   0  0  0  0  0  0
  -26.9778  -17.5740   22.5356 H   0  0  0  0  0  0
  -26.9822  -17.6502   20.7699 H   0  0  0  0  0  0
  -26.4807  -19.0303   21.7274 H   0  0  0  0  0  0
  -29.7985  -15.6969   22.6628 H   0  0  0  0  0  0
  -28.3112  -15.9170   21.7734 H   0  0  0  0  0  0
  -27.3528  -21.0308   22.4320 H   0  0  0  0  0  0
  -27.2726  -20.8661   20.6965 H   0  0  0  0  0  0
  -30.3598  -16.2589   19.9956 H   0  0  0  0  0  0
  -29.0473  -22.6774   22.0994 H   0  0  0  0  0  0
  1 25  1  0  0  0
  1 30  2  0  0  0
  1 86  1  0  0  0
  2  3  1  0  0  0
  2 25  1  0  0  0
  2 88  1  0  0  0
  2 89  1  0  0  0
  3  4  1  0  0  0
  3 90  1  0  0  0
  3 91  1  0  0  0
  4  5  1  0  0  0
  4 92  1  0  0  0
  4 93  1  0  0  0
  5  6  1  0  0  0
  5 26  1  0  0  0
  5 94  1  0  0  0
  6 25  1  0  0  0
  6 95  1  0  0  0
  6 96  1  0  0  0
  7  8  2  0  0  0
  7 26  1  0  0  0
  7 29  1  0  0  0
  8  9  1  0  0  0
  8 22  1  0  0  0
  9 10  1  0  0  0
  9 27  2  0  0  0
 10 11  2  0  0  0
 10 15  1  0  0  0
 11 12  1  0  0  0
 11 97  1  0  0  0
 12 13  2  0  0  0
 12 98  1  0  0  0
 13 14  1  0  0  0
 13 31  1  0  0  0
 14 15  2  0  0  0
 14 99  1  0  0  0
 15100  1  0  0  0
 16 17  2  0  0  0
 16 21  1  0  0  0
 16 31  1  0  0  0
 17 18  1  0  0  0
 17101  1  0  0  0
 18 19  2  0  0  0
 18102  1  0  0  0
 19 20  1  0  0  0
 19 24  1  0  0  0
 20 21  2  0  0  0
 20103  1  0  0  0
 21 23  1  0  0  0
 22 28  1  0  0  0
 22 32  2  0  0  0
 26 27  1  0  0  0
 28104  1  0  0  0
 28105  1  0  0  0
 29106  1  0  0  0
 29107  1  0  0  0
 33 34  1  0  0  0
 33 66  1  0  0  0
 33 70  2  0  0  0
 34 36  1  0  0  0
 34 59  1  0  0  0
 34108  1  0  0  0
 35 44  2  0  0  0
 35 45  1  0  0  0
 35 68  1  0  0  0
 36 56  1  0  0  0
 36109  1  0  0  0
 37 39  1  0  0  0
 37 47  1  0  0  0
 37 66  1  0  0  0
 37110  1  0  0  0
 38 43  2  0  0  0
 38 46  1  0  0  0
 38 47  1  0  0  0
 39 64  1  0  0  0
 39 67  2  0  0  0
 40 52  1  0  0  0
 40 53  2  0  0  0
 40 58  1  0  0  0
 41111  1  0  0  0
 41112  1  0  0  0
 41113  1  0  0  0
 41 48  1  0  0  0
 42 43  1  0  0  0
 42 66  1  0  0  0
 42114  1  0  0  0
 42115  1  0  0  0
 43 44  1  0  0  0
 44116  1  0  0  0
 45 46  2  0  0  0
 45117  1  0  0  0
 46118  1  0  0  0
 47119  1  0  0  0
 47120  1  0  0  0
 48 56  1  0  0  0
 48 65  1  0  0  0
 48121  1  0  0  0
 49 50  1  0  0  0
 49 53  1  0  0  0
 49 64  1  0  0  0
 49122  1  0  0  0
 50 51  1  0  0  0
 50123  1  0  0  0
 50124  1  0  0  0
 51 52  1  0  0  0
 51125  1  0  0  0
 51126  1  0  0  0
 52127  1  0  0  0
 52128  1  0  0  0
 53 54  1  0  0  0
 54 55  2  0  0  0
 54129  1  0  0  0
 55 57  1  0  0  0
 55130  1  0  0  0
 56 69  2  0  0  0
 57 58  2  0  0  0
 57131  1  0  0  0
 58132  1  0  0  0
 59 60  1  0  0  0
 59 61  1  0  0  0
 59 62  1  0  0  0
 60133  1  0  0  0
 60134  1  0  0  0
 60135  1  0  0  0
 61136  1  0  0  0
 61137  1  0  0  0
 61138  1  0  0  0
 62139  1  0  0  0
 62140  1  0  0  0
 62141  1  0  0  0
 63 65  1  0  0  0
 63142  1  0  0  0
 63143  1  0  0  0
 63144  1  0  0  0
 64145  1  0  0  0
 65146  1  0  0  0
 68 82  1  0  0  0
 71 72  2  0  0  0
 71 73  1  0  0  0
 71147  1  0  0  0
 72 74  1  0  0  0
 72148  1  0  0  0
 73 75  2  0  0  0
 73149  1  0  0  0
 74 76  2  0  0  0
 74 84  1  0  0  0
 75 76  1  0  0  0
 75 85  1  0  0  0
 76 83  1  0  0  0
 77 78  2  0  0  0
 77 79  1  0  0  0
 77 87  1  0  0  0
 78150  1  0  0  0
 78151  1  0  0  0
 79 82  1  0  0  0
 79152  1  0  0  0
 79153  1  0  0  0
 80 81  1  0  0  0
 80 82  1  0  0  0
 80154  1  0  0  0
 80155  1  0  0  0
 81 87  1  0  0  0
 81156  1  0  0  0
 81157  1  0  0  0
 82158  1  0  0  0
 83159  1  0  0  0
 83160  1  0  0  0
 83161  1  0  0  0
 84 86  1  0  0  0
 84162  1  0  0  0
 84163  1  0  0  0
 85164  1  0  0  0
 85165  1  0  0  0
 85 87  1  0  0  0
 86166  1  0  0  0
 87167  1  0  0  0
M  CHG  1  87   1
M  ISO  4   1 100  68 101  82 101  86 100
M  END
> <chiral flag>
0

> <version>
0

> <s_m_source_file>
/data/baiqing/PycharmProjects/Reinvent-master-3.2/result/LINK_invent/BTK/process_docking_weight1_custom_product_contain_oxygen_bond_distance_aromatic_linkinvent_7_9_3/rearranged_h_0047.sdf

> <i_m_source_file_index>
7

> <r_mmod_Potential_Energy-OPLS-2005>
-104.105155944824

> <r_mmod_Stretch_Energy-OPLS-2005>
41.2951431274414

> <r_mmod_Bend_Energy-OPLS-2005>
123.778289794922

> <r_mmod_Torsional_Energy-OPLS-2005>
276.193634033203

> <r_mmod_Improper_Torsional_Energy-OPLS-2005>
20.6229476928711

> <r_mmod_Van_der_Waal_Energy-OPLS-2005>
173.846466064453

> <r_mmod_Electrostatic_Energy-OPLS-2005>
-322.670227050781

> <r_mmod_Solvation_Energy-OPLS-2005>
-432.964660644531

> <b_mmod_Minimization_Converged-OPLS-2005>
0

> <r_mmod_RMS_Derivative-OPLS-2005>
2.59573173522949

$$$$
7
                    3D
 Structure written by MMmdl.
154162  0  0  1  0            999 V2000
  -30.6247  -14.6533   20.4851 C   0  0  0  0  0  0
  -30.4383  -12.3984   19.4531 C   0  0  0  0  0  0
  -29.5067  -12.5025   18.2246 C   0  0  0  0  0  0
  -28.0297  -12.3452   18.6370 C   0  0  0  0  0  0
  -27.6527  -13.2197   19.8624 C   0  0  2  0  0  0
  -28.6994  -13.0841   20.9919 C   0  0  0  0  0  0
  -25.2531  -13.8148   20.5627 C   0  0  0  0  0  0
  -24.1825  -13.0420   20.9203 C   0  0  0  0  0  0
  -24.6410  -11.6900   20.8766 C   0  0  0  0  0  0
  -23.9077  -10.4286   21.0423 C   0  0  0  0  0  0
  -24.3626   -9.4194   21.9194 C   0  0  0  0  0  0
  -23.6299   -8.2230   22.0752 C   0  0  0  0  0  0
  -22.4278   -8.0277   21.3543 C   0  0  0  0  0  0
  -21.9921   -9.0253   20.4643 C   0  0  0  0  0  0
  -22.7253  -10.2133   20.3064 C   0  0  0  0  0  0
  -21.6853   -6.0739   22.5279 C   0  0  0  0  0  0
  -21.4008   -6.5643   23.8212 C   0  0  0  0  0  0
  -21.3654   -5.6794   24.9175 C   0  0  0  0  0  0
  -21.6049   -4.3057   24.7225 C   0  0  0  0  0  0
  -21.8819   -3.8150   23.4344 C   0  0  0  0  0  0
  -21.9194   -4.6968   22.3402 C   0  0  0  0  0  0
  -22.7848  -13.5208   21.1866 C   0  0  0  0  0  0
  -22.1664   -4.2157   21.0980 F   0  0  0  0  0  0
  -21.5633   -3.4538   25.7736 F   0  0  0  0  0  0
  -30.0137  -13.4262   20.4253 N   0  0  0  0  0  0
  -26.2988  -12.9356   20.3315 N   0  0  0  0  0  0
  -25.9343  -11.6511   20.5792 N   0  0  0  0  0  0
  -22.0500  -12.8200   22.0429 N   0  0  0  0  0  0
  -25.4162  -15.1840   20.3852 N   0  0  0  0  0  0
  -31.7901  -14.7993   20.1046 O   0  0  0  0  0  0
  -21.6636   -6.8878   21.4238 O   0  0  0  0  0  0
  -22.3532  -14.5517   20.6717 O   0  0  0  0  0  0
  -24.6272  -31.8588   23.2048 C   0  0  0  0  0  0
  -25.9112  -32.4773   23.8374 C   0  0  1  0  0  0
  -27.2257  -27.3173   20.1081 C   0  0  0  0  0  0
  -25.5926  -33.8575   24.2296 N   0  0  0  0  0  0
  -23.4214  -30.4851   21.5461 C   0  0  2  0  0  0
  -24.8678  -28.9431   20.1103 C   0  0  0  0  0  0
  -22.7483  -29.4625   22.4927 C   0  0  0  0  0  0
  -18.0287  -28.1394   22.8502 C   0  0  0  0  0  0
  -24.1478  -36.7281   23.2640 C   0  0  0  0  0  0
  -25.9637  -30.7901   21.3766 C   0  0  0  0  0  0
  -26.0380  -29.4186   20.7149 C   0  0  0  0  0  0
  -27.2206  -28.6176   20.7049 C   0  0  0  0  0  0
  -26.0277  -26.8982   19.4826 C   0  0  0  0  0  0
  -24.8646  -27.6880   19.4861 C   0  0  0  0  0  0
  -23.6369  -29.8249   20.1597 C   0  0  0  0  0  0
  -25.4106  -36.3074   24.0334 C   0  0  1  0  0  0
  -20.5893  -28.3689   23.1283 C   0  0  2  0  0  0
  -20.6773  -26.9409   22.5411 C   0  0  0  0  0  0
  -19.5743  -26.6389   21.5218 C   0  0  0  0  0  0
  -18.1924  -26.7943   22.1629 C   0  0  0  0  0  0
  -19.1546  -28.8858   23.2886 C   0  0  0  0  0  0
  -18.9468  -30.1469   23.8896 C   0  0  0  0  0  0
  -17.6470  -30.6599   24.0573 C   0  0  0  0  0  0
  -25.9042  -34.9449   23.5113 C   0  0  0  0  0  0
  -16.5358  -29.9104   23.6344 C   0  0  0  0  0  0
  -16.7274  -28.6519   23.0364 C   0  0  0  0  0  0
  -26.4502  -31.6586   25.0740 C   0  0  0  0  0  0
  -25.3747  -31.3742   26.1474 C   0  0  0  0  0  0
  -27.0334  -30.3009   24.6200 C   0  0  0  0  0  0
  -27.6061  -32.4319   25.7507 C   0  0  0  0  0  0
  -27.5570  -37.1799   24.8472 C   0  0  0  0  0  0
  -21.4191  -29.3049   22.3675 N   0  0  0  0  0  0
  -26.4280  -37.3775   23.9419 N   0  0  0  0  0  0
  -24.6896  -31.0616   22.0990 N   0  0  0  0  0  0
  -23.4208  -28.8152   23.2996 O   0  0  0  0  0  0
  -28.3419  -26.4610   20.1515 O   0  0  0  0  0  0
  -26.5600  -34.8919   22.4674 O   0  0  0  0  0  0
  -23.5438  -32.1366   23.7387 O   0  0  0  0  0  0
  -30.9983  -19.2414   19.7925 C   0  0  0  0  0  0
  -30.9509  -17.8209   19.9236 C   0  0  0  0  0  0
  -29.0057  -19.4586   21.1089 C   0  0  0  0  0  0
  -30.0376  -20.1056   20.3867 C   0  0  0  0  0  0
  -28.9570  -18.0347   21.2576 C   0  0  0  0  0  0
  -29.9359  -17.1688   20.6732 C   0  0  0  0  0  0
  -29.2981  -24.0322   20.2911 C   0  0  0  0  0  0
  -27.8236  -17.4539   22.0860 C   0  0  0  0  0  0
  -30.2564  -21.6675   20.3573 C   0  0  0  0  0  0
  -28.1004  -25.0057   19.9610 C   0  0  0  0  0  0
  -29.8249  -15.7110   20.8403 N   0  0  0  0  0  0
  -29.1457  -22.6675   20.2003 N   0  0  0  0  0  0
  -30.3845  -24.5213   20.6104 O   0  0  0  0  0  0
  -31.4779  -12.5248   19.1462 H   0  0  0  0  0  0
  -30.3783  -11.4054   19.9008 H   0  0  0  0  0  0
  -29.7682  -11.7429   17.4865 H   0  0  0  0  0  0
  -29.6500  -13.4667   17.7341 H   0  0  0  0  0  0
  -27.8644  -11.2932   18.8717 H   0  0  0  0  0  0
  -27.3750  -12.5735   17.7949 H   0  0  0  0  0  0
  -27.6680  -14.2542   19.5189 H   0  0  0  0  0  0
  -28.7130  -12.0646   21.3812 H   0  0  0  0  0  0
  -28.4448  -13.7225   21.8392 H   0  0  0  0  0  0
  -25.2769   -9.5665   22.4774 H   0  0  0  0  0  0
  -24.0007   -7.4614   22.7464 H   0  0  0  0  0  0
  -21.0856   -8.8775   19.8945 H   0  0  0  0  0  0
  -22.3715  -10.9675   19.6177 H   0  0  0  0  0  0
  -21.1993   -7.6150   23.9717 H   0  0  0  0  0  0
  -21.1476   -6.0524   25.9079 H   0  0  0  0  0  0
  -22.0602   -2.7615   23.2841 H   0  0  0  0  0  0
  -22.4120  -11.9864   22.4816 H   0  0  0  0  0  0
  -21.1114  -13.1214   22.2636 H   0  0  0  0  0  0
  -24.6283  -15.8197   20.4413 H   0  0  0  0  0  0
  -26.2326  -15.6023   19.9581 H   0  0  0  0  0  0
  -26.7183  -32.5441   23.1128 H   0  0  0  0  0  0
  -25.0102  -33.9724   25.0461 H   0  0  0  0  0  0
  -22.7161  -31.3069   21.4065 H   0  0  0  0  0  0
  -23.3741  -35.9611   23.3298 H   0  0  0  0  0  0
  -24.3576  -36.8901   22.2056 H   0  0  0  0  0  0
  -23.7227  -37.6486   23.6661 H   0  0  0  0  0  0
  -26.1008  -31.5572   20.6134 H   0  0  0  0  0  0
  -26.8421  -30.8347   22.0080 H   0  0  0  0  0  0
  -28.1185  -28.9786   21.1869 H   0  0  0  0  0  0
  -25.9538  -25.9423   18.9863 H   0  0  0  0  0  0
  -23.9684  -27.3179   19.0060 H   0  0  0  0  0  0
  -23.7586  -30.6045   19.4060 H   0  0  0  0  0  0
  -22.7550  -29.2573   19.8555 H   0  0  0  0  0  0
  -25.1287  -36.1918   25.0827 H   0  0  0  0  0  0
  -21.0002  -28.3254   24.1395 H   0  0  0  0  0  0
  -20.5673  -26.2293   23.3612 H   0  0  0  0  0  0
  -21.6637  -26.7432   22.1198 H   0  0  0  0  0  0
  -19.6888  -25.6299   21.1244 H   0  0  0  0  0  0
  -19.6680  -27.3203   20.6754 H   0  0  0  0  0  0
  -17.4194  -26.6702   21.4029 H   0  0  0  0  0  0
  -18.0307  -26.0093   22.9032 H   0  0  0  0  0  0
  -19.7942  -30.7295   24.2247 H   0  0  0  0  0  0
  -17.5024  -31.6280   24.5172 H   0  0  0  0  0  0
  -15.5358  -30.3006   23.7678 H   0  0  0  0  0  0
  -15.8669  -28.0848   22.7075 H   0  0  0  0  0  0
  -24.5922  -30.7076   25.7830 H   0  0  0  0  0  0
  -24.8934  -32.2912   26.4886 H   0  0  0  0  0  0
  -25.8081  -30.8948   27.0259 H   0  0  0  0  0  0
  -26.2905  -29.6763   24.1227 H   0  0  0  0  0  0
  -27.4029  -29.7270   25.4708 H   0  0  0  0  0  0
  -27.8780  -30.4295   23.9430 H   0  0  0  0  0  0
  -27.2687  -33.3650   26.2040 H   0  0  0  0  0  0
  -28.3898  -32.6822   25.0341 H   0  0  0  0  0  0
  -28.0687  -31.8460   26.5460 H   0  0  0  0  0  0
  -28.2594  -38.0091   24.7508 H   0  0  0  0  0  0
  -28.1058  -36.2621   24.6301 H   0  0  0  0  0  0
  -27.2293  -37.1454   25.8878 H   0  0  0  0  0  0
  -20.9354  -29.8799   21.6921 H   0  0  0  0  0  0
  -26.0149  -38.2842   24.1437 H   0  0  0  0  0  0
  -31.8211  -19.6730   19.2382 H   0  0  0  0  0  0
  -31.7244  -17.2408   19.4408 H   0  0  0  0  0  0
  -28.2571  -20.0695   21.5941 H   0  0  0  0  0  0
  -27.4054  -18.2036   22.7584 H   0  0  0  0  0  0
  -28.1563  -16.6197   22.7036 H   0  0  0  0  0  0
  -27.0248  -17.1079   21.4333 H   0  0  0  0  0  0
  -30.9815  -21.8822   19.5706 H   0  0  0  0  0  0
  -30.7715  -21.9078   21.2889 H   0  0  0  0  0  0
  -27.2552  -24.6938   20.5759 H   0  0  0  0  0  0
  -27.8334  -24.8222   18.9198 H   0  0  0  0  0  0
  -28.9389  -15.4085   21.2122 H   0  0  0  0  0  0
  -28.2398  -22.3130   19.9249 H   0  0  0  0  0  0
  1 25  1  0  0  0
  1 30  2  0  0  0
  1 81  1  0  0  0
  2  3  1  0  0  0
  2 25  1  0  0  0
  2 84  1  0  0  0
  2 85  1  0  0  0
  3  4  1  0  0  0
  3 86  1  0  0  0
  3 87  1  0  0  0
  4  5  1  0  0  0
  4 88  1  0  0  0
  4 89  1  0  0  0
  5  6  1  0  0  0
  5 26  1  0  0  0
  5 90  1  0  0  0
  6 25  1  0  0  0
  6 91  1  0  0  0
  6 92  1  0  0  0
  7  8  2  0  0  0
  7 26  1  0  0  0
  7 29  1  0  0  0
  8  9  1  0  0  0
  8 22  1  0  0  0
  9 10  1  0  0  0
  9 27  2  0  0  0
 10 11  2  0  0  0
 10 15  1  0  0  0
 11 12  1  0  0  0
 11 93  1  0  0  0
 12 13  2  0  0  0
 12 94  1  0  0  0
 13 14  1  0  0  0
 13 31  1  0  0  0
 14 15  2  0  0  0
 14 95  1  0  0  0
 15 96  1  0  0  0
 16 17  2  0  0  0
 16 21  1  0  0  0
 16 31  1  0  0  0
 17 18  1  0  0  0
 17 97  1  0  0  0
 18 19  2  0  0  0
 18 98  1  0  0  0
 19 20  1  0  0  0
 19 24  1  0  0  0
 20 21  2  0  0  0
 20 99  1  0  0  0
 21 23  1  0  0  0
 22 28  1  0  0  0
 22 32  2  0  0  0
 26 27  1  0  0  0
 28100  1  0  0  0
 28101  1  0  0  0
 29102  1  0  0  0
 29103  1  0  0  0
 33 34  1  0  0  0
 33 66  1  0  0  0
 33 70  2  0  0  0
 34 36  1  0  0  0
 34 59  1  0  0  0
 34104  1  0  0  0
 35 44  2  0  0  0
 35 45  1  0  0  0
 35 68  1  0  0  0
 36 56  1  0  0  0
 36105  1  0  0  0
 37 39  1  0  0  0
 37 47  1  0  0  0
 37 66  1  0  0  0
 37106  1  0  0  0
 38 43  2  0  0  0
 38 46  1  0  0  0
 38 47  1  0  0  0
 39 64  1  0  0  0
 39 67  2  0  0  0
 40 52  1  0  0  0
 40 53  2  0  0  0
 40 58  1  0  0  0
 41107  1  0  0  0
 41108  1  0  0  0
 41109  1  0  0  0
 41 48  1  0  0  0
 42 43  1  0  0  0
 42 66  1  0  0  0
 42110  1  0  0  0
 42111  1  0  0  0
 43 44  1  0  0  0
 44112  1  0  0  0
 45 46  2  0  0  0
 45113  1  0  0  0
 46114  1  0  0  0
 47115  1  0  0  0
 47116  1  0  0  0
 48 56  1  0  0  0
 48 65  1  0  0  0
 48117  1  0  0  0
 49 50  1  0  0  0
 49 53  1  0  0  0
 49 64  1  0  0  0
 49118  1  0  0  0
 50 51  1  0  0  0
 50119  1  0  0  0
 50120  1  0  0  0
 51 52  1  0  0  0
 51121  1  0  0  0
 51122  1  0  0  0
 52123  1  0  0  0
 52124  1  0  0  0
 53 54  1  0  0  0
 54 55  2  0  0  0
 54125  1  0  0  0
 55 57  1  0  0  0
 55126  1  0  0  0
 56 69  2  0  0  0
 57 58  2  0  0  0
 57127  1  0  0  0
 58128  1  0  0  0
 59 60  1  0  0  0
 59 61  1  0  0  0
 59 62  1  0  0  0
 60129  1  0  0  0
 60130  1  0  0  0
 60131  1  0  0  0
 61132  1  0  0  0
 61133  1  0  0  0
 61134  1  0  0  0
 62135  1  0  0  0
 62136  1  0  0  0
 62137  1  0  0  0
 63 65  1  0  0  0
 63138  1  0  0  0
 63139  1  0  0  0
 63140  1  0  0  0
 64141  1  0  0  0
 65142  1  0  0  0
 68 80  1  0  0  0
 71 72  2  0  0  0
 71 74  1  0  0  0
 71143  1  0  0  0
 72 76  1  0  0  0
 72144  1  0  0  0
 73 74  2  0  0  0
 73 75  1  0  0  0
 73145  1  0  0  0
 74 79  1  0  0  0
 75 76  2  0  0  0
 75 78  1  0  0  0
 76 81  1  0  0  0
 77 80  1  0  0  0
 77 82  1  0  0  0
 77 83  2  0  0  0
 78146  1  0  0  0
 78147  1  0  0  0
 78148  1  0  0  0
 79 82  1  0  0  0
 79149  1  0  0  0
 79150  1  0  0  0
 80151  1  0  0  0
 80152  1  0  0  0
 81153  1  0  0  0
 82154  1  0  0  0
M  ISO  4   1 100  68 101  80 101  81 100
M  END
> <chiral flag>
0

> <version>
0

> <s_m_source_file>
/data/baiqing/PycharmProjects/Reinvent-master-3.2/result/LINK_invent/BTK/process_docking_weight1_custom_product_contain_oxygen_bond_distance_aromatic_linkinvent_7_9_3/rearranged_h_0047.sdf

> <i_m_source_file_index>
8

> <r_mmod_Potential_Energy-OPLS-2005>
-36.7220497131348

> <r_mmod_Stretch_Energy-OPLS-2005>
82.0404663085938

> <r_mmod_Bend_Energy-OPLS-2005>
137.692825317383

> <r_mmod_Torsional_Energy-OPLS-2005>
211.098007202148

> <r_mmod_Improper_Torsional_Energy-OPLS-2005>
4.98490428924561

> <r_mmod_Van_der_Waal_Energy-OPLS-2005>
146.462951660156

> <r_mmod_Electrostatic_Energy-OPLS-2005>
-425.531311035156

> <r_mmod_Solvation_Energy-OPLS-2005>
-244.69841003418

> <b_mmod_Minimization_Converged-OPLS-2005>
0

> <r_mmod_RMS_Derivative-OPLS-2005>
1.42273783683777

$$$$
8
                    3D
 Structure written by MMmdl.
158167  0  0  1  0            999 V2000
  -30.5930  -14.7329   20.4715 C   0  0  0  0  0  0
  -30.4309  -12.4478   19.4572 C   0  0  0  0  0  0
  -29.5032  -12.5011   18.2238 C   0  0  0  0  0  0
  -28.0282  -12.3331   18.6430 C   0  0  0  0  0  0
  -27.6391  -13.2249   19.8504 C   0  0  2  0  0  0
  -28.6858  -13.1441   20.9814 C   0  0  0  0  0  0
  -25.2501  -13.8171   20.5702 C   0  0  0  0  0  0
  -24.1783  -13.0421   20.9217 C   0  0  0  0  0  0
  -24.6344  -11.6897   20.8722 C   0  0  0  0  0  0
  -23.9008  -10.4281   21.0377 C   0  0  0  0  0  0
  -24.3561   -9.4213   21.9168 C   0  0  0  0  0  0
  -23.6265   -8.2225   22.0729 C   0  0  0  0  0  0
  -22.4249   -8.0245   21.3503 C   0  0  0  0  0  0
  -21.9868   -9.0223   20.4617 C   0  0  0  0  0  0
  -22.7175  -10.2119   20.3043 C   0  0  0  0  0  0
  -21.6855   -6.0708   22.5272 C   0  0  0  0  0  0
  -21.4028   -6.5621   23.8206 C   0  0  0  0  0  0
  -21.3667   -5.6780   24.9164 C   0  0  0  0  0  0
  -21.6038   -4.3041   24.7224 C   0  0  0  0  0  0
  -21.8822   -3.8123   23.4349 C   0  0  0  0  0  0
  -21.9195   -4.6936   22.3402 C   0  0  0  0  0  0
  -22.7808  -13.5205   21.1909 C   0  0  0  0  0  0
  -22.1646   -4.2113   21.0986 F   0  0  0  0  0  0
  -21.5625   -3.4541   25.7745 F   0  0  0  0  0  0
  -29.9799  -13.5048   20.3900 N   0  0  0  0  0  0
  -26.2912  -12.9355   20.3286 N   0  0  0  0  0  0
  -25.9283  -11.6508   20.5740 N   0  0  0  0  0  0
  -22.0465  -12.8176   22.0457 N   0  0  0  0  0  0
  -25.4217  -15.1891   20.4139 N   0  0  0  0  0  0
  -31.7944  -14.8385   20.2028 O   0  0  0  0  0  0
  -21.6615   -6.8844   21.4226 O   0  0  0  0  0  0
  -22.3489  -14.5526   20.6804 O   0  0  0  0  0  0
  -24.6324  -31.8563   23.1980 C   0  0  0  0  0  0
  -25.9159  -32.4753   23.8331 C   0  0  1  0  0  0
  -27.2137  -27.2620   20.1320 C   0  0  0  0  0  0
  -25.5956  -33.8554   24.2258 N   0  0  0  0  0  0
  -23.4280  -30.4788   21.5423 C   0  0  2  0  0  0
  -24.8744  -28.9225   20.1140 C   0  0  0  0  0  0
  -22.7518  -29.4613   22.4924 C   0  0  0  0  0  0
  -18.0305  -28.1394   22.8488 C   0  0  0  0  0  0
  -24.1487  -36.7273   23.2639 C   0  0  0  0  0  0
  -25.9753  -30.7674   21.3789 C   0  0  0  0  0  0
  -26.0475  -29.3893   20.7225 C   0  0  0  0  0  0
  -27.2238  -28.5726   20.7180 C   0  0  0  0  0  0
  -26.0244  -26.8672   19.4845 C   0  0  0  0  0  0
  -24.8667  -27.6683   19.4848 C   0  0  0  0  0  0
  -23.6468  -29.8121   20.1591 C   0  0  0  0  0  0
  -25.4114  -36.3065   24.0331 C   0  0  1  0  0  0
  -20.5909  -28.3709   23.1274 C   0  0  2  0  0  0
  -20.6789  -26.9429   22.5412 C   0  0  0  0  0  0
  -19.5752  -26.6390   21.5225 C   0  0  0  0  0  0
  -18.1935  -26.7940   22.1634 C   0  0  0  0  0  0
  -19.1556  -28.8869   23.2875 C   0  0  0  0  0  0
  -18.9474  -30.1476   23.8886 C   0  0  0  0  0  0
  -17.6468  -30.6591   24.0566 C   0  0  0  0  0  0
  -25.9061  -34.9434   23.5091 C   0  0  0  0  0  0
  -16.5361  -29.9084   23.6335 C   0  0  0  0  0  0
  -16.7291  -28.6506   23.0349 C   0  0  0  0  0  0
  -26.4506  -31.6580   25.0726 C   0  0  0  0  0  0
  -25.3713  -31.3749   26.1439 C   0  0  0  0  0  0
  -27.0356  -30.2989   24.6232 C   0  0  0  0  0  0
  -27.6067  -32.4314   25.7492 C   0  0  0  0  0  0
  -27.5579  -37.1792   24.8465 C   0  0  0  0  0  0
  -21.4228  -29.3054   22.3665 N   0  0  0  0  0  0
  -26.4284  -37.3769   23.9413 N   0  0  0  0  0  0
  -24.6976  -31.0523   22.0954 N   0  0  0  0  0  0
  -23.4231  -28.8164   23.3023 O   0  0  0  0  0  0
  -28.2942  -26.3523   20.1530 O   0  0  0  0  0  0
  -26.5633  -34.8911   22.4662 O   0  0  0  0  0  0
  -23.5478  -32.1390   23.7283 O   0  0  0  0  0  0
  -31.1557  -17.5896   21.7071 C   0  0  0  0  0  0
  -31.4827  -18.9241   22.0134 C   0  0  0  0  0  0
  -29.6805  -19.8206   20.5900 C   0  0  0  0  0  0
  -30.1020  -17.2830   20.8244 C   0  0  0  0  0  0
  -30.7875  -20.0174   21.4565 C   0  0  0  0  0  0
  -29.3614  -18.4209   20.2911 C   0  0  0  0  0  0
  -28.7280  -23.7027   19.9551 C   0  0  0  0  0  0
  -28.4568  -23.5319   22.8142 C   0  0  0  0  0  0
  -28.3565  -24.9438   22.1840 C   0  0  0  0  0  0
  -28.0365  -22.3698   21.8796 C   0  0  0  0  0  0
  -28.0348  -24.9595   20.6760 C   0  0  1  0  0  0
  -28.9684  -21.0849   19.8938 C   0  0  0  0  0  0
  -28.6780  -22.4441   20.5595 N   0  0  0  0  0  0
  -29.7809  -15.8546   20.5745 N   0  0  0  0  0  0
  -29.2413  -23.8649   18.8441 O   0  0  0  0  0  0
  -31.3897  -21.5948   21.8268 Cl  0  0  0  0  0  0
  -28.0555  -18.0718   19.2152 Cl  0  0  0  0  0  0
  -31.4704  -12.5851   19.1536 H   0  0  0  0  0  0
  -30.3788  -11.4666   19.9311 H   0  0  0  0  0  0
  -29.7792  -11.7220   17.5109 H   0  0  0  0  0  0
  -29.6333  -13.4537   17.7072 H   0  0  0  0  0  0
  -27.8779  -11.2838   18.9015 H   0  0  0  0  0  0
  -27.3663  -12.5338   17.7994 H   0  0  0  0  0  0
  -27.6373  -14.2494   19.4783 H   0  0  0  0  0  0
  -28.7214  -12.1394   21.4065 H   0  0  0  0  0  0
  -28.4246  -13.8141   21.8030 H   0  0  0  0  0  0
  -25.2691   -9.5715   22.4757 H   0  0  0  0  0  0
  -23.9985   -7.4607   22.7425 H   0  0  0  0  0  0
  -21.0805   -8.8722   19.8916 H   0  0  0  0  0  0
  -22.3597  -10.9648   19.6156 H   0  0  0  0  0  0
  -21.2034   -7.6131   23.9707 H   0  0  0  0  0  0
  -21.1490   -6.0493   25.9069 H   0  0  0  0  0  0
  -22.0609   -2.7582   23.2843 H   0  0  0  0  0  0
  -22.4087  -11.9817   22.4813 H   0  0  0  0  0  0
  -21.1097  -13.1215   22.2689 H   0  0  0  0  0  0
  -24.6512  -15.8387   20.5269 H   0  0  0  0  0  0
  -26.2545  -15.6287   20.0456 H   0  0  0  0  0  0
  -26.7229  -32.5394   23.1076 H   0  0  0  0  0  0
  -25.0111  -33.9678   25.0411 H   0  0  0  0  0  0
  -22.7238  -31.3007   21.3964 H   0  0  0  0  0  0
  -23.3750  -35.9602   23.3290 H   0  0  0  0  0  0
  -24.3585  -36.8905   22.2054 H   0  0  0  0  0  0
  -23.7226  -37.6467   23.6669 H   0  0  0  0  0  0
  -26.1177  -31.5269   20.6089 H   0  0  0  0  0  0
  -26.8518  -30.8155   22.0141 H   0  0  0  0  0  0
  -28.1224  -28.9250   21.2039 H   0  0  0  0  0  0
  -25.9771  -25.9115   18.9822 H   0  0  0  0  0  0
  -23.9713  -27.3069   18.9984 H   0  0  0  0  0  0
  -23.7777  -30.5875   19.4029 H   0  0  0  0  0  0
  -22.7627  -29.2499   19.8520 H   0  0  0  0  0  0
  -25.1288  -36.1904   25.0822 H   0  0  0  0  0  0
  -21.0008  -28.3284   24.1393 H   0  0  0  0  0  0
  -20.5699  -26.2325   23.3618 H   0  0  0  0  0  0
  -21.6652  -26.7450   22.1197 H   0  0  0  0  0  0
  -19.6904  -25.6298   21.1254 H   0  0  0  0  0  0
  -19.6674  -27.3198   20.6747 H   0  0  0  0  0  0
  -17.4212  -26.6716   21.4027 H   0  0  0  0  0  0
  -18.0316  -26.0087   22.9027 H   0  0  0  0  0  0
  -19.7947  -30.7309   24.2240 H   0  0  0  0  0  0
  -17.5015  -31.6268   24.5176 H   0  0  0  0  0  0
  -15.5355  -30.2972   23.7660 H   0  0  0  0  0  0
  -15.8702  -28.0821   22.7046 H   0  0  0  0  0  0
  -24.5888  -30.7099   25.7759 H   0  0  0  0  0  0
  -24.8899  -32.2928   26.4825 H   0  0  0  0  0  0
  -25.8008  -30.8942   27.0240 H   0  0  0  0  0  0
  -26.2957  -29.6727   24.1233 H   0  0  0  0  0  0
  -27.4003  -29.7258   25.4768 H   0  0  0  0  0  0
  -27.8850  -30.4245   23.9513 H   0  0  0  0  0  0
  -27.2693  -33.3625   26.2058 H   0  0  0  0  0  0
  -28.3882  -32.6857   25.0318 H   0  0  0  0  0  0
  -28.0742  -31.8448   26.5411 H   0  0  0  0  0  0
  -28.2586  -38.0100   24.7525 H   0  0  0  0  0  0
  -28.1084  -36.2629   24.6264 H   0  0  0  0  0  0
  -27.2315  -37.1420   25.8875 H   0  0  0  0  0  0
  -20.9429  -29.8769   21.6849 H   0  0  0  0  0  0
  -26.0156  -38.2842   24.1409 H   0  0  0  0  0  0
  -31.7265  -16.7987   22.1703 H   0  0  0  0  0  0
  -32.3068  -19.1143   22.6852 H   0  0  0  0  0  0
  -27.8744  -23.4979   23.7357 H   0  0  0  0  0  0
  -29.4890  -23.3707   23.1246 H   0  0  0  0  0  0
  -29.2971  -25.4707   22.3492 H   0  0  0  0  0  0
  -27.5996  -25.5263   22.7119 H   0  0  0  0  0  0
  -26.9543  -22.3820   21.7386 H   0  0  0  0  0  0
  -28.2673  -21.4195   22.3628 H   0  0  0  0  0  0
  -26.9716  -24.7352   20.5922 H   0  0  0  0  0  0
  -28.0035  -20.7530   19.5123 H   0  0  0  0  0  0
  -29.5603  -21.2799   18.9980 H   0  0  0  0  0  0
  -28.7987  -15.6587   20.4704 H   0  0  0  0  0  0
  1 25  1  0  0  0
  1 30  2  0  0  0
  1 84  1  0  0  0
  2  3  1  0  0  0
  2 25  1  0  0  0
  2 88  1  0  0  0
  2 89  1  0  0  0
  3  4  1  0  0  0
  3 90  1  0  0  0
  3 91  1  0  0  0
  4  5  1  0  0  0
  4 92  1  0  0  0
  4 93  1  0  0  0
  5  6  1  0  0  0
  5 26  1  0  0  0
  5 94  1  0  0  0
  6 25  1  0  0  0
  6 95  1  0  0  0
  6 96  1  0  0  0
  7  8  2  0  0  0
  7 26  1  0  0  0
  7 29  1  0  0  0
  8  9  1  0  0  0
  8 22  1  0  0  0
  9 10  1  0  0  0
  9 27  2  0  0  0
 10 11  2  0  0  0
 10 15  1  0  0  0
 11 12  1  0  0  0
 11 97  1  0  0  0
 12 13  2  0  0  0
 12 98  1  0  0  0
 13 14  1  0  0  0
 13 31  1  0  0  0
 14 15  2  0  0  0
 14 99  1  0  0  0
 15100  1  0  0  0
 16 17  2  0  0  0
 16 21  1  0  0  0
 16 31  1  0  0  0
 17 18  1  0  0  0
 17101  1  0  0  0
 18 19  2  0  0  0
 18102  1  0  0  0
 19 20  1  0  0  0
 19 24  1  0  0  0
 20 21  2  0  0  0
 20103  1  0  0  0
 21 23  1  0  0  0
 22 28  1  0  0  0
 22 32  2  0  0  0
 26 27  1  0  0  0
 28104  1  0  0  0
 28105  1  0  0  0
 29106  1  0  0  0
 29107  1  0  0  0
 33 34  1  0  0  0
 33 66  1  0  0  0
 33 70  2  0  0  0
 34 36  1  0  0  0
 34 59  1  0  0  0
 34108  1  0  0  0
 35 44  2  0  0  0
 35 45  1  0  0  0
 35 68  1  0  0  0
 36 56  1  0  0  0
 36109  1  0  0  0
 37 39  1  0  0  0
 37 47  1  0  0  0
 37 66  1  0  0  0
 37110  1  0  0  0
 38 43  2  0  0  0
 38 46  1  0  0  0
 38 47  1  0  0  0
 39 64  1  0  0  0
 39 67  2  0  0  0
 40 52  1  0  0  0
 40 53  2  0  0  0
 40 58  1  0  0  0
 41111  1  0  0  0
 41112  1  0  0  0
 41113  1  0  0  0
 41 48  1  0  0  0
 42 43  1  0  0  0
 42 66  1  0  0  0
 42114  1  0  0  0
 42115  1  0  0  0
 43 44  1  0  0  0
 44116  1  0  0  0
 45 46  2  0  0  0
 45117  1  0  0  0
 46118  1  0  0  0
 47119  1  0  0  0
 47120  1  0  0  0
 48 56  1  0  0  0
 48 65  1  0  0  0
 48121  1  0  0  0
 49 50  1  0  0  0
 49 53  1  0  0  0
 49 64  1  0  0  0
 49122  1  0  0  0
 50 51  1  0  0  0
 50123  1  0  0  0
 50124  1  0  0  0
 51 52  1  0  0  0
 51125  1  0  0  0
 51126  1  0  0  0
 52127  1  0  0  0
 52128  1  0  0  0
 53 54  1  0  0  0
 54 55  2  0  0  0
 54129  1  0  0  0
 55 57  1  0  0  0
 55130  1  0  0  0
 56 69  2  0  0  0
 57 58  2  0  0  0
 57131  1  0  0  0
 58132  1  0  0  0
 59 60  1  0  0  0
 59 61  1  0  0  0
 59 62  1  0  0  0
 60133  1  0  0  0
 60134  1  0  0  0
 60135  1  0  0  0
 61136  1  0  0  0
 61137  1  0  0  0
 61138  1  0  0  0
 62139  1  0  0  0
 62140  1  0  0  0
 62141  1  0  0  0
 63 65  1  0  0  0
 63142  1  0  0  0
 63143  1  0  0  0
 63144  1  0  0  0
 64145  1  0  0  0
 65146  1  0  0  0
 68 81  1  0  0  0
 71 72  2  0  0  0
 71 74  1  0  0  0
 71147  1  0  0  0
 72 75  1  0  0  0
 72148  1  0  0  0
 73 75  2  0  0  0
 73 76  1  0  0  0
 73 82  1  0  0  0
 74 76  2  0  0  0
 74 84  1  0  0  0
 75 86  1  0  0  0
 76 87  1  0  0  0
 77 81  1  0  0  0
 77 83  1  0  0  0
 77 85  2  0  0  0
 78 79  1  0  0  0
 78 80  1  0  0  0
 78149  1  0  0  0
 78150  1  0  0  0
 79 81  1  0  0  0
 79151  1  0  0  0
 79152  1  0  0  0
 80 83  1  0  0  0
 80153  1  0  0  0
 80154  1  0  0  0
 81155  1  0  0  0
 82 83  1  0  0  0
 82156  1  0  0  0
 82157  1  0  0  0
 84158  1  0  0  0
M  ISO  4   1 100  68 101  81 101  84 100
M  END
> <chiral flag>
0

> <version>
0

> <s_m_source_file>
/data/baiqing/PycharmProjects/Reinvent-master-3.2/result/LINK_invent/BTK/process_docking_weight1_custom_product_contain_oxygen_bond_distance_aromatic_linkinvent_7_9_3/rearranged_h_0047.sdf

> <i_m_source_file_index>
9

> <r_mmod_Potential_Energy-OPLS-2005>
203.262802124023

> <r_mmod_Stretch_Energy-OPLS-2005>
131.705657958984

> <r_mmod_Bend_Energy-OPLS-2005>
159.864105224609

> <r_mmod_Torsional_Energy-OPLS-2005>
274.337341308594

> <r_mmod_Improper_Torsional_Energy-OPLS-2005>
8.11015319824219

> <r_mmod_Van_der_Waal_Energy-OPLS-2005>
141.567474365234

> <r_mmod_Electrostatic_Energy-OPLS-2005>
-369.39013671875

> <r_mmod_Solvation_Energy-OPLS-2005>
-227.51969909668

> <b_mmod_Minimization_Converged-OPLS-2005>
0

> <r_mmod_RMS_Derivative-OPLS-2005>
2.26222681999207

$$$$
9
                    3D
 Structure written by MMmdl.
164173  0  0  1  0            999 V2000
  -30.6715  -14.5137   20.5171 C   0  0  0  0  0  0
  -30.4162  -12.3102   19.4403 C   0  0  0  0  0  0
  -29.5017  -12.4984   18.2131 C   0  0  0  0  0  0
  -28.0204  -12.3578   18.6159 C   0  0  0  0  0  0
  -27.6540  -13.2077   19.8643 C   0  0  2  0  0  0
  -28.6932  -13.0154   20.9937 C   0  0  0  0  0  0
  -25.2570  -13.8176   20.5671 C   0  0  0  0  0  0
  -24.1827  -13.0443   20.9176 C   0  0  0  0  0  0
  -24.6395  -11.6925   20.8732 C   0  0  0  0  0  0
  -23.9055  -10.4304   21.0417 C   0  0  0  0  0  0
  -24.3607   -9.4205   21.9189 C   0  0  0  0  0  0
  -23.6277   -8.2242   22.0766 C   0  0  0  0  0  0
  -22.4252   -8.0291   21.3562 C   0  0  0  0  0  0
  -21.9901   -9.0265   20.4658 C   0  0  0  0  0  0
  -22.7228  -10.2142   20.3063 C   0  0  0  0  0  0
  -21.6853   -6.0736   22.5284 C   0  0  0  0  0  0
  -21.4011   -6.5636   23.8218 C   0  0  0  0  0  0
  -21.3659   -5.6787   24.9185 C   0  0  0  0  0  0
  -21.6040   -4.3055   24.7229 C   0  0  0  0  0  0
  -21.8811   -3.8143   23.4351 C   0  0  0  0  0  0
  -21.9191   -4.6968   22.3399 C   0  0  0  0  0  0
  -22.7845  -13.5258   21.1822 C   0  0  0  0  0  0
  -22.1654   -4.2156   21.0986 F   0  0  0  0  0  0
  -21.5639   -3.4532   25.7740 F   0  0  0  0  0  0
  -30.0245  -13.3168   20.4416 N   0  0  0  0  0  0
  -26.2975  -12.9331   20.3290 N   0  0  0  0  0  0
  -25.9305  -11.6491   20.5707 N   0  0  0  0  0  0
  -22.0460  -12.8283   22.0393 N   0  0  0  0  0  0
  -25.4315  -15.1890   20.4139 N   0  0  0  0  0  0
  -31.8387  -14.6455   20.1347 O   0  0  0  0  0  0
  -21.6634   -6.8871   21.4246 O   0  0  0  0  0  0
  -22.3549  -14.5566   20.6674 O   0  0  0  0  0  0
  -24.6212  -31.8638   23.2058 C   0  0  0  0  0  0
  -25.9115  -32.4776   23.8321 C   0  0  1  0  0  0
  -27.2169  -27.3894   20.0982 C   0  0  0  0  0  0
  -25.5958  -33.8578   24.2257 N   0  0  0  0  0  0
  -23.4078  -30.4969   21.5406 C   0  0  2  0  0  0
  -24.8493  -28.9600   20.1107 C   0  0  0  0  0  0
  -22.7416  -29.4707   22.4879 C   0  0  0  0  0  0
  -18.0314  -28.1393   22.8510 C   0  0  0  0  0  0
  -24.1515  -36.7319   23.2624 C   0  0  0  0  0  0
  -25.9385  -30.8188   21.3669 C   0  0  0  0  0  0
  -26.0111  -29.4495   20.7177 C   0  0  0  0  0  0
  -27.1938  -28.6654   20.7203 C   0  0  0  0  0  0
  -26.0419  -26.9482   19.4522 C   0  0  0  0  0  0
  -24.8612  -27.7099   19.4766 C   0  0  0  0  0  0
  -23.6174  -29.8329   20.1558 C   0  0  0  0  0  0
  -25.4125  -36.3063   24.0295 C   0  0  1  0  0  0
  -20.5899  -28.3740   23.1273 C   0  0  2  0  0  0
  -20.6813  -26.9460   22.5422 C   0  0  0  0  0  0
  -19.5794  -26.6354   21.5244 C   0  0  0  0  0  0
  -18.1988  -26.7910   22.1679 C   0  0  0  0  0  0
  -19.1550  -28.8877   23.2893 C   0  0  0  0  0  0
  -18.9461  -30.1477   23.8905 C   0  0  0  0  0  0
  -17.6456  -30.6613   24.0546 C   0  0  0  0  0  0
  -25.9056  -34.9440   23.5050 C   0  0  0  0  0  0
  -16.5369  -29.9105   23.6310 C   0  0  0  0  0  0
  -16.7292  -28.6522   23.0335 C   0  0  0  0  0  0
  -26.4521  -31.6565   25.0674 C   0  0  0  0  0  0
  -25.3769  -31.3731   26.1412 C   0  0  0  0  0  0
  -27.0350  -30.2978   24.6105 C   0  0  0  0  0  0
  -27.6080  -32.4286   25.7482 C   0  0  0  0  0  0
  -27.5568  -37.1812   24.8440 C   0  0  0  0  0  0
  -21.4135  -29.3097   22.3621 N   0  0  0  0  0  0
  -26.4289  -37.3755   23.9388 N   0  0  0  0  0  0
  -24.6729  -31.0752   22.0952 N   0  0  0  0  0  0
  -23.4184  -28.8232   23.2915 O   0  0  0  0  0  0
  -28.3714  -26.6217   20.1482 O   0  0  0  0  0  0
  -26.5591  -34.8901   22.4601 O   0  0  0  0  0  0
  -23.5405  -32.1385   23.7445 O   0  0  0  0  0  0
  -30.9498  -18.6914   19.0171 C   0  0  0  0  0  0
  -30.2891  -19.6993   19.7387 C   0  0  0  0  0  0
  -30.8263  -17.3456   19.3982 C   0  0  0  0  0  0
  -29.5030  -19.3754   20.8637 C   0  0  0  0  0  0
  -29.3918  -18.0002   21.2647 C   0  0  0  0  0  0
  -30.0586  -16.9660   20.5287 C   0  0  0  0  0  0
  -28.7253  -22.9046   20.8591 C   0  0  0  0  0  0
  -25.8672  -22.3964   20.7380 C   0  0  0  0  0  0
  -26.3462  -23.7253   20.1548 C   0  0  0  0  0  0
  -26.8813  -21.3020   20.4108 C   0  0  0  0  0  0
  -27.7827  -24.1303   20.5787 C   0  0  2  0  0  0
  -28.5596  -17.6532   22.4951 C   0  0  0  0  0  0
  -28.8672  -20.5317   21.6715 C   0  0  0  0  0  0
  -28.3947  -25.2550   19.6536 C   0  0  0  0  0  0
  -28.2146  -21.6369   20.9227 N   0  0  0  0  0  0
  -29.9123  -15.5733   20.8913 N   0  0  0  0  0  0
  -29.9101  -23.1245   21.1284 O   0  0  0  0  0  0
  -31.4658  -12.3914   19.1557 H   0  0  0  0  0  0
  -30.2990  -11.3081   19.8535 H   0  0  0  0  0  0
  -29.7519  -11.7711   17.4410 H   0  0  0  0  0  0
  -29.6705  -13.4809   17.7715 H   0  0  0  0  0  0
  -27.8337  -11.3024   18.8178 H   0  0  0  0  0  0
  -27.3761  -12.6233   17.7772 H   0  0  0  0  0  0
  -27.6904  -14.2522   19.5496 H   0  0  0  0  0  0
  -28.6712  -11.9858   21.3571 H   0  0  0  0  0  0
  -28.4524  -13.6389   21.8567 H   0  0  0  0  0  0
  -25.2762   -9.5694   22.4759 H   0  0  0  0  0  0
  -23.9994   -7.4646   22.7503 H   0  0  0  0  0  0
  -21.0815   -8.8777   19.8967 H   0  0  0  0  0  0
  -22.3678  -10.9686   19.6166 H   0  0  0  0  0  0
  -21.1998   -7.6151   23.9722 H   0  0  0  0  0  0
  -21.1489   -6.0526   25.9086 H   0  0  0  0  0  0
  -22.0588   -2.7613   23.2852 H   0  0  0  0  0  0
  -22.4045  -11.9950   22.4801 H   0  0  0  0  0  0
  -21.1097  -13.1372   22.2564 H   0  0  0  0  0  0
  -24.6677  -15.8452   20.5337 H   0  0  0  0  0  0
  -26.2822  -15.6305   20.0878 H   0  0  0  0  0  0
  -26.7172  -32.5490   23.1077 H   0  0  0  0  0  0
  -25.0175  -33.9720   25.0431 H   0  0  0  0  0  0
  -22.6993  -31.3150   21.3982 H   0  0  0  0  0  0
  -23.3729  -35.9701   23.3277 H   0  0  0  0  0  0
  -24.3606  -36.8955   22.2040 H   0  0  0  0  0  0
  -23.7331  -37.6540   23.6653 H   0  0  0  0  0  0
  -26.0438  -31.5829   20.5964 H   0  0  0  0  0  0
  -26.8283  -30.8735   21.9801 H   0  0  0  0  0  0
  -28.0851  -29.0285   21.2111 H   0  0  0  0  0  0
  -26.0063  -26.0190   18.9106 H   0  0  0  0  0  0
  -23.9712  -27.3360   18.9913 H   0  0  0  0  0  0
  -23.7286  -30.6015   19.3885 H   0  0  0  0  0  0
  -22.7399  -29.2540   19.8632 H   0  0  0  0  0  0
  -25.1313  -36.1877   25.0774 H   0  0  0  0  0  0
  -21.0018  -28.3362   24.1386 H   0  0  0  0  0  0
  -20.5755  -26.2381   23.3665 H   0  0  0  0  0  0
  -21.6691  -26.7486   22.1224 H   0  0  0  0  0  0
  -19.6972  -25.6242   21.1351 H   0  0  0  0  0  0
  -19.6725  -27.3103   20.6737 H   0  0  0  0  0  0
  -17.4220  -26.6590   21.4132 H   0  0  0  0  0  0
  -18.0420  -26.0088   22.9114 H   0  0  0  0  0  0
  -19.7932  -30.7297   24.2261 H   0  0  0  0  0  0
  -17.5028  -31.6298   24.5143 H   0  0  0  0  0  0
  -15.5376  -30.3007   23.7612 H   0  0  0  0  0  0
  -15.8706  -28.0833   22.7021 H   0  0  0  0  0  0
  -24.5950  -30.7065   25.7746 H   0  0  0  0  0  0
  -24.8989  -32.2933   26.4779 H   0  0  0  0  0  0
  -25.8122  -30.8951   27.0199 H   0  0  0  0  0  0
  -26.2896  -29.6738   24.1166 H   0  0  0  0  0  0
  -27.4058  -29.7231   25.4598 H   0  0  0  0  0  0
  -27.8755  -30.4225   23.9287 H   0  0  0  0  0  0
  -27.2662  -33.3555   26.2107 H   0  0  0  0  0  0
  -28.3926  -32.6898   25.0364 H   0  0  0  0  0  0
  -28.0721  -31.8381   26.5398 H   0  0  0  0  0  0
  -28.2565  -38.0127   24.7460 H   0  0  0  0  0  0
  -28.1085  -36.2641   24.6291 H   0  0  0  0  0  0
  -27.2274  -37.1479   25.8843 H   0  0  0  0  0  0
  -20.9253  -29.8859   21.6894 H   0  0  0  0  0  0
  -26.0151  -38.2816   24.1391 H   0  0  0  0  0  0
  -31.5623  -18.9537   18.1634 H   0  0  0  0  0  0
  -30.4165  -20.7307   19.4358 H   0  0  0  0  0  0
  -31.3390  -16.6139   18.7907 H   0  0  0  0  0  0
  -24.8959  -22.1328   20.3205 H   0  0  0  0  0  0
  -25.7288  -22.4785   21.8181 H   0  0  0  0  0  0
  -25.6421  -24.4939   20.4692 H   0  0  0  0  0  0
  -26.2888  -23.6639   19.0685 H   0  0  0  0  0  0
  -26.9453  -21.1611   19.3312 H   0  0  0  0  0  0
  -26.5176  -20.3529   20.8095 H   0  0  0  0  0  0
  -27.6914  -24.5756   21.5701 H   0  0  0  0  0  0
  -27.5039  -17.8451   22.2984 H   0  0  0  0  0  0
  -28.8631  -18.2720   23.3405 H   0  0  0  0  0  0
  -28.6550  -16.6184   22.8163 H   0  0  0  0  0  0
  -29.6314  -20.9245   22.3445 H   0  0  0  0  0  0
  -28.1104  -20.1491   22.3530 H   0  0  0  0  0  0
  -29.4500  -25.0449   19.4877 H   0  0  0  0  0  0
  -27.9821  -25.2039   18.6467 H   0  0  0  0  0  0
  -29.0424  -15.3298   21.3400 H   0  0  0  0  0  0
  1 25  1  0  0  0
  1 30  2  0  0  0
  1 86  1  0  0  0
  2  3  1  0  0  0
  2 25  1  0  0  0
  2 88  1  0  0  0
  2 89  1  0  0  0
  3  4  1  0  0  0
  3 90  1  0  0  0
  3 91  1  0  0  0
  4  5  1  0  0  0
  4 92  1  0  0  0
  4 93  1  0  0  0
  5  6  1  0  0  0
  5 26  1  0  0  0
  5 94  1  0  0  0
  6 25  1  0  0  0
  6 95  1  0  0  0
  6 96  1  0  0  0
  7  8  2  0  0  0
  7 26  1  0  0  0
  7 29  1  0  0  0
  8  9  1  0  0  0
  8 22  1  0  0  0
  9 10  1  0  0  0
  9 27  2  0  0  0
 10 11  2  0  0  0
 10 15  1  0  0  0
 11 12  1  0  0  0
 11 97  1  0  0  0
 12 13  2  0  0  0
 12 98  1  0  0  0
 13 14  1  0  0  0
 13 31  1  0  0  0
 14 15  2  0  0  0
 14 99  1  0  0  0
 15100  1  0  0  0
 16 17  2  0  0  0
 16 21  1  0  0  0
 16 31  1  0  0  0
 17 18  1  0  0  0
 17101  1  0  0  0
 18 19  2  0  0  0
 18102  1  0  0  0
 19 20  1  0  0  0
 19 24  1  0  0  0
 20 21  2  0  0  0
 20103  1  0  0  0
 21 23  1  0  0  0
 22 28  1  0  0  0
 22 32  2  0  0  0
 26 27  1  0  0  0
 28104  1  0  0  0
 28105  1  0  0  0
 29106  1  0  0  0
 29107  1  0  0  0
 33 34  1  0  0  0
 33 66  1  0  0  0
 33 70  2  0  0  0
 34 36  1  0  0  0
 34 59  1  0  0  0
 34108  1  0  0  0
 35 44  2  0  0  0
 35 45  1  0  0  0
 35 68  1  0  0  0
 36 56  1  0  0  0
 36109  1  0  0  0
 37 39  1  0  0  0
 37 47  1  0  0  0
 37 66  1  0  0  0
 37110  1  0  0  0
 38 43  2  0  0  0
 38 46  1  0  0  0
 38 47  1  0  0  0
 39 64  1  0  0  0
 39 67  2  0  0  0
 40 52  1  0  0  0
 40 53  2  0  0  0
 40 58  1  0  0  0
 41111  1  0  0  0
 41112  1  0  0  0
 41113  1  0  0  0
 41 48  1  0  0  0
 42 43  1  0  0  0
 42 66  1  0  0  0
 42114  1  0  0  0
 42115  1  0  0  0
 43 44  1  0  0  0
 44116  1  0  0  0
 45 46  2  0  0  0
 45117  1  0  0  0
 46118  1  0  0  0
 47119  1  0  0  0
 47120  1  0  0  0
 48 56  1  0  0  0
 48 65  1  0  0  0
 48121  1  0  0  0
 49 50  1  0  0  0
 49 53  1  0  0  0
 49 64  1  0  0  0
 49122  1  0  0  0
 50 51  1  0  0  0
 50123  1  0  0  0
 50124  1  0  0  0
 51 52  1  0  0  0
 51125  1  0  0  0
 51126  1  0  0  0
 52127  1  0  0  0
 52128  1  0  0  0
 53 54  1  0  0  0
 54 55  2  0  0  0
 54129  1  0  0  0
 55 57  1  0  0  0
 55130  1  0  0  0
 56 69  2  0  0  0
 57 58  2  0  0  0
 57131  1  0  0  0
 58132  1  0  0  0
 59 60  1  0  0  0
 59 61  1  0  0  0
 59 62  1  0  0  0
 60133  1  0  0  0
 60134  1  0  0  0
 60135  1  0  0  0
 61136  1  0  0  0
 61137  1  0  0  0
 61138  1  0  0  0
 62139  1  0  0  0
 62140  1  0  0  0
 62141  1  0  0  0
 63 65  1  0  0  0
 63142  1  0  0  0
 63143  1  0  0  0
 63144  1  0  0  0
 64145  1  0  0  0
 65146  1  0  0  0
 68 84  1  0  0  0
 71 72  2  0  0  0
 71 73  1  0  0  0
 71147  1  0  0  0
 72 74  1  0  0  0
 72148  1  0  0  0
 73 76  2  0  0  0
 73149  1  0  0  0
 74 75  2  0  0  0
 74 83  1  0  0  0
 75 76  1  0  0  0
 75 82  1  0  0  0
 76 86  1  0  0  0
 77 81  1  0  0  0
 77 85  1  0  0  0
 77 87  2  0  0  0
 78 79  1  0  0  0
 78 80  1  0  0  0
 78150  1  0  0  0
 78151  1  0  0  0
 79 81  1  0  0  0
 79152  1  0  0  0
 79153  1  0  0  0
 80 85  1  0  0  0
 80154  1  0  0  0
 80155  1  0  0  0
 81 84  1  0  0  0
 81156  1  0  0  0
 82157  1  0  0  0
 82158  1  0  0  0
 82159  1  0  0  0
 83 85  1  0  0  0
 83160  1  0  0  0
 83161  1  0  0  0
 84162  1  0  0  0
 84163  1  0  0  0
 86164  1  0  0  0
M  ISO  4   1 100  68 101  84 101  86 100
M  END
> <chiral flag>
0

> <version>
0

> <s_m_source_file>
/data/baiqing/PycharmProjects/Reinvent-master-3.2/result/LINK_invent/BTK/process_docking_weight1_custom_product_contain_oxygen_bond_distance_aromatic_linkinvent_7_9_3/rearranged_h_0047.sdf

> <i_m_source_file_index>
10

> <r_mmod_Potential_Energy-OPLS-2005>
18.1315670013428

> <r_mmod_Stretch_Energy-OPLS-2005>
56.5560989379883

> <r_mmod_Bend_Energy-OPLS-2005>
122.861175537109

> <r_mmod_Torsional_Energy-OPLS-2005>
241.167419433594

> <r_mmod_Improper_Torsional_Energy-OPLS-2005>
5.3214259147644

> <r_mmod_Van_der_Waal_Energy-OPLS-2005>
171.265884399414

> <r_mmod_Electrostatic_Energy-OPLS-2005>
-375.763458251953

> <r_mmod_Solvation_Energy-OPLS-2005>
-225.708938598633

> <b_mmod_Minimization_Converged-OPLS-2005>
0

> <r_mmod_RMS_Derivative-OPLS-2005>
4.53924131393433

$$$$
10
                    3D
 Structure written by MMmdl.
161170  0  0  1  0            999 V2000
  -29.6444  -14.4404   19.5220 C   0  0  0  0  0  0
  -30.4195  -12.2159   19.4009 C   0  0  0  0  0  0
  -29.3496  -11.7587   18.3839 C   0  0  0  0  0  0
  -27.9718  -11.4693   19.1909 C   0  0  0  0  0  0
  -27.6501  -12.4700   20.4250 C   0  0  2  0  0  0
  -28.8824  -12.8774   21.2023 C   0  0  0  0  0  0
  -24.9705  -14.7428   20.2132 C   0  0  0  0  0  0
  -24.3352  -14.3781   20.5027 C   0  0  0  0  0  0
  -25.3945  -12.4235   21.0611 C   0  0  0  0  0  0
  -24.7047  -10.6605   21.1136 C   0  0  0  0  0  0
  -24.6600   -9.6974   22.1980 C   0  0  0  0  0  0
  -23.8100   -8.5073   22.3232 C   0  0  0  0  0  0
  -22.7475   -8.1751   21.4333 C   0  0  0  0  0  0
  -22.7001   -9.0399   20.3364 C   0  0  0  0  0  0
  -23.7253  -10.0383   20.1428 C   0  0  0  0  0  0
  -21.7872   -6.1790   22.5401 C   0  0  0  0  0  0
  -21.4631   -6.6179   23.8419 C   0  0  0  0  0  0
  -21.3764   -5.7034   24.9128 C   0  0  0  0  0  0
  -21.5979   -4.3313   24.6952 C   0  0  0  0  0  0
  -21.8714   -3.8714   23.3952 C   0  0  0  0  0  0
  -21.9513   -4.7834   22.3216 C   0  0  0  0  0  0
  -22.7062  -14.8805   20.7226 C   0  0  0  0  0  0
  -22.1852   -4.3002   21.0764 F   0  0  0  0  0  0
  -21.5449   -3.4597   25.7318 F   0  0  0  0  0  0
  -29.8151  -13.2918   20.1896 N   0  0  0  0  0  0
  -26.1525  -13.1793   20.8591 N   0  0  0  0  0  0
  -26.2526  -12.3870   21.8487 N   0  0  0  0  0  0
  -21.8127  -14.2235   21.5680 N   0  0  0  0  0  0
  -24.9524  -16.0058   19.5658 N   0  0  0  0  0  0
  -30.7227  -15.0965   19.5039 O   0  0  0  0  0  0
  -21.8590   -7.0828   21.4877 O   0  0  0  0  0  0
  -22.1655  -15.6263   19.9805 O   0  0  0  0  0  0
  -24.7078  -31.7645   23.1398 C   0  0  0  0  0  0
  -25.9576  -32.4250   23.7985 C   0  0  1  0  0  0
  -26.6918  -26.1180   20.5898 C   0  0  0  0  0  0
  -25.6064  -33.8133   24.1781 N   0  0  0  0  0  0
  -23.5300  -30.3792   21.4945 C   0  0  2  0  0  0
  -24.9209  -28.6315   20.1294 C   0  0  0  0  0  0
  -22.7771  -29.4175   22.4557 C   0  0  0  0  0  0
  -18.0316  -28.1426   22.8424 C   0  0  0  0  0  0
  -24.1492  -36.7047   23.2658 C   0  0  0  0  0  0
  -26.1070  -30.2999   21.5024 C   0  0  0  0  0  0
  -26.0673  -28.8107   20.9032 C   0  0  0  0  0  0
  -26.9554  -27.5842   21.0889 C   0  0  0  0  0  0
  -25.7007  -26.3070   19.5894 C   0  0  0  0  0  0
  -24.8311  -27.4310   19.4091 C   0  0  0  0  0  0
  -23.7988  -29.6891   20.1192 C   0  0  0  0  0  0
  -25.4167  -36.2785   24.0252 C   0  0  1  0  0  0
  -20.5961  -28.3797   23.1070 C   0  0  2  0  0  0
  -20.6775  -26.9435   22.5383 C   0  0  0  0  0  0
  -19.5761  -26.6346   21.5197 C   0  0  0  0  0  0
  -18.1942  -26.7944   22.1593 C   0  0  0  0  0  0
  -19.1590  -28.8931   23.2736 C   0  0  0  0  0  0
  -18.9511  -30.1509   23.8795 C   0  0  0  0  0  0
  -17.6510  -30.6614   24.0540 C   0  0  0  0  0  0
  -25.9175  -34.9184   23.4863 C   0  0  0  0  0  0
  -16.5393  -29.9099   23.6353 C   0  0  0  0  0  0
  -16.7299  -28.6515   23.0372 C   0  0  0  0  0  0
  -26.4656  -31.6503   25.0799 C   0  0  0  0  0  0
  -25.3650  -31.3990   26.1378 C   0  0  0  0  0  0
  -27.0691  -30.2786   24.7101 C   0  0  0  0  0  0
  -27.6001  -32.4519   25.7601 C   0  0  0  0  0  0
  -27.5555  -37.1688   24.8462 C   0  0  0  0  0  0
  -21.4403  -29.3021   22.3328 N   0  0  0  0  0  0
  -26.4253  -37.3596   23.9412 N   0  0  0  0  0  0
  -24.8131  -30.8698   22.0899 N   0  0  0  0  0  0
  -23.4110  -28.7768   23.2983 O   0  0  0  0  0  0
  -27.1684  -24.5509   20.8872 O   0  0  0  0  0  0
  -26.5845  -34.8816   22.4502 O   0  0  0  0  0  0
  -23.6060  -32.1021   23.6091 O   0  0  0  0  0  0
  -23.3433  -12.5142   20.4168 C   0  0  0  0  0  0
  -24.9900  -12.9412   18.7973 C   0  0  0  0  0  0
  -27.0758  -15.2907   20.7890 C   0  0  0  0  0  0
  -24.1789  -13.6940   22.5219 C   0  0  0  0  0  0
  -25.7937  -15.2688   22.2758 C   0  0  0  0  0  0
  -26.8021  -14.3393   19.0221 C   0  0  0  0  0  0
  -26.8172  -20.7518   21.7161 C   0  0  0  0  0  0
  -24.5565  -20.9466   20.3022 C   0  0  0  0  0  0
  -25.0035  -22.4553   20.6132 C   0  0  0  0  0  0
  -24.6826  -19.7454   21.3674 C   0  0  0  0  0  0
  -26.4088  -22.7149   21.2415 C   0  0  2  0  0  0
  -25.9120  -17.3663   22.4893 C   0  0  0  0  0  0
  -23.4807  -13.5485   23.8624 C   0  0  0  0  0  0
  -26.0331  -19.2655   21.7876 N   0  0  0  0  0  0
  -28.3786  -14.5735   18.6971 N   0  0  0  0  0  0
  -27.9889  -20.6559   22.0926 O   0  0  0  0  0  0
  -24.3498  -13.1260   24.7794 F   0  0  0  0  0  0
  -22.9738  -14.7157   24.2578 F   0  0  0  0  0  0
  -22.5007  -12.6525   23.7554 F   0  0  0  0  0  0
  -31.3298  -12.5392   18.8924 H   0  0  0  0  0  0
  -30.7066  -11.3880   20.0501 H   0  0  0  0  0  0
  -29.6793  -10.8414   17.8946 H   0  0  0  0  0  0
  -29.2095  -12.4705   17.5701 H   0  0  0  0  0  0
  -28.1253  -10.5031   19.6779 H   0  0  0  0  0  0
  -27.1373  -11.2208   18.5031 H   0  0  0  0  0  0
  -27.7985  -12.6157   19.4571 H   0  0  0  0  0  0
  -29.2714  -12.0262   21.7613 H   0  0  0  0  0  0
  -28.7041  -13.6647   21.9340 H   0  0  0  0  0  0
  -25.3123   -9.9075   23.0342 H   0  0  0  0  0  0
  -23.9468   -7.8929   23.2012 H   0  0  0  0  0  0
  -21.9898   -8.8447   19.5449 H   0  0  0  0  0  0
  -23.6609  -10.4908   19.1615 H   0  0  0  0  0  0
  -21.2949   -7.6692   24.0243 H   0  0  0  0  0  0
  -21.1486   -6.0587   25.9070 H   0  0  0  0  0  0
  -22.0200   -2.8174   23.2158 H   0  0  0  0  0  0
  -22.0644  -13.4310   22.1383 H   0  0  0  0  0  0
  -20.8478  -14.5223   21.5633 H   0  0  0  0  0  0
  -24.0879  -16.4848   19.3394 H   0  0  0  0  0  0
  -25.7802  -16.4675   19.2155 H   0  0  0  0  0  0
  -26.7658  -32.4535   23.0664 H   0  0  0  0  0  0
  -25.0165  -33.9144   24.9900 H   0  0  0  0  0  0
  -22.8802  -31.2358   21.3014 H   0  0  0  0  0  0
  -23.3807  -35.9319   23.3250 H   0  0  0  0  0  0
  -24.3533  -36.8814   22.2086 H   0  0  0  0  0  0
  -23.7191  -37.6164   23.6816 H   0  0  0  0  0  0
  -26.3965  -30.9641   20.6865 H   0  0  0  0  0  0
  -26.9431  -30.3527   22.1825 H   0  0  0  0  0  0
  -27.7717  -27.7048   21.7872 H   0  0  0  0  0  0
  -25.4381  -25.4271   19.0188 H   0  0  0  0  0  0
  -24.0061  -27.3086   18.7206 H   0  0  0  0  0  0
  -24.0708  -30.4507   19.3875 H   0  0  0  0  0  0
  -22.8801  -29.2392   19.7394 H   0  0  0  0  0  0
  -25.1395  -36.1515   25.0744 H   0  0  0  0  0  0
  -21.0055  -28.3460   24.1198 H   0  0  0  0  0  0
  -20.5601  -26.2453   23.3677 H   0  0  0  0  0  0
  -21.6647  -26.7333   22.1246 H   0  0  0  0  0  0
  -19.6951  -25.6226   21.1315 H   0  0  0  0  0  0
  -19.6732  -27.3076   20.6668 H   0  0  0  0  0  0
  -17.4220  -26.6657   21.3998 H   0  0  0  0  0  0
  -18.0347  -26.0098   22.9000 H   0  0  0  0  0  0
  -19.7997  -30.7323   24.2141 H   0  0  0  0  0  0
  -17.5075  -31.6285   24.5164 H   0  0  0  0  0  0
  -15.5400  -30.2996   23.7743 H   0  0  0  0  0  0
  -15.8675  -28.0815   22.7178 H   0  0  0  0  0  0
  -24.5809  -30.7348   25.7739 H   0  0  0  0  0  0
  -24.8892  -32.3293   26.4492 H   0  0  0  0  0  0
  -25.7785  -30.9384   27.0360 H   0  0  0  0  0  0
  -26.3478  -29.6151   24.2325 H   0  0  0  0  0  0
  -27.4100  -29.7565   25.6054 H   0  0  0  0  0  0
  -27.9477  -30.3807   24.0723 H   0  0  0  0  0  0
  -27.2426  -33.3904   26.1845 H   0  0  0  0  0  0
  -28.3955  -32.6950   25.0552 H   0  0  0  0  0  0
  -28.0510  -31.8929   26.5805 H   0  0  0  0  0  0
  -28.2516  -38.0035   24.7550 H   0  0  0  0  0  0
  -28.1110  -36.2562   24.6257 H   0  0  0  0  0  0
  -27.2269  -37.1276   25.8859 H   0  0  0  0  0  0
  -20.9726  -29.8697   21.6389 H   0  0  0  0  0  0
  -26.0053  -38.2623   24.1461 H   0  0  0  0  0  0
  -22.4164  -11.9557   20.3354 H   0  0  0  0  0  0
  -24.9135  -12.3885   17.8713 H   0  0  0  0  0  0
  -27.8446  -16.0501   20.8353 H   0  0  0  0  0  0
  -25.0584  -20.6291   19.3877 H   0  0  0  0  0  0
  -23.5009  -21.0016   20.0295 H   0  0  0  0  0  0
  -24.2564  -22.9078   21.2668 H   0  0  0  0  0  0
  -24.9431  -23.0188   19.6836 H   0  0  0  0  0  0
  -24.1583  -18.8794   20.9617 H   0  0  0  0  0  0
  -24.1343  -20.0199   22.2717 H   0  0  0  0  0  0
  -26.1667  -22.9645   22.2751 H   0  0  0  0  0  0
  -26.7892  -17.3947   23.1369 H   0  0  0  0  0  0
  -25.0864  -17.5067   23.1880 H   0  0  0  0  0  0
  -28.5139  -15.2390   17.9484 H   0  0  0  0  0  0
  1 25  1  0  0  0
  1 30  2  0  0  0
  1 85  1  0  0  0
  2  3  1  0  0  0
  2 25  1  0  0  0
  2 90  1  0  0  0
  2 91  1  0  0  0
  3  4  1  0  0  0
  3 92  1  0  0  0
  3 93  1  0  0  0
  4  5  1  0  0  0
  4 94  1  0  0  0
  4 95  1  0  0  0
  5  6  1  0  0  0
  5 26  1  0  0  0
  5 96  1  0  0  0
  6 25  1  0  0  0
  6 97  1  0  0  0
  6 98  1  0  0  0
  7  8  2  0  0  0
  7 26  1  0  0  0
  7 29  1  0  0  0
  8  9  1  0  0  0
  8 22  1  0  0  0
  9 10  1  0  0  0
  9 27  2  0  0  0
 10 11  2  0  0  0
 10 15  1  0  0  0
 11 12  1  0  0  0
 11 99  1  0  0  0
 12 13  2  0  0  0
 12100  1  0  0  0
 13 14  1  0  0  0
 13 31  1  0  0  0
 14 15  2  0  0  0
 14101  1  0  0  0
 15102  1  0  0  0
 16 17  2  0  0  0
 16 21  1  0  0  0
 16 31  1  0  0  0
 17 18  1  0  0  0
 17103  1  0  0  0
 18 19  2  0  0  0
 18104  1  0  0  0
 19 20  1  0  0  0
 19 24  1  0  0  0
 20 21  2  0  0  0
 20105  1  0  0  0
 21 23  1  0  0  0
 22 28  1  0  0  0
 22 32  2  0  0  0
 26 27  1  0  0  0
 28106  1  0  0  0
 28107  1  0  0  0
 29108  1  0  0  0
 29109  1  0  0  0
 33 34  1  0  0  0
 33 66  1  0  0  0
 33 70  2  0  0  0
 34 36  1  0  0  0
 34 59  1  0  0  0
 34110  1  0  0  0
 35 44  2  0  0  0
 35 45  1  0  0  0
 35 68  1  0  0  0
 36 56  1  0  0  0
 36111  1  0  0  0
 37 39  1  0  0  0
 37 47  1  0  0  0
 37 66  1  0  0  0
 37112  1  0  0  0
 38 43  2  0  0  0
 38 46  1  0  0  0
 38 47  1  0  0  0
 39 64  1  0  0  0
 39 67  2  0  0  0
 40 52  1  0  0  0
 40 53  2  0  0  0
 40 58  1  0  0  0
 41113  1  0  0  0
 41114  1  0  0  0
 41115  1  0  0  0
 41 48  1  0  0  0
 42 43  1  0  0  0
 42 66  1  0  0  0
 42116  1  0  0  0
 42117  1  0  0  0
 43 44  1  0  0  0
 44118  1  0  0  0
 45 46  2  0  0  0
 45119  1  0  0  0
 46120  1  0  0  0
 47121  1  0  0  0
 47122  1  0  0  0
 48 56  1  0  0  0
 48 65  1  0  0  0
 48123  1  0  0  0
 49 50  1  0  0  0
 49 53  1  0  0  0
 49 64  1  0  0  0
 49124  1  0  0  0
 50 51  1  0  0  0
 50125  1  0  0  0
 50126  1  0  0  0
 51 52  1  0  0  0
 51127  1  0  0  0
 51128  1  0  0  0
 52129  1  0  0  0
 52130  1  0  0  0
 53 54  1  0  0  0
 54 55  2  0  0  0
 54131  1  0  0  0
 55 57  1  0  0  0
 55132  1  0  0  0
 56 69  2  0  0  0
 57 58  2  0  0  0
 57133  1  0  0  0
 58134  1  0  0  0
 59 60  1  0  0  0
 59 61  1  0  0  0
 59 62  1  0  0  0
 60135  1  0  0  0
 60136  1  0  0  0
 60137  1  0  0  0
 61138  1  0  0  0
 61139  1  0  0  0
 61140  1  0  0  0
 62141  1  0  0  0
 62142  1  0  0  0
 62143  1  0  0  0
 63 65  1  0  0  0
 63144  1  0  0  0
 63145  1  0  0  0
 63146  1  0  0  0
 64147  1  0  0  0
 65148  1  0  0  0
 68 81  1  0  0  0
 71 72  2  0  0  0
 71 74  1  0  0  0
 71149  1  0  0  0
 72 76  1  0  0  0
 72150  1  0  0  0
 73 75  1  0  0  0
 73 76  2  0  0  0
 73151  1  0  0  0
 74 75  2  0  0  0
 74 83  1  0  0  0
 75 82  1  0  0  0
 76 85  1  0  0  0
 77 81  1  0  0  0
 77 84  1  0  0  0
 77 86  2  0  0  0
 78 79  1  0  0  0
 78 80  1  0  0  0
 78152  1  0  0  0
 78153  1  0  0  0
 79 81  1  0  0  0
 79154  1  0  0  0
 79155  1  0  0  0
 80 84  1  0  0  0
 80156  1  0  0  0
 80157  1  0  0  0
 81158  1  0  0  0
 82 84  1  0  0  0
 82159  1  0  0  0
 82160  1  0  0  0
 83 87  1  0  0  0
 83 88  1  0  0  0
 83 89  1  0  0  0
 85161  1  0  0  0
M  ISO  4   1 100  68 101  81 101  85 100
M  END
> <chiral flag>
0

> <version>
0

> <s_m_source_file>
/data/baiqing/PycharmProjects/Reinvent-master-3.2/result/LINK_invent/BTK/process_docking_weight1_custom_product_contain_oxygen_bond_distance_aromatic_linkinvent_7_9_3/rearranged_h_0047.sdf

> <i_m_source_file_index>
11

> <r_mmod_Potential_Energy-OPLS-2005>
26022.560546875

> <r_mmod_Stretch_Energy-OPLS-2005>
15084.47265625

> <r_mmod_Bend_Energy-OPLS-2005>
2104.03833007812

> <r_mmod_Torsional_Energy-OPLS-2005>
710.161926269531

> <r_mmod_Improper_Torsional_Energy-OPLS-2005>
52.3794822692871

> <r_mmod_Van_der_Waal_Energy-OPLS-2005>
4868.2099609375

> <r_mmod_Electrostatic_Energy-OPLS-2005>
-314.430023193359

> <r_mmod_Solvation_Energy-OPLS-2005>
-233.876724243164

> <b_mmod_Minimization_Converged-OPLS-2005>
0

> <r_mmod_RMS_Derivative-OPLS-2005>
6.2209415435791

$$$$
11
                    3D
 Structure written by MMmdl.
174183  0  0  1  0            999 V2000
  -30.7970  -14.3509   20.7387 C   0  0  0  0  0  0
  -30.4035  -12.2946   19.4243 C   0  0  0  0  0  0
  -29.4909  -12.5444   18.2064 C   0  0  0  0  0  0
  -28.0106  -12.3909   18.5959 C   0  0  0  0  0  0
  -27.6623  -13.2001   19.8677 C   0  0  2  0  0  0
  -28.6838  -12.9180   20.9853 C   0  0  0  0  0  0
  -25.2584  -13.8138   20.5576 C   0  0  0  0  0  0
  -24.1839  -13.0430   20.9114 C   0  0  0  0  0  0
  -24.6374  -11.6902   20.8677 C   0  0  0  0  0  0
  -23.9045  -10.4294   21.0387 C   0  0  0  0  0  0
  -24.3606   -9.4230   21.9174 C   0  0  0  0  0  0
  -23.6296   -8.2261   22.0766 C   0  0  0  0  0  0
  -22.4274   -8.0281   21.3558 C   0  0  0  0  0  0
  -21.9902   -9.0245   20.4651 C   0  0  0  0  0  0
  -22.7218  -10.2125   20.3046 C   0  0  0  0  0  0
  -21.6857   -6.0734   22.5279 C   0  0  0  0  0  0
  -21.4006   -6.5637   23.8213 C   0  0  0  0  0  0
  -21.3663   -5.6793   24.9170 C   0  0  0  0  0  0
  -21.6054   -4.3059   24.7223 C   0  0  0  0  0  0
  -21.8824   -3.8142   23.4343 C   0  0  0  0  0  0
  -21.9191   -4.6965   22.3399 C   0  0  0  0  0  0
  -22.7876  -13.5242   21.1821 C   0  0  0  0  0  0
  -22.1660   -4.2151   21.0979 F   0  0  0  0  0  0
  -21.5642   -3.4539   25.7738 F   0  0  0  0  0  0
  -30.0447  -13.2300   20.5140 N   0  0  0  0  0  0
  -26.3003  -12.9301   20.3225 N   0  0  0  0  0  0
  -25.9281  -11.6465   20.5641 N   0  0  0  0  0  0
  -22.0530  -12.8220   22.0380 N   0  0  0  0  0  0
  -25.4313  -15.1840   20.3988 N   0  0  0  0  0  0
  -31.7034  -14.6465   19.9507 O   0  0  0  0  0  0
  -21.6655   -6.8870   21.4244 O   0  0  0  0  0  0
  -22.3544  -14.5552   20.6695 O   0  0  0  0  0  0
  -24.6119  -31.8719   23.2123 C   0  0  0  0  0  0
  -25.9026  -32.4842   23.8412 C   0  0  1  0  0  0
  -27.2392  -27.4703   20.0934 C   0  0  0  0  0  0
  -25.5905  -33.8633   24.2358 N   0  0  0  0  0  0
  -23.3975  -30.4948   21.5533 C   0  0  2  0  0  0
  -24.8455  -28.9600   20.1203 C   0  0  0  0  0  0
  -22.7402  -29.4689   22.5028 C   0  0  0  0  0  0
  -18.0270  -28.1356   22.8511 C   0  0  0  0  0  0
  -24.1485  -36.7302   23.2641 C   0  0  0  0  0  0
  -25.9197  -30.8524   21.3534 C   0  0  0  0  0  0
  -26.0033  -29.4851   20.7079 C   0  0  0  0  0  0
  -27.2055  -28.7473   20.6903 C   0  0  0  0  0  0
  -26.0673  -26.9467   19.5079 C   0  0  0  0  0  0
  -24.8698  -27.6877   19.5208 C   0  0  0  0  0  0
  -23.6035  -29.8214   20.1697 C   0  0  0  0  0  0
  -25.4110  -36.3119   24.0351 C   0  0  1  0  0  0
  -20.5865  -28.3646   23.1340 C   0  0  2  0  0  0
  -20.6769  -26.9390   22.5425 C   0  0  0  0  0  0
  -19.5743  -26.6378   21.5228 C   0  0  0  0  0  0
  -18.1906  -26.7913   22.1619 C   0  0  0  0  0  0
  -19.1518  -28.8823   23.2912 C   0  0  0  0  0  0
  -18.9449  -30.1431   23.8916 C   0  0  0  0  0  0
  -17.6451  -30.6573   24.0570 C   0  0  0  0  0  0
  -25.9038  -34.9480   23.5150 C   0  0  0  0  0  0
  -16.5347  -29.9071   23.6329 C   0  0  0  0  0  0
  -16.7263  -28.6481   23.0364 C   0  0  0  0  0  0
  -26.4462  -31.6601   25.0721 C   0  0  0  0  0  0
  -25.3715  -31.3637   26.1457 C   0  0  0  0  0  0
  -27.0325  -30.3092   24.6006 C   0  0  0  0  0  0
  -27.6070  -32.4297   25.7468 C   0  0  0  0  0  0
  -27.5577  -37.1803   24.8468 C   0  0  0  0  0  0
  -21.4135  -29.3024   22.3758 N   0  0  0  0  0  0
  -26.4293  -37.3804   23.9411 N   0  0  0  0  0  0
  -24.6620  -31.0846   22.0999 N   0  0  0  0  0  0
  -23.4195  -28.8255   23.3072 O   0  0  0  0  0  0
  -28.4167  -26.7638   20.0751 O   0  0  0  0  0  0
  -26.5576  -34.8919   22.4698 O   0  0  0  0  0  0
  -23.5331  -32.1459   23.7545 O   0  0  0  0  0  0
  -32.3057  -19.0074   21.0026 C   0  0  0  0  0  0
  -32.4482  -19.7960   22.1579 C   0  0  0  0  0  0
  -32.1921  -17.6089   21.1157 C   0  0  0  0  0  0
  -26.2740  -20.8248   20.7683 C   0  0  0  0  0  0
  -25.6378  -19.8463   21.5562 C   0  0  0  0  0  0
  -32.4828  -19.1822   23.4241 C   0  0  0  0  0  0
  -28.3992  -19.6809   21.0782 C   0  0  0  0  0  0
  -27.7689  -18.6892   21.8588 C   0  0  0  0  0  0
  -27.6606  -20.7493   20.5294 C   0  0  0  0  0  0
  -26.3794  -18.7857   22.1182 C   0  0  0  0  0  0
  -32.2216  -16.9813   22.3828 C   0  0  0  0  0  0
  -32.3735  -17.7826   23.5381 C   0  0  0  0  0  0
  -28.6099  -17.6735   22.4999 C   0  0  0  0  0  0
  -28.7810  -16.4109   22.0692 C   0  0  0  0  0  0
  -28.3856  -24.3161   19.8370 C   0  0  0  0  0  0
  -25.6761  -17.7841   23.0200 C   0  0  0  0  0  0
  -28.3583  -21.8268   19.7160 C   0  0  0  0  0  0
  -32.0831  -15.4599   22.5064 C   0  0  0  0  0  0
  -29.6688  -15.4081   22.7941 C   0  0  0  0  0  0
  -28.3932  -25.5234   20.7900 C   0  0  0  0  0  0
  -28.3523  -23.1079   20.4128 N   0  0  0  0  0  0
  -30.8078  -14.9131   21.9871 N   0  0  0  0  0  0
  -28.4182  -24.4699   18.6130 O   0  0  0  0  0  0
  -32.4068  -17.2144   24.7673 F   0  0  0  0  0  0
  -31.4517  -12.3715   19.1290 H   0  0  0  0  0  0
  -30.2850  -11.2671   19.7719 H   0  0  0  0  0  0
  -29.7376  -11.8534   17.3992 H   0  0  0  0  0  0
  -29.6637  -13.5490   17.8173 H   0  0  0  0  0  0
  -27.8135  -11.3305   18.7610 H   0  0  0  0  0  0
  -27.3671  -12.6951   17.7693 H   0  0  0  0  0  0
  -27.7256  -14.2564   19.6089 H   0  0  0  0  0  0
  -28.6431  -11.8643   21.2672 H   0  0  0  0  0  0
  -28.3568  -13.4414   21.8665 H   0  0  0  0  0  0
  -25.2758   -9.5729   22.4727 H   0  0  0  0  0  0
  -24.0027   -7.4661   22.7488 H   0  0  0  0  0  0
  -21.0839   -8.8741   19.8943 H   0  0  0  0  0  0
  -22.3678  -10.9652   19.6140 H   0  0  0  0  0  0
  -21.1988   -7.6145   23.9711 H   0  0  0  0  0  0
  -21.1479   -6.0525   25.9080 H   0  0  0  0  0  0
  -22.0595   -2.7605   23.2842 H   0  0  0  0  0  0
  -22.4138  -11.9857   22.4732 H   0  0  0  0  0  0
  -21.1154  -13.1246   22.2604 H   0  0  0  0  0  0
  -24.6748  -15.8416   20.5493 H   0  0  0  0  0  0
  -26.2940  -15.6306   20.1228 H   0  0  0  0  0  0
  -26.7110  -32.5585   23.1195 H   0  0  0  0  0  0
  -25.0146  -33.9808   25.0568 H   0  0  0  0  0  0
  -22.6848  -31.3101   21.4130 H   0  0  0  0  0  0
  -23.3758  -35.9617   23.3322 H   0  0  0  0  0  0
  -24.3585  -36.8914   22.2055 H   0  0  0  0  0  0
  -23.7228  -37.6506   23.6653 H   0  0  0  0  0  0
  -26.0102  -31.6140   20.5788 H   0  0  0  0  0  0
  -26.8158  -30.9241   21.9574 H   0  0  0  0  0  0
  -28.1043  -29.1508   21.1345 H   0  0  0  0  0  0
  -26.0824  -25.9753   19.0350 H   0  0  0  0  0  0
  -23.9760  -27.2785   19.0704 H   0  0  0  0  0  0
  -23.7001  -30.5935   19.4060 H   0  0  0  0  0  0
  -22.7278  -29.2349   19.8825 H   0  0  0  0  0  0
  -25.1276  -36.2001   25.0847 H   0  0  0  0  0  0
  -20.9951  -28.3218   24.1467 H   0  0  0  0  0  0
  -20.5707  -26.2251   23.3603 H   0  0  0  0  0  0
  -21.6631  -26.7462   22.1190 H   0  0  0  0  0  0
  -19.6916  -25.6305   21.1228 H   0  0  0  0  0  0
  -19.6689  -27.3210   20.6777 H   0  0  0  0  0  0
  -17.4199  -26.6710   21.3987 H   0  0  0  0  0  0
  -18.0260  -26.0018   22.8976 H   0  0  0  0  0  0
  -19.7926  -30.7234   24.2291 H   0  0  0  0  0  0
  -17.5007  -31.6261   24.5153 H   0  0  0  0  0  0
  -15.5343  -30.2975   23.7644 H   0  0  0  0  0  0
  -15.8661  -28.0807   22.7080 H   0  0  0  0  0  0
  -24.5970  -30.6899   25.7771 H   0  0  0  0  0  0
  -24.8774  -32.2734   26.4876 H   0  0  0  0  0  0
  -25.8061  -30.8856   27.0242 H   0  0  0  0  0  0
  -26.2860  -29.6805   24.1139 H   0  0  0  0  0  0
  -27.4289  -29.7356   25.4389 H   0  0  0  0  0  0
  -27.8577  -30.4498   23.9018 H   0  0  0  0  0  0
  -27.2772  -33.3641   26.2004 H   0  0  0  0  0  0
  -28.3888  -32.6773   25.0279 H   0  0  0  0  0  0
  -28.0699  -31.8414   26.5397 H   0  0  0  0  0  0
  -28.2598  -38.0096   24.7554 H   0  0  0  0  0  0
  -28.1069  -36.2644   24.6261 H   0  0  0  0  0  0
  -27.2280  -37.1426   25.8859 H   0  0  0  0  0  0
  -20.9298  -29.8737   21.6971 H   0  0  0  0  0  0
  -26.0190  -38.2884   24.1419 H   0  0  0  0  0  0
  -32.2825  -19.4747   20.0279 H   0  0  0  0  0  0
  -32.5339  -20.8697   22.0711 H   0  0  0  0  0  0
  -32.0816  -17.0300   20.2122 H   0  0  0  0  0  0
  -25.6952  -21.6418   20.3611 H   0  0  0  0  0  0
  -24.5764  -19.9303   21.7449 H   0  0  0  0  0  0
  -32.5955  -19.7857   24.3125 H   0  0  0  0  0  0
  -29.4671  -19.6284   20.9223 H   0  0  0  0  0  0
  -29.1217  -18.0003   23.3951 H   0  0  0  0  0  0
  -28.2705  -16.0753   21.1783 H   0  0  0  0  0  0
  -24.6399  -18.0693   23.2060 H   0  0  0  0  0  0
  -26.1804  -17.7189   23.9832 H   0  0  0  0  0  0
  -25.6743  -16.7944   22.5676 H   0  0  0  0  0  0
  -27.8583  -21.9029   18.7485 H   0  0  0  0  0  0
  -29.3896  -21.5368   19.5080 H   0  0  0  0  0  0
  -32.1743  -15.1606   23.5507 H   0  0  0  0  0  0
  -32.9513  -14.9957   22.0338 H   0  0  0  0  0  0
  -29.0960  -14.6144   23.2593 H   0  0  0  0  0  0
  -30.0476  -15.9249   23.6769 H   0  0  0  0  0  0
  -29.2946  -25.4769   21.4015 H   0  0  0  0  0  0
  -27.5489  -25.4571   21.4790 H   0  0  0  0  0  0
  -28.3450  -23.0706   21.4230 H   0  0  0  0  0  0
  1 25  1  0  0  0
  1 30  2  0  0  0
  1 92  1  0  0  0
  2  3  1  0  0  0
  2 25  1  0  0  0
  2 95  1  0  0  0
  2 96  1  0  0  0
  3  4  1  0  0  0
  3 97  1  0  0  0
  3 98  1  0  0  0
  4  5  1  0  0  0
  4 99  1  0  0  0
  4100  1  0  0  0
  5  6  1  0  0  0
  5 26  1  0  0  0
  5101  1  0  0  0
  6 25  1  0  0  0
  6102  1  0  0  0
  6103  1  0  0  0
  7  8  2  0  0  0
  7 26  1  0  0  0
  7 29  1  0  0  0
  8  9  1  0  0  0
  8 22  1  0  0  0
  9 10  1  0  0  0
  9 27  2  0  0  0
 10 11  2  0  0  0
 10 15  1  0  0  0
 11 12  1  0  0  0
 11104  1  0  0  0
 12 13  2  0  0  0
 12105  1  0  0  0
 13 14  1  0  0  0
 13 31  1  0  0  0
 14 15  2  0  0  0
 14106  1  0  0  0
 15107  1  0  0  0
 16 17  2  0  0  0
 16 21  1  0  0  0
 16 31  1  0  0  0
 17 18  1  0  0  0
 17108  1  0  0  0
 18 19  2  0  0  0
 18109  1  0  0  0
 19 20  1  0  0  0
 19 24  1  0  0  0
 20 21  2  0  0  0
 20110  1  0  0  0
 21 23  1  0  0  0
 22 28  1  0  0  0
 22 32  2  0  0  0
 26 27  1  0  0  0
 28111  1  0  0  0
 28112  1  0  0  0
 29113  1  0  0  0
 29114  1  0  0  0
 33 34  1  0  0  0
 33 66  1  0  0  0
 33 70  2  0  0  0
 34 36  1  0  0  0
 34 59  1  0  0  0
 34115  1  0  0  0
 35 44  2  0  0  0
 35 45  1  0  0  0
 35 68  1  0  0  0
 36 56  1  0  0  0
 36116  1  0  0  0
 37 39  1  0  0  0
 37 47  1  0  0  0
 37 66  1  0  0  0
 37117  1  0  0  0
 38 43  2  0  0  0
 38 46  1  0  0  0
 38 47  1  0  0  0
 39 64  1  0  0  0
 39 67  2  0  0  0
 40 52  1  0  0  0
 40 53  2  0  0  0
 40 58  1  0  0  0
 41118  1  0  0  0
 41119  1  0  0  0
 41120  1  0  0  0
 41 48  1  0  0  0
 42 43  1  0  0  0
 42 66  1  0  0  0
 42121  1  0  0  0
 42122  1  0  0  0
 43 44  1  0  0  0
 44123  1  0  0  0
 45 46  2  0  0  0
 45124  1  0  0  0
 46125  1  0  0  0
 47126  1  0  0  0
 47127  1  0  0  0
 48 56  1  0  0  0
 48 65  1  0  0  0
 48128  1  0  0  0
 49 50  1  0  0  0
 49 53  1  0  0  0
 49 64  1  0  0  0
 49129  1  0  0  0
 50 51  1  0  0  0
 50130  1  0  0  0
 50131  1  0  0  0
 51 52  1  0  0  0
 51132  1  0  0  0
 51133  1  0  0  0
 52134  1  0  0  0
 52135  1  0  0  0
 53 54  1  0  0  0
 54 55  2  0  0  0
 54136  1  0  0  0
 55 57  1  0  0  0
 55137  1  0  0  0
 56 69  2  0  0  0
 57 58  2  0  0  0
 57138  1  0  0  0
 58139  1  0  0  0
 59 60  1  0  0  0
 59 61  1  0  0  0
 59 62  1  0  0  0
 60140  1  0  0  0
 60141  1  0  0  0
 60142  1  0  0  0
 61143  1  0  0  0
 61144  1  0  0  0
 61145  1  0  0  0
 62146  1  0  0  0
 62147  1  0  0  0
 62148  1  0  0  0
 63 65  1  0  0  0
 63149  1  0  0  0
 63150  1  0  0  0
 63151  1  0  0  0
 64152  1  0  0  0
 65153  1  0  0  0
 68 90  1  0  0  0
 71 72  2  0  0  0
 71 73  1  0  0  0
 71154  1  0  0  0
 72 76  1  0  0  0
 72155  1  0  0  0
 73 81  2  0  0  0
 73156  1  0  0  0
 74 75  2  0  0  0
 74 79  1  0  0  0
 74157  1  0  0  0
 75 80  1  0  0  0
 75158  1  0  0  0
 76 82  2  0  0  0
 76159  1  0  0  0
 77 78  1  0  0  0
 77 79  2  0  0  0
 77160  1  0  0  0
 78 80  2  0  0  0
 78 83  1  0  0  0
 79 87  1  0  0  0
 80 86  1  0  0  0
 81 82  1  0  0  0
 81 88  1  0  0  0
 82 94  1  0  0  0
 83 84  2  0  0  0
 83161  1  0  0  0
 84 89  1  0  0  0
 84162  1  0  0  0
 85 90  1  0  0  0
 85 91  1  0  0  0
 85 93  2  0  0  0
 86163  1  0  0  0
 86164  1  0  0  0
 86165  1  0  0  0
 87 91  1  0  0  0
 87166  1  0  0  0
 87167  1  0  0  0
 88 92  1  0  0  0
 88168  1  0  0  0
 88169  1  0  0  0
 89 92  1  0  0  0
 89170  1  0  0  0
 89171  1  0  0  0
 90172  1  0  0  0
 90173  1  0  0  0
 91174  1  0  0  0
M  ISO  4   1 100  68 101  90 101  92 100
M  END
> <chiral flag>
0

> <version>
0

> <s_m_source_file>
/data/baiqing/PycharmProjects/Reinvent-master-3.2/result/LINK_invent/BTK/process_docking_weight1_custom_product_contain_oxygen_bond_distance_aromatic_linkinvent_7_9_3/rearranged_h_0047.sdf

> <i_m_source_file_index>
12

> <r_mmod_Potential_Energy-OPLS-2005>
62.4896469116211

> <r_mmod_Stretch_Energy-OPLS-2005>
40.6630210876465

> <r_mmod_Bend_Energy-OPLS-2005>
111.84610748291

> <r_mmod_Torsional_Energy-OPLS-2005>
296.39306640625

> <r_mmod_Improper_Torsional_Energy-OPLS-2005>
11.7020492553711

> <r_mmod_Van_der_Waal_Energy-OPLS-2005>
166.855407714844

> <r_mmod_Electrostatic_Energy-OPLS-2005>
-359.662139892578

> <r_mmod_Solvation_Energy-OPLS-2005>
-215.243789672852

> <b_mmod_Minimization_Converged-OPLS-2005>
0

> <r_mmod_RMS_Derivative-OPLS-2005>
2.52730250358582

$$$$
12
                    3D
 Structure written by MMmdl.
174183  0  0  1  0            999 V2000
  -29.6434  -15.8756   20.9489 C   0  0  0  0  0  0
  -30.3076  -13.3799   19.8186 C   0  0  0  0  0  0
  -29.5715  -12.8489   18.5236 C   0  0  0  0  0  0
  -28.1522  -12.3565   18.8320 C   0  0  0  0  0  0
  -27.5418  -13.2966   19.8872 C   0  0  2  0  0  0
  -28.4119  -13.5230   21.1338 C   0  0  0  0  0  0
  -25.1890  -13.8202   20.5566 C   0  0  0  0  0  0
  -24.1386  -13.0361   20.9214 C   0  0  0  0  0  0
  -24.6105  -11.6871   20.8724 C   0  0  0  0  0  0
  -23.8914  -10.4239   21.0423 C   0  0  0  0  0  0
  -24.3548   -9.4184   21.9180 C   0  0  0  0  0  0
  -23.6256   -8.2207   22.0749 C   0  0  0  0  0  0
  -22.4238   -8.0227   21.3539 C   0  0  0  0  0  0
  -21.9835   -9.0175   20.4639 C   0  0  0  0  0  0
  -22.7125  -10.2060   20.3044 C   0  0  0  0  0  0
  -21.6838   -6.0696   22.5283 C   0  0  0  0  0  0
  -21.4005   -6.5614   23.8212 C   0  0  0  0  0  0
  -21.3656   -5.6770   24.9180 C   0  0  0  0  0  0
  -21.6056   -4.3034   24.7242 C   0  0  0  0  0  0
  -21.8828   -3.8113   23.4367 C   0  0  0  0  0  0
  -21.9198   -4.6923   22.3419 C   0  0  0  0  0  0
  -22.7477  -13.5147   21.1949 C   0  0  0  0  0  0
  -22.1661   -4.2107   21.0994 F   0  0  0  0  0  0
  -21.5641   -3.4527   25.7761 F   0  0  0  0  0  0
  -29.4853  -14.4011   20.7029 N   0  0  0  0  0  0
  -26.2192  -12.9436   20.3040 N   0  0  0  0  0  0
  -25.8990  -11.6546   20.5610 N   0  0  0  0  0  0
  -22.0192  -12.8136   22.0544 N   0  0  0  0  0  0
  -25.3533  -15.1922   20.3897 N   0  0  0  0  0  0
  -30.8207  -16.0322   20.4950 O   0  0  0  0  0  0
  -21.6614   -6.8822   21.4239 O   0  0  0  0  0  0
  -22.3174  -14.5467   20.6797 O   0  0  0  0  0  0
  -24.8301  -31.8347   23.2831 C   0  0  0  0  0  0
  -26.0383  -32.5184   23.9152 C   0  0  1  0  0  0
  -25.9433  -27.3309   20.2271 C   0  0  0  0  0  0
  -25.6503  -33.8858   24.2712 N   0  0  0  0  0  0
  -24.0695  -30.0359   21.7959 C   0  0  2  0  0  0
  -25.2246  -29.6401   19.6390 C   0  0  0  0  0  0
  -23.9945  -28.3747   22.4737 C   0  0  0  0  0  0
  -18.1759  -27.8432   22.7554 C   0  0  0  0  0  0
  -24.1492  -36.7330   23.2556 C   0  0  0  0  0  0
  -26.3454  -30.7617   21.5788 C   0  0  0  0  0  0
  -26.2628  -29.6272   20.5688 C   0  0  0  0  0  0
  -26.7532  -28.3536   20.8277 C   0  0  0  0  0  0
  -25.9528  -27.4428   18.8742 C   0  0  0  0  0  0
  -25.1826  -28.6085   18.6389 C   0  0  0  0  0  0
  -24.0832  -30.4116   20.2175 C   0  0  0  0  0  0
  -25.4091  -36.3194   24.0309 C   0  0  1  0  0  0
  -20.9414  -27.1119   22.8662 C   0  0  2  0  0  0
  -20.5096  -26.0577   21.9728 C   0  0  0  0  0  0
  -19.3518  -26.4516   21.1106 C   0  0  0  0  0  0
  -18.0910  -26.6013   21.9437 C   0  0  0  0  0  0
  -19.4862  -28.2218   23.2166 C   0  0  0  0  0  0
  -19.2750  -29.5121   23.9427 C   0  0  0  0  0  0
  -18.0594  -30.2766   24.0677 C   0  0  0  0  0  0
  -25.9148  -34.9585   23.5177 C   0  0  0  0  0  0
  -16.8513  -29.7723   23.5840 C   0  0  0  0  0  0
  -16.9315  -28.5301   22.9487 C   0  0  0  0  0  0
  -26.5192  -31.6980   25.1650 C   0  0  0  0  0  0
  -25.3995  -31.3955   26.1904 C   0  0  0  0  0  0
  -27.1571  -30.3464   24.7675 C   0  0  0  0  0  0
  -27.6375  -32.4916   25.8630 C   0  0  0  0  0  0
  -27.5554  -37.1862   24.8463 C   0  0  0  0  0  0
  -22.7743  -27.2512   22.4089 N   0  0  0  0  0  0
  -26.4261  -37.3881   23.9419 N   0  0  0  0  0  0
  -25.0883  -30.8886   22.3358 N   0  0  0  0  0  0
  -24.8091  -28.2567   23.3332 O   0  0  0  0  0  0
  -24.4595  -27.2317   20.3727 O   0  0  0  0  0  0
  -26.5540  -34.8962   22.4634 O   0  0  0  0  0  0
  -23.6981  -32.1162   23.7273 O   0  0  0  0  0  0
  -27.1156  -15.6765   25.3894 C   0  0  0  0  0  0
  -26.2582  -16.0738   24.3492 C   0  0  0  0  0  0
  -28.5070  -15.7112   25.1966 C   0  0  0  0  0  0
  -23.3449  -25.1363   25.5927 C   0  0  0  0  0  0
  -23.7866  -23.7709   25.7587 C   0  0  0  0  0  0
  -26.7922  -16.5099   23.1232 C   0  0  0  0  0  0
  -24.5090  -24.8874   23.5385 C   0  0  0  0  0  0
  -25.1161  -23.2830   23.6157 C   0  0  0  0  0  0
  -23.5665  -25.9796   24.4711 C   0  0  0  0  0  0
  -24.5571  -22.9090   24.8802 C   0  0  0  0  0  0
  -29.0564  -16.1427   23.9687 C   0  0  0  0  0  0
  -28.1853  -16.5301   22.9036 C   0  0  0  0  0  0
  -26.1951  -21.8718   22.7049 C   0  0  0  0  0  0
  -26.8865  -20.3672   22.5571 C   0  0  0  0  0  0
  -21.6396  -29.2803   21.6228 C   0  0  0  0  0  0
  -24.7617  -21.4818   25.3629 C   0  0  0  0  0  0
  -30.5736  -16.2177   23.8753 C   0  0  0  0  0  0
  -22.6446  -27.8828   24.6502 C   0  0  0  0  0  0
  -28.0098  -18.8794   21.6869 C   0  0  0  0  0  0
  -22.7631  -28.1933   20.2239 C   0  0  0  0  0  0
  -21.8862  -29.2631   23.3310 N   0  0  0  0  0  0
  -28.6492  -17.0426   21.6558 N   0  0  0  0  0  0
  -20.8384  -30.0891   21.1505 O   0  0  0  0  0  0
  -31.2382  -13.8469   19.4961 H   0  0  0  0  0  0
  -30.6352  -12.5410   20.4355 H   0  0  0  0  0  0
  -30.1543  -12.0633   18.0398 H   0  0  0  0  0  0
  -29.5107  -13.6719   17.8100 H   0  0  0  0  0  0
  -28.2007  -11.3387   19.2194 H   0  0  0  0  0  0
  -27.5444  -12.3250   17.9270 H   0  0  0  0  0  0
  -27.4456  -14.2526   19.3668 H   0  0  0  0  0  0
  -27.8381  -14.0309   21.9096 H   0  0  0  0  0  0
  -28.7514  -12.5879   21.5819 H   0  0  0  0  0  0
  -25.2701   -9.5693   22.4733 H   0  0  0  0  0  0
  -23.9980   -7.4602   22.7469 H   0  0  0  0  0  0
  -21.0770   -8.8660   19.8954 H   0  0  0  0  0  0
  -22.3570  -10.9582   19.6137 H   0  0  0  0  0  0
  -21.1958   -7.6112   23.9697 H   0  0  0  0  0  0
  -21.1486   -6.0499   25.9080 H   0  0  0  0  0  0
  -22.0607   -2.7578   23.2875 H   0  0  0  0  0  0
  -22.3845  -11.9803   22.4884 H   0  0  0  0  0  0
  -21.0800  -13.1130   22.2782 H   0  0  0  0  0  0
  -24.5782  -15.8374   20.4800 H   0  0  0  0  0  0
  -26.1835  -15.6250   20.0074 H   0  0  0  0  0  0
  -26.8736  -32.5782   23.2190 H   0  0  0  0  0  0
  -25.0784  -33.9987   25.0956 H   0  0  0  0  0  0
  -23.2891  -30.7208   22.0635 H   0  0  0  0  0  0
  -23.3787  -35.9634   23.3228 H   0  0  0  0  0  0
  -24.3609  -36.8918   22.1973 H   0  0  0  0  0  0
  -23.7193  -37.6537   23.6529 H   0  0  0  0  0  0
  -26.5433  -31.6920   21.0432 H   0  0  0  0  0  0
  -27.2127  -30.5836   22.2039 H   0  0  0  0  0  0
  -27.3363  -28.1605   21.7180 H   0  0  0  0  0  0
  -25.7033  -26.5983   18.2452 H   0  0  0  0  0  0
  -24.4583  -28.6135   17.8382 H   0  0  0  0  0  0
  -24.3513  -31.4644   20.1034 H   0  0  0  0  0  0
  -23.1519  -30.4673   19.6611 H   0  0  0  0  0  0
  -25.1207  -36.2096   25.0795 H   0  0  0  0  0  0
  -20.9240  -26.5393   23.7939 H   0  0  0  0  0  0
  -20.2125  -25.1688   22.5341 H   0  0  0  0  0  0
  -21.3226  -25.6996   21.3411 H   0  0  0  0  0  0
  -19.1870  -25.6625   20.3760 H   0  0  0  0  0  0
  -19.5623  -27.3529   20.5330 H   0  0  0  0  0  0
  -17.2368  -26.6542   21.2679 H   0  0  0  0  0  0
  -17.9245  -25.7380   22.5902 H   0  0  0  0  0  0
  -20.0612  -29.9681   24.5190 H   0  0  0  0  0  0
  -18.0664  -31.2153   24.6073 H   0  0  0  0  0  0
  -15.9159  -30.3005   23.7030 H   0  0  0  0  0  0
  -16.0197  -28.1010   22.5580 H   0  0  0  0  0  0
  -24.6567  -30.6965   25.8038 H   0  0  0  0  0  0
  -24.8739  -32.3028   26.4903 H   0  0  0  0  0  0
  -25.8031  -30.9459   27.0973 H   0  0  0  0  0  0
  -26.4811  -29.6883   24.2394 H   0  0  0  0  0  0
  -27.4713  -29.7938   25.6538 H   0  0  0  0  0  0
  -28.0568  -30.4818   24.1680 H   0  0  0  0  0  0
  -27.2705  -33.4218   26.2964 H   0  0  0  0  0  0
  -28.4392  -32.7493   25.1697 H   0  0  0  0  0  0
  -28.0856  -31.9225   26.6776 H   0  0  0  0  0  0
  -28.2559  -38.0176   24.7551 H   0  0  0  0  0  0
  -28.1070  -36.2711   24.6244 H   0  0  0  0  0  0
  -27.2280  -37.1458   25.8869 H   0  0  0  0  0  0
  -23.1986  -26.3643   22.6571 H   0  0  0  0  0  0
  -26.0156  -38.2959   24.1451 H   0  0  0  0  0  0
  -26.7093  -15.3613   26.3408 H   0  0  0  0  0  0
  -25.1874  -16.0603   24.4917 H   0  0  0  0  0  0
  -29.1554  -15.4255   26.0148 H   0  0  0  0  0  0
  -22.7693  -25.5588   26.4054 H   0  0  0  0  0  0
  -23.4775  -23.3270   26.6945 H   0  0  0  0  0  0
  -26.1169  -16.8360   22.3447 H   0  0  0  0  0  0
  -24.8289  -25.3522   22.6167 H   0  0  0  0  0  0
  -26.4743  -22.4314   21.8165 H   0  0  0  0  0  0
  -27.2435  -20.7684   21.6216 H   0  0  0  0  0  0
  -25.7420  -21.3602   25.8243 H   0  0  0  0  0  0
  -24.6670  -20.7694   24.5442 H   0  0  0  0  0  0
  -24.0043  -21.1962   26.0940 H   0  0  0  0  0  0
  -31.0305  -16.2782   24.8632 H   0  0  0  0  0  0
  -30.8924  -17.0979   23.3176 H   0  0  0  0  0  0
  -30.9741  -15.3252   23.3909 H   0  0  0  0  0  0
  -23.3313  -28.4572   25.2767 H   0  0  0  0  0  0
  -21.8312  -27.7200   25.3602 H   0  0  0  0  0  0
  -28.9643  -19.3964   21.5718 H   0  0  0  0  0  0
  -27.5804  -18.8950   20.6847 H   0  0  0  0  0  0
  -22.6336  -28.5971   19.2223 H   0  0  0  0  0  0
  -22.0964  -27.3517   20.0386 H   0  0  0  0  0  0
  -21.3746  -29.9990   23.7960 H   0  0  0  0  0  0
  1 25  1  0  0  0
  1 30  2  0  0  0
  1 92  1  0  0  0
  2  3  1  0  0  0
  2 25  1  0  0  0
  2 94  1  0  0  0
  2 95  1  0  0  0
  3  4  1  0  0  0
  3 96  1  0  0  0
  3 97  1  0  0  0
  4  5  1  0  0  0
  4 98  1  0  0  0
  4 99  1  0  0  0
  5  6  1  0  0  0
  5 26  1  0  0  0
  5100  1  0  0  0
  6 25  1  0  0  0
  6101  1  0  0  0
  6102  1  0  0  0
  7  8  2  0  0  0
  7 26  1  0  0  0
  7 29  1  0  0  0
  8  9  1  0  0  0
  8 22  1  0  0  0
  9 10  1  0  0  0
  9 27  2  0  0  0
 10 11  2  0  0  0
 10 15  1  0  0  0
 11 12  1  0  0  0
 11103  1  0  0  0
 12 13  2  0  0  0
 12104  1  0  0  0
 13 14  1  0  0  0
 13 31  1  0  0  0
 14 15  2  0  0  0
 14105  1  0  0  0
 15106  1  0  0  0
 16 17  2  0  0  0
 16 21  1  0  0  0
 16 31  1  0  0  0
 17 18  1  0  0  0
 17107  1  0  0  0
 18 19  2  0  0  0
 18108  1  0  0  0
 19 20  1  0  0  0
 19 24  1  0  0  0
 20 21  2  0  0  0
 20109  1  0  0  0
 21 23  1  0  0  0
 22 28  1  0  0  0
 22 32  2  0  0  0
 26 27  1  0  0  0
 28110  1  0  0  0
 28111  1  0  0  0
 29112  1  0  0  0
 29113  1  0  0  0
 33 34  1  0  0  0
 33 66  1  0  0  0
 33 70  2  0  0  0
 34 36  1  0  0  0
 34 59  1  0  0  0
 34114  1  0  0  0
 35 44  2  0  0  0
 35 45  1  0  0  0
 35 68  1  0  0  0
 36 56  1  0  0  0
 36115  1  0  0  0
 37 39  1  0  0  0
 37 47  1  0  0  0
 37 66  1  0  0  0
 37116  1  0  0  0
 38 43  2  0  0  0
 38 46  1  0  0  0
 38 47  1  0  0  0
 39 64  1  0  0  0
 39 67  2  0  0  0
 40 52  1  0  0  0
 40 53  2  0  0  0
 40 58  1  0  0  0
 41117  1  0  0  0
 41118  1  0  0  0
 41119  1  0  0  0
 41 48  1  0  0  0
 42 43  1  0  0  0
 42 66  1  0  0  0
 42120  1  0  0  0
 42121  1  0  0  0
 43 44  1  0  0  0
 44122  1  0  0  0
 45 46  2  0  0  0
 45123  1  0  0  0
 46124  1  0  0  0
 47125  1  0  0  0
 47126  1  0  0  0
 48 56  1  0  0  0
 48 65  1  0  0  0
 48127  1  0  0  0
 49 50  1  0  0  0
 49 53  1  0  0  0
 49 64  1  0  0  0
 49128  1  0  0  0
 50 51  1  0  0  0
 50129  1  0  0  0
 50130  1  0  0  0
 51 52  1  0  0  0
 51131  1  0  0  0
 51132  1  0  0  0
 52133  1  0  0  0
 52134  1  0  0  0
 53 54  1  0  0  0
 54 55  2  0  0  0
 54135  1  0  0  0
 55 57  1  0  0  0
 55136  1  0  0  0
 56 69  2  0  0  0
 57 58  2  0  0  0
 57137  1  0  0  0
 58138  1  0  0  0
 59 60  1  0  0  0
 59 61  1  0  0  0
 59 62  1  0  0  0
 60139  1  0  0  0
 60140  1  0  0  0
 60141  1  0  0  0
 61142  1  0  0  0
 61143  1  0  0  0
 61144  1  0  0  0
 62145  1  0  0  0
 62146  1  0  0  0
 62147  1  0  0  0
 63 65  1  0  0  0
 63148  1  0  0  0
 63149  1  0  0  0
 63150  1  0  0  0
 64151  1  0  0  0
 65152  1  0  0  0
 68 90  1  0  0  0
 71 72  2  0  0  0
 71 73  1  0  0  0
 71153  1  0  0  0
 72 76  1  0  0  0
 72154  1  0  0  0
 73 81  2  0  0  0
 73155  1  0  0  0
 74 75  2  0  0  0
 74 79  1  0  0  0
 74156  1  0  0  0
 75 80  1  0  0  0
 75157  1  0  0  0
 76 82  2  0  0  0
 76158  1  0  0  0
 77 78  1  0  0  0
 77 79  2  0  0  0
 77159  1  0  0  0
 78 80  2  0  0  0
 78 83  1  0  0  0
 79 88  1  0  0  0
 80 86  1  0  0  0
 81 82  1  0  0  0
 81 87  1  0  0  0
 82 92  1  0  0  0
 83 84  2  0  0  0
 83160  1  0  0  0
 84 89  1  0  0  0
 84161  1  0  0  0
 85 90  1  0  0  0
 85 91  1  0  0  0
 85 93  2  0  0  0
 86162  1  0  0  0
 86163  1  0  0  0
 86164  1  0  0  0
 87165  1  0  0  0
 87166  1  0  0  0
 87167  1  0  0  0
 88 91  1  0  0  0
 88168  1  0  0  0
 88169  1  0  0  0
 89 92  1  0  0  0
 89170  1  0  0  0
 89171  1  0  0  0
 90172  1  0  0  0
 90173  1  0  0  0
 91174  1  0  0  0
M  ISO  4   1 100  68 101  90 101  92 100
M  END
> <chiral flag>
0

> <version>
0

> <s_m_source_file>
/data/baiqing/PycharmProjects/Reinvent-master-3.2/result/LINK_invent/BTK/process_docking_weight1_custom_product_contain_oxygen_bond_distance_aromatic_linkinvent_7_9_3/rearranged_h_0047.sdf

> <i_m_source_file_index>
13

> <r_mmod_Potential_Energy-OPLS-2005>
13914.435546875

> <r_mmod_Stretch_Energy-OPLS-2005>
5156.8984375

> <r_mmod_Bend_Energy-OPLS-2005>
1773.20446777344

> <r_mmod_Torsional_Energy-OPLS-2005>
634.291625976562

> <r_mmod_Improper_Torsional_Energy-OPLS-2005>
67.276123046875

> <r_mmod_Van_der_Waal_Energy-OPLS-2005>
1802.8349609375

> <r_mmod_Electrostatic_Energy-OPLS-2005>
-349.429870605469

> <r_mmod_Solvation_Energy-OPLS-2005>
-187.917877197266

> <b_mmod_Minimization_Converged-OPLS-2005>
0

> <r_mmod_RMS_Derivative-OPLS-2005>
4.13766145706177

$$$$
13
                    3D
 Structure written by MMmdl.
167176  0  0  1  0            999 V2000
  -30.6138  -14.7397   20.4378 C   0  0  0  0  0  0
  -30.4266  -12.4460   19.4810 C   0  0  0  0  0  0
  -29.5092  -12.5018   18.2398 C   0  0  0  0  0  0
  -28.0350  -12.3292   18.6516 C   0  0  0  0  0  0
  -27.6402  -13.2329   19.8503 C   0  0  2  0  0  0
  -28.6820  -13.1727   20.9884 C   0  0  0  0  0  0
  -25.2504  -13.8208   20.5696 C   0  0  0  0  0  0
  -24.1795  -13.0448   20.9210 C   0  0  0  0  0  0
  -24.6388  -11.6928   20.8752 C   0  0  0  0  0  0
  -23.9068  -10.4300   21.0411 C   0  0  0  0  0  0
  -24.3619   -9.4214   21.9187 C   0  0  0  0  0  0
  -23.6293   -8.2248   22.0757 C   0  0  0  0  0  0
  -22.4276   -8.0284   21.3546 C   0  0  0  0  0  0
  -21.9912   -9.0259   20.4649 C   0  0  0  0  0  0
  -22.7241  -10.2139   20.3059 C   0  0  0  0  0  0
  -21.6853   -6.0735   22.5279 C   0  0  0  0  0  0
  -21.4015   -6.5639   23.8212 C   0  0  0  0  0  0
  -21.3658   -5.6791   24.9174 C   0  0  0  0  0  0
  -21.6043   -4.3054   24.7225 C   0  0  0  0  0  0
  -21.8820   -3.8146   23.4347 C   0  0  0  0  0  0
  -21.9196   -4.6963   22.3402 C   0  0  0  0  0  0
  -22.7820  -13.5231   21.1868 C   0  0  0  0  0  0
  -22.1662   -4.2149   21.0979 F   0  0  0  0  0  0
  -21.5628   -3.4540   25.7739 F   0  0  0  0  0  0
  -29.9857  -13.5148   20.4082 N   0  0  0  0  0  0
  -26.2924  -12.9414   20.3275 N   0  0  0  0  0  0
  -25.9316  -11.6557   20.5751 N   0  0  0  0  0  0
  -22.0464  -12.8219   22.0424 N   0  0  0  0  0  0
  -25.4203  -15.1929   20.4110 N   0  0  0  0  0  0
  -31.8115  -14.8025   20.1438 O   0  0  0  0  0  0
  -21.6640   -6.8880   21.4241 O   0  0  0  0  0  0
  -22.3508  -14.5538   20.6717 O   0  0  0  0  0  0
  -24.6302  -31.8534   23.1982 C   0  0  0  0  0  0
  -25.9131  -32.4736   23.8322 C   0  0  1  0  0  0
  -27.2176  -27.2554   20.1214 C   0  0  0  0  0  0
  -25.5930  -33.8541   24.2239 N   0  0  0  0  0  0
  -23.4278  -30.4758   21.5405 C   0  0  2  0  0  0
  -24.8742  -28.9232   20.1070 C   0  0  0  0  0  0
  -22.7505  -29.4585   22.4905 C   0  0  0  0  0  0
  -18.0282  -28.1389   22.8470 C   0  0  0  0  0  0
  -24.1493  -36.7283   23.2646 C   0  0  0  0  0  0
  -25.9738  -30.7629   21.3812 C   0  0  0  0  0  0
  -26.0438  -29.3852   20.7223 C   0  0  0  0  0  0
  -27.2137  -28.5603   20.7243 C   0  0  0  0  0  0
  -26.0298  -26.8711   19.4691 C   0  0  0  0  0  0
  -24.8717  -27.6729   19.4707 C   0  0  0  0  0  0
  -23.6466  -29.8115   20.1555 C   0  0  0  0  0  0
  -25.4119  -36.3056   24.0324 C   0  0  1  0  0  0
  -20.5888  -28.3703   23.1259 C   0  0  2  0  0  0
  -20.6784  -26.9420   22.5408 C   0  0  0  0  0  0
  -19.5756  -26.6386   21.5213 C   0  0  0  0  0  0
  -18.1930  -26.7924   22.1619 C   0  0  0  0  0  0
  -19.1538  -28.8861   23.2852 C   0  0  0  0  0  0
  -18.9467  -30.1457   23.8877 C   0  0  0  0  0  0
  -17.6470  -30.6590   24.0555 C   0  0  0  0  0  0
  -25.9062  -34.9428   23.5086 C   0  0  0  0  0  0
  -16.5357  -29.9093   23.6327 C   0  0  0  0  0  0
  -16.7270  -28.6512   23.0340 C   0  0  0  0  0  0
  -26.4507  -31.6561   25.0709 C   0  0  0  0  0  0
  -25.3739  -31.3694   26.1429 C   0  0  0  0  0  0
  -27.0369  -30.2974   24.6218 C   0  0  0  0  0  0
  -27.6046  -32.4325   25.7482 C   0  0  0  0  0  0
  -27.5568  -37.1791   24.8462 C   0  0  0  0  0  0
  -21.4212  -29.3042   22.3650 N   0  0  0  0  0  0
  -26.4285  -37.3760   23.9406 N   0  0  0  0  0  0
  -24.6961  -31.0497   22.0960 N   0  0  0  0  0  0
  -23.4202  -28.8129   23.3009 O   0  0  0  0  0  0
  -28.3258  -26.3815   20.2094 O   0  0  0  0  0  0
  -26.5640  -34.8905   22.4658 O   0  0  0  0  0  0
  -23.5453  -32.1367   23.7276 O   0  0  0  0  0  0
  -31.2528  -18.7657   18.5537 C   0  0  0  0  0  0
  -30.6513  -19.9160   19.0884 C   0  0  0  0  0  0
  -30.9769  -17.4892   19.0723 C   0  0  0  0  0  0
  -29.7162  -19.8466   20.1414 C   0  0  0  0  0  0
  -29.4268  -18.5035   20.6610 C   0  0  0  0  0  0
  -30.0832  -17.2924   20.1521 C   0  0  0  0  0  0
  -26.3478  -23.5664   20.2554 C   0  0  0  0  0  0
  -25.5108  -23.7630   21.2871 C   0  0  0  0  0  0
  -25.8430  -23.2023   18.8522 C   0  0  0  0  0  0
  -26.5292  -21.9446   18.2845 C   0  0  0  0  0  0
  -28.0520  -21.9587   18.5023 C   0  0  0  0  0  0
  -27.8665  -23.6286   20.4076 C   0  0  2  0  0  0
  -28.4284  -18.3652   21.7986 C   0  0  0  0  0  0
  -29.2403  -21.2738   20.7119 C   0  0  0  0  0  0
  -28.4068  -24.9758   19.6551 C   0  0  0  0  0  0
  -29.8513  -15.8919   20.6231 N   0  0  0  0  0  0
  -28.2827  -22.2029   19.9427 N   0  3  2  0  0  0
  -31.4695  -12.5581   19.1798 H   0  0  0  0  0  0
  -30.3621  -11.4714   19.9669 H   0  0  0  0  0  0
  -29.7911  -11.7270   17.5256 H   0  0  0  0  0  0
  -29.6385  -13.4550   17.7252 H   0  0  0  0  0  0
  -27.8913  -11.2814   18.9175 H   0  0  0  0  0  0
  -27.3785  -12.5183   17.8015 H   0  0  0  0  0  0
  -27.6338  -14.2531   19.4665 H   0  0  0  0  0  0
  -28.7119  -12.1783   21.4366 H   0  0  0  0  0  0
  -28.4184  -13.8624   21.7916 H   0  0  0  0  0  0
  -25.2762   -9.5689   22.4764 H   0  0  0  0  0  0
  -24.0004   -7.4639   22.7478 H   0  0  0  0  0  0
  -21.0844   -8.8779   19.8953 H   0  0  0  0  0  0
  -22.3700  -10.9680   19.6169 H   0  0  0  0  0  0
  -21.2005   -7.6147   23.9715 H   0  0  0  0  0  0
  -21.1477   -6.0520   25.9075 H   0  0  0  0  0  0
  -22.0599   -2.7609   23.2847 H   0  0  0  0  0  0
  -22.4087  -11.9882   22.4810 H   0  0  0  0  0  0
  -21.1078  -13.1242   22.2627 H   0  0  0  0  0  0
  -24.6500  -15.8443   20.5149 H   0  0  0  0  0  0
  -26.2599  -15.6289   20.0526 H   0  0  0  0  0  0
  -26.7184  -32.5376   23.1049 H   0  0  0  0  0  0
  -25.0038  -33.9684   25.0356 H   0  0  0  0  0  0
  -22.7232  -31.2969   21.3935 H   0  0  0  0  0  0
  -23.3752  -35.9619   23.3303 H   0  0  0  0  0  0
  -24.3580  -36.8928   22.2063 H   0  0  0  0  0  0
  -23.7263  -37.6488   23.6680 H   0  0  0  0  0  0
  -26.1157  -31.5255   20.6142 H   0  0  0  0  0  0
  -26.8511  -30.8098   22.0149 H   0  0  0  0  0  0
  -28.1071  -28.9047   21.2265 H   0  0  0  0  0  0
  -25.9630  -25.9283   18.9649 H   0  0  0  0  0  0
  -23.9780  -27.3147   18.9772 H   0  0  0  0  0  0
  -23.7734  -30.5886   19.4006 H   0  0  0  0  0  0
  -22.7656  -29.2464   19.8465 H   0  0  0  0  0  0
  -25.1302  -36.1896   25.0818 H   0  0  0  0  0  0
  -20.9952  -28.3297   24.1389 H   0  0  0  0  0  0
  -20.5699  -26.2319   23.3620 H   0  0  0  0  0  0
  -21.6652  -26.7453   22.1194 H   0  0  0  0  0  0
  -19.6927  -25.6298   21.1240 H   0  0  0  0  0  0
  -19.6688  -27.3201   20.6744 H   0  0  0  0  0  0
  -17.4200  -26.6644   21.4022 H   0  0  0  0  0  0
  -18.0330  -26.0073   22.9024 H   0  0  0  0  0  0
  -19.7950  -30.7257   24.2250 H   0  0  0  0  0  0
  -17.5035  -31.6261   24.5177 H   0  0  0  0  0  0
  -15.5362  -30.2993   23.7675 H   0  0  0  0  0  0
  -15.8663  -28.0839   22.7062 H   0  0  0  0  0  0
  -24.5924  -30.7035   25.7749 H   0  0  0  0  0  0
  -24.8921  -32.2855   26.4850 H   0  0  0  0  0  0
  -25.8073  -30.8867   27.0198 H   0  0  0  0  0  0
  -26.2957  -29.6689   24.1268 H   0  0  0  0  0  0
  -27.4067  -29.7262   25.4744 H   0  0  0  0  0  0
  -27.8824  -30.4236   23.9455 H   0  0  0  0  0  0
  -27.2637  -33.3632   26.2028 H   0  0  0  0  0  0
  -28.3867  -32.6888   25.0322 H   0  0  0  0  0  0
  -28.0700  -31.8477   26.5426 H   0  0  0  0  0  0
  -28.2574  -38.0096   24.7510 H   0  0  0  0  0  0
  -28.1077  -36.2625   24.6291 H   0  0  0  0  0  0
  -27.2274  -37.1450   25.8861 H   0  0  0  0  0  0
  -20.9410  -29.8777   21.6859 H   0  0  0  0  0  0
  -26.0156  -38.2828   24.1424 H   0  0  0  0  0  0
  -31.9531  -18.8643   17.7360 H   0  0  0  0  0  0
  -30.9293  -20.8785   18.6800 H   0  0  0  0  0  0
  -31.4745  -16.6560   18.5992 H   0  0  0  0  0  0
  -24.4388  -23.6981   21.1641 H   0  0  0  0  0  0
  -25.8787  -24.0015   22.2752 H   0  0  0  0  0  0
  -26.0317  -24.0178   18.1577 H   0  0  0  0  0  0
  -24.7604  -23.0650   18.8612 H   0  0  0  0  0  0
  -26.3052  -21.8403   17.2221 H   0  0  0  0  0  0
  -26.1068  -21.0599   18.7638 H   0  0  0  0  0  0
  -28.5400  -22.7236   17.8973 H   0  0  0  0  0  0
  -28.4469  -21.0023   18.1679 H   0  0  0  0  0  0
  -28.1195  -23.7135   21.4655 H   0  0  0  0  0  0
  -27.5876  -19.0456   21.6643 H   0  0  0  0  0  0
  -28.9046  -18.5902   22.7531 H   0  0  0  0  0  0
  -28.0132  -17.3596   21.8576 H   0  0  0  0  0  0
  -30.1501  -21.8507   20.8803 H   0  0  0  0  0  0
  -28.8220  -21.1297   21.7077 H   0  0  0  0  0  0
  -28.0436  -25.0039   18.6287 H   0  0  0  0  0  0
  -29.4792  -24.8197   19.5379 H   0  0  0  0  0  0
  -28.9403  -15.7176   21.0186 H   0  0  0  0  0  0
  -27.4538  -21.7299   20.2705 H   0  0  0  0  0  0
  1 25  1  0  0  0
  1 30  2  0  0  0
  1 86  1  0  0  0
  2  3  1  0  0  0
  2 25  1  0  0  0
  2 88  1  0  0  0
  2 89  1  0  0  0
  3  4  1  0  0  0
  3 90  1  0  0  0
  3 91  1  0  0  0
  4  5  1  0  0  0
  4 92  1  0  0  0
  4 93  1  0  0  0
  5  6  1  0  0  0
  5 26  1  0  0  0
  5 94  1  0  0  0
  6 25  1  0  0  0
  6 95  1  0  0  0
  6 96  1  0  0  0
  7  8  2  0  0  0
  7 26  1  0  0  0
  7 29  1  0  0  0
  8  9  1  0  0  0
  8 22  1  0  0  0
  9 10  1  0  0  0
  9 27  2  0  0  0
 10 11  2  0  0  0
 10 15  1  0  0  0
 11 12  1  0  0  0
 11 97  1  0  0  0
 12 13  2  0  0  0
 12 98  1  0  0  0
 13 14  1  0  0  0
 13 31  1  0  0  0
 14 15  2  0  0  0
 14 99  1  0  0  0
 15100  1  0  0  0
 16 17  2  0  0  0
 16 21  1  0  0  0
 16 31  1  0  0  0
 17 18  1  0  0  0
 17101  1  0  0  0
 18 19  2  0  0  0
 18102  1  0  0  0
 19 20  1  0  0  0
 19 24  1  0  0  0
 20 21  2  0  0  0
 20103  1  0  0  0
 21 23  1  0  0  0
 22 28  1  0  0  0
 22 32  2  0  0  0
 26 27  1  0  0  0
 28104  1  0  0  0
 28105  1  0  0  0
 29106  1  0  0  0
 29107  1  0  0  0
 33 34  1  0  0  0
 33 66  1  0  0  0
 33 70  2  0  0  0
 34 36  1  0  0  0
 34 59  1  0  0  0
 34108  1  0  0  0
 35 44  2  0  0  0
 35 45  1  0  0  0
 35 68  1  0  0  0
 36 56  1  0  0  0
 36109  1  0  0  0
 37 39  1  0  0  0
 37 47  1  0  0  0
 37 66  1  0  0  0
 37110  1  0  0  0
 38 43  2  0  0  0
 38 46  1  0  0  0
 38 47  1  0  0  0
 39 64  1  0  0  0
 39 67  2  0  0  0
 40 52  1  0  0  0
 40 53  2  0  0  0
 40 58  1  0  0  0
 41111  1  0  0  0
 41112  1  0  0  0
 41113  1  0  0  0
 41 48  1  0  0  0
 42 43  1  0  0  0
 42 66  1  0  0  0
 42114  1  0  0  0
 42115  1  0  0  0
 43 44  1  0  0  0
 44116  1  0  0  0
 45 46  2  0  0  0
 45117  1  0  0  0
 46118  1  0  0  0
 47119  1  0  0  0
 47120  1  0  0  0
 48 56  1  0  0  0
 48 65  1  0  0  0
 48121  1  0  0  0
 49 50  1  0  0  0
 49 53  1  0  0  0
 49 64  1  0  0  0
 49122  1  0  0  0
 50 51  1  0  0  0
 50123  1  0  0  0
 50124  1  0  0  0
 51 52  1  0  0  0
 51125  1  0  0  0
 51126  1  0  0  0
 52127  1  0  0  0
 52128  1  0  0  0
 53 54  1  0  0  0
 54 55  2  0  0  0
 54129  1  0  0  0
 55 57  1  0  0  0
 55130  1  0  0  0
 56 69  2  0  0  0
 57 58  2  0  0  0
 57131  1  0  0  0
 58132  1  0  0  0
 59 60  1  0  0  0
 59 61  1  0  0  0
 59 62  1  0  0  0
 60133  1  0  0  0
 60134  1  0  0  0
 60135  1  0  0  0
 61136  1  0  0  0
 61137  1  0  0  0
 61138  1  0  0  0
 62139  1  0  0  0
 62140  1  0  0  0
 62141  1  0  0  0
 63 65  1  0  0  0
 63142  1  0  0  0
 63143  1  0  0  0
 63144  1  0  0  0
 64145  1  0  0  0
 65146  1  0  0  0
 68 85  1  0  0  0
 71 72  2  0  0  0
 71 73  1  0  0  0
 71147  1  0  0  0
 72 74  1  0  0  0
 72148  1  0  0  0
 73 76  2  0  0  0
 73149  1  0  0  0
 74 75  2  0  0  0
 74 84  1  0  0  0
 75 76  1  0  0  0
 75 83  1  0  0  0
 76 86  1  0  0  0
 77 78  2  0  0  0
 77 79  1  0  0  0
 77 82  1  0  0  0
 78150  1  0  0  0
 78151  1  0  0  0
 79 80  1  0  0  0
 79152  1  0  0  0
 79153  1  0  0  0
 80 81  1  0  0  0
 80154  1  0  0  0
 80155  1  0  0  0
 81 87  1  0  0  0
 81156  1  0  0  0
 81157  1  0  0  0
 82 85  1  0  0  0
 82 87  1  0  0  0
 82158  1  0  0  0
 83159  1  0  0  0
 83160  1  0  0  0
 83161  1  0  0  0
 84162  1  0  0  0
 84163  1  0  0  0
 84 87  1  0  0  0
 85164  1  0  0  0
 85165  1  0  0  0
 86166  1  0  0  0
 87167  1  0  0  0
M  CHG  1  87   1
M  ISO  4   1 100  68 101  85 101  86 100
M  END
> <chiral flag>
0

> <version>
0

> <s_m_source_file>
/data/baiqing/PycharmProjects/Reinvent-master-3.2/result/LINK_invent/BTK/process_docking_weight1_custom_product_contain_oxygen_bond_distance_aromatic_linkinvent_7_9_3/rearranged_h_0047.sdf

> <i_m_source_file_index>
14

> <r_mmod_Potential_Energy-OPLS-2005>
169.55354309082

> <r_mmod_Stretch_Energy-OPLS-2005>
141.603332519531

> <r_mmod_Bend_Energy-OPLS-2005>
243.830520629883

> <r_mmod_Torsional_Energy-OPLS-2005>
238.752502441406

> <r_mmod_Improper_Torsional_Energy-OPLS-2005>
4.90026617050171

> <r_mmod_Van_der_Waal_Energy-OPLS-2005>
141.386093139648

> <r_mmod_Electrostatic_Energy-OPLS-2005>
-263.854431152344

> <r_mmod_Solvation_Energy-OPLS-2005>
-422.475891113281

> <b_mmod_Minimization_Converged-OPLS-2005>
0

> <r_mmod_RMS_Derivative-OPLS-2005>
0.894827902317047

$$$$
14
                    3D
 Structure written by MMmdl.
155163  0  0  1  0            999 V2000
  -30.7191  -14.4598   20.5714 C   0  0  0  0  0  0
  -30.4257  -12.2920   19.4460 C   0  0  0  0  0  0
  -29.5056  -12.4773   18.2214 C   0  0  0  0  0  0
  -28.0249  -12.3479   18.6290 C   0  0  0  0  0  0
  -27.6653  -13.2044   19.8721 C   0  0  2  0  0  0
  -28.7009  -13.0041   21.0035 C   0  0  0  0  0  0
  -25.2608  -13.8170   20.5655 C   0  0  0  0  0  0
  -24.1851  -13.0453   20.9158 C   0  0  0  0  0  0
  -24.6392  -11.6910   20.8727 C   0  0  0  0  0  0
  -23.9053  -10.4303   21.0405 C   0  0  0  0  0  0
  -24.3614   -9.4214   21.9171 C   0  0  0  0  0  0
  -23.6300   -8.2242   22.0744 C   0  0  0  0  0  0
  -22.4276   -8.0296   21.3541 C   0  0  0  0  0  0
  -21.9897   -9.0270   20.4646 C   0  0  0  0  0  0
  -22.7219  -10.2148   20.3051 C   0  0  0  0  0  0
  -21.6855   -6.0740   22.5269 C   0  0  0  0  0  0
  -21.4013   -6.5640   23.8201 C   0  0  0  0  0  0
  -21.3658   -5.6787   24.9158 C   0  0  0  0  0  0
  -21.6059   -4.3056   24.7205 C   0  0  0  0  0  0
  -21.8822   -3.8150   23.4328 C   0  0  0  0  0  0
  -21.9193   -4.6973   22.3388 C   0  0  0  0  0  0
  -22.7883  -13.5258   21.1851 C   0  0  0  0  0  0
  -22.1667   -4.2158   21.0968 F   0  0  0  0  0  0
  -21.5630   -3.4546   25.7722 F   0  0  0  0  0  0
  -30.0387  -13.2873   20.4580 N   0  0  0  0  0  0
  -26.3040  -12.9319   20.3323 N   0  0  0  0  0  0
  -25.9316  -11.6496   20.5759 N   0  0  0  0  0  0
  -22.0528  -12.8250   22.0421 N   0  0  0  0  0  0
  -25.4391  -15.1877   20.4063 N   0  0  0  0  0  0
  -31.8456  -14.6290   20.0973 O   0  0  0  0  0  0
  -21.6642   -6.8890   21.4237 O   0  0  0  0  0  0
  -22.3547  -14.5549   20.6689 O   0  0  0  0  0  0
  -24.6154  -31.8670   23.2076 C   0  0  0  0  0  0
  -25.9047  -32.4812   23.8381 C   0  0  1  0  0  0
  -27.2377  -27.4195   20.1191 C   0  0  0  0  0  0
  -25.5907  -33.8607   24.2299 N   0  0  0  0  0  0
  -23.4047  -30.4911   21.5483 C   0  0  2  0  0  0
  -24.8526  -28.9548   20.1140 C   0  0  0  0  0  0
  -22.7425  -29.4651   22.4969 C   0  0  0  0  0  0
  -18.0285  -28.1393   22.8474 C   0  0  0  0  0  0
  -24.1488  -36.7304   23.2621 C   0  0  0  0  0  0
  -25.9349  -30.8299   21.3635 C   0  0  0  0  0  0
  -26.0119  -29.4635   20.7118 C   0  0  0  0  0  0
  -27.2062  -28.7060   20.7049 C   0  0  0  0  0  0
  -26.0591  -26.9320   19.5034 C   0  0  0  0  0  0
  -24.8721  -27.6896   19.5032 C   0  0  0  0  0  0
  -23.6149  -29.8230   20.1622 C   0  0  0  0  0  0
  -25.4085  -36.3092   24.0339 C   0  0  1  0  0  0
  -20.5874  -28.3670   23.1319 C   0  0  2  0  0  0
  -20.6767  -26.9403   22.5430 C   0  0  0  0  0  0
  -19.5750  -26.6396   21.5214 C   0  0  0  0  0  0
  -18.1925  -26.7941   22.1617 C   0  0  0  0  0  0
  -19.1537  -28.8846   23.2888 C   0  0  0  0  0  0
  -18.9458  -30.1459   23.8886 C   0  0  0  0  0  0
  -17.6460  -30.6579   24.0568 C   0  0  0  0  0  0
  -25.9027  -34.9471   23.5110 C   0  0  0  0  0  0
  -16.5345  -29.9087   23.6338 C   0  0  0  0  0  0
  -16.7276  -28.6526   23.0313 C   0  0  0  0  0  0
  -26.4454  -31.6600   25.0728 C   0  0  0  0  0  0
  -25.3725  -31.3772   26.1499 C   0  0  0  0  0  0
  -27.0246  -30.3027   24.6114 C   0  0  0  0  0  0
  -27.6049  -32.4311   25.7475 C   0  0  0  0  0  0
  -27.5615  -37.1735   24.8398 C   0  0  0  0  0  0
  -21.4152  -29.3044   22.3725 N   0  0  0  0  0  0
  -26.4237  -37.3813   23.9477 N   0  0  0  0  0  0
  -24.6697  -31.0777   22.0975 N   0  0  0  0  0  0
  -23.4201  -28.8199   23.3003 O   0  0  0  0  0  0
  -28.4109  -26.6827   20.1779 O   0  0  0  0  0  0
  -26.5581  -34.8943   22.4670 O   0  0  0  0  0  0
  -23.5348  -32.1423   23.7470 O   0  0  0  0  0  0
  -30.6170  -19.5571   20.0232 C   0  0  0  0  0  0
  -30.1959  -18.6248   19.0621 C   0  0  0  0  0  0
  -30.6357  -17.8063   21.7202 C   0  0  0  0  0  0
  -30.8083  -19.1703   21.3649 C   0  0  0  0  0  0
  -30.2395  -16.8496   20.7494 C   0  0  0  0  0  0
  -29.9828  -17.2821   19.4186 C   0  0  0  0  0  0
  -29.4278  -23.3824   21.3594 C   0  0  0  0  0  0
  -29.5083  -24.4861   20.5788 C   0  0  0  0  0  0
  -30.6083  -22.6165   21.7429 C   0  0  0  0  0  0
  -31.1616  -20.2461   22.3973 C   0  0  0  0  0  0
  -28.2953  -25.2551   20.0559 C   0  0  0  0  0  0
  -30.0453  -15.4853   21.1232 N   0  0  0  0  0  0
  -30.2855  -21.4207   22.2640 N   0  0  0  0  0  0
  -31.7750  -22.9661   21.5498 O   0  0  0  0  0  0
  -29.3550  -16.2243   18.2027 Cl  0  0  0  0  0  0
  -31.4728  -12.3736   19.1506 H   0  0  0  0  0  0
  -30.3181  -11.2879   19.8603 H   0  0  0  0  0  0
  -29.7477  -11.7386   17.4543 H   0  0  0  0  0  0
  -29.6847  -13.4525   17.7678 H   0  0  0  0  0  0
  -27.8345  -11.2960   18.8441 H   0  0  0  0  0  0
  -27.3787  -12.6075   17.7905 H   0  0  0  0  0  0
  -27.7076  -14.2466   19.5571 H   0  0  0  0  0  0
  -28.6687  -11.9770   21.3715 H   0  0  0  0  0  0
  -28.4587  -13.6295   21.8641 H   0  0  0  0  0  0
  -25.2756   -9.5713   22.4732 H   0  0  0  0  0  0
  -24.0038   -7.4618   22.7436 H   0  0  0  0  0  0
  -21.0828   -8.8793   19.8943 H   0  0  0  0  0  0
  -22.3673  -10.9698   19.6175 H   0  0  0  0  0  0
  -21.2003   -7.6142   23.9711 H   0  0  0  0  0  0
  -21.1487   -6.0506   25.9061 H   0  0  0  0  0  0
  -22.0605   -2.7617   23.2809 H   0  0  0  0  0  0
  -22.4158  -11.9906   22.4803 H   0  0  0  0  0  0
  -21.1184  -13.1320   22.2693 H   0  0  0  0  0  0
  -24.6845  -15.8572   20.5127 H   0  0  0  0  0  0
  -26.2975  -15.6103   20.0758 H   0  0  0  0  0  0
  -26.7143  -32.5523   23.1164 H   0  0  0  0  0  0
  -25.0089  -33.9786   25.0468 H   0  0  0  0  0  0
  -22.6938  -31.3073   21.4100 H   0  0  0  0  0  0
  -23.3804  -35.9579   23.3135 H   0  0  0  0  0  0
  -24.3633  -36.9053   22.2071 H   0  0  0  0  0  0
  -23.7160  -37.6433   23.6717 H   0  0  0  0  0  0
  -26.0499  -31.5928   20.5928 H   0  0  0  0  0  0
  -26.8227  -30.8831   21.9815 H   0  0  0  0  0  0
  -28.1000  -29.0910   21.1759 H   0  0  0  0  0  0
  -26.0349  -25.9632   19.0254 H   0  0  0  0  0  0
  -23.9840  -27.2927   19.0300 H   0  0  0  0  0  0
  -23.7323  -30.5974   19.4039 H   0  0  0  0  0  0
  -22.7392  -29.2452   19.8625 H   0  0  0  0  0  0
  -25.1235  -36.1914   25.0822 H   0  0  0  0  0  0
  -20.9957  -28.3232   24.1440 H   0  0  0  0  0  0
  -20.5659  -26.2269   23.3606 H   0  0  0  0  0  0
  -21.6638  -26.7442   22.1236 H   0  0  0  0  0  0
  -19.6901  -25.6311   21.1231 H   0  0  0  0  0  0
  -19.6701  -27.3221   20.6754 H   0  0  0  0  0  0
  -17.4205  -26.6700   21.4003 H   0  0  0  0  0  0
  -18.0307  -26.0089   22.9020 H   0  0  0  0  0  0
  -19.7930  -30.7283   24.2226 H   0  0  0  0  0  0
  -17.5019  -31.6238   24.5201 H   0  0  0  0  0  0
  -15.5342  -30.2974   23.7665 H   0  0  0  0  0  0
  -15.8686  -28.0865   22.6962 H   0  0  0  0  0  0
  -24.5879  -30.7112   25.7883 H   0  0  0  0  0  0
  -24.8955  -32.2971   26.4904 H   0  0  0  0  0  0
  -25.8084  -30.8996   27.0286 H   0  0  0  0  0  0
  -26.2804  -29.6855   24.1086 H   0  0  0  0  0  0
  -27.3902  -29.7178   25.4559 H   0  0  0  0  0  0
  -27.8684  -30.4297   23.9331 H   0  0  0  0  0  0
  -27.2686  -33.3604   26.2083 H   0  0  0  0  0  0
  -28.3843  -32.6877   25.0288 H   0  0  0  0  0  0
  -28.0754  -31.8440   26.5368 H   0  0  0  0  0  0
  -28.2405  -38.0251   24.7779 H   0  0  0  0  0  0
  -28.1326  -36.2819   24.5754 H   0  0  0  0  0  0
  -27.2431  -37.0834   25.8801 H   0  0  0  0  0  0
  -20.9306  -29.8797   21.6975 H   0  0  0  0  0  0
  -26.0098  -38.2828   24.1709 H   0  0  0  0  0  0
  -30.7621  -20.5856   19.7242 H   0  0  0  0  0  0
  -30.0093  -18.9468   18.0489 H   0  0  0  0  0  0
  -30.7948  -17.4924   22.7419 H   0  0  0  0  0  0
  -28.4530  -23.0433   21.6814 H   0  0  0  0  0  0
  -30.4741  -24.8468   20.2511 H   0  0  0  0  0  0
  -32.2128  -20.5182   22.2737 H   0  0  0  0  0  0
  -31.0663  -19.8457   23.4074 H   0  0  0  0  0  0
  -27.4163  -24.8869   20.5863 H   0  0  0  0  0  0
  -28.1762  -25.0014   19.0019 H   0  0  0  0  0  0
  -29.1657  -15.2610   21.5640 H   0  0  0  0  0  0
  -29.3057  -21.2470   22.4365 H   0  0  0  0  0  0
  1 25  1  0  0  0
  1 30  2  0  0  0
  1 82  1  0  0  0
  2  3  1  0  0  0
  2 25  1  0  0  0
  2 86  1  0  0  0
  2 87  1  0  0  0
  3  4  1  0  0  0
  3 88  1  0  0  0
  3 89  1  0  0  0
  4  5  1  0  0  0
  4 90  1  0  0  0
  4 91  1  0  0  0
  5  6  1  0  0  0
  5 26  1  0  0  0
  5 92  1  0  0  0
  6 25  1  0  0  0
  6 93  1  0  0  0
  6 94  1  0  0  0
  7  8  2  0  0  0
  7 26  1  0  0  0
  7 29  1  0  0  0
  8  9  1  0  0  0
  8 22  1  0  0  0
  9 10  1  0  0  0
  9 27  2  0  0  0
 10 11  2  0  0  0
 10 15  1  0  0  0
 11 12  1  0  0  0
 11 95  1  0  0  0
 12 13  2  0  0  0
 12 96  1  0  0  0
 13 14  1  0  0  0
 13 31  1  0  0  0
 14 15  2  0  0  0
 14 97  1  0  0  0
 15 98  1  0  0  0
 16 17  2  0  0  0
 16 21  1  0  0  0
 16 31  1  0  0  0
 17 18  1  0  0  0
 17 99  1  0  0  0
 18 19  2  0  0  0
 18100  1  0  0  0
 19 20  1  0  0  0
 19 24  1  0  0  0
 20 21  2  0  0  0
 20101  1  0  0  0
 21 23  1  0  0  0
 22 28  1  0  0  0
 22 32  2  0  0  0
 26 27  1  0  0  0
 28102  1  0  0  0
 28103  1  0  0  0
 29104  1  0  0  0
 29105  1  0  0  0
 33 34  1  0  0  0
 33 66  1  0  0  0
 33 70  2  0  0  0
 34 36  1  0  0  0
 34 59  1  0  0  0
 34106  1  0  0  0
 35 44  2  0  0  0
 35 45  1  0  0  0
 35 68  1  0  0  0
 36 56  1  0  0  0
 36107  1  0  0  0
 37 39  1  0  0  0
 37 47  1  0  0  0
 37 66  1  0  0  0
 37108  1  0  0  0
 38 43  2  0  0  0
 38 46  1  0  0  0
 38 47  1  0  0  0
 39 64  1  0  0  0
 39 67  2  0  0  0
 40 52  1  0  0  0
 40 53  2  0  0  0
 40 58  1  0  0  0
 41109  1  0  0  0
 41110  1  0  0  0
 41111  1  0  0  0
 41 48  1  0  0  0
 42 43  1  0  0  0
 42 66  1  0  0  0
 42112  1  0  0  0
 42113  1  0  0  0
 43 44  1  0  0  0
 44114  1  0  0  0
 45 46  2  0  0  0
 45115  1  0  0  0
 46116  1  0  0  0
 47117  1  0  0  0
 47118  1  0  0  0
 48 56  1  0  0  0
 48 65  1  0  0  0
 48119  1  0  0  0
 49 50  1  0  0  0
 49 53  1  0  0  0
 49 64  1  0  0  0
 49120  1  0  0  0
 50 51  1  0  0  0
 50121  1  0  0  0
 50122  1  0  0  0
 51 52  1  0  0  0
 51123  1  0  0  0
 51124  1  0  0  0
 52125  1  0  0  0
 52126  1  0  0  0
 53 54  1  0  0  0
 54 55  2  0  0  0
 54127  1  0  0  0
 55 57  1  0  0  0
 55128  1  0  0  0
 56 69  2  0  0  0
 57 58  2  0  0  0
 57129  1  0  0  0
 58130  1  0  0  0
 59 60  1  0  0  0
 59 61  1  0  0  0
 59 62  1  0  0  0
 60131  1  0  0  0
 60132  1  0  0  0
 60133  1  0  0  0
 61134  1  0  0  0
 61135  1  0  0  0
 61136  1  0  0  0
 62137  1  0  0  0
 62138  1  0  0  0
 62139  1  0  0  0
 63 65  1  0  0  0
 63140  1  0  0  0
 63141  1  0  0  0
 63142  1  0  0  0
 64143  1  0  0  0
 65144  1  0  0  0
 68 81  1  0  0  0
 71 72  2  0  0  0
 71 74  1  0  0  0
 71145  1  0  0  0
 72 76  1  0  0  0
 72146  1  0  0  0
 73 74  2  0  0  0
 73 75  1  0  0  0
 73147  1  0  0  0
 74 80  1  0  0  0
 75 76  2  0  0  0
 75 82  1  0  0  0
 76 85  1  0  0  0
 77 78  2  0  0  0
 77 79  1  0  0  0
 77148  1  0  0  0
 78 81  1  0  0  0
 78149  1  0  0  0
 79 83  1  0  0  0
 79 84  2  0  0  0
 80 83  1  0  0  0
 80150  1  0  0  0
 80151  1  0  0  0
 81152  1  0  0  0
 81153  1  0  0  0
 82154  1  0  0  0
 83155  1  0  0  0
M  ISO  4   1 100  68 101  81 101  82 100
M  END
> <chiral flag>
0

> <version>
0

> <s_m_source_file>
/data/baiqing/PycharmProjects/Reinvent-master-3.2/result/LINK_invent/BTK/process_docking_weight1_custom_product_contain_oxygen_bond_distance_aromatic_linkinvent_7_9_3/rearranged_h_0047.sdf

> <i_m_source_file_index>
15

> <r_mmod_Potential_Energy-OPLS-2005>
-200.146896362305

> <r_mmod_Stretch_Energy-OPLS-2005>
38.0718765258789

> <r_mmod_Bend_Energy-OPLS-2005>
90.8577423095703

> <r_mmod_Torsional_Energy-OPLS-2005>
234.268600463867

> <r_mmod_Improper_Torsional_Energy-OPLS-2005>
5.36491250991821

> <r_mmod_Van_der_Waal_Energy-OPLS-2005>
155.44123840332

> <r_mmod_Electrostatic_Energy-OPLS-2005>
-497.655151367188

> <r_mmod_Solvation_Energy-OPLS-2005>
-242.380783081055

> <b_mmod_Minimization_Converged-OPLS-2005>
0

> <r_mmod_RMS_Derivative-OPLS-2005>
3.43403100967407

$$$$
15
                    3D
 Structure written by MMmdl.
162170  0  0  1  0            999 V2000
  -30.7252  -14.4895   20.5677 C   0  0  0  0  0  0
  -30.4142  -12.3184   19.4319 C   0  0  0  0  0  0
  -29.4931  -12.5033   18.2098 C   0  0  0  0  0  0
  -28.0155  -12.3627   18.6213 C   0  0  0  0  0  0
  -27.6578  -13.2148   19.8692 C   0  0  2  0  0  0
  -28.7007  -13.0315   20.9952 C   0  0  0  0  0  0
  -25.2572  -13.8180   20.5678 C   0  0  0  0  0  0
  -24.1838  -13.0442   20.9183 C   0  0  0  0  0  0
  -24.6402  -11.6912   20.8742 C   0  0  0  0  0  0
  -23.9073  -10.4292   21.0404 C   0  0  0  0  0  0
  -24.3622   -9.4209   21.9185 C   0  0  0  0  0  0
  -23.6296   -8.2246   22.0755 C   0  0  0  0  0  0
  -22.4279   -8.0283   21.3542 C   0  0  0  0  0  0
  -21.9916   -9.0258   20.4645 C   0  0  0  0  0  0
  -22.7246  -10.2136   20.3054 C   0  0  0  0  0  0
  -21.6856   -6.0744   22.5282 C   0  0  0  0  0  0
  -21.4010   -6.5645   23.8216 C   0  0  0  0  0  0
  -21.3658   -5.6795   24.9178 C   0  0  0  0  0  0
  -21.6043   -4.3058   24.7226 C   0  0  0  0  0  0
  -21.8822   -3.8152   23.4346 C   0  0  0  0  0  0
  -21.9191   -4.6971   22.3403 C   0  0  0  0  0  0
  -22.7857  -13.5233   21.1847 C   0  0  0  0  0  0
  -22.1663   -4.2157   21.0981 F   0  0  0  0  0  0
  -21.5628   -3.4541   25.7737 F   0  0  0  0  0  0
  -30.0287  -13.3257   20.4354 N   0  0  0  0  0  0
  -26.3010  -12.9364   20.3350 N   0  0  0  0  0  0
  -25.9329  -11.6514   20.5768 N   0  0  0  0  0  0
  -22.0497  -12.8220   22.0397 N   0  0  0  0  0  0
  -25.4287  -15.1902   20.4074 N   0  0  0  0  0  0
  -31.8591  -14.6233   20.0997 O   0  0  0  0  0  0
  -21.6639   -6.8883   21.4242 O   0  0  0  0  0  0
  -22.3538  -14.5541   20.6700 O   0  0  0  0  0  0
  -24.6197  -31.8671   23.2122 C   0  0  0  0  0  0
  -25.9082  -32.4821   23.8411 C   0  0  1  0  0  0
  -27.2208  -27.3964   20.0964 C   0  0  0  0  0  0
  -25.5930  -33.8619   24.2339 N   0  0  0  0  0  0
  -23.4080  -30.4967   21.5524 C   0  0  2  0  0  0
  -24.8514  -28.9701   20.1095 C   0  0  0  0  0  0
  -22.7438  -29.4667   22.4955 C   0  0  0  0  0  0
  -18.0281  -28.1389   22.8486 C   0  0  0  0  0  0
  -24.1486  -36.7295   23.2638 C   0  0  0  0  0  0
  -25.9446  -30.8200   21.3761 C   0  0  0  0  0  0
  -26.0156  -29.4554   20.7170 C   0  0  0  0  0  0
  -27.2007  -28.6753   20.7120 C   0  0  0  0  0  0
  -26.0368  -26.9584   19.4508 C   0  0  0  0  0  0
  -24.8597  -27.7228   19.4725 C   0  0  0  0  0  0
  -23.6178  -29.8422   20.1625 C   0  0  0  0  0  0
  -25.4106  -36.3105   24.0340 C   0  0  1  0  0  0
  -20.5883  -28.3677   23.1303 C   0  0  2  0  0  0
  -20.6781  -26.9409   22.5410 C   0  0  0  0  0  0
  -19.5751  -26.6383   21.5222 C   0  0  0  0  0  0
  -18.1928  -26.7938   22.1619 C   0  0  0  0  0  0
  -19.1537  -28.8844   23.2900 C   0  0  0  0  0  0
  -18.9465  -30.1453   23.8909 C   0  0  0  0  0  0
  -17.6466  -30.6593   24.0568 C   0  0  0  0  0  0
  -25.9040  -34.9469   23.5130 C   0  0  0  0  0  0
  -16.5349  -29.9096   23.6330 C   0  0  0  0  0  0
  -16.7267  -28.6514   23.0347 C   0  0  0  0  0  0
  -26.4494  -31.6601   25.0742 C   0  0  0  0  0  0
  -25.3750  -31.3710   26.1480 C   0  0  0  0  0  0
  -27.0335  -30.3044   24.6133 C   0  0  0  0  0  0
  -27.6065  -32.4324   25.7503 C   0  0  0  0  0  0
  -27.5582  -37.1801   24.8468 C   0  0  0  0  0  0
  -21.4162  -29.3044   22.3697 N   0  0  0  0  0  0
  -26.4286  -37.3795   23.9416 N   0  0  0  0  0  0
  -24.6761  -31.0760   22.1042 N   0  0  0  0  0  0
  -23.4200  -28.8198   23.3001 O   0  0  0  0  0  0
  -28.3600  -26.5983   20.1529 O   0  0  0  0  0  0
  -26.5593  -34.8929   22.4687 O   0  0  0  0  0  0
  -23.5380  -32.1421   23.7502 O   0  0  0  0  0  0
  -32.3544  -18.4624   21.7217 C   0  0  0  0  0  0
  -31.8596  -17.1487   21.6667 C   0  0  0  0  0  0
  -29.7222  -18.0061   20.9028 C   0  0  0  0  0  0
  -30.2013  -19.3520   20.9508 C   0  0  0  0  0  0
  -31.5603  -19.5640   21.3361 C   0  0  0  0  0  0
  -30.5477  -16.8930   21.2154 C   0  0  0  0  0  0
  -29.2643  -20.4740   20.5179 C   0  0  0  0  0  0
  -29.0741  -24.2051   20.6312 C   0  0  0  0  0  0
  -32.2389  -20.9286   21.3269 C   0  0  0  0  0  0
  -26.6996  -21.6513   22.4844 C   0  0  0  0  0  0
  -28.1684  -25.1886   19.8486 C   0  0  0  0  0  0
  -27.5745  -22.8918   22.2421 C   0  0  0  0  0  0
  -28.4355  -22.8188   20.9583 C   0  0  2  0  0  0
  -30.0566  -15.5460   21.0923 N   0  0  0  0  0  0
  -29.4012  -21.6998   21.0687 N   0  0  0  0  0  0
  -28.3490  -20.2225   19.7309 O   0  0  0  0  0  0
  -30.2182  -24.5206   20.9742 O   0  0  0  0  0  0
  -31.4601  -12.4000   19.1319 H   0  0  0  0  0  0
  -30.3044  -11.3157   19.8473 H   0  0  0  0  0  0
  -29.7382  -11.7712   17.4396 H   0  0  0  0  0  0
  -29.6610  -13.4849   17.7638 H   0  0  0  0  0  0
  -27.8297  -11.3078   18.8270 H   0  0  0  0  0  0
  -27.3651  -12.6274   17.7866 H   0  0  0  0  0  0
  -27.6910  -14.2579   19.5527 H   0  0  0  0  0  0
  -28.6800  -12.0073   21.3703 H   0  0  0  0  0  0
  -28.4633  -13.6642   21.8512 H   0  0  0  0  0  0
  -25.2770   -9.5688   22.4753 H   0  0  0  0  0  0
  -24.0012   -7.4637   22.7472 H   0  0  0  0  0  0
  -21.0851   -8.8775   19.8945 H   0  0  0  0  0  0
  -22.3710  -10.9673   19.6158 H   0  0  0  0  0  0
  -21.1998   -7.6154   23.9723 H   0  0  0  0  0  0
  -21.1476   -6.0525   25.9081 H   0  0  0  0  0  0
  -22.0599   -2.7615   23.2844 H   0  0  0  0  0  0
  -22.4108  -11.9873   22.4774 H   0  0  0  0  0  0
  -21.1116  -13.1243   22.2600 H   0  0  0  0  0  0
  -24.6599  -15.8444   20.5051 H   0  0  0  0  0  0
  -26.2783  -15.6270   20.0737 H   0  0  0  0  0  0
  -26.7144  -32.5506   23.1158 H   0  0  0  0  0  0
  -25.0124  -33.9793   25.0517 H   0  0  0  0  0  0
  -22.6991  -31.3164   21.4191 H   0  0  0  0  0  0
  -23.3762  -35.9619   23.3307 H   0  0  0  0  0  0
  -24.3583  -36.8896   22.2054 H   0  0  0  0  0  0
  -23.7229  -37.6496   23.6641 H   0  0  0  0  0  0
  -26.0734  -31.5888   20.6124 H   0  0  0  0  0  0
  -26.8292  -30.8622   22.0002 H   0  0  0  0  0  0
  -28.0926  -29.0422   21.2005 H   0  0  0  0  0  0
  -25.9823  -26.0236   18.9147 H   0  0  0  0  0  0
  -23.9701  -27.3504   18.9841 H   0  0  0  0  0  0
  -23.7355  -30.6253   19.4128 H   0  0  0  0  0  0
  -22.7397  -29.2716   19.8554 H   0  0  0  0  0  0
  -25.1292  -36.1961   25.0834 H   0  0  0  0  0  0
  -20.9972  -28.3237   24.1426 H   0  0  0  0  0  0
  -20.5713  -26.2280   23.3598 H   0  0  0  0  0  0
  -21.6649  -26.7464   22.1184 H   0  0  0  0  0  0
  -19.6916  -25.6303   21.1232 H   0  0  0  0  0  0
  -19.6702  -27.3209   20.6771 H   0  0  0  0  0  0
  -17.4206  -26.6691   21.4006 H   0  0  0  0  0  0
  -18.0314  -26.0091   22.9023 H   0  0  0  0  0  0
  -19.7946  -30.7263   24.2278 H   0  0  0  0  0  0
  -17.5029  -31.6282   24.5159 H   0  0  0  0  0  0
  -15.5355  -30.3004   23.7679 H   0  0  0  0  0  0
  -15.8660  -28.0847   22.7053 H   0  0  0  0  0  0
  -24.5921  -30.7072   25.7797 H   0  0  0  0  0  0
  -24.8962  -32.2880   26.4928 H   0  0  0  0  0  0
  -25.8100  -30.8857   27.0228 H   0  0  0  0  0  0
  -26.2888  -29.6796   24.1192 H   0  0  0  0  0  0
  -27.4119  -29.7288   25.4590 H   0  0  0  0  0  0
  -27.8720  -30.4378   23.9295 H   0  0  0  0  0  0
  -27.2683  -33.3618   26.2096 H   0  0  0  0  0  0
  -28.3867  -32.6884   25.0322 H   0  0  0  0  0  0
  -28.0741  -31.8438   26.5406 H   0  0  0  0  0  0
  -28.2591  -38.0107   24.7535 H   0  0  0  0  0  0
  -28.1086  -36.2639   24.6266 H   0  0  0  0  0  0
  -27.2304  -37.1419   25.8872 H   0  0  0  0  0  0
  -20.9315  -29.8765   21.6923 H   0  0  0  0  0  0
  -26.0170  -38.2868   24.1436 H   0  0  0  0  0  0
  -33.3765  -18.6129   22.0420 H   0  0  0  0  0  0
  -32.5156  -16.3371   21.9506 H   0  0  0  0  0  0
  -28.7056  -17.8257   20.5808 H   0  0  0  0  0  0
  -33.3238  -20.8281   21.3653 H   0  0  0  0  0  0
  -31.9375  -21.5206   22.1907 H   0  0  0  0  0  0
  -32.0117  -21.4810   20.4144 H   0  0  0  0  0  0
  -26.0456  -21.8030   23.3433 H   0  0  0  0  0  0
  -27.2998  -20.7636   22.6880 H   0  0  0  0  0  0
  -26.0691  -21.4367   21.6206 H   0  0  0  0  0  0
  -27.1587  -24.8697   20.0998 H   0  0  0  0  0  0
  -28.3078  -25.0264   18.7796 H   0  0  0  0  0  0
  -28.2141  -23.0583   23.1109 H   0  0  0  0  0  0
  -26.9158  -23.7609   22.1919 H   0  0  0  0  0  0
  -27.7568  -22.6035   20.1313 H   0  0  0  0  0  0
  -29.0808  -15.3904   21.2939 H   0  0  0  0  0  0
  -30.1878  -21.8418   21.6864 H   0  0  0  0  0  0
  1 25  1  0  0  0
  1 30  2  0  0  0
  1 84  1  0  0  0
  2  3  1  0  0  0
  2 25  1  0  0  0
  2 88  1  0  0  0
  2 89  1  0  0  0
  3  4  1  0  0  0
  3 90  1  0  0  0
  3 91  1  0  0  0
  4  5  1  0  0  0
  4 92  1  0  0  0
  4 93  1  0  0  0
  5  6  1  0  0  0
  5 26  1  0  0  0
  5 94  1  0  0  0
  6 25  1  0  0  0
  6 95  1  0  0  0
  6 96  1  0  0  0
  7  8  2  0  0  0
  7 26  1  0  0  0
  7 29  1  0  0  0
  8  9  1  0  0  0
  8 22  1  0  0  0
  9 10  1  0  0  0
  9 27  2  0  0  0
 10 11  2  0  0  0
 10 15  1  0  0  0
 11 12  1  0  0  0
 11 97  1  0  0  0
 12 13  2  0  0  0
 12 98  1  0  0  0
 13 14  1  0  0  0
 13 31  1  0  0  0
 14 15  2  0  0  0
 14 99  1  0  0  0
 15100  1  0  0  0
 16 17  2  0  0  0
 16 21  1  0  0  0
 16 31  1  0  0  0
 17 18  1  0  0  0
 17101  1  0  0  0
 18 19  2  0  0  0
 18102  1  0  0  0
 19 20  1  0  0  0
 19 24  1  0  0  0
 20 21  2  0  0  0
 20103  1  0  0  0
 21 23  1  0  0  0
 22 28  1  0  0  0
 22 32  2  0  0  0
 26 27  1  0  0  0
 28104  1  0  0  0
 28105  1  0  0  0
 29106  1  0  0  0
 29107  1  0  0  0
 33 34  1  0  0  0
 33 66  1  0  0  0
 33 70  2  0  0  0
 34 36  1  0  0  0
 34 59  1  0  0  0
 34108  1  0  0  0
 35 44  2  0  0  0
 35 45  1  0  0  0
 35 68  1  0  0  0
 36 56  1  0  0  0
 36109  1  0  0  0
 37 39  1  0  0  0
 37 47  1  0  0  0
 37 66  1  0  0  0
 37110  1  0  0  0
 38 43  2  0  0  0
 38 46  1  0  0  0
 38 47  1  0  0  0
 39 64  1  0  0  0
 39 67  2  0  0  0
 40 52  1  0  0  0
 40 53  2  0  0  0
 40 58  1  0  0  0
 41111  1  0  0  0
 41112  1  0  0  0
 41113  1  0  0  0
 41 48  1  0  0  0
 42 43  1  0  0  0
 42 66  1  0  0  0
 42114  1  0  0  0
 42115  1  0  0  0
 43 44  1  0  0  0
 44116  1  0  0  0
 45 46  2  0  0  0
 45117  1  0  0  0
 46118  1  0  0  0
 47119  1  0  0  0
 47120  1  0  0  0
 48 56  1  0  0  0
 48 65  1  0  0  0
 48121  1  0  0  0
 49 50  1  0  0  0
 49 53  1  0  0  0
 49 64  1  0  0  0
 49122  1  0  0  0
 50 51  1  0  0  0
 50123  1  0  0  0
 50124  1  0  0  0
 51 52  1  0  0  0
 51125  1  0  0  0
 51126  1  0  0  0
 52127  1  0  0  0
 52128  1  0  0  0
 53 54  1  0  0  0
 54 55  2  0  0  0
 54129  1  0  0  0
 55 57  1  0  0  0
 55130  1  0  0  0
 56 69  2  0  0  0
 57 58  2  0  0  0
 57131  1  0  0  0
 58132  1  0  0  0
 59 60  1  0  0  0
 59 61  1  0  0  0
 59 62  1  0  0  0
 60133  1  0  0  0
 60134  1  0  0  0
 60135  1  0  0  0
 61136  1  0  0  0
 61137  1  0  0  0
 61138  1  0  0  0
 62139  1  0  0  0
 62140  1  0  0  0
 62141  1  0  0  0
 63 65  1  0  0  0
 63142  1  0  0  0
 63143  1  0  0  0
 63144  1  0  0  0
 64145  1  0  0  0
 65146  1  0  0  0
 68 81  1  0  0  0
 71 72  2  0  0  0
 71 75  1  0  0  0
 71147  1  0  0  0
 72 76  1  0  0  0
 72148  1  0  0  0
 73 74  1  0  0  0
 73 76  2  0  0  0
 73149  1  0  0  0
 74 75  2  0  0  0
 74 77  1  0  0  0
 75 79  1  0  0  0
 76 84  1  0  0  0
 77 85  1  0  0  0
 77 86  2  0  0  0
 78 81  1  0  0  0
 78 83  1  0  0  0
 78 87  2  0  0  0
 79150  1  0  0  0
 79151  1  0  0  0
 79152  1  0  0  0
 80 82  1  0  0  0
 80153  1  0  0  0
 80154  1  0  0  0
 80155  1  0  0  0
 81156  1  0  0  0
 81157  1  0  0  0
 82158  1  0  0  0
 82159  1  0  0  0
 82 83  1  0  0  0
 83 85  1  0  0  0
 83160  1  0  0  0
 84161  1  0  0  0
 85162  1  0  0  0
M  ISO  4   1 100  68 101  81 101  84 100
M  END
> <chiral flag>
0

> <version>
0

> <s_m_source_file>
/data/baiqing/PycharmProjects/Reinvent-master-3.2/result/LINK_invent/BTK/process_docking_weight1_custom_product_contain_oxygen_bond_distance_aromatic_linkinvent_7_9_3/rearranged_h_0047.sdf

> <i_m_source_file_index>
16

> <r_mmod_Potential_Energy-OPLS-2005>
-73.273063659668

> <r_mmod_Stretch_Energy-OPLS-2005>
49.5178871154785

> <r_mmod_Bend_Energy-OPLS-2005>
107.865524291992

> <r_mmod_Torsional_Energy-OPLS-2005>
234.888259887695

> <r_mmod_Improper_Torsional_Energy-OPLS-2005>
4.35687732696533

> <r_mmod_Van_der_Waal_Energy-OPLS-2005>
167.015380859375

> <r_mmod_Electrostatic_Energy-OPLS-2005>
-422.84130859375

> <r_mmod_Solvation_Energy-OPLS-2005>
-234.695739746094

> <b_mmod_Minimization_Converged-OPLS-2005>
0

> <r_mmod_RMS_Derivative-OPLS-2005>
1.546910405159

$$$$
16
                    3D
 Structure written by MMmdl.
170179  0  0  1  0            999 V2000
  -30.6593  -14.7793   20.3521 C   0  0  0  0  0  0
  -30.3988  -12.4649   19.4355 C   0  0  0  0  0  0
  -29.4785  -12.4570   18.1949 C   0  0  0  0  0  0
  -28.0074  -12.2959   18.6233 C   0  0  0  0  0  0
  -27.6163  -13.2308   19.7960 C   0  0  2  0  0  0
  -28.6675  -13.2415   20.9146 C   0  0  0  0  0  0
  -25.2508  -13.8208   20.5633 C   0  0  0  0  0  0
  -24.1806  -13.0471   20.9176 C   0  0  0  0  0  0
  -24.6360  -11.6923   20.8788 C   0  0  0  0  0  0
  -23.9035  -10.4315   21.0407 C   0  0  0  0  0  0
  -24.3606   -9.4252   21.9198 C   0  0  0  0  0  0
  -23.6294   -8.2291   22.0745 C   0  0  0  0  0  0
  -22.4303   -8.0296   21.3510 C   0  0  0  0  0  0
  -21.9911   -9.0289   20.4648 C   0  0  0  0  0  0
  -22.7201  -10.2177   20.3058 C   0  0  0  0  0  0
  -21.6891   -6.0787   22.5263 C   0  0  0  0  0  0
  -21.4004   -6.5650   23.8209 C   0  0  0  0  0  0
  -21.3656   -5.6791   24.9164 C   0  0  0  0  0  0
  -21.6056   -4.3062   24.7207 C   0  0  0  0  0  0
  -21.8831   -3.8167   23.4324 C   0  0  0  0  0  0
  -21.9205   -4.6998   22.3384 C   0  0  0  0  0  0
  -22.7825  -13.5226   21.1872 C   0  0  0  0  0  0
  -22.1681   -4.2149   21.0980 F   0  0  0  0  0  0
  -21.5634   -3.4553   25.7742 F   0  0  0  0  0  0
  -29.9555  -13.5881   20.3020 N   0  0  0  0  0  0
  -26.2840  -12.9395   20.3087 N   0  0  0  0  0  0
  -25.9255  -11.6554   20.5718 N   0  0  0  0  0  0
  -22.0455  -12.8231   22.0404 N   0  0  0  0  0  0
  -25.4251  -15.1935   20.4035 N   0  0  0  0  0  0
  -31.8755  -14.7547   20.1511 O   0  0  0  0  0  0
  -21.6660   -6.8897   21.4219 O   0  0  0  0  0  0
  -22.3490  -14.5543   20.6720 O   0  0  0  0  0  0
  -24.6401  -31.8447   23.1981 C   0  0  0  0  0  0
  -25.9164  -32.4720   23.8349 C   0  0  1  0  0  0
  -27.2233  -27.2216   20.1115 C   0  0  0  0  0  0
  -25.5886  -33.8531   24.2211 N   0  0  0  0  0  0
  -23.4370  -30.4578   21.5391 C   0  0  2  0  0  0
  -24.8878  -28.9009   20.1042 C   0  0  0  0  0  0
  -22.7437  -29.4478   22.4924 C   0  0  0  0  0  0
  -18.0314  -28.1216   22.8476 C   0  0  0  0  0  0
  -24.1482  -36.7286   23.2636 C   0  0  0  0  0  0
  -25.9860  -30.7366   21.3843 C   0  0  0  0  0  0
  -26.0562  -29.3602   20.7224 C   0  0  0  0  0  0
  -27.2234  -28.5245   20.7167 C   0  0  0  0  0  0
  -26.0290  -26.8231   19.4896 C   0  0  0  0  0  0
  -24.8782  -27.6453   19.4758 C   0  0  0  0  0  0
  -23.6590  -29.7910   20.1549 C   0  0  0  0  0  0
  -25.4109  -36.3041   24.0324 C   0  0  1  0  0  0
  -20.5864  -28.3617   23.1334 C   0  0  2  0  0  0
  -20.6899  -26.9376   22.5468 C   0  0  0  0  0  0
  -19.5916  -26.6518   21.5220 C   0  0  0  0  0  0
  -18.2011  -26.7814   22.1534 C   0  0  0  0  0  0
  -19.1517  -28.8763   23.2937 C   0  0  0  0  0  0
  -18.9441  -30.1340   23.8935 C   0  0  0  0  0  0
  -17.6385  -30.6395   24.0693 C   0  0  0  0  0  0
  -25.9072  -34.9402   23.5101 C   0  0  0  0  0  0
  -16.5270  -29.8959   23.6270 C   0  0  0  0  0  0
  -16.7306  -28.6417   23.0140 C   0  0  0  0  0  0
  -26.4496  -31.6581   25.0775 C   0  0  0  0  0  0
  -25.3765  -31.3789   26.1558 C   0  0  0  0  0  0
  -27.0342  -30.2976   24.6357 C   0  0  0  0  0  0
  -27.6016  -32.4386   25.7595 C   0  0  0  0  0  0
  -27.5568  -37.1800   24.8445 C   0  0  0  0  0  0
  -21.4165  -29.2931   22.3593 N   0  0  0  0  0  0
  -26.4261  -37.3747   23.9425 N   0  0  0  0  0  0
  -24.7047  -31.0345   22.1001 N   0  0  0  0  0  0
  -23.4076  -28.8208   23.3250 O   0  0  0  0  0  0
  -28.3027  -26.3142   20.2617 O   0  0  0  0  0  0
  -26.5596  -34.8907   22.4660 O   0  0  0  0  0  0
  -23.5499  -32.1297   23.7219 O   0  0  0  0  0  0
  -27.7622  -16.7936   22.9366 C   0  0  0  0  0  0
  -27.4708  -18.5876   21.3356 C   0  0  0  0  0  0
  -26.9378  -17.7713   22.3520 C   0  0  0  0  0  0
  -28.9893  -16.4456   22.3535 C   0  0  0  0  0  0
  -28.7129  -18.2981   20.7133 C   0  0  0  0  0  0
  -29.3132  -16.9639   21.0655 C   0  0  0  0  0  0
  -28.6053  -22.3127   20.1662 C   0  0  0  0  0  0
  -28.6999  -22.4334   21.4964 C   0  0  0  0  0  0
  -26.5770  -21.8762   18.3148 C   0  0  0  0  0  0
  -27.2323  -23.2779   18.1636 C   0  0  0  0  0  0
  -27.5235  -20.6549   18.4779 C   0  0  0  0  0  0
  -28.3766  -23.5539   19.1659 C   0  0  1  0  0  0
  -25.5291  -17.9711   22.8909 C   0  0  0  0  0  0
  -29.9215  -15.5302   23.1797 C   0  0  0  0  0  0
  -29.3676  -19.5598   19.9227 C   0  0  0  0  0  0
  -28.7171  -25.1762   19.3570 C   0  0  0  0  0  0
  -30.0416  -16.0277   20.1825 N   0  0  0  0  0  0
  -28.6368  -20.8778   19.4459 N   0  3  2  0  0  0
  -31.4421  -12.5419   19.1297 H   0  0  0  0  0  0
  -30.3243  -11.5096   19.9550 H   0  0  0  0  0  0
  -29.7481  -11.6502   17.5084 H   0  0  0  0  0  0
  -29.5990  -13.3799   17.6288 H   0  0  0  0  0  0
  -27.8774  -11.2554   18.9304 H   0  0  0  0  0  0
  -27.3285  -12.4374   17.7818 H   0  0  0  0  0  0
  -27.5881  -14.2342   19.3698 H   0  0  0  0  0  0
  -28.7163  -12.2797   21.4268 H   0  0  0  0  0  0
  -28.3574  -13.9690   21.6536 H   0  0  0  0  0  0
  -25.2747   -9.5796   22.4761 H   0  0  0  0  0  0
  -24.0041   -7.4701   22.7438 H   0  0  0  0  0  0
  -21.0866   -8.8808   19.8947 H   0  0  0  0  0  0
  -22.3637  -10.9741   19.6198 H   0  0  0  0  0  0
  -21.1970   -7.6147   23.9684 H   0  0  0  0  0  0
  -21.1456   -6.0538   25.9064 H   0  0  0  0  0  0
  -22.0600   -2.7604   23.2840 H   0  0  0  0  0  0
  -22.4115  -11.9935   22.4886 H   0  0  0  0  0  0
  -21.1030  -13.1223   22.2542 H   0  0  0  0  0  0
  -24.6944  -15.8619   20.6128 H   0  0  0  0  0  0
  -26.3107  -15.6237   20.1765 H   0  0  0  0  0  0
  -26.7246  -32.5335   23.1096 H   0  0  0  0  0  0
  -25.0120  -33.9646   25.0415 H   0  0  0  0  0  0
  -22.7335  -31.2814   21.3830 H   0  0  0  0  0  0
  -23.3740  -35.9618   23.3275 H   0  0  0  0  0  0
  -24.3560  -36.8953   22.2044 H   0  0  0  0  0  0
  -23.7232  -37.6500   23.6691 H   0  0  0  0  0  0
  -26.1374  -31.4924   20.6159 H   0  0  0  0  0  0
  -26.8608  -30.7832   22.0199 H   0  0  0  0  0  0
  -28.1138  -28.8516   21.2321 H   0  0  0  0  0  0
  -25.9450  -25.8329   19.0902 H   0  0  0  0  0  0
  -23.9779  -27.2816   18.9915 H   0  0  0  0  0  0
  -23.8013  -30.5676   19.4032 H   0  0  0  0  0  0
  -22.7839  -29.2249   19.8367 H   0  0  0  0  0  0
  -25.1290  -36.1902   25.0806 H   0  0  0  0  0  0
  -20.9917  -28.3199   24.1473 H   0  0  0  0  0  0
  -21.6799  -26.7602   22.1365 H   0  0  0  0  0  0
  -20.5735  -26.1988   23.3436 H   0  0  0  0  0  0
  -19.6855  -27.3801   20.7166 H   0  0  0  0  0  0
  -19.7203  -25.6627   21.0780 H   0  0  0  0  0  0
  -17.4351  -26.6600   21.3877 H   0  0  0  0  0  0
  -18.0482  -25.9864   22.8832 H   0  0  0  0  0  0
  -19.7867  -30.7252   24.2299 H   0  0  0  0  0  0
  -17.4818  -31.5901   24.5589 H   0  0  0  0  0  0
  -15.5178  -30.2758   23.7526 H   0  0  0  0  0  0
  -15.8762  -28.0803   22.6395 H   0  0  0  0  0  0
  -24.5954  -30.7065   25.7987 H   0  0  0  0  0  0
  -24.8946  -32.2979   26.4946 H   0  0  0  0  0  0
  -25.8158  -30.9081   27.0377 H   0  0  0  0  0  0
  -26.2923  -29.6778   24.1333 H   0  0  0  0  0  0
  -27.3869  -29.7234   25.4929 H   0  0  0  0  0  0
  -27.8889  -30.4190   23.9716 H   0  0  0  0  0  0
  -27.2547  -33.3708   26.2135 H   0  0  0  0  0  0
  -28.3908  -32.6966   25.0491 H   0  0  0  0  0  0
  -28.0643  -31.8573   26.5610 H   0  0  0  0  0  0
  -28.2557  -38.0112   24.7510 H   0  0  0  0  0  0
  -28.1084  -36.2652   24.6256 H   0  0  0  0  0  0
  -27.2288  -37.1444   25.8836 H   0  0  0  0  0  0
  -20.9476  -29.8226   21.6352 H   0  0  0  0  0  0
  -26.0149  -38.2840   24.1423 H   0  0  0  0  0  0
  -27.4452  -16.2910   23.8379 H   0  0  0  0  0  0
  -26.9436  -19.4912   21.0727 H   0  0  0  0  0  0
  -28.6856  -23.4106   21.9604 H   0  0  0  0  0  0
  -28.7878  -21.5596   22.1289 H   0  0  0  0  0  0
  -25.9161  -21.7103   17.4600 H   0  0  0  0  0  0
  -25.9235  -21.9223   19.1839 H   0  0  0  0  0  0
  -26.4521  -24.0219   18.2958 H   0  0  0  0  0  0
  -27.6006  -23.4469   17.1512 H   0  0  0  0  0  0
  -27.9510  -20.3810   17.5072 H   0  0  0  0  0  0
  -26.9545  -19.7850   18.7996 H   0  0  0  0  0  0
  -29.2354  -23.3285   18.5296 H   0  0  0  0  0  0
  -25.4596  -18.8523   23.5324 H   0  0  0  0  0  0
  -25.2126  -17.1111   23.4862 H   0  0  0  0  0  0
  -24.7947  -18.0758   22.0932 H   0  0  0  0  0  0
  -29.6851  -14.4703   23.1493 H   0  0  0  0  0  0
  -29.8997  -15.8331   24.2291 H   0  0  0  0  0  0
  -30.9758  -15.6072   22.9093 H   0  0  0  0  0  0
  -29.7950  -19.1573   19.0062 H   0  0  0  0  0  0
  -30.2489  -19.8605   20.4832 H   0  0  0  0  0  0
  -28.5838  -25.6066   18.3634 H   0  0  0  0  0  0
  -29.8019  -25.1906   19.4918 H   0  0  0  0  0  0
  -30.4679  -16.4917   19.3990 H   0  0  0  0  0  0
  -29.3395  -21.0585   18.7496 H   0  0  0  0  0  0
  1 25  1  0  0  0
  1 30  2  0  0  0
  1 87  1  0  0  0
  2  3  1  0  0  0
  2 25  1  0  0  0
  2 89  1  0  0  0
  2 90  1  0  0  0
  3  4  1  0  0  0
  3 91  1  0  0  0
  3 92  1  0  0  0
  4  5  1  0  0  0
  4 93  1  0  0  0
  4 94  1  0  0  0
  5  6  1  0  0  0
  5 26  1  0  0  0
  5 95  1  0  0  0
  6 25  1  0  0  0
  6 96  1  0  0  0
  6 97  1  0  0  0
  7  8  2  0  0  0
  7 26  1  0  0  0
  7 29  1  0  0  0
  8  9  1  0  0  0
  8 22  1  0  0  0
  9 10  1  0  0  0
  9 27  2  0  0  0
 10 11  2  0  0  0
 10 15  1  0  0  0
 11 12  1  0  0  0
 11 98  1  0  0  0
 12 13  2  0  0  0
 12 99  1  0  0  0
 13 14  1  0  0  0
 13 31  1  0  0  0
 14 15  2  0  0  0
 14100  1  0  0  0
 15101  1  0  0  0
 16 17  2  0  0  0
 16 21  1  0  0  0
 16 31  1  0  0  0
 17 18  1  0  0  0
 17102  1  0  0  0
 18 19  2  0  0  0
 18103  1  0  0  0
 19 20  1  0  0  0
 19 24  1  0  0  0
 20 21  2  0  0  0
 20104  1  0  0  0
 21 23  1  0  0  0
 22 28  1  0  0  0
 22 32  2  0  0  0
 26 27  1  0  0  0
 28105  1  0  0  0
 28106  1  0  0  0
 29107  1  0  0  0
 29108  1  0  0  0
 33 34  1  0  0  0
 33 66  1  0  0  0
 33 70  2  0  0  0
 34 36  1  0  0  0
 34 59  1  0  0  0
 34109  1  0  0  0
 35 44  2  0  0  0
 35 45  1  0  0  0
 35 68  1  0  0  0
 36 56  1  0  0  0
 36110  1  0  0  0
 37 39  1  0  0  0
 37 47  1  0  0  0
 37 66  1  0  0  0
 37111  1  0  0  0
 38 43  2  0  0  0
 38 46  1  0  0  0
 38 47  1  0  0  0
 39 64  1  0  0  0
 39 67  2  0  0  0
 40 52  1  0  0  0
 40 53  2  0  0  0
 40 58  1  0  0  0
 41112  1  0  0  0
 41113  1  0  0  0
 41114  1  0  0  0
 41 48  1  0  0  0
 42 43  1  0  0  0
 42 66  1  0  0  0
 42115  1  0  0  0
 42116  1  0  0  0
 43 44  1  0  0  0
 44117  1  0  0  0
 45 46  2  0  0  0
 45118  1  0  0  0
 46119  1  0  0  0
 47120  1  0  0  0
 47121  1  0  0  0
 48 56  1  0  0  0
 48 65  1  0  0  0
 48122  1  0  0  0
 49 50  1  0  0  0
 49 53  1  0  0  0
 49 64  1  0  0  0
 49123  1  0  0  0
 50 51  1  0  0  0
 50124  1  0  0  0
 50125  1  0  0  0
 51 52  1  0  0  0
 51126  1  0  0  0
 51127  1  0  0  0
 52128  1  0  0  0
 52129  1  0  0  0
 53 54  1  0  0  0
 54 55  2  0  0  0
 54130  1  0  0  0
 55 57  1  0  0  0
 55131  1  0  0  0
 56 69  2  0  0  0
 57 58  2  0  0  0
 57132  1  0  0  0
 58133  1  0  0  0
 59 60  1  0  0  0
 59 61  1  0  0  0
 59 62  1  0  0  0
 60134  1  0  0  0
 60135  1  0  0  0
 60136  1  0  0  0
 61137  1  0  0  0
 61138  1  0  0  0
 61139  1  0  0  0
 62140  1  0  0  0
 62141  1  0  0  0
 62142  1  0  0  0
 63 65  1  0  0  0
 63143  1  0  0  0
 63144  1  0  0  0
 63145  1  0  0  0
 64146  1  0  0  0
 65147  1  0  0  0
 68 86  1  0  0  0
 71 73  2  0  0  0
 71 74  1  0  0  0
 71148  1  0  0  0
 72 73  1  0  0  0
 72 75  2  0  0  0
 72149  1  0  0  0
 73 83  1  0  0  0
 74 76  2  0  0  0
 74 84  1  0  0  0
 75 76  1  0  0  0
 75 85  1  0  0  0
 76 87  1  0  0  0
 77 78  2  0  0  0
 77 82  1  0  0  0
 77 88  1  0  0  0
 78150  1  0  0  0
 78151  1  0  0  0
 79 80  1  0  0  0
 79 81  1  0  0  0
 79152  1  0  0  0
 79153  1  0  0  0
 80 82  1  0  0  0
 80154  1  0  0  0
 80155  1  0  0  0
 81 88  1  0  0  0
 81156  1  0  0  0
 81157  1  0  0  0
 82 86  1  0  0  0
 82158  1  0  0  0
 83159  1  0  0  0
 83160  1  0  0  0
 83161  1  0  0  0
 84162  1  0  0  0
 84163  1  0  0  0
 84164  1  0  0  0
 85165  1  0  0  0
 85166  1  0  0  0
 85 88  1  0  0  0
 86167  1  0  0  0
 86168  1  0  0  0
 87169  1  0  0  0
 88170  1  0  0  0
M  CHG  1  88   1
M  ISO  4   1 100  68 101  86 101  87 100
M  END
> <chiral flag>
0

> <version>
0

> <s_m_source_file>
/data/baiqing/PycharmProjects/Reinvent-master-3.2/result/LINK_invent/BTK/process_docking_weight1_custom_product_contain_oxygen_bond_distance_aromatic_linkinvent_7_9_3/rearranged_h_0047.sdf

> <i_m_source_file_index>
17

> <r_mmod_Potential_Energy-OPLS-2005>
546.220825195312

> <r_mmod_Stretch_Energy-OPLS-2005>
200.264526367188

> <r_mmod_Bend_Energy-OPLS-2005>
395.317321777344

> <r_mmod_Torsional_Energy-OPLS-2005>
401.940399169922

> <r_mmod_Improper_Torsional_Energy-OPLS-2005>
17.0152988433838

> <r_mmod_Van_der_Waal_Energy-OPLS-2005>
134.143020629883

> <r_mmod_Electrostatic_Energy-OPLS-2005>
-280.259948730469

> <r_mmod_Solvation_Energy-OPLS-2005>
-444.191589355469

> <b_mmod_Minimization_Converged-OPLS-2005>
0

> <r_mmod_RMS_Derivative-OPLS-2005>
15.5720281600952

$$$$
17
                    3D
 Structure written by MMmdl.
163172  0  0  1  0            999 V2000
  -30.6662  -14.6067   20.4734 C   0  0  0  0  0  0
  -30.4235  -12.3646   19.4542 C   0  0  0  0  0  0
  -29.5010  -12.4836   18.2230 C   0  0  0  0  0  0
  -28.0228  -12.3386   18.6364 C   0  0  0  0  0  0
  -27.6489  -13.2216   19.8570 C   0  0  2  0  0  0
  -28.6947  -13.1030   20.9890 C   0  0  0  0  0  0
  -25.2540  -13.8187   20.5691 C   0  0  0  0  0  0
  -24.1814  -13.0439   20.9209 C   0  0  0  0  0  0
  -24.6399  -11.6919   20.8749 C   0  0  0  0  0  0
  -23.9067  -10.4294   21.0403 C   0  0  0  0  0  0
  -24.3617   -9.4212   21.9182 C   0  0  0  0  0  0
  -23.6291   -8.2246   22.0751 C   0  0  0  0  0  0
  -22.4277   -8.0281   21.3536 C   0  0  0  0  0  0
  -21.9906   -9.0255   20.4643 C   0  0  0  0  0  0
  -22.7234  -10.2137   20.3057 C   0  0  0  0  0  0
  -21.6861   -6.0742   22.5278 C   0  0  0  0  0  0
  -21.4022   -6.5643   23.8212 C   0  0  0  0  0  0
  -21.3653   -5.6794   24.9172 C   0  0  0  0  0  0
  -21.6043   -4.3056   24.7224 C   0  0  0  0  0  0
  -21.8817   -3.8149   23.4347 C   0  0  0  0  0  0
  -21.9197   -4.6966   22.3402 C   0  0  0  0  0  0
  -22.7835  -13.5236   21.1859 C   0  0  0  0  0  0
  -22.1663   -4.2157   21.0979 F   0  0  0  0  0  0
  -21.5627   -3.4538   25.7737 F   0  0  0  0  0  0
  -30.0106  -13.4087   20.4118 N   0  0  0  0  0  0
  -26.2967  -12.9376   20.3308 N   0  0  0  0  0  0
  -25.9323  -11.6525   20.5751 N   0  0  0  0  0  0
  -22.0485  -12.8230   22.0427 N   0  0  0  0  0  0
  -25.4221  -15.1900   20.4092 N   0  0  0  0  0  0
  -31.8461  -14.7100   20.1313 O   0  0  0  0  0  0
  -21.6638   -6.8878   21.4233 O   0  0  0  0  0  0
  -22.3516  -14.5526   20.6694 O   0  0  0  0  0  0
  -24.6248  -31.8577   23.2021 C   0  0  0  0  0  0
  -25.9103  -32.4761   23.8334 C   0  0  1  0  0  0
  -27.2228  -27.3330   20.0978 C   0  0  0  0  0  0
  -25.5925  -33.8564   24.2263 N   0  0  0  0  0  0
  -23.4172  -30.4813   21.5444 C   0  0  2  0  0  0
  -24.8600  -28.9329   20.1144 C   0  0  0  0  0  0
  -22.7460  -29.4609   22.4936 C   0  0  0  0  0  0
  -18.0272  -28.1388   22.8478 C   0  0  0  0  0  0
  -24.1491  -36.7305   23.2634 C   0  0  0  0  0  0
  -25.9568  -30.7915   21.3697 C   0  0  0  0  0  0
  -26.0295  -29.4202   20.7108 C   0  0  0  0  0  0
  -27.2165  -28.6334   20.6862 C   0  0  0  0  0  0
  -26.0235  -26.8785   19.5092 C   0  0  0  0  0  0
  -24.8575  -27.6663   19.5083 C   0  0  0  0  0  0
  -23.6304  -29.8154   20.1598 C   0  0  0  0  0  0
  -25.4114  -36.3082   24.0325 C   0  0  1  0  0  0
  -20.5871  -28.3679   23.1293 C   0  0  2  0  0  0
  -20.6769  -26.9408   22.5403 C   0  0  0  0  0  0
  -19.5748  -26.6391   21.5199 C   0  0  0  0  0  0
  -18.1929  -26.7928   22.1616 C   0  0  0  0  0  0
  -19.1527  -28.8849   23.2876 C   0  0  0  0  0  0
  -18.9459  -30.1450   23.8900 C   0  0  0  0  0  0
  -17.6466  -30.6593   24.0563 C   0  0  0  0  0  0
  -25.9049  -34.9445   23.5095 C   0  0  0  0  0  0
  -16.5354  -29.9097   23.6331 C   0  0  0  0  0  0
  -16.7263  -28.6513   23.0346 C   0  0  0  0  0  0
  -26.4495  -31.6581   25.0708 C   0  0  0  0  0  0
  -25.3737  -31.3742   26.1447 C   0  0  0  0  0  0
  -27.0310  -30.2995   24.6158 C   0  0  0  0  0  0
  -27.6048  -32.4316   25.7488 C   0  0  0  0  0  0
  -27.5583  -37.1797   24.8458 C   0  0  0  0  0  0
  -21.4173  -29.3036   22.3694 N   0  0  0  0  0  0
  -26.4293  -37.3777   23.9417 N   0  0  0  0  0  0
  -24.6853  -31.0598   22.0964 N   0  0  0  0  0  0
  -23.4188  -28.8142   23.3003 O   0  0  0  0  0  0
  -28.3741  -26.5410   20.0767 O   0  0  0  0  0  0
  -26.5621  -34.8913   22.4664 O   0  0  0  0  0  0
  -23.5419  -32.1371   23.7366 O   0  0  0  0  0  0
  -28.5379  -18.1743   21.7963 C   0  0  0  0  0  0
  -27.9853  -20.5565   21.7624 C   0  0  0  0  0  0
  -29.5053  -18.3524   20.7859 C   0  0  0  0  0  0
  -29.7009  -19.6876   20.2633 C   0  0  0  0  0  0
  -28.9438  -20.8125   20.7597 C   0  0  0  0  0  0
  -27.7857  -19.2622   22.2758 C   0  0  0  0  0  0
  -29.9001  -23.0987   21.0705 C   0  0  0  0  0  0
  -30.9704  -22.6975   21.7781 C   0  0  0  0  0  0
  -29.5665  -24.6135   21.0221 C   0  0  0  0  0  0
  -28.2058  -24.1694   19.0259 C   0  0  0  0  0  0
  -28.0661  -22.6647   19.4314 C   0  0  0  0  0  0
  -28.2878  -25.0786   20.2766 C   0  0  2  0  0  0
  -30.7466  -19.9127   19.1803 C   0  0  0  0  0  0
  -30.3625  -17.1229   20.3418 C   0  0  0  0  0  0
  -29.1116  -22.1812   20.3523 N   0  0  0  0  0  0
  -29.9160  -15.7287   20.6755 N   0  0  0  0  0  0
  -26.6266  -19.0132   23.5293 Cl  0  0  0  0  0  0
  -31.4686  -12.4585   19.1524 H   0  0  0  0  0  0
  -30.3335  -11.3774   19.9092 H   0  0  0  0  0  0
  -29.7569  -11.7209   17.4851 H   0  0  0  0  0  0
  -29.6568  -13.4455   17.7324 H   0  0  0  0  0  0
  -27.8468  -11.2880   18.8716 H   0  0  0  0  0  0
  -27.3714  -12.5697   17.7932 H   0  0  0  0  0  0
  -27.6605  -14.2514   19.5000 H   0  0  0  0  0  0
  -28.6928  -12.0973   21.4103 H   0  0  0  0  0  0
  -28.4595  -13.7787   21.8128 H   0  0  0  0  0  0
  -25.2766   -9.5704   22.4752 H   0  0  0  0  0  0
  -24.0015   -7.4642   22.7471 H   0  0  0  0  0  0
  -21.0838   -8.8760   19.8953 H   0  0  0  0  0  0
  -22.3676  -10.9668   19.6167 H   0  0  0  0  0  0
  -21.2011   -7.6151   23.9722 H   0  0  0  0  0  0
  -21.1477   -6.0522   25.9075 H   0  0  0  0  0  0
  -22.0603   -2.7612   23.2842 H   0  0  0  0  0  0
  -22.4113  -11.9902   22.4815 H   0  0  0  0  0  0
  -21.1097  -13.1235   22.2621 H   0  0  0  0  0  0
  -24.6540  -15.8399   20.5331 H   0  0  0  0  0  0
  -26.2600  -15.6307   20.0523 H   0  0  0  0  0  0
  -26.7161  -32.5424   23.1065 H   0  0  0  0  0  0
  -25.0057  -33.9701   25.0403 H   0  0  0  0  0  0
  -22.7102  -31.3012   21.4013 H   0  0  0  0  0  0
  -23.3744  -35.9646   23.3291 H   0  0  0  0  0  0
  -24.3590  -36.8934   22.2051 H   0  0  0  0  0  0
  -23.7247  -37.6510   23.6658 H   0  0  0  0  0  0
  -26.0855  -31.5551   20.6017 H   0  0  0  0  0  0
  -26.8396  -30.8365   21.9970 H   0  0  0  0  0  0
  -28.1233  -29.0084   21.1393 H   0  0  0  0  0  0
  -25.9627  -25.9098   19.0406 H   0  0  0  0  0  0
  -23.9602  -27.2810   19.0436 H   0  0  0  0  0  0
  -23.7546  -30.5923   19.4038 H   0  0  0  0  0  0
  -22.7487  -29.2489   19.8545 H   0  0  0  0  0  0
  -25.1286  -36.1924   25.0815 H   0  0  0  0  0  0
  -20.9945  -28.3242   24.1420 H   0  0  0  0  0  0
  -20.5677  -26.2279   23.3591 H   0  0  0  0  0  0
  -21.6639  -26.7453   22.1190 H   0  0  0  0  0  0
  -19.6922  -25.6305   21.1226 H   0  0  0  0  0  0
  -19.6701  -27.3206   20.6737 H   0  0  0  0  0  0
  -17.4189  -26.6650   21.4032 H   0  0  0  0  0  0
  -18.0358  -26.0078   22.9027 H   0  0  0  0  0  0
  -19.7938  -30.7260   24.2282 H   0  0  0  0  0  0
  -17.5025  -31.6275   24.5163 H   0  0  0  0  0  0
  -15.5360  -30.3012   23.7665 H   0  0  0  0  0  0
  -15.8652  -28.0851   22.7072 H   0  0  0  0  0  0
  -24.5898  -30.7094   25.7807 H   0  0  0  0  0  0
  -24.8948  -32.2921   26.4866 H   0  0  0  0  0  0
  -25.8070  -30.8935   27.0225 H   0  0  0  0  0  0
  -26.2860  -29.6766   24.1190 H   0  0  0  0  0  0
  -27.4005  -29.7235   25.4653 H   0  0  0  0  0  0
  -27.8742  -30.4275   23.9365 H   0  0  0  0  0  0
  -27.2646  -33.3616   26.2057 H   0  0  0  0  0  0
  -28.3873  -32.6873   25.0332 H   0  0  0  0  0  0
  -28.0693  -31.8441   26.5419 H   0  0  0  0  0  0
  -28.2574  -38.0115   24.7520 H   0  0  0  0  0  0
  -28.1096  -36.2645   24.6253 H   0  0  0  0  0  0
  -27.2305  -37.1412   25.8858 H   0  0  0  0  0  0
  -20.9347  -29.8772   21.6923 H   0  0  0  0  0  0
  -26.0167  -38.2846   24.1439 H   0  0  0  0  0  0
  -28.3817  -17.2017   22.2393 H   0  0  0  0  0  0
  -27.4092  -21.3726   22.1721 H   0  0  0  0  0  0
  -31.5830  -23.4163   22.3041 H   0  0  0  0  0  0
  -31.2737  -21.6610   21.8308 H   0  0  0  0  0  0
  -30.4234  -25.1025   20.5558 H   0  0  0  0  0  0
  -29.5319  -24.9933   22.0431 H   0  0  0  0  0  0
  -27.3686  -24.4447   18.3874 H   0  0  0  0  0  0
  -29.0997  -24.3008   18.4146 H   0  0  0  0  0  0
  -28.0772  -22.0434   18.5339 H   0  0  0  0  0  0
  -27.0907  -22.5171   19.8962 H   0  0  0  0  0  0
  -27.4240  -24.8624   20.9082 H   0  0  0  0  0  0
  -30.3978  -19.5021   18.2323 H   0  0  0  0  0  0
  -31.6879  -19.4296   19.4418 H   0  0  0  0  0  0
  -30.9640  -20.9694   19.0247 H   0  0  0  0  0  0
  -31.3558  -17.2690   20.7699 H   0  0  0  0  0  0
  -30.4936  -17.1679   19.2595 H   0  0  0  0  0  0
  -28.9403  -15.5941   20.8867 H   0  0  0  0  0  0
  1 25  1  0  0  0
  1 30  2  0  0  0
  1 86  1  0  0  0
  2  3  1  0  0  0
  2 25  1  0  0  0
  2 88  1  0  0  0
  2 89  1  0  0  0
  3  4  1  0  0  0
  3 90  1  0  0  0
  3 91  1  0  0  0
  4  5  1  0  0  0
  4 92  1  0  0  0
  4 93  1  0  0  0
  5  6  1  0  0  0
  5 26  1  0  0  0
  5 94  1  0  0  0
  6 25  1  0  0  0
  6 95  1  0  0  0
  6 96  1  0  0  0
  7  8  2  0  0  0
  7 26  1  0  0  0
  7 29  1  0  0  0
  8  9  1  0  0  0
  8 22  1  0  0  0
  9 10  1  0  0  0
  9 27  2  0  0  0
 10 11  2  0  0  0
 10 15  1  0  0  0
 11 12  1  0  0  0
 11 97  1  0  0  0
 12 13  2  0  0  0
 12 98  1  0  0  0
 13 14  1  0  0  0
 13 31  1  0  0  0
 14 15  2  0  0  0
 14 99  1  0  0  0
 15100  1  0  0  0
 16 17  2  0  0  0
 16 21  1  0  0  0
 16 31  1  0  0  0
 17 18  1  0  0  0
 17101  1  0  0  0
 18 19  2  0  0  0
 18102  1  0  0  0
 19 20  1  0  0  0
 19 24  1  0  0  0
 20 21  2  0  0  0
 20103  1  0  0  0
 21 23  1  0  0  0
 22 28  1  0  0  0
 22 32  2  0  0  0
 26 27  1  0  0  0
 28104  1  0  0  0
 28105  1  0  0  0
 29106  1  0  0  0
 29107  1  0  0  0
 33 34  1  0  0  0
 33 66  1  0  0  0
 33 70  2  0  0  0
 34 36  1  0  0  0
 34 59  1  0  0  0
 34108  1  0  0  0
 35 44  2  0  0  0
 35 45  1  0  0  0
 35 68  1  0  0  0
 36 56  1  0  0  0
 36109  1  0  0  0
 37 39  1  0  0  0
 37 47  1  0  0  0
 37 66  1  0  0  0
 37110  1  0  0  0
 38 43  2  0  0  0
 38 46  1  0  0  0
 38 47  1  0  0  0
 39 64  1  0  0  0
 39 67  2  0  0  0
 40 52  1  0  0  0
 40 53  2  0  0  0
 40 58  1  0  0  0
 41111  1  0  0  0
 41112  1  0  0  0
 41113  1  0  0  0
 41 48  1  0  0  0
 42 43  1  0  0  0
 42 66  1  0  0  0
 42114  1  0  0  0
 42115  1  0  0  0
 43 44  1  0  0  0
 44116  1  0  0  0
 45 46  2  0  0  0
 45117  1  0  0  0
 46118  1  0  0  0
 47119  1  0  0  0
 47120  1  0  0  0
 48 56  1  0  0  0
 48 65  1  0  0  0
 48121  1  0  0  0
 49 50  1  0  0  0
 49 53  1  0  0  0
 49 64  1  0  0  0
 49122  1  0  0  0
 50 51  1  0  0  0
 50123  1  0  0  0
 50124  1  0  0  0
 51 52  1  0  0  0
 51125  1  0  0  0
 51126  1  0  0  0
 52127  1  0  0  0
 52128  1  0  0  0
 53 54  1  0  0  0
 54 55  2  0  0  0
 54129  1  0  0  0
 55 57  1  0  0  0
 55130  1  0  0  0
 56 69  2  0  0  0
 57 58  2  0  0  0
 57131  1  0  0  0
 58132  1  0  0  0
 59 60  1  0  0  0
 59 61  1  0  0  0
 59 62  1  0  0  0
 60133  1  0  0  0
 60134  1  0  0  0
 60135  1  0  0  0
 61136  1  0  0  0
 61137  1  0  0  0
 61138  1  0  0  0
 62139  1  0  0  0
 62140  1  0  0  0
 62141  1  0  0  0
 63 65  1  0  0  0
 63142  1  0  0  0
 63143  1  0  0  0
 63144  1  0  0  0
 64145  1  0  0  0
 65146  1  0  0  0
 68 82  1  0  0  0
 71 73  2  0  0  0
 71 76  1  0  0  0
 71147  1  0  0  0
 72 75  1  0  0  0
 72 76  2  0  0  0
 72148  1  0  0  0
 73 74  1  0  0  0
 73 84  1  0  0  0
 74 75  2  0  0  0
 74 83  1  0  0  0
 75 85  1  0  0  0
 76 87  1  0  0  0
 77 78  2  0  0  0
 77 79  1  0  0  0
 77 85  1  0  0  0
 78149  1  0  0  0
 78150  1  0  0  0
 79 82  1  0  0  0
 79151  1  0  0  0
 79152  1  0  0  0
 80 81  1  0  0  0
 80 82  1  0  0  0
 80153  1  0  0  0
 80154  1  0  0  0
 81 85  1  0  0  0
 81155  1  0  0  0
 81156  1  0  0  0
 82157  1  0  0  0
 83158  1  0  0  0
 83159  1  0  0  0
 83160  1  0  0  0
 84 86  1  0  0  0
 84161  1  0  0  0
 84162  1  0  0  0
 86163  1  0  0  0
M  ISO  4   1 100  68 101  82 101  86 100
M  END
> <chiral flag>
0

> <version>
0

> <s_m_source_file>
/data/baiqing/PycharmProjects/Reinvent-master-3.2/result/LINK_invent/BTK/process_docking_weight1_custom_product_contain_oxygen_bond_distance_aromatic_linkinvent_7_9_3/rearranged_h_0047.sdf

> <i_m_source_file_index>
18

> <r_mmod_Potential_Energy-OPLS-2005>
-10.9558725357056

> <r_mmod_Stretch_Energy-OPLS-2005>
71.2105178833008

> <r_mmod_Bend_Energy-OPLS-2005>
129.4677734375

> <r_mmod_Torsional_Energy-OPLS-2005>
254.675018310547

> <r_mmod_Improper_Torsional_Energy-OPLS-2005>
7.52273511886597

> <r_mmod_Van_der_Waal_Energy-OPLS-2005>
145.713760375977

> <r_mmod_Electrostatic_Energy-OPLS-2005>
-455.485412597656

> <r_mmod_Solvation_Energy-OPLS-2005>
-204.110198974609

> <b_mmod_Minimization_Converged-OPLS-2005>
0

> <r_mmod_RMS_Derivative-OPLS-2005>
2.35783100128174

$$$$
18
                    3D
 Structure written by MMmdl.
168177  0  0  1  0            999 V2000
  -29.9555  -16.7353   20.2573 C   0  0  0  0  0  0
  -30.2798  -13.9160   19.5206 C   0  0  0  0  0  0
  -29.5627  -13.0123   18.4280 C   0  0  0  0  0  0
  -28.2500  -12.4181   18.9300 C   0  0  0  0  0  0
  -27.5733  -13.4620   19.8272 C   0  0  2  0  0  0
  -28.4996  -14.2419   20.8523 C   0  0  0  0  0  0
  -25.2130  -13.8557   20.6000 C   0  0  0  0  0  0
  -24.1669  -13.0490   20.9361 C   0  0  0  0  0  0
  -24.6587  -11.7073   20.8756 C   0  0  0  0  0  0
  -23.9303  -10.4341   21.0328 C   0  0  0  0  0  0
  -24.3769   -9.4244   21.9142 C   0  0  0  0  0  0
  -23.6387   -8.2302   22.0746 C   0  0  0  0  0  0
  -22.4362   -8.0342   21.3541 C   0  0  0  0  0  0
  -22.0043   -9.0323   20.4630 C   0  0  0  0  0  0
  -22.7432  -10.2174   20.3014 C   0  0  0  0  0  0
  -21.6882   -6.0780   22.5276 C   0  0  0  0  0  0
  -21.4036   -6.5667   23.8213 C   0  0  0  0  0  0
  -21.3668   -5.6808   24.9167 C   0  0  0  0  0  0
  -21.6045   -4.3071   24.7212 C   0  0  0  0  0  0
  -21.8811   -3.8172   23.4329 C   0  0  0  0  0  0
  -21.9202   -4.7000   22.3393 C   0  0  0  0  0  0
  -22.7630  -13.5081   21.1926 C   0  0  0  0  0  0
  -22.1665   -4.2181   21.0968 F   0  0  0  0  0  0
  -21.5627   -3.4550   25.7720 F   0  0  0  0  0  0
  -29.4793  -15.1960   20.1317 N   0  0  0  0  0  0
  -26.2832  -13.0232   20.3579 N   0  0  0  0  0  0
  -25.9614  -11.7113   20.5700 N   0  0  0  0  0  0
  -22.0340  -12.8024   22.0480 N   0  0  0  0  0  0
  -25.3419  -15.2328   20.4408 N   0  0  0  0  0  0
  -31.1614  -16.3254   20.2069 O   0  0  0  0  0  0
  -21.6693   -6.8950   21.4248 O   0  0  0  0  0  0
  -22.3248  -14.5351   20.6744 O   0  0  0  0  0  0
  -24.7560  -31.7076   23.0888 C   0  0  0  0  0  0
  -25.9761  -32.4030   23.7719 C   0  0  1  0  0  0
  -27.2685  -25.9496   20.2733 C   0  0  0  0  0  0
  -25.6018  -33.7899   24.1524 N   0  0  0  0  0  0
  -23.6146  -30.2716   21.4629 C   0  0  2  0  0  0
  -25.0765  -28.4473   20.1433 C   0  0  0  0  0  0
  -22.8084  -29.3813   22.4540 C   0  0  0  0  0  0
  -18.0375  -28.1463   22.8415 C   0  0  0  0  0  0
  -24.1486  -36.6964   23.2673 C   0  0  0  0  0  0
  -26.2161  -30.1895   21.4654 C   0  0  0  0  0  0
  -26.2746  -28.6683   20.8297 C   0  0  0  0  0  0
  -27.3135  -27.4768   20.8397 C   0  0  0  0  0  0
  -26.0319  -26.1287   19.5224 C   0  0  0  0  0  0
  -25.0386  -27.2069   19.4637 C   0  0  0  0  0  0
  -23.9064  -29.4928   20.1336 C   0  0  0  0  0  0
  -25.4165  -36.2645   24.0233 C   0  0  1  0  0  0
  -20.6044  -28.3840   23.1017 C   0  0  2  0  0  0
  -20.6799  -26.9430   22.5423 C   0  0  0  0  0  0
  -19.5793  -26.6344   21.5226 C   0  0  0  0  0  0
  -18.1971  -26.7974   22.1604 C   0  0  0  0  0  0
  -19.1661  -28.8995   23.2669 C   0  0  0  0  0  0
  -18.9556  -30.1561   23.8742 C   0  0  0  0  0  0
  -17.6538  -30.6621   24.0535 C   0  0  0  0  0  0
  -25.9197  -34.9055   23.4779 C   0  0  0  0  0  0
  -16.5422  -29.9093   23.6367 C   0  0  0  0  0  0
  -16.7350  -28.6525   23.0372 C   0  0  0  0  0  0
  -26.4707  -31.6398   25.0651 C   0  0  0  0  0  0
  -25.3579  -31.3908   26.1125 C   0  0  0  0  0  0
  -27.0762  -30.2677   24.7065 C   0  0  0  0  0  0
  -27.6013  -32.4437   25.7503 C   0  0  0  0  0  0
  -27.5535  -37.1626   24.8464 C   0  0  0  0  0  0
  -21.4667  -29.2936   22.3267 N   0  0  0  0  0  0
  -26.4227  -37.3492   23.9417 N   0  0  0  0  0  0
  -24.8961  -30.7750   22.0578 N   0  0  0  0  0  0
  -23.4172  -28.7552   23.3234 O   0  0  0  0  0  0
  -28.1734  -24.4162   20.3216 O   0  0  0  0  0  0
  -26.5951  -34.8789   22.4474 O   0  0  0  0  0  0
  -23.6429  -32.0502   23.5365 O   0  0  0  0  0  0
  -32.6754  -22.3990   23.1138 C   0  0  0  0  0  0
  -33.0202  -23.6693   22.6234 C   0  0  0  0  0  0
  -31.7582  -23.2165   20.5921 C   0  0  0  0  0  0
  -31.8777  -21.5236   22.3467 C   0  0  0  0  0  0
  -31.4000  -21.9125   21.0403 C   0  0  0  0  0  0
  -32.5572  -24.0791   21.3642 C   0  0  0  0  0  0
  -28.9140  -21.0193   21.7728 C   0  0  0  0  0  0
  -28.4225  -18.7416   23.9173 C   0  0  0  0  0  0
  -28.0774  -20.9339   22.8257 C   0  0  0  0  0  0
  -28.2415  -20.0714   23.9808 C   0  0  0  0  0  0
  -30.4141  -19.4513   18.4083 C   0  0  0  0  0  0
  -28.6385  -20.7618   18.7159 C   0  0  0  0  0  0
  -31.6314  -19.0741   20.3561 C   0  0  0  0  0  0
  -28.3437  -22.2535   20.2626 C   0  0  2  0  0  0
  -30.4963  -20.9744   20.0392 C   0  0  0  0  0  0
  -31.5122  -20.1802   22.9528 C   0  0  0  0  0  0
  -29.4319  -18.5308   20.2775 N   0  0  0  0  0  0
  -30.6229  -19.7527   21.9158 N   0  3  2  0  0  0
  -32.8821  -25.3049   20.8904 F   0  0  0  0  0  0
  -31.1739  -14.2843   19.0181 H   0  0  0  0  0  0
  -30.6920  -13.2898   20.3154 H   0  0  0  0  0  0
  -30.2292  -12.2181   18.0894 H   0  0  0  0  0  0
  -29.3582  -13.6297   17.5518 H   0  0  0  0  0  0
  -28.4657  -11.5217   19.5122 H   0  0  0  0  0  0
  -27.6075  -12.1148   18.1016 H   0  0  0  0  0  0
  -27.2993  -14.2292   19.1007 H   0  0  0  0  0  0
  -28.9794  -13.5671   21.5641 H   0  0  0  0  0  0
  -27.8745  -14.8810   21.4753 H   0  0  0  0  0  0
  -25.2898   -9.5705   22.4741 H   0  0  0  0  0  0
  -24.0066   -7.4706   22.7499 H   0  0  0  0  0  0
  -21.0965   -8.8868   19.8945 H   0  0  0  0  0  0
  -22.3886  -10.9707   19.6124 H   0  0  0  0  0  0
  -21.2035   -7.6171   23.9727 H   0  0  0  0  0  0
  -21.1497   -6.0533   25.9070 H   0  0  0  0  0  0
  -22.0580   -2.7632   23.2816 H   0  0  0  0  0  0
  -22.4043  -11.9740   22.4889 H   0  0  0  0  0  0
  -21.0914  -13.0932   22.2647 H   0  0  0  0  0  0
  -24.5541  -15.8627   20.5458 H   0  0  0  0  0  0
  -26.1833  -15.6956   20.1220 H   0  0  0  0  0  0
  -26.7958  -32.4384   23.0530 H   0  0  0  0  0  0
  -24.9934  -33.8804   24.9530 H   0  0  0  0  0  0
  -22.9847  -31.1258   21.2071 H   0  0  0  0  0  0
  -23.3796  -35.9239   23.3201 H   0  0  0  0  0  0
  -24.3536  -36.8811   22.2116 H   0  0  0  0  0  0
  -23.7202  -37.6056   23.6904 H   0  0  0  0  0  0
  -26.4920  -30.8613   20.6518 H   0  0  0  0  0  0
  -27.0454  -30.2802   22.1523 H   0  0  0  0  0  0
  -28.2023  -27.6906   21.4163 H   0  0  0  0  0  0
  -25.7502  -25.2540   18.9523 H   0  0  0  0  0  0
  -24.1597  -27.0071   18.8657 H   0  0  0  0  0  0
  -24.1387  -30.2189   19.3535 H   0  0  0  0  0  0
  -22.9968  -28.9950   19.7939 H   0  0  0  0  0  0
  -25.1405  -36.1296   25.0718 H   0  0  0  0  0  0
  -21.0087  -28.3517   24.1162 H   0  0  0  0  0  0
  -20.5581  -26.2486   23.3750 H   0  0  0  0  0  0
  -21.6653  -26.7247   22.1296 H   0  0  0  0  0  0
  -19.6929  -25.6217   21.1348 H   0  0  0  0  0  0
  -19.6764  -27.3077   20.6698 H   0  0  0  0  0  0
  -17.4245  -26.6721   21.3997 H   0  0  0  0  0  0
  -18.0324  -26.0151   22.9029 H   0  0  0  0  0  0
  -19.8033  -30.7408   24.2053 H   0  0  0  0  0  0
  -17.5087  -31.6284   24.5172 H   0  0  0  0  0  0
  -15.5420  -30.2950   23.7785 H   0  0  0  0  0  0
  -15.8749  -28.0801   22.7172 H   0  0  0  0  0  0
  -24.5844  -30.7188   25.7386 H   0  0  0  0  0  0
  -24.8693  -32.3185   26.4112 H   0  0  0  0  0  0
  -25.7588  -30.9348   27.0185 H   0  0  0  0  0  0
  -26.3594  -29.6037   24.2228 H   0  0  0  0  0  0
  -27.4081  -29.7452   25.6043 H   0  0  0  0  0  0
  -27.9603  -30.3666   24.0769 H   0  0  0  0  0  0
  -27.2468  -33.3902   26.1597 H   0  0  0  0  0  0
  -28.4058  -32.6734   25.0505 H   0  0  0  0  0  0
  -28.0422  -31.8905   26.5806 H   0  0  0  0  0  0
  -28.2460  -38.0001   24.7539 H   0  0  0  0  0  0
  -28.1118  -36.2516   24.6250 H   0  0  0  0  0  0
  -27.2258  -37.1196   25.8864 H   0  0  0  0  0  0
  -21.0160  -29.8469   21.6109 H   0  0  0  0  0  0
  -25.9985  -38.2498   24.1467 H   0  0  0  0  0  0
  -33.0254  -22.1000   24.0927 H   0  0  0  0  0  0
  -33.6339  -24.3343   23.2139 H   0  0  0  0  0  0
  -31.4293  -23.5872   19.6308 H   0  0  0  0  0  0
  -28.5454  -18.1584   24.8192 H   0  0  0  0  0  0
  -28.4486  -18.2095   22.9772 H   0  0  0  0  0  0
  -27.1857  -21.5442   22.7943 H   0  0  0  0  0  0
  -28.2221  -20.5326   24.9591 H   0  0  0  0  0  0
  -31.0743  -19.8972   17.6606 H   0  0  0  0  0  0
  -30.1167  -18.5215   17.9167 H   0  0  0  0  0  0
  -27.8006  -20.0759   18.8446 H   0  0  0  0  0  0
  -28.4147  -21.2373   17.7607 H   0  0  0  0  0  0
  -32.5606  -19.6506   20.3057 H   0  0  0  0  0  0
  -32.2080  -18.1812   20.5162 H   0  0  0  0  0  0
  -27.2647  -22.1384   20.3658 H   0  0  0  0  0  0
  -31.4308  -21.0773   19.4486 H   0  0  0  0  0  0
  -30.3630  -21.7858   19.3081 H   0  0  0  0  0  0
  -31.0186  -20.2834   23.9184 H   0  0  0  0  0  0
  -32.3784  -19.5232   23.0417 H   0  0  0  0  0  0
  -28.4207  -18.5743   20.2726 H   0  0  0  0  0  0
  -31.1313  -20.5389   21.5336 H   0  0  0  0  0  0
  1 25  1  0  0  0
  1 30  2  0  0  0
  1 87  1  0  0  0
  2  3  1  0  0  0
  2 25  1  0  0  0
  2 90  1  0  0  0
  2 91  1  0  0  0
  3  4  1  0  0  0
  3 92  1  0  0  0
  3 93  1  0  0  0
  4  5  1  0  0  0
  4 94  1  0  0  0
  4 95  1  0  0  0
  5  6  1  0  0  0
  5 26  1  0  0  0
  5 96  1  0  0  0
  6 25  1  0  0  0
  6 97  1  0  0  0
  6 98  1  0  0  0
  7  8  2  0  0  0
  7 26  1  0  0  0
  7 29  1  0  0  0
  8  9  1  0  0  0
  8 22  1  0  0  0
  9 10  1  0  0  0
  9 27  2  0  0  0
 10 11  2  0  0  0
 10 15  1  0  0  0
 11 12  1  0  0  0
 11 99  1  0  0  0
 12 13  2  0  0  0
 12100  1  0  0  0
 13 14  1  0  0  0
 13 31  1  0  0  0
 14 15  2  0  0  0
 14101  1  0  0  0
 15102  1  0  0  0
 16 17  2  0  0  0
 16 21  1  0  0  0
 16 31  1  0  0  0
 17 18  1  0  0  0
 17103  1  0  0  0
 18 19  2  0  0  0
 18104  1  0  0  0
 19 20  1  0  0  0
 19 24  1  0  0  0
 20 21  2  0  0  0
 20105  1  0  0  0
 21 23  1  0  0  0
 22 28  1  0  0  0
 22 32  2  0  0  0
 26 27  1  0  0  0
 28106  1  0  0  0
 28107  1  0  0  0
 29108  1  0  0  0
 29109  1  0  0  0
 33 34  1  0  0  0
 33 66  1  0  0  0
 33 70  2  0  0  0
 34 36  1  0  0  0
 34 59  1  0  0  0
 34110  1  0  0  0
 35 44  2  0  0  0
 35 45  1  0  0  0
 35 68  1  0  0  0
 36 56  1  0  0  0
 36111  1  0  0  0
 37 39  1  0  0  0
 37 47  1  0  0  0
 37 66  1  0  0  0
 37112  1  0  0  0
 38 43  2  0  0  0
 38 46  1  0  0  0
 38 47  1  0  0  0
 39 64  1  0  0  0
 39 67  2  0  0  0
 40 52  1  0  0  0
 40 53  2  0  0  0
 40 58  1  0  0  0
 41113  1  0  0  0
 41114  1  0  0  0
 41115  1  0  0  0
 41 48  1  0  0  0
 42 43  1  0  0  0
 42 66  1  0  0  0
 42116  1  0  0  0
 42117  1  0  0  0
 43 44  1  0  0  0
 44118  1  0  0  0
 45 46  2  0  0  0
 45119  1  0  0  0
 46120  1  0  0  0
 47121  1  0  0  0
 47122  1  0  0  0
 48 56  1  0  0  0
 48 65  1  0  0  0
 48123  1  0  0  0
 49 50  1  0  0  0
 49 53  1  0  0  0
 49 64  1  0  0  0
 49124  1  0  0  0
 50 51  1  0  0  0
 50125  1  0  0  0
 50126  1  0  0  0
 51 52  1  0  0  0
 51127  1  0  0  0
 51128  1  0  0  0
 52129  1  0  0  0
 52130  1  0  0  0
 53 54  1  0  0  0
 54 55  2  0  0  0
 54131  1  0  0  0
 55 57  1  0  0  0
 55132  1  0  0  0
 56 69  2  0  0  0
 57 58  2  0  0  0
 57133  1  0  0  0
 58134  1  0  0  0
 59 60  1  0  0  0
 59 61  1  0  0  0
 59 62  1  0  0  0
 60135  1  0  0  0
 60136  1  0  0  0
 60137  1  0  0  0
 61138  1  0  0  0
 61139  1  0  0  0
 61140  1  0  0  0
 62141  1  0  0  0
 62142  1  0  0  0
 62143  1  0  0  0
 63 65  1  0  0  0
 63144  1  0  0  0
 63145  1  0  0  0
 63146  1  0  0  0
 64147  1  0  0  0
 65148  1  0  0  0
 68 84  1  0  0  0
 71 72  2  0  0  0
 71 74  1  0  0  0
 71149  1  0  0  0
 72 76  1  0  0  0
 72150  1  0  0  0
 73 75  1  0  0  0
 73 76  2  0  0  0
 73151  1  0  0  0
 74 75  2  0  0  0
 74 86  1  0  0  0
 75 85  1  0  0  0
 76 89  1  0  0  0
 77 79  2  0  0  0
 77 84  1  0  0  0
 77 88  1  0  0  0
 78 80  2  0  0  0
 78152  1  0  0  0
 78153  1  0  0  0
 79 80  1  0  0  0
 79154  1  0  0  0
 80155  1  0  0  0
 81 82  1  0  0  0
 81 83  1  0  0  0
 81156  1  0  0  0
 81157  1  0  0  0
 82 84  1  0  0  0
 82158  1  0  0  0
 82159  1  0  0  0
 83 88  1  0  0  0
 83160  1  0  0  0
 83161  1  0  0  0
 84162  1  0  0  0
 85 87  1  0  0  0
 85163  1  0  0  0
 85164  1  0  0  0
 86165  1  0  0  0
 86166  1  0  0  0
 86 88  1  0  0  0
 87167  1  0  0  0
 88168  1  0  0  0
M  CHG  1  88   1
M  ISO  4   1 100  68 101  84 101  87 100
M  END
> <chiral flag>
0

> <version>
0

> <s_m_source_file>
/data/baiqing/PycharmProjects/Reinvent-master-3.2/result/LINK_invent/BTK/process_docking_weight1_custom_product_contain_oxygen_bond_distance_aromatic_linkinvent_7_9_3/rearranged_h_0047.sdf

> <i_m_source_file_index>
19

> <r_mmod_Potential_Energy-OPLS-2005>
13355.2431640625

> <r_mmod_Stretch_Energy-OPLS-2005>
7332.52490234375

> <r_mmod_Bend_Energy-OPLS-2005>
1421.82934570312

> <r_mmod_Torsional_Energy-OPLS-2005>
278.642791748047

> <r_mmod_Improper_Torsional_Energy-OPLS-2005>
5.95526075363159

> <r_mmod_Van_der_Waal_Energy-OPLS-2005>
1849.59716796875

> <r_mmod_Electrostatic_Energy-OPLS-2005>
-321.252105712891

> <r_mmod_Solvation_Energy-OPLS-2005>
-428.670654296875

> <b_mmod_Minimization_Converged-OPLS-2005>
0

> <r_mmod_RMS_Derivative-OPLS-2005>
1.59769666194916

$$$$
19
                    3D
 Structure written by MMmdl.
159167  0  0  1  0            999 V2000
  -30.6860  -14.5238   20.6189 C   0  0  0  0  0  0
  -30.4456  -12.3559   19.4304 C   0  0  0  0  0  0
  -29.5142  -12.5220   18.2109 C   0  0  0  0  0  0
  -28.0337  -12.3576   18.6191 C   0  0  0  0  0  0
  -27.6626  -13.2066   19.8651 C   0  0  2  0  0  0
  -28.7032  -13.0100   20.9907 C   0  0  0  0  0  0
  -25.2613  -13.8138   20.5687 C   0  0  0  0  0  0
  -24.1860  -13.0413   20.9163 C   0  0  0  0  0  0
  -24.6407  -11.6876   20.8655 C   0  0  0  0  0  0
  -23.9082  -10.4261   21.0330 C   0  0  0  0  0  0
  -24.3622   -9.4217   21.9138 C   0  0  0  0  0  0
  -23.6304   -8.2252   22.0742 C   0  0  0  0  0  0
  -22.4299   -8.0269   21.3550 C   0  0  0  0  0  0
  -21.9919   -9.0232   20.4653 C   0  0  0  0  0  0
  -22.7225  -10.2104   20.3011 C   0  0  0  0  0  0
  -21.6874   -6.0736   22.5277 C   0  0  0  0  0  0
  -21.4019   -6.5635   23.8208 C   0  0  0  0  0  0
  -21.3665   -5.6788   24.9178 C   0  0  0  0  0  0
  -21.6048   -4.3058   24.7226 C   0  0  0  0  0  0
  -21.8841   -3.8148   23.4345 C   0  0  0  0  0  0
  -21.9209   -4.6963   22.3402 C   0  0  0  0  0  0
  -22.7892  -13.5227   21.1856 C   0  0  0  0  0  0
  -22.1684   -4.2147   21.0984 F   0  0  0  0  0  0
  -21.5615   -3.4558   25.7747 F   0  0  0  0  0  0
  -30.0333  -13.3370   20.4467 N   0  0  0  0  0  0
  -26.3041  -12.9313   20.3300 N   0  0  0  0  0  0
  -25.9331  -11.6465   20.5665 N   0  0  0  0  0  0
  -22.0550  -12.8189   22.0405 N   0  0  0  0  0  0
  -25.4331  -15.1874   20.4175 N   0  0  0  0  0  0
  -31.8221  -14.7307   20.1823 O   0  0  0  0  0  0
  -21.6661   -6.8874   21.4237 O   0  0  0  0  0  0
  -22.3570  -14.5548   20.6752 O   0  0  0  0  0  0
  -24.6229  -31.8572   23.2143 C   0  0  0  0  0  0
  -25.9129  -32.4751   23.8405 C   0  0  1  0  0  0
  -27.2363  -27.3941   20.0996 C   0  0  0  0  0  0
  -25.5966  -33.8545   24.2360 N   0  0  0  0  0  0
  -23.4070  -30.4912   21.5479 C   0  0  2  0  0  0
  -24.8579  -28.9578   20.1085 C   0  0  0  0  0  0
  -22.7388  -29.4689   22.4949 C   0  0  0  0  0  0
  -18.0278  -28.1394   22.8466 C   0  0  0  0  0  0
  -24.1486  -36.7342   23.2641 C   0  0  0  0  0  0
  -25.9420  -30.8154   21.3719 C   0  0  0  0  0  0
  -26.0183  -29.4468   20.7217 C   0  0  0  0  0  0
  -27.2043  -28.6694   20.7230 C   0  0  0  0  0  0
  -26.0557  -26.9508   19.4519 C   0  0  0  0  0  0
  -24.8759  -27.7112   19.4677 C   0  0  0  0  0  0
  -23.6170  -29.8216   20.1644 C   0  0  0  0  0  0
  -25.4092  -36.3056   24.0333 C   0  0  1  0  0  0
  -20.5858  -28.3699   23.1299 C   0  0  2  0  0  0
  -20.6769  -26.9433   22.5389 C   0  0  0  0  0  0
  -19.5790  -26.6398   21.5160 C   0  0  0  0  0  0
  -18.1956  -26.7950   22.1562 C   0  0  0  0  0  0
  -19.1512  -28.8868   23.2891 C   0  0  0  0  0  0
  -18.9441  -30.1459   23.8943 C   0  0  0  0  0  0
  -17.6434  -30.6599   24.0577 C   0  0  0  0  0  0
  -25.8999  -34.9419   23.5119 C   0  0  0  0  0  0
  -16.5332  -29.9079   23.6354 C   0  0  0  0  0  0
  -16.7258  -28.6493   23.0377 C   0  0  0  0  0  0
  -26.4534  -31.6555   25.0754 C   0  0  0  0  0  0
  -25.3809  -31.3604   26.1514 C   0  0  0  0  0  0
  -27.0421  -30.3008   24.6199 C   0  0  0  0  0  0
  -27.6129  -32.4258   25.7515 C   0  0  0  0  0  0
  -27.5573  -37.1803   24.8458 C   0  0  0  0  0  0
  -21.4116  -29.3083   22.3710 N   0  0  0  0  0  0
  -26.4274  -37.3749   23.9390 N   0  0  0  0  0  0
  -24.6757  -31.0672   22.1035 N   0  0  0  0  0  0
  -23.4116  -28.8207   23.3001 O   0  0  0  0  0  0
  -28.3904  -26.6139   20.1515 O   0  0  0  0  0  0
  -26.5515  -34.8880   22.4643 O   0  0  0  0  0  0
  -23.5428  -32.1310   23.7558 O   0  0  0  0  0  0
  -30.9586  -18.4102   23.2850 C   0  0  0  0  0  0
  -30.8503  -17.0904   22.7991 C   0  0  0  0  0  0
  -29.8355  -17.9549   20.7657 C   0  0  0  0  0  0
  -29.9034  -19.2978   21.2561 C   0  0  0  0  0  0
  -30.4725  -19.5148   22.5474 C   0  0  0  0  0  0
  -30.2737  -16.8460   21.5360 C   0  0  0  0  0  0
  -29.2806  -20.3826   20.4439 C   0  0  0  0  0  0
  -30.5331  -20.8856   23.2218 C   0  0  0  0  0  0
  -29.3326  -24.2212   20.3015 C   0  0  0  0  0  0
  -29.1628  -22.8115   19.6561 C   0  0  0  0  0  0
  -28.2938  -25.2287   19.7321 C   0  0  0  0  0  0
  -28.1997  -20.0914   19.7215 N   0  0  0  0  0  0
  -29.9262  -15.5091   21.1520 N   0  0  0  0  0  0
  -29.7326  -21.6618   20.4218 N   0  3  0  0  0  0
  -31.4872  -12.4847   19.1281 H   0  0  0  0  0  0
  -30.3696  -11.3466   19.8340 H   0  0  0  0  0  0
  -29.7724  -11.7890   17.4463 H   0  0  0  0  0  0
  -29.6759  -13.5029   17.7588 H   0  0  0  0  0  0
  -27.8625  -11.3010   18.8292 H   0  0  0  0  0  0
  -27.3858  -12.6061   17.7793 H   0  0  0  0  0  0
  -27.6958  -14.2503   19.5505 H   0  0  0  0  0  0
  -28.6900  -11.9784   21.3465 H   0  0  0  0  0  0
  -28.4398  -13.6171   21.8567 H   0  0  0  0  0  0
  -25.2765   -9.5732   22.4720 H   0  0  0  0  0  0
  -24.0048   -7.4660   22.7455 H   0  0  0  0  0  0
  -21.0863   -8.8724   19.8961 H   0  0  0  0  0  0
  -22.3661  -10.9638   19.6124 H   0  0  0  0  0  0
  -21.2004   -7.6134   23.9723 H   0  0  0  0  0  0
  -21.1466   -6.0511   25.9086 H   0  0  0  0  0  0
  -22.0614   -2.7608   23.2857 H   0  0  0  0  0  0
  -22.4187  -11.9827   22.4717 H   0  0  0  0  0  0
  -21.1150  -13.1190   22.2591 H   0  0  0  0  0  0
  -24.6628  -15.8371   20.5358 H   0  0  0  0  0  0
  -26.2835  -15.6402   20.1067 H   0  0  0  0  0  0
  -26.7198  -32.5430   23.1173 H   0  0  0  0  0  0
  -25.0189  -33.9649   25.0561 H   0  0  0  0  0  0
  -22.7035  -31.3154   21.4084 H   0  0  0  0  0  0
  -23.3689  -35.9738   23.3267 H   0  0  0  0  0  0
  -24.3631  -36.8979   22.2066 H   0  0  0  0  0  0
  -23.7277  -37.6557   23.6666 H   0  0  0  0  0  0
  -26.0518  -31.5817   20.6018 H   0  0  0  0  0  0
  -26.8297  -30.8695   21.9918 H   0  0  0  0  0  0
  -28.0914  -29.0307   21.2224 H   0  0  0  0  0  0
  -26.0110  -26.0137   18.9189 H   0  0  0  0  0  0
  -23.9934  -27.3348   18.9685 H   0  0  0  0  0  0
  -23.7177  -30.5909   19.3996 H   0  0  0  0  0  0
  -22.7410  -29.2384   19.8734 H   0  0  0  0  0  0
  -25.1259  -36.1910   25.0817 H   0  0  0  0  0  0
  -20.9965  -28.3263   24.1408 H   0  0  0  0  0  0
  -20.5662  -26.2282   23.3542 H   0  0  0  0  0  0
  -21.6645  -26.7480   22.1208 H   0  0  0  0  0  0
  -19.6965  -25.6293   21.1224 H   0  0  0  0  0  0
  -19.6792  -27.3175   20.6665 H   0  0  0  0  0  0
  -17.4204  -26.6687   21.3966 H   0  0  0  0  0  0
  -18.0431  -26.0072   22.8955 H   0  0  0  0  0  0
  -19.7902  -30.7263   24.2342 H   0  0  0  0  0  0
  -17.4979  -31.6283   24.5153 H   0  0  0  0  0  0
  -15.5335  -30.2977   23.7695 H   0  0  0  0  0  0
  -15.8641  -28.0797   22.7136 H   0  0  0  0  0  0
  -24.6074  -30.6838   25.7860 H   0  0  0  0  0  0
  -24.8937  -32.2718   26.4967 H   0  0  0  0  0  0
  -25.8223  -30.8800   27.0260 H   0  0  0  0  0  0
  -26.2994  -29.6648   24.1375 H   0  0  0  0  0  0
  -27.4283  -29.7363   25.4699 H   0  0  0  0  0  0
  -27.8771  -30.4314   23.9324 H   0  0  0  0  0  0
  -27.2813  -33.3570   26.2105 H   0  0  0  0  0  0
  -28.3964  -32.6737   25.0350 H   0  0  0  0  0  0
  -28.0776  -31.8325   26.5408 H   0  0  0  0  0  0
  -28.2543  -38.0139   24.7482 H   0  0  0  0  0  0
  -28.1077  -36.2644   24.6263 H   0  0  0  0  0  0
  -27.2286  -37.1459   25.8860 H   0  0  0  0  0  0
  -20.9251  -29.8816   21.6963 H   0  0  0  0  0  0
  -26.0145  -38.2805   24.1400 H   0  0  0  0  0  0
  -31.3780  -18.5660   24.2703 H   0  0  0  0  0  0
  -31.1610  -16.2727   23.4355 H   0  0  0  0  0  0
  -29.3766  -17.7584   19.8085 H   0  0  0  0  0  0
  -30.7252  -20.7953   24.2921 H   0  0  0  0  0  0
  -29.5911  -21.4277   23.1281 H   0  0  0  0  0  0
  -31.3352  -21.4932   22.8018 H   0  0  0  0  0  0
  -30.3398  -24.5857   20.0964 H   0  0  0  0  0  0
  -29.2259  -24.1550   21.3860 H   0  0  0  0  0  0
  -29.5780  -22.8157   18.6469 H   0  0  0  0  0  0
  -28.0954  -22.6338   19.5343 H   0  0  0  0  0  0
  -27.3293  -24.8153   20.0235 H   0  0  0  0  0  0
  -28.3432  -25.2076   18.6444 H   0  0  0  0  0  0
  -27.8202  -19.1580   19.7714 H   0  0  0  0  0  0
  -27.7086  -20.7725   19.1682 H   0  0  0  0  0  0
  -28.9731  -15.2403   21.3439 H   0  0  0  0  0  0
  -30.6115  -21.8147   20.8983 H   0  0  0  0  0  0
  1 25  1  0  0  0
  1 30  2  0  0  0
  1 83  1  0  0  0
  2  3  1  0  0  0
  2 25  1  0  0  0
  2 85  1  0  0  0
  2 86  1  0  0  0
  3  4  1  0  0  0
  3 87  1  0  0  0
  3 88  1  0  0  0
  4  5  1  0  0  0
  4 89  1  0  0  0
  4 90  1  0  0  0
  5  6  1  0  0  0
  5 26  1  0  0  0
  5 91  1  0  0  0
  6 25  1  0  0  0
  6 92  1  0  0  0
  6 93  1  0  0  0
  7  8  2  0  0  0
  7 26  1  0  0  0
  7 29  1  0  0  0
  8  9  1  0  0  0
  8 22  1  0  0  0
  9 10  1  0  0  0
  9 27  2  0  0  0
 10 11  2  0  0  0
 10 15  1  0  0  0
 11 12  1  0  0  0
 11 94  1  0  0  0
 12 13  2  0  0  0
 12 95  1  0  0  0
 13 14  1  0  0  0
 13 31  1  0  0  0
 14 15  2  0  0  0
 14 96  1  0  0  0
 15 97  1  0  0  0
 16 17  2  0  0  0
 16 21  1  0  0  0
 16 31  1  0  0  0
 17 18  1  0  0  0
 17 98  1  0  0  0
 18 19  2  0  0  0
 18 99  1  0  0  0
 19 20  1  0  0  0
 19 24  1  0  0  0
 20 21  2  0  0  0
 20100  1  0  0  0
 21 23  1  0  0  0
 22 28  1  0  0  0
 22 32  2  0  0  0
 26 27  1  0  0  0
 28101  1  0  0  0
 28102  1  0  0  0
 29103  1  0  0  0
 29104  1  0  0  0
 33 34  1  0  0  0
 33 66  1  0  0  0
 33 70  2  0  0  0
 34 36  1  0  0  0
 34 59  1  0  0  0
 34105  1  0  0  0
 35 44  2  0  0  0
 35 45  1  0  0  0
 35 68  1  0  0  0
 36 56  1  0  0  0
 36106  1  0  0  0
 37 39  1  0  0  0
 37 47  1  0  0  0
 37 66  1  0  0  0
 37107  1  0  0  0
 38 43  2  0  0  0
 38 46  1  0  0  0
 38 47  1  0  0  0
 39 64  1  0  0  0
 39 67  2  0  0  0
 40 52  1  0  0  0
 40 53  2  0  0  0
 40 58  1  0  0  0
 41108  1  0  0  0
 41109  1  0  0  0
 41110  1  0  0  0
 41 48  1  0  0  0
 42 43  1  0  0  0
 42 66  1  0  0  0
 42111  1  0  0  0
 42112  1  0  0  0
 43 44  1  0  0  0
 44113  1  0  0  0
 45 46  2  0  0  0
 45114  1  0  0  0
 46115  1  0  0  0
 47116  1  0  0  0
 47117  1  0  0  0
 48 56  1  0  0  0
 48 65  1  0  0  0
 48118  1  0  0  0
 49 50  1  0  0  0
 49 53  1  0  0  0
 49 64  1  0  0  0
 49119  1  0  0  0
 50 51  1  0  0  0
 50120  1  0  0  0
 50121  1  0  0  0
 51 52  1  0  0  0
 51122  1  0  0  0
 51123  1  0  0  0
 52124  1  0  0  0
 52125  1  0  0  0
 53 54  1  0  0  0
 54 55  2  0  0  0
 54126  1  0  0  0
 55 57  1  0  0  0
 55127  1  0  0  0
 56 69  2  0  0  0
 57 58  2  0  0  0
 57128  1  0  0  0
 58129  1  0  0  0
 59 60  1  0  0  0
 59 61  1  0  0  0
 59 62  1  0  0  0
 60130  1  0  0  0
 60131  1  0  0  0
 60132  1  0  0  0
 61133  1  0  0  0
 61134  1  0  0  0
 61135  1  0  0  0
 62136  1  0  0  0
 62137  1  0  0  0
 62138  1  0  0  0
 63 65  1  0  0  0
 63139  1  0  0  0
 63140  1  0  0  0
 63141  1  0  0  0
 64142  1  0  0  0
 65143  1  0  0  0
 68 81  1  0  0  0
 71 72  2  0  0  0
 71 75  1  0  0  0
 71144  1  0  0  0
 72 76  1  0  0  0
 72145  1  0  0  0
 73 74  1  0  0  0
 73 76  2  0  0  0
 73146  1  0  0  0
 74 75  2  0  0  0
 74 77  1  0  0  0
 75 78  1  0  0  0
 76 83  1  0  0  0
 77 82  1  0  0  0
 77 84  2  0  0  0
 78147  1  0  0  0
 78148  1  0  0  0
 78149  1  0  0  0
 79 80  1  0  0  0
 79 81  1  0  0  0
 79150  1  0  0  0
 79151  1  0  0  0
 80 84  1  0  0  0
 80152  1  0  0  0
 80153  1  0  0  0
 81154  1  0  0  0
 81155  1  0  0  0
 82156  1  0  0  0
 82157  1  0  0  0
 83158  1  0  0  0
 84159  1  0  0  0
M  CHG  1  84   1
M  ISO  4   1 100  68 101  81 101  83 100
M  END
> <chiral flag>
0

> <version>
0

> <s_m_source_file>
/data/baiqing/PycharmProjects/Reinvent-master-3.2/result/LINK_invent/BTK/process_docking_weight1_custom_product_contain_oxygen_bond_distance_aromatic_linkinvent_7_9_3/rearranged_h_0047.sdf

> <i_m_source_file_index>
20

> <r_mmod_Potential_Energy-OPLS-2005>
-199.314025878906

> <r_mmod_Stretch_Energy-OPLS-2005>
48.8166313171387

> <r_mmod_Bend_Energy-OPLS-2005>
110.469284057617

> <r_mmod_Torsional_Energy-OPLS-2005>
233.003997802734

> <r_mmod_Improper_Torsional_Energy-OPLS-2005>
5.40645599365234

> <r_mmod_Van_der_Waal_Energy-OPLS-2005>
164.308883666992

> <r_mmod_Electrostatic_Energy-OPLS-2005>
-358.347869873047

> <r_mmod_Solvation_Energy-OPLS-2005>
-425.434387207031

> <b_mmod_Minimization_Converged-OPLS-2005>
0

> <r_mmod_RMS_Derivative-OPLS-2005>
4.35342788696289

$$$$
20
                    3D
 Structure written by MMmdl.
160168  0  0  1  0            999 V2000
  -30.6213  -14.5336   20.5896 C   0  0  0  0  0  0
  -30.4476  -12.3498   19.4228 C   0  0  0  0  0  0
  -29.5029  -12.5182   18.2125 C   0  0  0  0  0  0
  -28.0243  -12.3535   18.6222 C   0  0  0  0  0  0
  -27.6623  -13.1915   19.8757 C   0  0  2  0  0  0
  -28.7035  -12.9546   20.9934 C   0  0  0  0  0  0
  -25.2610  -13.8082   20.5701 C   0  0  0  0  0  0
  -24.1848  -13.0388   20.9181 C   0  0  0  0  0  0
  -24.6388  -11.6854   20.8756 C   0  0  0  0  0  0
  -23.9054  -10.4253   21.0441 C   0  0  0  0  0  0
  -24.3602   -9.4165   21.9216 C   0  0  0  0  0  0
  -23.6270   -8.2207   22.0762 C   0  0  0  0  0  0
  -22.4269   -8.0269   21.3538 C   0  0  0  0  0  0
  -21.9908   -9.0250   20.4653 C   0  0  0  0  0  0
  -22.7236  -10.2127   20.3083 C   0  0  0  0  0  0
  -21.6825   -6.0726   22.5290 C   0  0  0  0  0  0
  -21.3975   -6.5630   23.8222 C   0  0  0  0  0  0
  -21.3674   -5.6787   24.9189 C   0  0  0  0  0  0
  -21.6058   -4.3051   24.7240 C   0  0  0  0  0  0
  -21.8809   -3.8137   23.4357 C   0  0  0  0  0  0
  -21.9169   -4.6955   22.3407 C   0  0  0  0  0  0
  -22.7873  -13.5239   21.1853 C   0  0  0  0  0  0
  -22.1655   -4.2142   21.0987 F   0  0  0  0  0  0
  -21.5665   -3.4534   25.7753 F   0  0  0  0  0  0
  -30.0287  -13.3139   20.4509 N   0  0  0  0  0  0
  -26.3025  -12.9220   20.3378 N   0  0  0  0  0  0
  -25.9305  -11.6396   20.5774 N   0  0  0  0  0  0
  -22.0485  -12.8256   22.0409 N   0  0  0  0  0  0
  -25.4391  -15.1807   20.4179 N   0  0  0  0  0  0
  -31.7613  -14.7766   20.1752 O   0  0  0  0  0  0
  -21.6617   -6.8878   21.4254 O   0  0  0  0  0  0
  -22.3602  -14.5562   20.6699 O   0  0  0  0  0  0
  -24.6175  -31.8660   23.2060 C   0  0  0  0  0  0
  -25.9054  -32.4815   23.8367 C   0  0  1  0  0  0
  -27.2438  -27.4071   20.0878 C   0  0  0  0  0  0
  -25.5919  -33.8605   24.2320 N   0  0  0  0  0  0
  -23.4070  -30.4862   21.5496 C   0  0  2  0  0  0
  -24.8536  -28.9445   20.1191 C   0  0  0  0  0  0
  -22.7426  -29.4631   22.4999 C   0  0  0  0  0  0
  -18.0275  -28.1389   22.8490 C   0  0  0  0  0  0
  -24.1490  -36.7297   23.2633 C   0  0  0  0  0  0
  -25.9375  -30.8228   21.3621 C   0  0  0  0  0  0
  -26.0146  -29.4528   20.7109 C   0  0  0  0  0  0
  -27.2075  -28.6896   20.6929 C   0  0  0  0  0  0
  -26.0547  -26.9111   19.5071 C   0  0  0  0  0  0
  -24.8685  -27.6739   19.5199 C   0  0  0  0  0  0
  -23.6179  -29.8170   20.1658 C   0  0  0  0  0  0
  -25.4113  -36.3108   24.0343 C   0  0  1  0  0  0
  -20.5868  -28.3668   23.1343 C   0  0  2  0  0  0
  -20.6779  -26.9406   22.5433 C   0  0  0  0  0  0
  -19.5751  -26.6394   21.5236 C   0  0  0  0  0  0
  -18.1925  -26.7933   22.1634 C   0  0  0  0  0  0
  -19.1527  -28.8845   23.2911 C   0  0  0  0  0  0
  -18.9449  -30.1450   23.8922 C   0  0  0  0  0  0
  -17.6450  -30.6589   24.0566 C   0  0  0  0  0  0
  -25.9038  -34.9473   23.5122 C   0  0  0  0  0  0
  -16.5339  -29.9091   23.6330 C   0  0  0  0  0  0
  -16.7265  -28.6516   23.0338 C   0  0  0  0  0  0
  -26.4477  -31.6596   25.0691 C   0  0  0  0  0  0
  -25.3746  -31.3714   26.1452 C   0  0  0  0  0  0
  -27.0292  -30.3034   24.6050 C   0  0  0  0  0  0
  -27.6053  -32.4307   25.7459 C   0  0  0  0  0  0
  -27.5590  -37.1807   24.8468 C   0  0  0  0  0  0
  -21.4149  -29.3025   22.3747 N   0  0  0  0  0  0
  -26.4303  -37.3793   23.9418 N   0  0  0  0  0  0
  -24.6727  -31.0723   22.0982 N   0  0  0  0  0  0
  -23.4176  -28.8186   23.3068 O   0  0  0  0  0  0
  -28.4404  -26.7044   20.1045 O   0  0  0  0  0  0
  -26.5583  -34.8915   22.4673 O   0  0  0  0  0  0
  -23.5351  -32.1436   23.7437 O   0  0  0  0  0  0
  -29.3769  -19.5375   22.2193 C   0  0  0  0  0  0
  -29.5219  -17.1633   22.7354 C   0  0  0  0  0  0
  -29.2802  -18.4867   23.1474 C   0  0  0  0  0  0
  -29.6987  -19.2881   20.8667 C   0  0  0  0  0  0
  -29.9530  -17.9357   20.4547 C   0  0  0  0  0  0
  -29.8523  -16.8616   21.3983 C   0  0  0  0  0  0
  -29.0279  -22.8736   19.5918 C   0  0  0  0  0  0
  -28.8536  -18.7757   24.5729 C   0  0  0  0  0  0
  -30.2437  -17.6467   18.9886 C   0  0  0  0  0  0
  -29.7172  -20.4691   19.8655 C   0  0  0  0  0  0
  -28.5419  -24.1786   20.2786 C   0  0  0  0  0  0
  -28.6192  -25.4600   19.3907 C   0  0  0  0  0  0
  -29.7645  -15.4698   21.0618 N   0  0  0  0  0  0
  -29.2353  -21.7795   20.3560 N   0  0  0  0  0  0
  -29.2168  -22.8488   18.3739 O   0  0  0  0  0  0
  -31.4837  -12.5097   19.1192 H   0  0  0  0  0  0
  -30.4011  -11.3332   19.8162 H   0  0  0  0  0  0
  -29.7604  -11.8020   17.4315 H   0  0  0  0  0  0
  -29.6423  -13.5067   17.7731 H   0  0  0  0  0  0
  -27.8456  -11.2967   18.8217 H   0  0  0  0  0  0
  -27.3762  -12.6219   17.7872 H   0  0  0  0  0  0
  -27.7042  -14.2404   19.5803 H   0  0  0  0  0  0
  -28.7045  -11.9059   21.2949 H   0  0  0  0  0  0
  -28.4499  -13.5085   21.8976 H   0  0  0  0  0  0
  -25.2753   -9.5606   22.4783 H   0  0  0  0  0  0
  -23.9950   -7.4582   22.7472 H   0  0  0  0  0  0
  -21.0833   -8.8790   19.8952 H   0  0  0  0  0  0
  -22.3722  -10.9678   19.6193 H   0  0  0  0  0  0
  -21.1939   -7.6131   23.9727 H   0  0  0  0  0  0
  -21.1539   -6.0522   25.9103 H   0  0  0  0  0  0
  -22.0577   -2.7593   23.2860 H   0  0  0  0  0  0
  -22.4054  -11.9901   22.4800 H   0  0  0  0  0  0
  -21.1130  -13.1362   22.2655 H   0  0  0  0  0  0
  -24.6769  -15.8401   20.5372 H   0  0  0  0  0  0
  -26.3121  -15.6242   20.1622 H   0  0  0  0  0  0
  -26.7115  -32.5523   23.1122 H   0  0  0  0  0  0
  -25.0135  -33.9779   25.0509 H   0  0  0  0  0  0
  -22.6965  -31.3030   21.4091 H   0  0  0  0  0  0
  -23.3770  -35.9611   23.3292 H   0  0  0  0  0  0
  -24.3584  -36.8900   22.2044 H   0  0  0  0  0  0
  -23.7214  -37.6487   23.6638 H   0  0  0  0  0  0
  -26.0447  -31.5872   20.5899 H   0  0  0  0  0  0
  -26.8251  -30.8813   21.9792 H   0  0  0  0  0  0
  -28.1069  -29.0822   21.1459 H   0  0  0  0  0  0
  -26.0098  -25.9332   19.0517 H   0  0  0  0  0  0
  -23.9701  -27.2724   19.0721 H   0  0  0  0  0  0
  -23.7335  -30.5928   19.4084 H   0  0  0  0  0  0
  -22.7404  -29.2446   19.8625 H   0  0  0  0  0  0
  -25.1281  -36.1972   25.0836 H   0  0  0  0  0  0
  -20.9938  -28.3231   24.1473 H   0  0  0  0  0  0
  -20.5734  -26.2247   23.3601 H   0  0  0  0  0  0
  -21.6647  -26.7478   22.1198 H   0  0  0  0  0  0
  -19.6912  -25.6316   21.1237 H   0  0  0  0  0  0
  -19.6702  -27.3237   20.6792 H   0  0  0  0  0  0
  -17.4198  -26.6687   21.4028 H   0  0  0  0  0  0
  -18.0310  -26.0081   22.9029 H   0  0  0  0  0  0
  -19.7923  -30.7269   24.2297 H   0  0  0  0  0  0
  -17.5000  -31.6274   24.5160 H   0  0  0  0  0  0
  -15.5342  -30.2994   23.7651 H   0  0  0  0  0  0
  -15.8664  -28.0850   22.7026 H   0  0  0  0  0  0
  -24.5934  -30.7032   25.7816 H   0  0  0  0  0  0
  -24.8925  -32.2877   26.4870 H   0  0  0  0  0  0
  -25.8120  -30.8923   27.0220 H   0  0  0  0  0  0
  -26.2825  -29.6814   24.1102 H   0  0  0  0  0  0
  -27.4071  -29.7240   25.4482 H   0  0  0  0  0  0
  -27.8650  -30.4351   23.9175 H   0  0  0  0  0  0
  -27.2687  -33.3622   26.2024 H   0  0  0  0  0  0
  -28.3881  -32.6849   25.0299 H   0  0  0  0  0  0
  -28.0698  -31.8426   26.5385 H   0  0  0  0  0  0
  -28.2608  -38.0104   24.7536 H   0  0  0  0  0  0
  -28.1085  -36.2641   24.6278 H   0  0  0  0  0  0
  -27.2301  -37.1431   25.8864 H   0  0  0  0  0  0
  -20.9307  -29.8727   21.6952 H   0  0  0  0  0  0
  -26.0191  -38.2857   24.1446 H   0  0  0  0  0  0
  -29.1676  -20.5411   22.5649 H   0  0  0  0  0  0
  -29.3921  -16.3617   23.4509 H   0  0  0  0  0  0
  -28.3485  -19.7398   24.6463 H   0  0  0  0  0  0
  -29.7177  -18.7922   25.2376 H   0  0  0  0  0  0
  -28.1571  -18.0156   24.9284 H   0  0  0  0  0  0
  -30.8191  -18.4469   18.5266 H   0  0  0  0  0  0
  -29.3119  -17.5297   18.4337 H   0  0  0  0  0  0
  -30.8404  -16.7488   18.8568 H   0  0  0  0  0  0
  -29.1129  -20.1893   19.0010 H   0  0  0  0  0  0
  -30.7393  -20.5994   19.5061 H   0  0  0  0  0  0
  -29.1507  -24.3319   21.1698 H   0  0  0  0  0  0
  -27.5175  -24.0297   20.6199 H   0  0  0  0  0  0
  -27.9780  -25.3739   18.5148 H   0  0  0  0  0  0
  -29.6272  -25.5168   18.9786 H   0  0  0  0  0  0
  -28.9049  -15.0413   21.3711 H   0  0  0  0  0  0
  -29.0660  -21.8636   21.3489 H   0  0  0  0  0  0
  1 25  1  0  0  0
  1 30  2  0  0  0
  1 83  1  0  0  0
  2  3  1  0  0  0
  2 25  1  0  0  0
  2 86  1  0  0  0
  2 87  1  0  0  0
  3  4  1  0  0  0
  3 88  1  0  0  0
  3 89  1  0  0  0
  4  5  1  0  0  0
  4 90  1  0  0  0
  4 91  1  0  0  0
  5  6  1  0  0  0
  5 26  1  0  0  0
  5 92  1  0  0  0
  6 25  1  0  0  0
  6 93  1  0  0  0
  6 94  1  0  0  0
  7  8  2  0  0  0
  7 26  1  0  0  0
  7 29  1  0  0  0
  8  9  1  0  0  0
  8 22  1  0  0  0
  9 10  1  0  0  0
  9 27  2  0  0  0
 10 11  2  0  0  0
 10 15  1  0  0  0
 11 12  1  0  0  0
 11 95  1  0  0  0
 12 13  2  0  0  0
 12 96  1  0  0  0
 13 14  1  0  0  0
 13 31  1  0  0  0
 14 15  2  0  0  0
 14 97  1  0  0  0
 15 98  1  0  0  0
 16 17  2  0  0  0
 16 21  1  0  0  0
 16 31  1  0  0  0
 17 18  1  0  0  0
 17 99  1  0  0  0
 18 19  2  0  0  0
 18100  1  0  0  0
 19 20  1  0  0  0
 19 24  1  0  0  0
 20 21  2  0  0  0
 20101  1  0  0  0
 21 23  1  0  0  0
 22 28  1  0  0  0
 22 32  2  0  0  0
 26 27  1  0  0  0
 28102  1  0  0  0
 28103  1  0  0  0
 29104  1  0  0  0
 29105  1  0  0  0
 33 34  1  0  0  0
 33 66  1  0  0  0
 33 70  2  0  0  0
 34 36  1  0  0  0
 34 59  1  0  0  0
 34106  1  0  0  0
 35 44  2  0  0  0
 35 45  1  0  0  0
 35 68  1  0  0  0
 36 56  1  0  0  0
 36107  1  0  0  0
 37 39  1  0  0  0
 37 47  1  0  0  0
 37 66  1  0  0  0
 37108  1  0  0  0
 38 43  2  0  0  0
 38 46  1  0  0  0
 38 47  1  0  0  0
 39 64  1  0  0  0
 39 67  2  0  0  0
 40 52  1  0  0  0
 40 53  2  0  0  0
 40 58  1  0  0  0
 41109  1  0  0  0
 41110  1  0  0  0
 41111  1  0  0  0
 41 48  1  0  0  0
 42 43  1  0  0  0
 42 66  1  0  0  0
 42112  1  0  0  0
 42113  1  0  0  0
 43 44  1  0  0  0
 44114  1  0  0  0
 45 46  2  0  0  0
 45115  1  0  0  0
 46116  1  0  0  0
 47117  1  0  0  0
 47118  1  0  0  0
 48 56  1  0  0  0
 48 65  1  0  0  0
 48119  1  0  0  0
 49 50  1  0  0  0
 49 53  1  0  0  0
 49 64  1  0  0  0
 49120  1  0  0  0
 50 51  1  0  0  0
 50121  1  0  0  0
 50122  1  0  0  0
 51 52  1  0  0  0
 51123  1  0  0  0
 51124  1  0  0  0
 52125  1  0  0  0
 52126  1  0  0  0
 53 54  1  0  0  0
 54 55  2  0  0  0
 54127  1  0  0  0
 55 57  1  0  0  0
 55128  1  0  0  0
 56 69  2  0  0  0
 57 58  2  0  0  0
 57129  1  0  0  0
 58130  1  0  0  0
 59 60  1  0  0  0
 59 61  1  0  0  0
 59 62  1  0  0  0
 60131  1  0  0  0
 60132  1  0  0  0
 60133  1  0  0  0
 61134  1  0  0  0
 61135  1  0  0  0
 61136  1  0  0  0
 62137  1  0  0  0
 62138  1  0  0  0
 62139  1  0  0  0
 63 65  1  0  0  0
 63140  1  0  0  0
 63141  1  0  0  0
 63142  1  0  0  0
 64143  1  0  0  0
 65144  1  0  0  0
 68 82  1  0  0  0
 71 73  2  0  0  0
 71 74  1  0  0  0
 71145  1  0  0  0
 72 73  1  0  0  0
 72 76  2  0  0  0
 72146  1  0  0  0
 73 78  1  0  0  0
 74 75  2  0  0  0
 74 80  1  0  0  0
 75 76  1  0  0  0
 75 79  1  0  0  0
 76 83  1  0  0  0
 77 81  1  0  0  0
 77 84  1  0  0  0
 77 85  2  0  0  0
 78147  1  0  0  0
 78148  1  0  0  0
 78149  1  0  0  0
 79150  1  0  0  0
 79151  1  0  0  0
 79152  1  0  0  0
 80 84  1  0  0  0
 80153  1  0  0  0
 80154  1  0  0  0
 81 82  1  0  0  0
 81155  1  0  0  0
 81156  1  0  0  0
 82157  1  0  0  0
 82158  1  0  0  0
 83159  1  0  0  0
 84160  1  0  0  0
M  ISO  4   1 100  68 101  82 101  83 100
M  END
> <chiral flag>
0

> <version>
0

> <s_m_source_file>
/data/baiqing/PycharmProjects/Reinvent-master-3.2/result/LINK_invent/BTK/process_docking_weight1_custom_product_contain_oxygen_bond_distance_aromatic_linkinvent_7_9_3/rearranged_h_0047.sdf

> <i_m_source_file_index>
21

> <r_mmod_Potential_Energy-OPLS-2005>
-113.94514465332

> <r_mmod_Stretch_Energy-OPLS-2005>
47.309986114502

> <r_mmod_Bend_Energy-OPLS-2005>
128.293792724609

> <r_mmod_Torsional_Energy-OPLS-2005>
222.380386352539

> <r_mmod_Improper_Torsional_Energy-OPLS-2005>
6.31884956359863

> <r_mmod_Van_der_Waal_Energy-OPLS-2005>
154.516540527344

> <r_mmod_Electrostatic_Energy-OPLS-2005>
-462.361724853516

> <r_mmod_Solvation_Energy-OPLS-2005>
-231.253112792969

> <b_mmod_Minimization_Converged-OPLS-2005>
0

> <r_mmod_RMS_Derivative-OPLS-2005>
3.38550090789795

$$$$
21
                    3D
 Structure written by MMmdl.
168177  0  0  1  0            999 V2000
  -30.7810  -14.3460   20.7047 C   0  0  0  0  0  0
  -30.4226  -12.3003   19.3799 C   0  0  0  0  0  0
  -29.4763  -12.5286   18.1862 C   0  0  0  0  0  0
  -28.0055  -12.3709   18.6138 C   0  0  0  0  0  0
  -27.6656  -13.1982   19.8794 C   0  0  2  0  0  0
  -28.7050  -12.9392   20.9910 C   0  0  0  0  0  0
  -25.2614  -13.8138   20.5693 C   0  0  0  0  0  0
  -24.1865  -13.0436   20.9172 C   0  0  0  0  0  0
  -24.6393  -11.6889   20.8710 C   0  0  0  0  0  0
  -23.9048  -10.4286   21.0407 C   0  0  0  0  0  0
  -24.3602   -9.4203   21.9190 C   0  0  0  0  0  0
  -23.6284   -8.2236   22.0756 C   0  0  0  0  0  0
  -22.4261   -8.0274   21.3551 C   0  0  0  0  0  0
  -21.9894   -9.0241   20.4645 C   0  0  0  0  0  0
  -22.7215  -10.2124   20.3065 C   0  0  0  0  0  0
  -21.6860   -6.0729   22.5280 C   0  0  0  0  0  0
  -21.3994   -6.5637   23.8203 C   0  0  0  0  0  0
  -21.3657   -5.6799   24.9174 C   0  0  0  0  0  0
  -21.6072   -4.3063   24.7235 C   0  0  0  0  0  0
  -21.8823   -3.8146   23.4357 C   0  0  0  0  0  0
  -21.9192   -4.6956   22.3410 C   0  0  0  0  0  0
  -22.7891  -13.5233   21.1871 C   0  0  0  0  0  0
  -22.1679   -4.2144   21.0987 F   0  0  0  0  0  0
  -21.5636   -3.4543   25.7746 F   0  0  0  0  0  0
  -30.0481  -13.2327   20.4528 N   0  0  0  0  0  0
  -26.3044  -12.9305   20.3382 N   0  0  0  0  0  0
  -25.9320  -11.6468   20.5762 N   0  0  0  0  0  0
  -22.0539  -12.8200   22.0404 N   0  0  0  0  0  0
  -25.4369  -15.1856   20.4126 N   0  0  0  0  0  0
  -31.8089  -14.6351   20.0859 O   0  0  0  0  0  0
  -21.6644   -6.8862   21.4237 O   0  0  0  0  0  0
  -22.3564  -14.5545   20.6721 O   0  0  0  0  0  0
  -24.6080  -31.8714   23.2134 C   0  0  0  0  0  0
  -25.8995  -32.4829   23.8413 C   0  0  1  0  0  0
  -27.2439  -27.4790   20.1073 C   0  0  0  0  0  0
  -25.5903  -33.8624   24.2368 N   0  0  0  0  0  0
  -23.3938  -30.4965   21.5494 C   0  0  2  0  0  0
  -24.8467  -28.9598   20.1240 C   0  0  0  0  0  0
  -22.7359  -29.4697   22.4970 C   0  0  0  0  0  0
  -18.0259  -28.1386   22.8488 C   0  0  0  0  0  0
  -24.1495  -36.7297   23.2630 C   0  0  0  0  0  0
  -25.9162  -30.8553   21.3571 C   0  0  0  0  0  0
  -26.0012  -29.4869   20.7180 C   0  0  0  0  0  0
  -27.2035  -28.7514   20.7137 C   0  0  0  0  0  0
  -26.0817  -26.9562   19.5070 C   0  0  0  0  0  0
  -24.8773  -27.6867   19.5259 C   0  0  0  0  0  0
  -23.6064  -29.8235   20.1657 C   0  0  0  0  0  0
  -25.4125  -36.3107   24.0333 C   0  0  1  0  0  0
  -20.5847  -28.3669   23.1324 C   0  0  2  0  0  0
  -20.6745  -26.9403   22.5426 C   0  0  0  0  0  0
  -19.5733  -26.6402   21.5207 C   0  0  0  0  0  0
  -18.1915  -26.7926   22.1622 C   0  0  0  0  0  0
  -19.1517  -28.8834   23.2913 C   0  0  0  0  0  0
  -18.9453  -30.1438   23.8929 C   0  0  0  0  0  0
  -17.6472  -30.6598   24.0563 C   0  0  0  0  0  0
  -25.9026  -34.9456   23.5136 C   0  0  0  0  0  0
  -16.5355  -29.9117   23.6314 C   0  0  0  0  0  0
  -16.7264  -28.6526   23.0340 C   0  0  0  0  0  0
  -26.4468  -31.6540   25.0680 C   0  0  0  0  0  0
  -25.3785  -31.3618   26.1459 C   0  0  0  0  0  0
  -27.0314  -30.3005   24.5974 C   0  0  0  0  0  0
  -27.6065  -32.4242   25.7418 C   0  0  0  0  0  0
  -27.5591  -37.1813   24.8454 C   0  0  0  0  0  0
  -21.4089  -29.3050   22.3724 N   0  0  0  0  0  0
  -26.4307  -37.3793   23.9401 N   0  0  0  0  0  0
  -24.6561  -31.0885   22.1007 N   0  0  0  0  0  0
  -23.4171  -28.8254   23.2996 O   0  0  0  0  0  0
  -28.4187  -26.7802   20.0296 O   0  0  0  0  0  0
  -26.5560  -34.8889   22.4678 O   0  0  0  0  0  0
  -23.5284  -32.1432   23.7576 O   0  0  0  0  0  0
  -30.4177  -25.1389   22.6488 C   0  0  0  0  0  0
  -30.7147  -20.0712   21.3807 C   0  0  0  0  0  0
  -29.9729  -26.1021   21.7238 C   0  0  0  0  0  0
  -30.4069  -20.0320   20.0096 C   0  0  0  0  0  0
  -27.9542  -24.8040   21.3568 C   0  0  0  0  0  0
  -30.4041  -17.6117   20.1018 C   0  0  0  0  0  0
  -29.6733  -23.9629   22.8873 C   0  0  0  0  0  0
  -30.8879  -18.8847   22.1401 C   0  0  0  0  0  0
  -28.3975  -23.8220   22.2686 C   0  0  0  0  0  0
  -30.7349  -17.6300   21.4816 C   0  0  0  0  0  0
  -28.7535  -25.9214   21.0457 C   0  0  0  0  0  0
  -30.2553  -18.7967   19.3643 C   0  0  0  0  0  0
  -30.3216  -22.8946   23.6721 C   0  0  0  0  0  0
  -29.7265  -22.0351   24.5262 C   0  0  0  0  0  0
  -30.3628  -20.8218   25.0213 C   0  0  0  0  0  0
  -27.5026  -22.6088   22.4786 C   0  0  0  0  0  0
  -31.2204  -18.9635   23.6458 C   0  0  0  0  0  0
  -30.9621  -16.3142   22.2409 C   0  0  0  0  0  0
  -31.2664  -20.3291   24.1633 N   0  0  0  0  0  0
  -30.3161  -15.1232   21.6891 N   0  0  0  0  0  0
  -29.9978  -20.1990   26.0192 O   0  0  0  0  0  0
  -29.8956  -18.7276   17.6772 Cl  0  0  0  0  0  0
  -31.4622  -12.4190   19.0654 H   0  0  0  0  0  0
  -30.3416  -11.2749   19.7405 H   0  0  0  0  0  0
  -29.7031  -11.8202   17.3879 H   0  0  0  0  0  0
  -29.6327  -13.5279   17.7726 H   0  0  0  0  0  0
  -27.8259  -11.3113   18.8004 H   0  0  0  0  0  0
  -27.3380  -12.6467   17.7965 H   0  0  0  0  0  0
  -27.7258  -14.2516   19.6059 H   0  0  0  0  0  0
  -28.6720  -11.8947   21.3031 H   0  0  0  0  0  0
  -28.4509  -13.5117   21.8821 H   0  0  0  0  0  0
  -25.2762   -9.5691   22.4734 H   0  0  0  0  0  0
  -24.0026   -7.4630   22.7461 H   0  0  0  0  0  0
  -21.0838   -8.8751   19.8928 H   0  0  0  0  0  0
  -22.3689  -10.9663   19.6164 H   0  0  0  0  0  0
  -21.1959   -7.6136   23.9699 H   0  0  0  0  0  0
  -21.1487   -6.0531   25.9077 H   0  0  0  0  0  0
  -22.0597   -2.7608   23.2861 H   0  0  0  0  0  0
  -22.4164  -11.9844   22.4758 H   0  0  0  0  0  0
  -21.1148  -13.1180   22.2640 H   0  0  0  0  0  0
  -24.6738  -15.8429   20.5283 H   0  0  0  0  0  0
  -26.2961  -15.6229   20.1033 H   0  0  0  0  0  0
  -26.7076  -32.5568   23.1209 H   0  0  0  0  0  0
  -25.0133  -33.9795   25.0567 H   0  0  0  0  0  0
  -22.6777  -31.3095   21.4070 H   0  0  0  0  0  0
  -23.3746  -35.9644   23.3289 H   0  0  0  0  0  0
  -24.3612  -36.8873   22.2040 H   0  0  0  0  0  0
  -23.7255  -37.6515   23.6610 H   0  0  0  0  0  0
  -26.0144  -31.6183   20.5832 H   0  0  0  0  0  0
  -26.8115  -30.9206   21.9626 H   0  0  0  0  0  0
  -28.0977  -29.1659   21.1571 H   0  0  0  0  0  0
  -26.1166  -25.9899   19.0231 H   0  0  0  0  0  0
  -23.9899  -27.2629   19.0797 H   0  0  0  0  0  0
  -23.7222  -30.6004   19.4090 H   0  0  0  0  0  0
  -22.7312  -29.2462   19.8630 H   0  0  0  0  0  0
  -25.1310  -36.1979   25.0822 H   0  0  0  0  0  0
  -20.9953  -28.3243   24.1436 H   0  0  0  0  0  0
  -20.5635  -26.2281   23.3609 H   0  0  0  0  0  0
  -21.6619  -26.7429   22.1235 H   0  0  0  0  0  0
  -19.6913  -25.6321   21.1217 H   0  0  0  0  0  0
  -19.6688  -27.3217   20.6737 H   0  0  0  0  0  0
  -17.4182  -26.6651   21.4034 H   0  0  0  0  0  0
  -18.0341  -26.0082   22.9030 H   0  0  0  0  0  0
  -19.7950  -30.7218   24.2336 H   0  0  0  0  0  0
  -17.5048  -31.6282   24.5169 H   0  0  0  0  0  0
  -15.5373  -30.3044   23.7634 H   0  0  0  0  0  0
  -15.8643  -28.0868   22.7047 H   0  0  0  0  0  0
  -24.5955  -30.6935   25.7849 H   0  0  0  0  0  0
  -24.9002  -32.2775   26.4940 H   0  0  0  0  0  0
  -25.8209  -30.8803   27.0190 H   0  0  0  0  0  0
  -26.2852  -29.6722   24.1107 H   0  0  0  0  0  0
  -27.4260  -29.7256   25.4364 H   0  0  0  0  0  0
  -27.8575  -30.4385   23.8992 H   0  0  0  0  0  0
  -27.2694  -33.3506   26.2081 H   0  0  0  0  0  0
  -28.3847  -32.6821   25.0221 H   0  0  0  0  0  0
  -28.0785  -31.8298   26.5262 H   0  0  0  0  0  0
  -28.2607  -38.0121   24.7476 H   0  0  0  0  0  0
  -28.1076  -36.2633   24.6287 H   0  0  0  0  0  0
  -27.2315  -37.1466   25.8865 H   0  0  0  0  0  0
  -20.9219  -29.8803   21.6981 H   0  0  0  0  0  0
  -26.0184  -38.2852   24.1425 H   0  0  0  0  0  0
  -31.3740  -25.2848   23.1324 H   0  0  0  0  0  0
  -30.8098  -21.0476   21.8222 H   0  0  0  0  0  0
  -30.5994  -26.9534   21.4938 H   0  0  0  0  0  0
  -30.2898  -20.9572   19.4645 H   0  0  0  0  0  0
  -27.0116  -24.6656   20.8465 H   0  0  0  0  0  0
  -30.2617  -16.6861   19.5706 H   0  0  0  0  0  0
  -31.3710  -22.7669   23.4463 H   0  0  0  0  0  0
  -28.7008  -22.1959   24.8144 H   0  0  0  0  0  0
  -26.7093  -22.5581   21.7325 H   0  0  0  0  0  0
  -27.0234  -22.6662   23.4552 H   0  0  0  0  0  0
  -28.0622  -21.6756   22.4142 H   0  0  0  0  0  0
  -32.1759  -18.4811   23.8468 H   0  0  0  0  0  0
  -30.4647  -18.3962   24.1911 H   0  0  0  0  0  0
  -32.0367  -16.1467   22.3422 H   0  0  0  0  0  0
  -30.5724  -16.4076   23.2524 H   0  0  0  0  0  0
  -31.6585  -20.9985   23.5186 H   0  0  0  0  0  0
  -29.4721  -14.8150   22.1471 H   0  0  0  0  0  0
  1 25  1  0  0  0
  1 30  2  0  0  0
  1 90  1  0  0  0
  2  3  1  0  0  0
  2 25  1  0  0  0
  2 93  1  0  0  0
  2 94  1  0  0  0
  3  4  1  0  0  0
  3 95  1  0  0  0
  3 96  1  0  0  0
  4  5  1  0  0  0
  4 97  1  0  0  0
  4 98  1  0  0  0
  5  6  1  0  0  0
  5 26  1  0  0  0
  5 99  1  0  0  0
  6 25  1  0  0  0
  6100  1  0  0  0
  6101  1  0  0  0
  7  8  2  0  0  0
  7 26  1  0  0  0
  7 29  1  0  0  0
  8  9  1  0  0  0
  8 22  1  0  0  0
  9 10  1  0  0  0
  9 27  2  0  0  0
 10 11  2  0  0  0
 10 15  1  0  0  0
 11 12  1  0  0  0
 11102  1  0  0  0
 12 13  2  0  0  0
 12103  1  0  0  0
 13 14  1  0  0  0
 13 31  1  0  0  0
 14 15  2  0  0  0
 14104  1  0  0  0
 15105  1  0  0  0
 16 17  2  0  0  0
 16 21  1  0  0  0
 16 31  1  0  0  0
 17 18  1  0  0  0
 17106  1  0  0  0
 18 19  2  0  0  0
 18107  1  0  0  0
 19 20  1  0  0  0
 19 24  1  0  0  0
 20 21  2  0  0  0
 20108  1  0  0  0
 21 23  1  0  0  0
 22 28  1  0  0  0
 22 32  2  0  0  0
 26 27  1  0  0  0
 28109  1  0  0  0
 28110  1  0  0  0
 29111  1  0  0  0
 29112  1  0  0  0
 33 34  1  0  0  0
 33 66  1  0  0  0
 33 70  2  0  0  0
 34 36  1  0  0  0
 34 59  1  0  0  0
 34113  1  0  0  0
 35 44  2  0  0  0
 35 45  1  0  0  0
 35 68  1  0  0  0
 36 56  1  0  0  0
 36114  1  0  0  0
 37 39  1  0  0  0
 37 47  1  0  0  0
 37 66  1  0  0  0
 37115  1  0  0  0
 38 43  2  0  0  0
 38 46  1  0  0  0
 38 47  1  0  0  0
 39 64  1  0  0  0
 39 67  2  0  0  0
 40 52  1  0  0  0
 40 53  2  0  0  0
 40 58  1  0  0  0
 41116  1  0  0  0
 41117  1  0  0  0
 41118  1  0  0  0
 41 48  1  0  0  0
 42 43  1  0  0  0
 42 66  1  0  0  0
 42119  1  0  0  0
 42120  1  0  0  0
 43 44  1  0  0  0
 44121  1  0  0  0
 45 46  2  0  0  0
 45122  1  0  0  0
 46123  1  0  0  0
 47124  1  0  0  0
 47125  1  0  0  0
 48 56  1  0  0  0
 48 65  1  0  0  0
 48126  1  0  0  0
 49 50  1  0  0  0
 49 53  1  0  0  0
 49 64  1  0  0  0
 49127  1  0  0  0
 50 51  1  0  0  0
 50128  1  0  0  0
 50129  1  0  0  0
 51 52  1  0  0  0
 51130  1  0  0  0
 51131  1  0  0  0
 52132  1  0  0  0
 52133  1  0  0  0
 53 54  1  0  0  0
 54 55  2  0  0  0
 54134  1  0  0  0
 55 57  1  0  0  0
 55135  1  0  0  0
 56 69  2  0  0  0
 57 58  2  0  0  0
 57136  1  0  0  0
 58137  1  0  0  0
 59 60  1  0  0  0
 59 61  1  0  0  0
 59 62  1  0  0  0
 60138  1  0  0  0
 60139  1  0  0  0
 60140  1  0  0  0
 61141  1  0  0  0
 61142  1  0  0  0
 61143  1  0  0  0
 62144  1  0  0  0
 62145  1  0  0  0
 62146  1  0  0  0
 63 65  1  0  0  0
 63147  1  0  0  0
 63148  1  0  0  0
 63149  1  0  0  0
 64150  1  0  0  0
 65151  1  0  0  0
 68 81  1  0  0  0
 71 73  2  0  0  0
 71 77  1  0  0  0
 71152  1  0  0  0
 72 74  2  0  0  0
 72 78  1  0  0  0
 72153  1  0  0  0
 73 81  1  0  0  0
 73154  1  0  0  0
 74 82  1  0  0  0
 74155  1  0  0  0
 75 79  1  0  0  0
 75 81  2  0  0  0
 75156  1  0  0  0
 76 80  1  0  0  0
 76 82  2  0  0  0
 76157  1  0  0  0
 77 79  2  0  0  0
 77 83  1  0  0  0
 78 80  2  0  0  0
 78 87  1  0  0  0
 79 86  1  0  0  0
 80 88  1  0  0  0
 82 92  1  0  0  0
 83 84  2  0  0  0
 83158  1  0  0  0
 84 85  1  0  0  0
 84159  1  0  0  0
 85 89  1  0  0  0
 85 91  2  0  0  0
 86160  1  0  0  0
 86161  1  0  0  0
 86162  1  0  0  0
 87 89  1  0  0  0
 87163  1  0  0  0
 87164  1  0  0  0
 88 90  1  0  0  0
 88165  1  0  0  0
 88166  1  0  0  0
 89167  1  0  0  0
 90168  1  0  0  0
M  ISO  4   1 100  68 101  81 101  90 100
M  END
> <chiral flag>
0

> <version>
0

> <s_m_source_file>
/data/baiqing/PycharmProjects/Reinvent-master-3.2/result/LINK_invent/BTK/process_docking_weight1_custom_product_contain_oxygen_bond_distance_aromatic_linkinvent_7_9_3/rearranged_h_0047.sdf

> <i_m_source_file_index>
22

> <r_mmod_Potential_Energy-OPLS-2005>
-170.374542236328

> <r_mmod_Stretch_Energy-OPLS-2005>
36.8632965087891

> <r_mmod_Bend_Energy-OPLS-2005>
96.1290893554688

> <r_mmod_Torsional_Energy-OPLS-2005>
252.39045715332

> <r_mmod_Improper_Torsional_Energy-OPLS-2005>
8.90650367736816

> <r_mmod_Van_der_Waal_Energy-OPLS-2005>
184.696243286133

> <r_mmod_Electrostatic_Energy-OPLS-2005>
-515.9326171875

> <r_mmod_Solvation_Energy-OPLS-2005>
-239.691741943359

> <b_mmod_Minimization_Converged-OPLS-2005>
0

> <r_mmod_RMS_Derivative-OPLS-2005>
4.1351203918457

$$$$
22
                    3D
 Structure written by MMmdl.
161170  0  0  1  0            999 V2000
  -30.7293  -14.4574   20.5771 C   0  0  0  0  0  0
  -30.4168  -12.3002   19.4309 C   0  0  0  0  0  0
  -29.4954  -12.4921   18.2109 C   0  0  0  0  0  0
  -28.0152  -12.3585   18.6216 C   0  0  0  0  0  0
  -27.6574  -13.2118   19.8680 C   0  0  2  0  0  0
  -28.6976  -13.0154   20.9939 C   0  0  0  0  0  0
  -25.2583  -13.8174   20.5708 C   0  0  0  0  0  0
  -24.1826  -13.0445   20.9174 C   0  0  0  0  0  0
  -24.6377  -11.6910   20.8731 C   0  0  0  0  0  0
  -23.9042  -10.4299   21.0398 C   0  0  0  0  0  0
  -24.3605   -9.4217   21.9172 C   0  0  0  0  0  0
  -23.6290   -8.2250   22.0736 C   0  0  0  0  0  0
  -22.4271   -8.0287   21.3535 C   0  0  0  0  0  0
  -21.9904   -9.0249   20.4632 C   0  0  0  0  0  0
  -22.7219  -10.2130   20.3040 C   0  0  0  0  0  0
  -21.6850   -6.0737   22.5279 C   0  0  0  0  0  0
  -21.4017   -6.5641   23.8217 C   0  0  0  0  0  0
  -21.3662   -5.6784   24.9171 C   0  0  0  0  0  0
  -21.6043   -4.3049   24.7219 C   0  0  0  0  0  0
  -21.8817   -3.8149   23.4341 C   0  0  0  0  0  0
  -21.9195   -4.6966   22.3401 C   0  0  0  0  0  0
  -22.7853  -13.5242   21.1844 C   0  0  0  0  0  0
  -22.1661   -4.2161   21.0975 F   0  0  0  0  0  0
  -21.5626   -3.4534   25.7729 F   0  0  0  0  0  0
  -30.0293  -13.3011   20.4354 N   0  0  0  0  0  0
  -26.3005  -12.9344   20.3325 N   0  0  0  0  0  0
  -25.9299  -11.6502   20.5731 N   0  0  0  0  0  0
  -22.0492  -12.8229   22.0396 N   0  0  0  0  0  0
  -25.4332  -15.1897   20.4152 N   0  0  0  0  0  0
  -31.8542  -14.6132   20.0952 O   0  0  0  0  0  0
  -21.6630   -6.8885   21.4239 O   0  0  0  0  0  0
  -22.3541  -14.5553   20.6695 O   0  0  0  0  0  0
  -24.6186  -31.8702   23.2103 C   0  0  0  0  0  0
  -25.9084  -32.4809   23.8382 C   0  0  1  0  0  0
  -27.2094  -27.3934   20.0872 C   0  0  0  0  0  0
  -25.5933  -33.8614   24.2312 N   0  0  0  0  0  0
  -23.4019  -30.5011   21.5538 C   0  0  2  0  0  0
  -24.8381  -28.9613   20.1139 C   0  0  0  0  0  0
  -22.7391  -29.4732   22.4993 C   0  0  0  0  0  0
  -18.0317  -28.1443   22.8498 C   0  0  0  0  0  0
  -24.1490  -36.7304   23.2641 C   0  0  0  0  0  0
  -25.9372  -30.8172   21.3711 C   0  0  0  0  0  0
  -26.0058  -29.4526   20.7108 C   0  0  0  0  0  0
  -27.1925  -28.6773   20.6904 C   0  0  0  0  0  0
  -26.0089  -26.9214   19.5009 C   0  0  0  0  0  0
  -24.8379  -27.6960   19.5085 C   0  0  0  0  0  0
  -23.6042  -29.8367   20.1653 C   0  0  0  0  0  0
  -25.4109  -36.3106   24.0335 C   0  0  1  0  0  0
  -20.5885  -28.3751   23.1331 C   0  0  2  0  0  0
  -20.6814  -26.9446   22.5564 C   0  0  0  0  0  0
  -19.5887  -26.6487   21.5269 C   0  0  0  0  0  0
  -18.2049  -26.7954   22.1700 C   0  0  0  0  0  0
  -19.1549  -28.8912   23.2872 C   0  0  0  0  0  0
  -18.9487  -30.1556   23.8787 C   0  0  0  0  0  0
  -17.6498  -30.6690   24.0505 C   0  0  0  0  0  0
  -25.9038  -34.9456   23.5104 C   0  0  0  0  0  0
  -16.5385  -29.9146   23.6365 C   0  0  0  0  0  0
  -16.7302  -28.6562   23.0356 C   0  0  0  0  0  0
  -26.4483  -31.6584   25.0731 C   0  0  0  0  0  0
  -25.3751  -31.3701   26.1493 C   0  0  0  0  0  0
  -27.0297  -30.3002   24.6159 C   0  0  0  0  0  0
  -27.6045  -32.4303   25.7510 C   0  0  0  0  0  0
  -27.5575  -37.1800   24.8468 C   0  0  0  0  0  0
  -21.4146  -29.3042   22.3625 N   0  0  0  0  0  0
  -26.4291  -37.3788   23.9396 N   0  0  0  0  0  0
  -24.6714  -31.0786   22.1018 N   0  0  0  0  0  0
  -23.4121  -28.8337   23.3122 O   0  0  0  0  0  0
  -28.3814  -26.6485   20.0978 O   0  0  0  0  0  0
  -26.5612  -34.8899   22.4665 O   0  0  0  0  0  0
  -23.5384  -32.1473   23.7520 O   0  0  0  0  0  0
  -28.5581  -18.0366   20.7934 C   0  0  0  0  0  0
  -27.8273  -19.2461   20.6934 C   0  0  0  0  0  0
  -30.4320  -19.2688   21.7211 C   0  0  0  0  0  0
  -29.8697  -18.0390   21.3204 C   0  0  0  0  0  0
  -28.3971  -20.4769   21.0974 C   0  0  0  0  0  0
  -29.7086  -20.4755   21.6171 C   0  0  0  0  0  0
  -27.9070  -24.2173   20.5585 C   0  0  0  0  0  0
  -30.0041  -23.5195   18.6374 C   0  0  0  0  0  0
  -29.8537  -24.9622   19.1675 C   0  0  0  0  0  0
  -28.8055  -22.5900   18.9592 C   0  0  0  0  0  0
  -28.4095  -25.3005   19.5562 C   0  0  2  0  0  0
  -27.5854  -21.7838   21.0219 C   0  0  0  0  0  0
  -30.7235  -16.7766   21.4746 C   0  0  0  0  0  0
  -28.1491  -22.9138   20.2380 N   0  0  0  0  0  0
  -30.0941  -15.4766   21.1857 N   0  0  0  0  0  0
  -27.3099  -24.5531   21.5881 O   0  0  0  0  0  0
  -30.2751  -21.6327   22.0286 F   0  0  0  0  0  0
  -31.4629  -12.3821   19.1306 H   0  0  0  0  0  0
  -30.3091  -11.2977   19.8480 H   0  0  0  0  0  0
  -29.7368  -11.7596   17.4391 H   0  0  0  0  0  0
  -29.6660  -13.4742   17.7683 H   0  0  0  0  0  0
  -27.8252  -11.3035   18.8275 H   0  0  0  0  0  0
  -27.3672  -12.6248   17.7865 H   0  0  0  0  0  0
  -27.6943  -14.2548   19.5554 H   0  0  0  0  0  0
  -28.6685  -11.9886   21.3589 H   0  0  0  0  0  0
  -28.4575  -13.6403   21.8553 H   0  0  0  0  0  0
  -25.2742   -9.5702   22.4745 H   0  0  0  0  0  0
  -24.0007   -7.4635   22.7444 H   0  0  0  0  0  0
  -21.0841   -8.8750   19.8931 H   0  0  0  0  0  0
  -22.3670  -10.9662   19.6153 H   0  0  0  0  0  0
  -21.2007   -7.6151   23.9725 H   0  0  0  0  0  0
  -21.1487   -6.0512   25.9073 H   0  0  0  0  0  0
  -22.0598   -2.7619   23.2823 H   0  0  0  0  0  0
  -22.4117  -11.9888   22.4771 H   0  0  0  0  0  0
  -21.1107  -13.1238   22.2617 H   0  0  0  0  0  0
  -24.6743  -15.8511   20.5404 H   0  0  0  0  0  0
  -26.2883  -15.6208   20.0919 H   0  0  0  0  0  0
  -26.7134  -32.5457   23.1098 H   0  0  0  0  0  0
  -25.0030  -33.9734   25.0430 H   0  0  0  0  0  0
  -22.6943  -31.3235   21.4197 H   0  0  0  0  0  0
  -23.3738  -35.9655   23.3328 H   0  0  0  0  0  0
  -24.3601  -36.8895   22.2058 H   0  0  0  0  0  0
  -23.7244  -37.6511   23.6638 H   0  0  0  0  0  0
  -26.0686  -31.5892   20.6122 H   0  0  0  0  0  0
  -26.8199  -30.8548   21.9957 H   0  0  0  0  0  0
  -28.0963  -29.0527   21.1515 H   0  0  0  0  0  0
  -25.9304  -25.9509   19.0368 H   0  0  0  0  0  0
  -23.9373  -27.3070   19.0527 H   0  0  0  0  0  0
  -23.7096  -30.6118   19.4079 H   0  0  0  0  0  0
  -22.7236  -29.2636   19.8723 H   0  0  0  0  0  0
  -25.1283  -36.1965   25.0838 H   0  0  0  0  0  0
  -20.9955  -28.3408   24.1462 H   0  0  0  0  0  0
  -20.5577  -26.2415   23.3812 H   0  0  0  0  0  0
  -21.6750  -26.7415   22.1520 H   0  0  0  0  0  0
  -19.7170  -25.6476   21.1148 H   0  0  0  0  0  0
  -19.6862  -27.3412   20.6890 H   0  0  0  0  0  0
  -17.4315  -26.6506   21.4169 H   0  0  0  0  0  0
  -18.0625  -26.0191   22.9228 H   0  0  0  0  0  0
  -19.7965  -30.7436   24.2008 H   0  0  0  0  0  0
  -17.5108  -31.6431   24.5021 H   0  0  0  0  0  0
  -15.5380  -30.3058   23.7740 H   0  0  0  0  0  0
  -15.8707  -28.0852   22.7128 H   0  0  0  0  0  0
  -24.5948  -30.7008   25.7845 H   0  0  0  0  0  0
  -24.8930  -32.2869   26.4910 H   0  0  0  0  0  0
  -25.8153  -30.8912   27.0258 H   0  0  0  0  0  0
  -26.2864  -29.6796   24.1160 H   0  0  0  0  0  0
  -27.3955  -29.7226   25.4657 H   0  0  0  0  0  0
  -27.8753  -30.4248   23.9398 H   0  0  0  0  0  0
  -27.2644  -33.3594   26.2095 H   0  0  0  0  0  0
  -28.3876  -32.6873   25.0365 H   0  0  0  0  0  0
  -28.0683  -31.8422   26.5435 H   0  0  0  0  0  0
  -28.2603  -38.0094   24.7508 H   0  0  0  0  0  0
  -28.1061  -36.2610   24.6306 H   0  0  0  0  0  0
  -27.2292  -37.1480   25.8878 H   0  0  0  0  0  0
  -20.9375  -29.8552   21.6622 H   0  0  0  0  0  0
  -26.0183  -38.2867   24.1393 H   0  0  0  0  0  0
  -28.1032  -17.1124   20.4668 H   0  0  0  0  0  0
  -26.8186  -19.2199   20.3042 H   0  0  0  0  0  0
  -31.4353  -19.2973   22.1198 H   0  0  0  0  0  0
  -30.9235  -23.0958   19.0453 H   0  0  0  0  0  0
  -30.1453  -23.5468   17.5557 H   0  0  0  0  0  0
  -30.2184  -25.6747   18.4272 H   0  0  0  0  0  0
  -30.4891  -25.0880   20.0438 H   0  0  0  0  0  0
  -29.1362  -21.5533   18.9130 H   0  0  0  0  0  0
  -28.0571  -22.6731   18.1689 H   0  0  0  0  0  0
  -27.8313  -25.2374   18.6334 H   0  0  0  0  0  0
  -27.4251  -22.0883   22.0564 H   0  0  0  0  0  0
  -26.5925  -21.5697   20.6253 H   0  0  0  0  0  0
  -31.0847  -16.7396   22.5019 H   0  0  0  0  0  0
  -31.6136  -16.9296   20.8589 H   0  0  0  0  0  0
  -29.1604  -15.3138   21.5292 H   0  0  0  0  0  0
  1 25  1  0  0  0
  1 30  2  0  0  0
  1 85  1  0  0  0
  2  3  1  0  0  0
  2 25  1  0  0  0
  2 88  1  0  0  0
  2 89  1  0  0  0
  3  4  1  0  0  0
  3 90  1  0  0  0
  3 91  1  0  0  0
  4  5  1  0  0  0
  4 92  1  0  0  0
  4 93  1  0  0  0
  5  6  1  0  0  0
  5 26  1  0  0  0
  5 94  1  0  0  0
  6 25  1  0  0  0
  6 95  1  0  0  0
  6 96  1  0  0  0
  7  8  2  0  0  0
  7 26  1  0  0  0
  7 29  1  0  0  0
  8  9  1  0  0  0
  8 22  1  0  0  0
  9 10  1  0  0  0
  9 27  2  0  0  0
 10 11  2  0  0  0
 10 15  1  0  0  0
 11 12  1  0  0  0
 11 97  1  0  0  0
 12 13  2  0  0  0
 12 98  1  0  0  0
 13 14  1  0  0  0
 13 31  1  0  0  0
 14 15  2  0  0  0
 14 99  1  0  0  0
 15100  1  0  0  0
 16 17  2  0  0  0
 16 21  1  0  0  0
 16 31  1  0  0  0
 17 18  1  0  0  0
 17101  1  0  0  0
 18 19  2  0  0  0
 18102  1  0  0  0
 19 20  1  0  0  0
 19 24  1  0  0  0
 20 21  2  0  0  0
 20103  1  0  0  0
 21 23  1  0  0  0
 22 28  1  0  0  0
 22 32  2  0  0  0
 26 27  1  0  0  0
 28104  1  0  0  0
 28105  1  0  0  0
 29106  1  0  0  0
 29107  1  0  0  0
 33 34  1  0  0  0
 33 66  1  0  0  0
 33 70  2  0  0  0
 34 36  1  0  0  0
 34 59  1  0  0  0
 34108  1  0  0  0
 35 44  2  0  0  0
 35 45  1  0  0  0
 35 68  1  0  0  0
 36 56  1  0  0  0
 36109  1  0  0  0
 37 39  1  0  0  0
 37 47  1  0  0  0
 37 66  1  0  0  0
 37110  1  0  0  0
 38 43  2  0  0  0
 38 46  1  0  0  0
 38 47  1  0  0  0
 39 64  1  0  0  0
 39 67  2  0  0  0
 40 52  1  0  0  0
 40 53  2  0  0  0
 40 58  1  0  0  0
 41111  1  0  0  0
 41112  1  0  0  0
 41113  1  0  0  0
 41 48  1  0  0  0
 42 43  1  0  0  0
 42 66  1  0  0  0
 42114  1  0  0  0
 42115  1  0  0  0
 43 44  1  0  0  0
 44116  1  0  0  0
 45 46  2  0  0  0
 45117  1  0  0  0
 46118  1  0  0  0
 47119  1  0  0  0
 47120  1  0  0  0
 48 56  1  0  0  0
 48 65  1  0  0  0
 48121  1  0  0  0
 49 50  1  0  0  0
 49 53  1  0  0  0
 49 64  1  0  0  0
 49122  1  0  0  0
 50 51  1  0  0  0
 50123  1  0  0  0
 50124  1  0  0  0
 51 52  1  0  0  0
 51125  1  0  0  0
 51126  1  0  0  0
 52127  1  0  0  0
 52128  1  0  0  0
 53 54  1  0  0  0
 54 55  2  0  0  0
 54129  1  0  0  0
 55 57  1  0  0  0
 55130  1  0  0  0
 56 69  2  0  0  0
 57 58  2  0  0  0
 57131  1  0  0  0
 58132  1  0  0  0
 59 60  1  0  0  0
 59 61  1  0  0  0
 59 62  1  0  0  0
 60133  1  0  0  0
 60134  1  0  0  0
 60135  1  0  0  0
 61136  1  0  0  0
 61137  1  0  0  0
 61138  1  0  0  0
 62139  1  0  0  0
 62140  1  0  0  0
 62141  1  0  0  0
 63 65  1  0  0  0
 63142  1  0  0  0
 63143  1  0  0  0
 63144  1  0  0  0
 64145  1  0  0  0
 65146  1  0  0  0
 68 81  1  0  0  0
 71 72  2  0  0  0
 71 74  1  0  0  0
 71147  1  0  0  0
 72 75  1  0  0  0
 72148  1  0  0  0
 73 74  2  0  0  0
 73 76  1  0  0  0
 73149  1  0  0  0
 74 83  1  0  0  0
 75 76  2  0  0  0
 75 82  1  0  0  0
 76 87  1  0  0  0
 77 81  1  0  0  0
 77 84  1  0  0  0
 77 86  2  0  0  0
 78 79  1  0  0  0
 78 80  1  0  0  0
 78150  1  0  0  0
 78151  1  0  0  0
 79 81  1  0  0  0
 79152  1  0  0  0
 79153  1  0  0  0
 80 84  1  0  0  0
 80154  1  0  0  0
 80155  1  0  0  0
 81156  1  0  0  0
 82 84  1  0  0  0
 82157  1  0  0  0
 82158  1  0  0  0
 83 85  1  0  0  0
 83159  1  0  0  0
 83160  1  0  0  0
 85161  1  0  0  0
M  ISO  4   1 100  68 101  81 101  85 100
M  END
> <chiral flag>
0

> <version>
0

> <s_m_source_file>
/data/baiqing/PycharmProjects/Reinvent-master-3.2/result/LINK_invent/BTK/process_docking_weight1_custom_product_contain_oxygen_bond_distance_aromatic_linkinvent_7_9_3/rearranged_h_0047.sdf

> <i_m_source_file_index>
23

> <r_mmod_Potential_Energy-OPLS-2005>
-35.530460357666

> <r_mmod_Stretch_Energy-OPLS-2005>
45.3530426025391

> <r_mmod_Bend_Energy-OPLS-2005>
108.859474182129

> <r_mmod_Torsional_Energy-OPLS-2005>
219.216766357422

> <r_mmod_Improper_Torsional_Energy-OPLS-2005>
2.68426585197449

> <r_mmod_Van_der_Waal_Energy-OPLS-2005>
169.878646850586

> <r_mmod_Electrostatic_Energy-OPLS-2005>
-367.076812744141

> <r_mmod_Solvation_Energy-OPLS-2005>
-231.452026367188

> <b_mmod_Minimization_Converged-OPLS-2005>
0

> <r_mmod_RMS_Derivative-OPLS-2005>
4.07846784591675

$$$$
23
                    3D
 Structure written by MMmdl.
161170  0  0  1  0            999 V2000
  -30.5889  -14.7778   20.4530 C   0  0  0  0  0  0
  -30.4453  -12.4793   19.4588 C   0  0  0  0  0  0
  -29.5126  -12.5074   18.2275 C   0  0  0  0  0  0
  -28.0399  -12.3216   18.6470 C   0  0  0  0  0  0
  -27.6405  -13.2274   19.8420 C   0  0  2  0  0  0
  -28.6909  -13.1715   20.9715 C   0  0  0  0  0  0
  -25.2518  -13.8181   20.5681 C   0  0  0  0  0  0
  -24.1810  -13.0433   20.9212 C   0  0  0  0  0  0
  -24.6396  -11.6909   20.8749 C   0  0  0  0  0  0
  -23.9069  -10.4289   21.0410 C   0  0  0  0  0  0
  -24.3621   -9.4204   21.9186 C   0  0  0  0  0  0
  -23.6295   -8.2241   22.0754 C   0  0  0  0  0  0
  -22.4276   -8.0281   21.3546 C   0  0  0  0  0  0
  -21.9912   -9.0253   20.4646 C   0  0  0  0  0  0
  -22.7242  -10.2132   20.3057 C   0  0  0  0  0  0
  -21.6853   -6.0733   22.5279 C   0  0  0  0  0  0
  -21.4014   -6.5638   23.8211 C   0  0  0  0  0  0
  -21.3660   -5.6791   24.9175 C   0  0  0  0  0  0
  -21.6047   -4.3054   24.7224 C   0  0  0  0  0  0
  -21.8819   -3.8145   23.4346 C   0  0  0  0  0  0
  -21.9193   -4.6962   22.3402 C   0  0  0  0  0  0
  -22.7831  -13.5219   21.1869 C   0  0  0  0  0  0
  -22.1661   -4.2147   21.0980 F   0  0  0  0  0  0
  -21.5629   -3.4538   25.7737 F   0  0  0  0  0  0
  -29.9843  -13.5411   20.3797 N   0  0  0  0  0  0
  -26.2937  -12.9376   20.3249 N   0  0  0  0  0  0
  -25.9323  -11.6526   20.5740 N   0  0  0  0  0  0
  -22.0475  -12.8213   22.0426 N   0  0  0  0  0  0
  -25.4190  -15.1908   20.4082 N   0  0  0  0  0  0
  -31.8006  -14.8783   20.2479 O   0  0  0  0  0  0
  -21.6641   -6.8878   21.4240 O   0  0  0  0  0  0
  -22.3518  -14.5524   20.6710 O   0  0  0  0  0  0
  -24.6386  -31.8538   23.1993 C   0  0  0  0  0  0
  -25.9195  -32.4744   23.8337 C   0  0  1  0  0  0
  -27.2063  -27.2093   20.1002 C   0  0  0  0  0  0
  -25.5973  -33.8547   24.2253 N   0  0  0  0  0  0
  -23.4341  -30.4843   21.5465 C   0  0  2  0  0  0
  -24.8734  -28.9380   20.1128 C   0  0  0  0  0  0
  -22.7536  -29.4614   22.4902 C   0  0  0  0  0  0
  -18.0300  -28.1391   22.8479 C   0  0  0  0  0  0
  -24.1493  -36.7274   23.2637 C   0  0  0  0  0  0
  -25.9902  -30.7516   21.3868 C   0  0  0  0  0  0
  -26.0560  -29.3748   20.7186 C   0  0  0  0  0  0
  -27.2198  -28.5265   20.6993 C   0  0  0  0  0  0
  -25.9711  -26.8600   19.5042 C   0  0  0  0  0  0
  -24.8396  -27.6873   19.4982 C   0  0  0  0  0  0
  -23.6519  -29.8327   20.1602 C   0  0  0  0  0  0
  -25.4121  -36.3060   24.0320 C   0  0  1  0  0  0
  -20.5910  -28.3712   23.1249 C   0  0  2  0  0  0
  -20.6791  -26.9425   22.5396 C   0  0  0  0  0  0
  -19.5760  -26.6385   21.5208 C   0  0  0  0  0  0
  -18.1943  -26.7931   22.1625 C   0  0  0  0  0  0
  -19.1555  -28.8869   23.2858 C   0  0  0  0  0  0
  -18.9472  -30.1467   23.8879 C   0  0  0  0  0  0
  -17.6469  -30.6589   24.0561 C   0  0  0  0  0  0
  -25.9070  -34.9432   23.5085 C   0  0  0  0  0  0
  -16.5361  -29.9083   23.6333 C   0  0  0  0  0  0
  -16.7286  -28.6503   23.0353 C   0  0  0  0  0  0
  -26.4529  -31.6578   25.0744 C   0  0  0  0  0  0
  -25.3731  -31.3743   26.1447 C   0  0  0  0  0  0
  -27.0380  -30.2984   24.6272 C   0  0  0  0  0  0
  -27.6072  -32.4325   25.7526 C   0  0  0  0  0  0
  -27.5578  -37.1797   24.8465 C   0  0  0  0  0  0
  -21.4237  -29.3060   22.3641 N   0  0  0  0  0  0
  -26.4290  -37.3764   23.9407 N   0  0  0  0  0  0
  -24.7079  -31.0475   22.0994 N   0  0  0  0  0  0
  -23.4218  -28.8129   23.2996 O   0  0  0  0  0  0
  -28.3186  -26.3055   20.1632 O   0  0  0  0  0  0
  -26.5633  -34.8911   22.4650 O   0  0  0  0  0  0
  -23.5524  -32.1384   23.7262 O   0  0  0  0  0  0
  -31.4044  -17.8696   18.8883 C   0  0  0  0  0  0
  -32.2951  -18.6023   18.0926 C   0  0  0  0  0  0
  -31.4353  -20.6395   19.0635 C   0  0  0  0  0  0
  -30.5085  -18.4730   19.8058 C   0  0  0  0  0  0
  -30.4241  -19.9620   19.7944 C   0  0  0  0  0  0
  -32.3427  -19.9911   18.2161 C   0  0  0  0  0  0
  -28.8945  -23.6318   20.4220 C   0  0  0  0  0  0
  -27.8824  -23.1336   17.7151 C   0  0  0  0  0  0
  -27.4694  -24.3985   18.4846 C   0  0  0  0  0  0
  -29.0411  -22.3443   18.3452 C   0  0  0  0  0  0
  -28.4975  -24.9162   19.5145 C   0  0  1  0  0  0
  -29.3922  -20.9901   20.4730 C   0  0  0  0  0  0
  -29.8503  -17.4130   20.7906 C   0  0  0  0  0  0
  -29.1032  -22.3783   19.8196 N   0  0  0  0  0  0
  -29.7512  -15.8871   20.5353 N   0  0  0  0  0  0
  -28.9865  -23.7755   21.6448 O   0  0  0  0  0  0
  -33.4905  -20.9069   17.3099 Cl  0  0  0  0  0  0
  -31.4808  -12.6307   19.1491 H   0  0  0  0  0  0
  -30.4142  -11.5055   19.9501 H   0  0  0  0  0  0
  -29.8005  -11.7311   17.5172 H   0  0  0  0  0  0
  -29.6262  -13.4580   17.7042 H   0  0  0  0  0  0
  -27.9067  -11.2743   18.9198 H   0  0  0  0  0  0
  -27.3792  -12.5007   17.7983 H   0  0  0  0  0  0
  -27.6276  -14.2447   19.4517 H   0  0  0  0  0  0
  -28.7395  -12.1735   21.4098 H   0  0  0  0  0  0
  -28.4234  -13.8493   21.7841 H   0  0  0  0  0  0
  -25.2766   -9.5682   22.4760 H   0  0  0  0  0  0
  -24.0005   -7.4632   22.7473 H   0  0  0  0  0  0
  -21.0842   -8.8773   19.8951 H   0  0  0  0  0  0
  -22.3700  -10.9672   19.6168 H   0  0  0  0  0  0
  -21.2005   -7.6145   23.9713 H   0  0  0  0  0  0
  -21.1484   -6.0522   25.9078 H   0  0  0  0  0  0
  -22.0598   -2.7607   23.2847 H   0  0  0  0  0  0
  -22.4090  -11.9880   22.4825 H   0  0  0  0  0  0
  -21.1091  -13.1237   22.2623 H   0  0  0  0  0  0
  -24.6450  -15.8379   20.5134 H   0  0  0  0  0  0
  -26.2520  -15.6329   20.0428 H   0  0  0  0  0  0
  -26.7258  -32.5368   23.1069 H   0  0  0  0  0  0
  -25.0120  -33.9678   25.0399 H   0  0  0  0  0  0
  -22.7328  -31.3095   21.4063 H   0  0  0  0  0  0
  -23.3758  -35.9604   23.3292 H   0  0  0  0  0  0
  -24.3583  -36.8908   22.2054 H   0  0  0  0  0  0
  -23.7245  -37.6471   23.6671 H   0  0  0  0  0  0
  -26.1412  -31.5149   20.6223 H   0  0  0  0  0  0
  -26.8638  -30.7914   22.0259 H   0  0  0  0  0  0
  -28.1250  -28.8642   21.1843 H   0  0  0  0  0  0
  -25.7571  -25.9205   19.0541 H   0  0  0  0  0  0
  -23.9279  -27.3347   19.0353 H   0  0  0  0  0  0
  -23.7875  -30.6153   19.4130 H   0  0  0  0  0  0
  -22.7659  -29.2782   19.8457 H   0  0  0  0  0  0
  -25.1304  -36.1898   25.0812 H   0  0  0  0  0  0
  -21.0001  -28.3290   24.1370 H   0  0  0  0  0  0
  -20.5697  -26.2322   23.3605 H   0  0  0  0  0  0
  -21.6657  -26.7448   22.1184 H   0  0  0  0  0  0
  -19.6922  -25.6293   21.1246 H   0  0  0  0  0  0
  -19.6691  -27.3188   20.6731 H   0  0  0  0  0  0
  -17.4209  -26.6669   21.4034 H   0  0  0  0  0  0
  -18.0351  -26.0079   22.9029 H   0  0  0  0  0  0
  -19.7948  -30.7291   24.2238 H   0  0  0  0  0  0
  -17.5023  -31.6266   24.5167 H   0  0  0  0  0  0
  -15.5361  -30.2978   23.7669 H   0  0  0  0  0  0
  -15.8687  -28.0818   22.7073 H   0  0  0  0  0  0
  -24.5919  -30.7080   25.7771 H   0  0  0  0  0  0
  -24.8909  -32.2916   26.4836 H   0  0  0  0  0  0
  -25.8031  -30.8945   27.0248 H   0  0  0  0  0  0
  -26.2981  -29.6724   24.1269 H   0  0  0  0  0  0
  -27.4006  -29.7258   25.4818 H   0  0  0  0  0  0
  -27.8887  -30.4234   23.9570 H   0  0  0  0  0  0
  -27.2676  -33.3637   26.2072 H   0  0  0  0  0  0
  -28.3905  -32.6864   25.0371 H   0  0  0  0  0  0
  -28.0715  -31.8468   26.5470 H   0  0  0  0  0  0
  -28.2589  -38.0100   24.7513 H   0  0  0  0  0  0
  -28.1081  -36.2629   24.6290 H   0  0  0  0  0  0
  -27.2294  -37.1442   25.8868 H   0  0  0  0  0  0
  -20.9426  -29.8803   21.6860 H   0  0  0  0  0  0
  -26.0161  -38.2834   24.1414 H   0  0  0  0  0  0
  -31.4627  -16.7992   18.7978 H   0  0  0  0  0  0
  -32.9751  -18.0922   17.4257 H   0  0  0  0  0  0
  -31.5147  -21.7138   19.1179 H   0  0  0  0  0  0
  -28.1597  -23.4000   16.6940 H   0  0  0  0  0  0
  -27.0123  -22.4824   17.6154 H   0  0  0  0  0  0
  -26.5663  -24.1116   19.0234 H   0  0  0  0  0  0
  -27.2279  -25.1697   17.7529 H   0  0  0  0  0  0
  -29.9716  -22.7650   17.9617 H   0  0  0  0  0  0
  -28.9941  -21.3202   17.9728 H   0  0  0  0  0  0
  -29.4040  -25.0870   18.9330 H   0  0  0  0  0  0
  -29.7361  -21.1621   21.4936 H   0  0  0  0  0  0
  -28.4355  -20.4768   20.5721 H   0  0  0  0  0  0
  -28.8328  -17.7581   20.9771 H   0  0  0  0  0  0
  -30.3641  -17.5286   21.7457 H   0  0  0  0  0  0
  -28.7898  -15.5862   20.5563 H   0  0  0  0  0  0
  1 25  1  0  0  0
  1 30  2  0  0  0
  1 85  1  0  0  0
  2  3  1  0  0  0
  2 25  1  0  0  0
  2 88  1  0  0  0
  2 89  1  0  0  0
  3  4  1  0  0  0
  3 90  1  0  0  0
  3 91  1  0  0  0
  4  5  1  0  0  0
  4 92  1  0  0  0
  4 93  1  0  0  0
  5  6  1  0  0  0
  5 26  1  0  0  0
  5 94  1  0  0  0
  6 25  1  0  0  0
  6 95  1  0  0  0
  6 96  1  0  0  0
  7  8  2  0  0  0
  7 26  1  0  0  0
  7 29  1  0  0  0
  8  9  1  0  0  0
  8 22  1  0  0  0
  9 10  1  0  0  0
  9 27  2  0  0  0
 10 11  2  0  0  0
 10 15  1  0  0  0
 11 12  1  0  0  0
 11 97  1  0  0  0
 12 13  2  0  0  0
 12 98  1  0  0  0
 13 14  1  0  0  0
 13 31  1  0  0  0
 14 15  2  0  0  0
 14 99  1  0  0  0
 15100  1  0  0  0
 16 17  2  0  0  0
 16 21  1  0  0  0
 16 31  1  0  0  0
 17 18  1  0  0  0
 17101  1  0  0  0
 18 19  2  0  0  0
 18102  1  0  0  0
 19 20  1  0  0  0
 19 24  1  0  0  0
 20 21  2  0  0  0
 20103  1  0  0  0
 21 23  1  0  0  0
 22 28  1  0  0  0
 22 32  2  0  0  0
 26 27  1  0  0  0
 28104  1  0  0  0
 28105  1  0  0  0
 29106  1  0  0  0
 29107  1  0  0  0
 33 34  1  0  0  0
 33 66  1  0  0  0
 33 70  2  0  0  0
 34 36  1  0  0  0
 34 59  1  0  0  0
 34108  1  0  0  0
 35 44  2  0  0  0
 35 45  1  0  0  0
 35 68  1  0  0  0
 36 56  1  0  0  0
 36109  1  0  0  0
 37 39  1  0  0  0
 37 47  1  0  0  0
 37 66  1  0  0  0
 37110  1  0  0  0
 38 43  2  0  0  0
 38 46  1  0  0  0
 38 47  1  0  0  0
 39 64  1  0  0  0
 39 67  2  0  0  0
 40 52  1  0  0  0
 40 53  2  0  0  0
 40 58  1  0  0  0
 41111  1  0  0  0
 41112  1  0  0  0
 41113  1  0  0  0
 41 48  1  0  0  0
 42 43  1  0  0  0
 42 66  1  0  0  0
 42114  1  0  0  0
 42115  1  0  0  0
 43 44  1  0  0  0
 44116  1  0  0  0
 45 46  2  0  0  0
 45117  1  0  0  0
 46118  1  0  0  0
 47119  1  0  0  0
 47120  1  0  0  0
 48 56  1  0  0  0
 48 65  1  0  0  0
 48121  1  0  0  0
 49 50  1  0  0  0
 49 53  1  0  0  0
 49 64  1  0  0  0
 49122  1  0  0  0
 50 51  1  0  0  0
 50123  1  0  0  0
 50124  1  0  0  0
 51 52  1  0  0  0
 51125  1  0  0  0
 51126  1  0  0  0
 52127  1  0  0  0
 52128  1  0  0  0
 53 54  1  0  0  0
 54 55  2  0  0  0
 54129  1  0  0  0
 55 57  1  0  0  0
 55130  1  0  0  0
 56 69  2  0  0  0
 57 58  2  0  0  0
 57131  1  0  0  0
 58132  1  0  0  0
 59 60  1  0  0  0
 59 61  1  0  0  0
 59 62  1  0  0  0
 60133  1  0  0  0
 60134  1  0  0  0
 60135  1  0  0  0
 61136  1  0  0  0
 61137  1  0  0  0
 61138  1  0  0  0
 62139  1  0  0  0
 62140  1  0  0  0
 62141  1  0  0  0
 63 65  1  0  0  0
 63142  1  0  0  0
 63143  1  0  0  0
 63144  1  0  0  0
 64145  1  0  0  0
 65146  1  0  0  0
 68 81  1  0  0  0
 71 72  2  0  0  0
 71 74  1  0  0  0
 71147  1  0  0  0
 72 76  1  0  0  0
 72148  1  0  0  0
 73 75  1  0  0  0
 73 76  2  0  0  0
 73149  1  0  0  0
 74 75  2  0  0  0
 74 83  1  0  0  0
 75 82  1  0  0  0
 76 87  1  0  0  0
 77 81  1  0  0  0
 77 84  1  0  0  0
 77 86  2  0  0  0
 78 79  1  0  0  0
 78 80  1  0  0  0
 78150  1  0  0  0
 78151  1  0  0  0
 79 81  1  0  0  0
 79152  1  0  0  0
 79153  1  0  0  0
 80 84  1  0  0  0
 80154  1  0  0  0
 80155  1  0  0  0
 81156  1  0  0  0
 82 84  1  0  0  0
 82157  1  0  0  0
 82158  1  0  0  0
 83 85  1  0  0  0
 83159  1  0  0  0
 83160  1  0  0  0
 85161  1  0  0  0
M  ISO  4   1 100  68 101  81 101  85 100
M  END
> <chiral flag>
0

> <version>
0

> <s_m_source_file>
/data/baiqing/PycharmProjects/Reinvent-master-3.2/result/LINK_invent/BTK/process_docking_weight1_custom_product_contain_oxygen_bond_distance_aromatic_linkinvent_7_9_3/rearranged_h_0047.sdf

> <i_m_source_file_index>
24

> <r_mmod_Potential_Energy-OPLS-2005>
367.262329101562

> <r_mmod_Stretch_Energy-OPLS-2005>
178.083770751953

> <r_mmod_Bend_Energy-OPLS-2005>
269.333709716797

> <r_mmod_Torsional_Energy-OPLS-2005>
245.374389648438

> <r_mmod_Improper_Torsional_Energy-OPLS-2005>
5.86878108978271

> <r_mmod_Van_der_Waal_Energy-OPLS-2005>
165.262542724609

> <r_mmod_Electrostatic_Energy-OPLS-2005>
-360.951324462891

> <r_mmod_Solvation_Energy-OPLS-2005>
-244.298141479492

> <b_mmod_Minimization_Converged-OPLS-2005>
0

> <r_mmod_RMS_Derivative-OPLS-2005>
0.451775372028351

$$$$
24
                    3D
 Structure written by MMmdl.
161170  0  0  1  0            999 V2000
  -30.5579  -14.8133   20.4503 C   0  0  0  0  0  0
  -30.4471  -12.5024   19.4630 C   0  0  0  0  0  0
  -29.5142  -12.5121   18.2306 C   0  0  0  0  0  0
  -28.0428  -12.3183   18.6508 C   0  0  0  0  0  0
  -27.6380  -13.2273   19.8410 C   0  0  2  0  0  0
  -28.6861  -13.1785   20.9724 C   0  0  0  0  0  0
  -25.2509  -13.8177   20.5681 C   0  0  0  0  0  0
  -24.1805  -13.0429   20.9216 C   0  0  0  0  0  0
  -24.6392  -11.6905   20.8749 C   0  0  0  0  0  0
  -23.9069  -10.4284   21.0409 C   0  0  0  0  0  0
  -24.3621   -9.4198   21.9185 C   0  0  0  0  0  0
  -23.6292   -8.2236   22.0754 C   0  0  0  0  0  0
  -22.4275   -8.0278   21.3545 C   0  0  0  0  0  0
  -21.9912   -9.0250   20.4647 C   0  0  0  0  0  0
  -22.7242  -10.2126   20.3055 C   0  0  0  0  0  0
  -21.6853   -6.0733   22.5281 C   0  0  0  0  0  0
  -21.4012   -6.5638   23.8213 C   0  0  0  0  0  0
  -21.3658   -5.6791   24.9174 C   0  0  0  0  0  0
  -21.6047   -4.3055   24.7226 C   0  0  0  0  0  0
  -21.8820   -3.8146   23.4348 C   0  0  0  0  0  0
  -21.9192   -4.6961   22.3403 C   0  0  0  0  0  0
  -22.7829  -13.5213   21.1880 C   0  0  0  0  0  0
  -22.1662   -4.2147   21.0981 F   0  0  0  0  0  0
  -21.5627   -3.4538   25.7737 F   0  0  0  0  0  0
  -29.9742  -13.5640   20.3810 N   0  0  0  0  0  0
  -26.2921  -12.9370   20.3235 N   0  0  0  0  0  0
  -25.9317  -11.6521   20.5733 N   0  0  0  0  0  0
  -22.0478  -12.8196   22.0431 N   0  0  0  0  0  0
  -25.4178  -15.1906   20.4084 N   0  0  0  0  0  0
  -31.7658  -14.9317   20.2270 O   0  0  0  0  0  0
  -21.6641   -6.8876   21.4243 O   0  0  0  0  0  0
  -22.3513  -14.5518   20.6726 O   0  0  0  0  0  0
  -24.6347  -31.8517   23.1935 C   0  0  0  0  0  0
  -25.9156  -32.4741   23.8302 C   0  0  1  0  0  0
  -27.2231  -27.2256   20.1485 C   0  0  0  0  0  0
  -25.5943  -33.8543   24.2229 N   0  0  0  0  0  0
  -23.4341  -30.4705   21.5381 C   0  0  2  0  0  0
  -24.8829  -28.9015   20.1199 C   0  0  0  0  0  0
  -22.7518  -29.4585   22.4908 C   0  0  0  0  0  0
  -18.0293  -28.1397   22.8491 C   0  0  0  0  0  0
  -24.1486  -36.7268   23.2643 C   0  0  0  0  0  0
  -25.9818  -30.7538   21.3767 C   0  0  0  0  0  0
  -26.0566  -29.3685   20.7277 C   0  0  0  0  0  0
  -27.2331  -28.5455   20.7244 C   0  0  0  0  0  0
  -26.0264  -26.8248   19.5229 C   0  0  0  0  0  0
  -24.8740  -27.6383   19.5060 C   0  0  0  0  0  0
  -23.6563  -29.7956   20.1581 C   0  0  0  0  0  0
  -25.4118  -36.3062   24.0328 C   0  0  1  0  0  0
  -20.5900  -28.3709   23.1267 C   0  0  2  0  0  0
  -20.6783  -26.9424   22.5413 C   0  0  0  0  0  0
  -19.5757  -26.6392   21.5218 C   0  0  0  0  0  0
  -18.1937  -26.7942   22.1626 C   0  0  0  0  0  0
  -19.1550  -28.8871   23.2874 C   0  0  0  0  0  0
  -18.9469  -30.1472   23.8890 C   0  0  0  0  0  0
  -17.6468  -30.6599   24.0564 C   0  0  0  0  0  0
  -25.9064  -34.9436   23.5085 C   0  0  0  0  0  0
  -16.5358  -29.9095   23.6338 C   0  0  0  0  0  0
  -16.7279  -28.6511   23.0362 C   0  0  0  0  0  0
  -26.4507  -31.6577   25.0704 C   0  0  0  0  0  0
  -25.3717  -31.3741   26.1416 C   0  0  0  0  0  0
  -27.0360  -30.2992   24.6209 C   0  0  0  0  0  0
  -27.6057  -32.4317   25.7485 C   0  0  0  0  0  0
  -27.5576  -37.1793   24.8470 C   0  0  0  0  0  0
  -21.4222  -29.3050   22.3650 N   0  0  0  0  0  0
  -26.4286  -37.3766   23.9415 N   0  0  0  0  0  0
  -24.7029  -31.0448   22.0925 N   0  0  0  0  0  0
  -23.4197  -28.8134   23.3028 O   0  0  0  0  0  0
  -28.3148  -26.3220   20.1042 O   0  0  0  0  0  0
  -26.5631  -34.8922   22.4650 O   0  0  0  0  0  0
  -23.5489  -32.1349   23.7215 O   0  0  0  0  0  0
  -30.4622  -20.7602   18.6628 C   0  0  0  0  0  0
  -31.3414  -20.1932   17.7300 C   0  0  0  0  0  0
  -31.0532  -18.0394   18.7945 C   0  0  0  0  0  0
  -29.8422  -20.0136   19.6960 C   0  0  0  0  0  0
  -30.1722  -18.5554   19.7767 C   0  0  0  0  0  0
  -31.6296  -18.8280   17.7894 C   0  0  0  0  0  0
  -28.4072  -23.5694   20.1154 C   0  0  0  0  0  0
  -29.5255  -23.8453   22.7625 C   0  0  0  0  0  0
  -29.3167  -25.1504   21.9852 C   0  0  0  0  0  0
  -29.9756  -22.7150   21.8202 C   0  0  0  0  0  0
  -28.2690  -25.0130   20.8685 C   0  0  1  0  0  0
  -28.8137  -20.9284   20.5078 C   0  0  0  0  0  0
  -29.7985  -17.4386   20.8544 C   0  0  0  0  0  0
  -29.0258  -22.4592   20.7268 N   0  0  0  0  0  0
  -29.7039  -15.9143   20.5610 N   0  0  0  0  0  0
  -27.8333  -23.4360   19.0309 O   0  0  0  0  0  0
  -32.7005  -18.1187   16.6370 Cl  0  0  0  0  0  0
  -31.4805  -12.6664   19.1530 H   0  0  0  0  0  0
  -30.4288  -11.5308   19.9591 H   0  0  0  0  0  0
  -29.8088  -11.7313   17.5280 H   0  0  0  0  0  0
  -29.6207  -13.4585   17.6978 H   0  0  0  0  0  0
  -27.9171  -11.2716   18.9300 H   0  0  0  0  0  0
  -27.3801  -12.4869   17.8012 H   0  0  0  0  0  0
  -27.6230  -14.2430   19.4462 H   0  0  0  0  0  0
  -28.7451  -12.1799   21.4084 H   0  0  0  0  0  0
  -28.4110  -13.8515   21.7865 H   0  0  0  0  0  0
  -25.2766   -9.5673   22.4756 H   0  0  0  0  0  0
  -24.0004   -7.4626   22.7470 H   0  0  0  0  0  0
  -21.0845   -8.8768   19.8950 H   0  0  0  0  0  0
  -22.3706  -10.9663   19.6163 H   0  0  0  0  0  0
  -21.2007   -7.6146   23.9715 H   0  0  0  0  0  0
  -21.1479   -6.0522   25.9078 H   0  0  0  0  0  0
  -22.0600   -2.7609   23.2848 H   0  0  0  0  0  0
  -22.4101  -11.9856   22.4810 H   0  0  0  0  0  0
  -21.1092  -13.1213   22.2639 H   0  0  0  0  0  0
  -24.6418  -15.8353   20.5128 H   0  0  0  0  0  0
  -26.2474  -15.6331   20.0358 H   0  0  0  0  0  0
  -26.7225  -32.5376   23.1042 H   0  0  0  0  0  0
  -25.0108  -33.9671   25.0392 H   0  0  0  0  0  0
  -22.7327  -31.2935   21.3867 H   0  0  0  0  0  0
  -23.3756  -35.9590   23.3303 H   0  0  0  0  0  0
  -24.3575  -36.8888   22.2057 H   0  0  0  0  0  0
  -23.7229  -37.6467   23.6662 H   0  0  0  0  0  0
  -26.1207  -31.5075   20.6006 H   0  0  0  0  0  0
  -26.8595  -30.8103   22.0091 H   0  0  0  0  0  0
  -28.1378  -28.9056   21.1941 H   0  0  0  0  0  0
  -25.9813  -25.8545   19.0481 H   0  0  0  0  0  0
  -23.9762  -27.2737   19.0256 H   0  0  0  0  0  0
  -23.7859  -30.5672   19.3983 H   0  0  0  0  0  0
  -22.7734  -29.2311   19.8532 H   0  0  0  0  0  0
  -25.1303  -36.1901   25.0819 H   0  0  0  0  0  0
  -20.9994  -28.3287   24.1386 H   0  0  0  0  0  0
  -20.5690  -26.2319   23.3622 H   0  0  0  0  0  0
  -21.6653  -26.7449   22.1201 H   0  0  0  0  0  0
  -19.6914  -25.6296   21.1257 H   0  0  0  0  0  0
  -19.6697  -27.3197   20.6742 H   0  0  0  0  0  0
  -17.4212  -26.6704   21.4020 H   0  0  0  0  0  0
  -18.0322  -26.0084   22.9019 H   0  0  0  0  0  0
  -19.7942  -30.7297   24.2253 H   0  0  0  0  0  0
  -17.5020  -31.6276   24.5168 H   0  0  0  0  0  0
  -15.5358  -30.2994   23.7668 H   0  0  0  0  0  0
  -15.8680  -28.0825   22.7085 H   0  0  0  0  0  0
  -24.5914  -30.7061   25.7749 H   0  0  0  0  0  0
  -24.8879  -32.2916   26.4777 H   0  0  0  0  0  0
  -25.8027  -30.8971   27.0227 H   0  0  0  0  0  0
  -26.2952  -29.6735   24.1220 H   0  0  0  0  0  0
  -27.4029  -29.7261   25.4734 H   0  0  0  0  0  0
  -27.8833  -30.4270   23.9469 H   0  0  0  0  0  0
  -27.2674  -33.3645   26.2006 H   0  0  0  0  0  0
  -28.3901  -32.6822   25.0333 H   0  0  0  0  0  0
  -28.0683  -31.8468   26.5447 H   0  0  0  0  0  0
  -28.2597  -38.0085   24.7515 H   0  0  0  0  0  0
  -28.1066  -36.2617   24.6297 H   0  0  0  0  0  0
  -27.2295  -37.1443   25.8874 H   0  0  0  0  0  0
  -20.9415  -29.8758   21.6838 H   0  0  0  0  0  0
  -26.0160  -38.2837   24.1414 H   0  0  0  0  0  0
  -30.2500  -21.8133   18.5503 H   0  0  0  0  0  0
  -31.7849  -20.8079   16.9600 H   0  0  0  0  0  0
  -31.3318  -16.9982   18.8101 H   0  0  0  0  0  0
  -28.6054  -23.5623   23.2765 H   0  0  0  0  0  0
  -30.2763  -23.9967   23.5391 H   0  0  0  0  0  0
  -30.2659  -25.4686   21.5521 H   0  0  0  0  0  0
  -29.0153  -25.9409   22.6728 H   0  0  0  0  0  0
  -30.1507  -21.8148   22.4104 H   0  0  0  0  0  0
  -30.9395  -22.9661   21.3746 H   0  0  0  0  0  0
  -27.2943  -24.9615   21.3558 H   0  0  0  0  0  0
  -28.6486  -20.4565   21.4769 H   0  0  0  0  0  0
  -27.8562  -20.8198   19.9969 H   0  0  0  0  0  0
  -28.8367  -17.7294   21.2777 H   0  0  0  0  0  0
  -30.5095  -17.5519   21.6735 H   0  0  0  0  0  0
  -28.7458  -15.6037   20.5924 H   0  0  0  0  0  0
  1 25  1  0  0  0
  1 30  2  0  0  0
  1 85  1  0  0  0
  2  3  1  0  0  0
  2 25  1  0  0  0
  2 88  1  0  0  0
  2 89  1  0  0  0
  3  4  1  0  0  0
  3 90  1  0  0  0
  3 91  1  0  0  0
  4  5  1  0  0  0
  4 92  1  0  0  0
  4 93  1  0  0  0
  5  6  1  0  0  0
  5 26  1  0  0  0
  5 94  1  0  0  0
  6 25  1  0  0  0
  6 95  1  0  0  0
  6 96  1  0  0  0
  7  8  2  0  0  0
  7 26  1  0  0  0
  7 29  1  0  0  0
  8  9  1  0  0  0
  8 22  1  0  0  0
  9 10  1  0  0  0
  9 27  2  0  0  0
 10 11  2  0  0  0
 10 15  1  0  0  0
 11 12  1  0  0  0
 11 97  1  0  0  0
 12 13  2  0  0  0
 12 98  1  0  0  0
 13 14  1  0  0  0
 13 31  1  0  0  0
 14 15  2  0  0  0
 14 99  1  0  0  0
 15100  1  0  0  0
 16 17  2  0  0  0
 16 21  1  0  0  0
 16 31  1  0  0  0
 17 18  1  0  0  0
 17101  1  0  0  0
 18 19  2  0  0  0
 18102  1  0  0  0
 19 20  1  0  0  0
 19 24  1  0  0  0
 20 21  2  0  0  0
 20103  1  0  0  0
 21 23  1  0  0  0
 22 28  1  0  0  0
 22 32  2  0  0  0
 26 27  1  0  0  0
 28104  1  0  0  0
 28105  1  0  0  0
 29106  1  0  0  0
 29107  1  0  0  0
 33 34  1  0  0  0
 33 66  1  0  0  0
 33 70  2  0  0  0
 34 36  1  0  0  0
 34 59  1  0  0  0
 34108  1  0  0  0
 35 44  2  0  0  0
 35 45  1  0  0  0
 35 68  1  0  0  0
 36 56  1  0  0  0
 36109  1  0  0  0
 37 39  1  0  0  0
 37 47  1  0  0  0
 37 66  1  0  0  0
 37110  1  0  0  0
 38 43  2  0  0  0
 38 46  1  0  0  0
 38 47  1  0  0  0
 39 64  1  0  0  0
 39 67  2  0  0  0
 40 52  1  0  0  0
 40 53  2  0  0  0
 40 58  1  0  0  0
 41111  1  0  0  0
 41112  1  0  0  0
 41113  1  0  0  0
 41 48  1  0  0  0
 42 43  1  0  0  0
 42 66  1  0  0  0
 42114  1  0  0  0
 42115  1  0  0  0
 43 44  1  0  0  0
 44116  1  0  0  0
 45 46  2  0  0  0
 45117  1  0  0  0
 46118  1  0  0  0
 47119  1  0  0  0
 47120  1  0  0  0
 48 56  1  0  0  0
 48 65  1  0  0  0
 48121  1  0  0  0
 49 50  1  0  0  0
 49 53  1  0  0  0
 49 64  1  0  0  0
 49122  1  0  0  0
 50 51  1  0  0  0
 50123  1  0  0  0
 50124  1  0  0  0
 51 52  1  0  0  0
 51125  1  0  0  0
 51126  1  0  0  0
 52127  1  0  0  0
 52128  1  0  0  0
 53 54  1  0  0  0
 54 55  2  0  0  0
 54129  1  0  0  0
 55 57  1  0  0  0
 55130  1  0  0  0
 56 69  2  0  0  0
 57 58  2  0  0  0
 57131  1  0  0  0
 58132  1  0  0  0
 59 60  1  0  0  0
 59 61  1  0  0  0
 59 62  1  0  0  0
 60133  1  0  0  0
 60134  1  0  0  0
 60135  1  0  0  0
 61136  1  0  0  0
 61137  1  0  0  0
 61138  1  0  0  0
 62139  1  0  0  0
 62140  1  0  0  0
 62141  1  0  0  0
 63 65  1  0  0  0
 63142  1  0  0  0
 63143  1  0  0  0
 63144  1  0  0  0
 64145  1  0  0  0
 65146  1  0  0  0
 68 81  1  0  0  0
 71 72  2  0  0  0
 71 74  1  0  0  0
 71147  1  0  0  0
 72 76  1  0  0  0
 72148  1  0  0  0
 73 75  1  0  0  0
 73 76  2  0  0  0
 73149  1  0  0  0
 74 75  2  0  0  0
 74 82  1  0  0  0
 75 83  1  0  0  0
 76 87  1  0  0  0
 77 81  1  0  0  0
 77 84  1  0  0  0
 77 86  2  0  0  0
 78 79  1  0  0  0
 78 80  1  0  0  0
 78150  1  0  0  0
 78151  1  0  0  0
 79 81  1  0  0  0
 79152  1  0  0  0
 79153  1  0  0  0
 80 84  1  0  0  0
 80154  1  0  0  0
 80155  1  0  0  0
 81156  1  0  0  0
 82 84  1  0  0  0
 82157  1  0  0  0
 82158  1  0  0  0
 83 85  1  0  0  0
 83159  1  0  0  0
 83160  1  0  0  0
 85161  1  0  0  0
M  ISO  4   1 100  68 101  81 101  85 100
M  END
> <chiral flag>
0

> <version>
0

> <s_m_source_file>
/data/baiqing/PycharmProjects/Reinvent-master-3.2/result/LINK_invent/BTK/process_docking_weight1_custom_product_contain_oxygen_bond_distance_aromatic_linkinvent_7_9_3/rearranged_h_0047.sdf

> <i_m_source_file_index>
25

> <r_mmod_Potential_Energy-OPLS-2005>
308.618194580078

> <r_mmod_Stretch_Energy-OPLS-2005>
171.455703735352

> <r_mmod_Bend_Energy-OPLS-2005>
237.134567260742

> <r_mmod_Torsional_Energy-OPLS-2005>
253.711715698242

> <r_mmod_Improper_Torsional_Energy-OPLS-2005>
6.96274662017822

> <r_mmod_Van_der_Waal_Energy-OPLS-2005>
132.444869995117

> <r_mmod_Electrostatic_Energy-OPLS-2005>
-369.884033203125

> <r_mmod_Solvation_Energy-OPLS-2005>
-236.627471923828

> <b_mmod_Minimization_Converged-OPLS-2005>
0

> <r_mmod_RMS_Derivative-OPLS-2005>
0.783744752407074

$$$$
25
                    3D
 Structure written by MMmdl.
161170  0  0  1  0            999 V2000
  -30.6221  -14.5536   20.5498 C   0  0  0  0  0  0
  -30.4266  -12.3487   19.4456 C   0  0  0  0  0  0
  -29.4995  -12.5285   18.2205 C   0  0  0  0  0  0
  -28.0138  -12.4064   18.6220 C   0  0  0  0  0  0
  -27.6553  -13.2216   19.8916 C   0  0  2  0  0  0
  -28.6935  -13.0040   21.0124 C   0  0  0  0  0  0
  -25.2528  -13.8202   20.5754 C   0  0  0  0  0  0
  -24.1780  -13.0427   20.9290 C   0  0  0  0  0  0
  -24.6390  -11.6916   20.8847 C   0  0  0  0  0  0
  -23.9077  -10.4264   21.0440 C   0  0  0  0  0  0
  -24.3635   -9.4173   21.9191 C   0  0  0  0  0  0
  -23.6268   -8.2236   22.0770 C   0  0  0  0  0  0
  -22.4241   -8.0297   21.3569 C   0  0  0  0  0  0
  -21.9890   -9.0286   20.4687 C   0  0  0  0  0  0
  -22.7274  -10.2127   20.3072 C   0  0  0  0  0  0
  -21.6833   -6.0759   22.5302 C   0  0  0  0  0  0
  -21.4035   -6.5639   23.8251 C   0  0  0  0  0  0
  -21.3631   -5.6781   24.9196 C   0  0  0  0  0  0
  -21.6007   -4.3050   24.7252 C   0  0  0  0  0  0
  -21.8796   -3.8164   23.4365 C   0  0  0  0  0  0
  -21.9190   -4.6988   22.3428 C   0  0  0  0  0  0
  -22.7797  -13.5230   21.1893 C   0  0  0  0  0  0
  -22.1650   -4.2160   21.1015 F   0  0  0  0  0  0
  -21.5576   -3.4528   25.7766 F   0  0  0  0  0  0
  -30.0136  -13.3369   20.4580 N   0  0  0  0  0  0
  -26.2965  -12.9395   20.3488 N   0  0  0  0  0  0
  -25.9307  -11.6533   20.5893 N   0  0  0  0  0  0
  -22.0430  -12.8200   22.0455 N   0  0  0  0  0  0
  -25.4223  -15.1910   20.4091 N   0  0  0  0  0  0
  -31.7619  -14.7519   20.1162 O   0  0  0  0  0  0
  -21.6600   -6.8910   21.4273 O   0  0  0  0  0  0
  -22.3506  -14.5525   20.6744 O   0  0  0  0  0  0
  -24.6203  -31.8644   23.2012 C   0  0  0  0  0  0
  -25.9083  -32.4785   23.8331 C   0  0  1  0  0  0
  -27.2416  -27.3719   20.1474 C   0  0  0  0  0  0
  -25.5926  -33.8577   24.2296 N   0  0  0  0  0  0
  -23.4095  -30.4819   21.5473 C   0  0  2  0  0  0
  -24.8600  -28.9309   20.1133 C   0  0  0  0  0  0
  -22.7404  -29.4663   22.5018 C   0  0  0  0  0  0
  -18.0264  -28.1371   22.8550 C   0  0  0  0  0  0
  -24.1485  -36.7270   23.2636 C   0  0  0  0  0  0
  -25.9364  -30.8192   21.3537 C   0  0  0  0  0  0
  -26.0158  -29.4438   20.7109 C   0  0  0  0  0  0
  -27.2007  -28.6707   20.7198 C   0  0  0  0  0  0
  -26.0720  -26.8836   19.5226 C   0  0  0  0  0  0
  -24.8869  -27.6561   19.5137 C   0  0  0  0  0  0
  -23.6196  -29.7993   20.1666 C   0  0  0  0  0  0
  -25.4107  -36.3072   24.0328 C   0  0  1  0  0  0
  -20.5853  -28.3680   23.1337 C   0  0  2  0  0  0
  -20.6744  -26.9411   22.5450 C   0  0  0  0  0  0
  -19.5721  -26.6390   21.5250 C   0  0  0  0  0  0
  -18.1898  -26.7932   22.1658 C   0  0  0  0  0  0
  -19.1507  -28.8846   23.2942 C   0  0  0  0  0  0
  -18.9437  -30.1446   23.8967 C   0  0  0  0  0  0
  -17.6437  -30.6599   24.0573 C   0  0  0  0  0  0
  -25.9051  -34.9445   23.5115 C   0  0  0  0  0  0
  -16.5338  -29.9103   23.6303 C   0  0  0  0  0  0
  -16.7251  -28.6485   23.0399 C   0  0  0  0  0  0
  -26.4501  -31.6564   25.0668 C   0  0  0  0  0  0
  -25.3752  -31.3728   26.1408 C   0  0  0  0  0  0
  -27.0319  -30.3005   24.6032 C   0  0  0  0  0  0
  -27.6081  -32.4263   25.7448 C   0  0  0  0  0  0
  -27.5568  -37.1792   24.8452 C   0  0  0  0  0  0
  -21.4121  -29.3036   22.3722 N   0  0  0  0  0  0
  -26.4278  -37.3767   23.9408 N   0  0  0  0  0  0
  -24.6750  -31.0696   22.0943 N   0  0  0  0  0  0
  -23.4152  -28.8224   23.3087 O   0  0  0  0  0  0
  -28.4318  -26.6687   20.2691 O   0  0  0  0  0  0
  -26.5600  -34.8915   22.4671 O   0  0  0  0  0  0
  -23.5388  -32.1421   23.7383 O   0  0  0  0  0  0
  -29.5658  -19.4728   21.0515 C   0  0  0  0  0  0
  -28.1329  -20.2415   22.8652 C   0  0  0  0  0  0
  -28.4170  -17.8398   22.4484 C   0  0  0  0  0  0
  -29.0105  -20.5465   21.7997 C   0  0  0  0  0  0
  -29.3009  -18.1128   21.3746 C   0  0  0  0  0  0
  -27.8271  -18.8982   23.1770 C   0  0  0  0  0  0
  -28.3735  -24.1189   20.8827 C   0  0  0  0  0  0
  -29.4928  -23.5996   18.2197 C   0  0  0  0  0  0
  -28.6417  -24.8681   18.4216 C   0  0  0  0  0  0
  -29.0992  -22.4539   19.1826 C   0  0  0  0  0  0
  -28.7144  -25.2832   19.8930 C   0  0  1  0  0  0
  -29.5143  -21.9941   21.5989 C   0  0  0  0  0  0
  -30.0097  -17.0096   20.5541 C   0  0  0  0  0  0
  -28.8940  -22.8850   20.5796 N   0  0  0  0  0  0
  -29.8146  -15.5834   20.9205 N   0  0  0  0  0  0
  -27.8070  -24.3571   21.9535 O   0  0  0  0  0  0
  -26.7658  -18.5495   24.4949 Cl  0  0  0  0  0  0
  -31.4731  -12.4692   19.1573 H   0  0  0  0  0  0
  -30.3398  -11.3385   19.8547 H   0  0  0  0  0  0
  -29.7335  -11.7873   17.4555 H   0  0  0  0  0  0
  -29.6722  -13.5033   17.7616 H   0  0  0  0  0  0
  -27.8048  -11.3525   18.7926 H   0  0  0  0  0  0
  -27.3691  -12.7122   17.7959 H   0  0  0  0  0  0
  -27.6955  -14.2712   19.5998 H   0  0  0  0  0  0
  -28.6699  -11.9629   21.3486 H   0  0  0  0  0  0
  -28.4571  -13.6086   21.8911 H   0  0  0  0  0  0
  -25.2793   -9.5568   22.4768 H   0  0  0  0  0  0
  -23.9959   -7.4603   22.7455 H   0  0  0  0  0  0
  -21.0831   -8.8872   19.8979 H   0  0  0  0  0  0
  -22.3795  -10.9685   19.6174 H   0  0  0  0  0  0
  -21.2050   -7.6158   23.9780 H   0  0  0  0  0  0
  -21.1458   -6.0495   25.9100 H   0  0  0  0  0  0
  -22.0589   -2.7622   23.2897 H   0  0  0  0  0  0
  -22.4040  -11.9810   22.4747 H   0  0  0  0  0  0
  -21.1097  -13.1323   22.2743 H   0  0  0  0  0  0
  -24.6561  -15.8467   20.5181 H   0  0  0  0  0  0
  -26.2715  -15.6301   20.0714 H   0  0  0  0  0  0
  -26.7161  -32.5528   23.1098 H   0  0  0  0  0  0
  -25.0084  -33.9716   25.0450 H   0  0  0  0  0  0
  -22.7004  -31.2981   21.3994 H   0  0  0  0  0  0
  -23.3733  -35.9618   23.3342 H   0  0  0  0  0  0
  -24.3568  -36.8846   22.2039 H   0  0  0  0  0  0
  -23.7246  -37.6489   23.6633 H   0  0  0  0  0  0
  -26.0358  -31.5791   20.5778 H   0  0  0  0  0  0
  -26.8265  -30.8886   21.9666 H   0  0  0  0  0  0
  -28.0916  -29.0591   21.1954 H   0  0  0  0  0  0
  -26.0547  -25.9074   19.0626 H   0  0  0  0  0  0
  -23.9912  -27.2586   19.0584 H   0  0  0  0  0  0
  -23.7185  -30.5656   19.3985 H   0  0  0  0  0  0
  -22.7445  -29.2122   19.8848 H   0  0  0  0  0  0
  -25.1288  -36.1916   25.0813 H   0  0  0  0  0  0
  -20.9959  -28.3265   24.1453 H   0  0  0  0  0  0
  -20.5646  -26.2299   23.3652 H   0  0  0  0  0  0
  -21.6619  -26.7452   22.1255 H   0  0  0  0  0  0
  -19.6885  -25.6305   21.1263 H   0  0  0  0  0  0
  -19.6645  -27.3216   20.6800 H   0  0  0  0  0  0
  -17.4178  -26.6723   21.4044 H   0  0  0  0  0  0
  -18.0266  -26.0043   22.9020 H   0  0  0  0  0  0
  -19.7913  -30.7219   24.2407 H   0  0  0  0  0  0
  -17.5004  -31.6304   24.5128 H   0  0  0  0  0  0
  -15.5340  -30.3045   23.7575 H   0  0  0  0  0  0
  -15.8645  -28.0788   22.7171 H   0  0  0  0  0  0
  -24.5898  -30.7097   25.7749 H   0  0  0  0  0  0
  -24.8975  -32.2935   26.4783 H   0  0  0  0  0  0
  -25.8061  -30.8925   27.0209 H   0  0  0  0  0  0
  -26.2871  -29.6760   24.1076 H   0  0  0  0  0  0
  -27.4103  -29.7214   25.4465 H   0  0  0  0  0  0
  -27.8689  -30.4302   23.9158 H   0  0  0  0  0  0
  -27.2690  -33.3518   26.2113 H   0  0  0  0  0  0
  -28.3862  -32.6902   25.0272 H   0  0  0  0  0  0
  -28.0804  -31.8342   26.5299 H   0  0  0  0  0  0
  -28.2591  -38.0084   24.7497 H   0  0  0  0  0  0
  -28.1062  -36.2616   24.6291 H   0  0  0  0  0  0
  -27.2292  -37.1458   25.8856 H   0  0  0  0  0  0
  -20.9285  -29.8726   21.6918 H   0  0  0  0  0  0
  -26.0155  -38.2840   24.1422 H   0  0  0  0  0  0
  -30.2502  -19.7016   20.2453 H   0  0  0  0  0  0
  -27.7290  -21.0288   23.4872 H   0  0  0  0  0  0
  -28.2033  -16.8248   22.7528 H   0  0  0  0  0  0
  -30.5390  -23.8588   18.3925 H   0  0  0  0  0  0
  -29.4501  -23.2577   17.1850 H   0  0  0  0  0  0
  -27.6189  -24.6868   18.0965 H   0  0  0  0  0  0
  -29.0480  -25.6705   17.8060 H   0  0  0  0  0  0
  -29.8758  -21.6906   19.1143 H   0  0  0  0  0  0
  -28.1907  -21.9525   18.8483 H   0  0  0  0  0  0
  -29.7866  -25.3275   20.0848 H   0  0  0  0  0  0
  -30.5605  -21.8923   21.3052 H   0  0  0  0  0  0
  -29.5685  -22.4908   22.5649 H   0  0  0  0  0  0
  -31.0740  -17.2546   20.5197 H   0  0  0  0  0  0
  -29.6427  -17.1237   19.5313 H   0  0  0  0  0  0
  -28.8946  -15.3312   21.2451 H   0  0  0  0  0  0
  1 25  1  0  0  0
  1 30  2  0  0  0
  1 85  1  0  0  0
  2  3  1  0  0  0
  2 25  1  0  0  0
  2 88  1  0  0  0
  2 89  1  0  0  0
  3  4  1  0  0  0
  3 90  1  0  0  0
  3 91  1  0  0  0
  4  5  1  0  0  0
  4 92  1  0  0  0
  4 93  1  0  0  0
  5  6  1  0  0  0
  5 26  1  0  0  0
  5 94  1  0  0  0
  6 25  1  0  0  0
  6 95  1  0  0  0
  6 96  1  0  0  0
  7  8  2  0  0  0
  7 26  1  0  0  0
  7 29  1  0  0  0
  8  9  1  0  0  0
  8 22  1  0  0  0
  9 10  1  0  0  0
  9 27  2  0  0  0
 10 11  2  0  0  0
 10 15  1  0  0  0
 11 12  1  0  0  0
 11 97  1  0  0  0
 12 13  2  0  0  0
 12 98  1  0  0  0
 13 14  1  0  0  0
 13 31  1  0  0  0
 14 15  2  0  0  0
 14 99  1  0  0  0
 15100  1  0  0  0
 16 17  2  0  0  0
 16 21  1  0  0  0
 16 31  1  0  0  0
 17 18  1  0  0  0
 17101  1  0  0  0
 18 19  2  0  0  0
 18102  1  0  0  0
 19 20  1  0  0  0
 19 24  1  0  0  0
 20 21  2  0  0  0
 20103  1  0  0  0
 21 23  1  0  0  0
 22 28  1  0  0  0
 22 32  2  0  0  0
 26 27  1  0  0  0
 28104  1  0  0  0
 28105  1  0  0  0
 29106  1  0  0  0
 29107  1  0  0  0
 33 34  1  0  0  0
 33 66  1  0  0  0
 33 70  2  0  0  0
 34 36  1  0  0  0
 34 59  1  0  0  0
 34108  1  0  0  0
 35 44  2  0  0  0
 35 45  1  0  0  0
 35 68  1  0  0  0
 36 56  1  0  0  0
 36109  1  0  0  0
 37 39  1  0  0  0
 37 47  1  0  0  0
 37 66  1  0  0  0
 37110  1  0  0  0
 38 43  2  0  0  0
 38 46  1  0  0  0
 38 47  1  0  0  0
 39 64  1  0  0  0
 39 67  2  0  0  0
 40 52  1  0  0  0
 40 53  2  0  0  0
 40 58  1  0  0  0
 41111  1  0  0  0
 41112  1  0  0  0
 41113  1  0  0  0
 41 48  1  0  0  0
 42 43  1  0  0  0
 42 66  1  0  0  0
 42114  1  0  0  0
 42115  1  0  0  0
 43 44  1  0  0  0
 44116  1  0  0  0
 45 46  2  0  0  0
 45117  1  0  0  0
 46118  1  0  0  0
 47119  1  0  0  0
 47120  1  0  0  0
 48 56  1  0  0  0
 48 65  1  0  0  0
 48121  1  0  0  0
 49 50  1  0  0  0
 49 53  1  0  0  0
 49 64  1  0  0  0
 49122  1  0  0  0
 50 51  1  0  0  0
 50123  1  0  0  0
 50124  1  0  0  0
 51 52  1  0  0  0
 51125  1  0  0  0
 51126  1  0  0  0
 52127  1  0  0  0
 52128  1  0  0  0
 53 54  1  0  0  0
 54 55  2  0  0  0
 54129  1  0  0  0
 55 57  1  0  0  0
 55130  1  0  0  0
 56 69  2  0  0  0
 57 58  2  0  0  0
 57131  1  0  0  0
 58132  1  0  0  0
 59 60  1  0  0  0
 59 61  1  0  0  0
 59 62  1  0  0  0
 60133  1  0  0  0
 60134  1  0  0  0
 60135  1  0  0  0
 61136  1  0  0  0
 61137  1  0  0  0
 61138  1  0  0  0
 62139  1  0  0  0
 62140  1  0  0  0
 62141  1  0  0  0
 63 65  1  0  0  0
 63142  1  0  0  0
 63143  1  0  0  0
 63144  1  0  0  0
 64145  1  0  0  0
 65146  1  0  0  0
 68 81  1  0  0  0
 71 74  2  0  0  0
 71 75  1  0  0  0
 71147  1  0  0  0
 72 74  1  0  0  0
 72 76  2  0  0  0
 72148  1  0  0  0
 73 75  2  0  0  0
 73 76  1  0  0  0
 73149  1  0  0  0
 74 82  1  0  0  0
 75 83  1  0  0  0
 76 87  1  0  0  0
 77 81  1  0  0  0
 77 84  1  0  0  0
 77 86  2  0  0  0
 78 79  1  0  0  0
 78 80  1  0  0  0
 78150  1  0  0  0
 78151  1  0  0  0
 79 81  1  0  0  0
 79152  1  0  0  0
 79153  1  0  0  0
 80 84  1  0  0  0
 80154  1  0  0  0
 80155  1  0  0  0
 81156  1  0  0  0
 82 84  1  0  0  0
 82157  1  0  0  0
 82158  1  0  0  0
 83 85  1  0  0  0
 83159  1  0  0  0
 83160  1  0  0  0
 85161  1  0  0  0
M  ISO  4   1 100  68 101  81 101  85 100
M  END
> <chiral flag>
0

> <version>
0

> <s_m_source_file>
/data/baiqing/PycharmProjects/Reinvent-master-3.2/result/LINK_invent/BTK/process_docking_weight1_custom_product_contain_oxygen_bond_distance_aromatic_linkinvent_7_9_3/rearranged_h_0047.sdf

> <i_m_source_file_index>
26

> <r_mmod_Potential_Energy-OPLS-2005>
48.8161697387695

> <r_mmod_Stretch_Energy-OPLS-2005>
55.3049354553223

> <r_mmod_Bend_Energy-OPLS-2005>
174.38102722168

> <r_mmod_Torsional_Energy-OPLS-2005>
240.886077880859

> <r_mmod_Improper_Torsional_Energy-OPLS-2005>
9.89593029022217

> <r_mmod_Van_der_Waal_Energy-OPLS-2005>
144.043090820312

> <r_mmod_Electrostatic_Energy-OPLS-2005>
-367.709533691406

> <r_mmod_Solvation_Energy-OPLS-2005>
-237.03662109375

> <b_mmod_Minimization_Converged-OPLS-2005>
0

> <r_mmod_RMS_Derivative-OPLS-2005>
7.39715623855591

$$$$
26
                    3D
 Structure written by MMmdl.
180189  0  0  1  0            999 V2000
  -30.7715  -14.5065   20.5050 C   0  0  0  0  0  0
  -30.3918  -12.3246   19.4319 C   0  0  0  0  0  0
  -29.4697  -12.4891   18.2073 C   0  0  0  0  0  0
  -27.9940  -12.3594   18.6287 C   0  0  0  0  0  0
  -27.6428  -13.2204   19.8709 C   0  0  2  0  0  0
  -28.6979  -13.0542   20.9832 C   0  0  0  0  0  0
  -25.2399  -13.8046   20.5686 C   0  0  0  0  0  0
  -24.1696  -13.0330   20.9200 C   0  0  0  0  0  0
  -24.6350  -11.6838   20.8831 C   0  0  0  0  0  0
  -23.9068  -10.4215   21.0456 C   0  0  0  0  0  0
  -24.3614   -9.4121   21.9210 C   0  0  0  0  0  0
  -23.6277   -8.2167   22.0751 C   0  0  0  0  0  0
  -22.4265   -8.0235   21.3527 C   0  0  0  0  0  0
  -21.9909   -9.0214   20.4632 C   0  0  0  0  0  0
  -22.7263  -10.2082   20.3078 C   0  0  0  0  0  0
  -21.6821   -6.0741   22.5294 C   0  0  0  0  0  0
  -21.3995   -6.5653   23.8227 C   0  0  0  0  0  0
  -21.3641   -5.6811   24.9182 C   0  0  0  0  0  0
  -21.6054   -4.3081   24.7243 C   0  0  0  0  0  0
  -21.8835   -3.8166   23.4370 C   0  0  0  0  0  0
  -21.9180   -4.6971   22.3418 C   0  0  0  0  0  0
  -22.7737  -13.5131   21.1906 C   0  0  0  0  0  0
  -22.1649   -4.2155   21.1002 F   0  0  0  0  0  0
  -21.5605   -3.4573   25.7764 F   0  0  0  0  0  0
  -30.0112  -13.3699   20.4035 N   0  0  0  0  0  0
  -26.2929  -12.9338   20.3478 N   0  0  0  0  0  0
  -25.9309  -11.6486   20.5923 N   0  0  0  0  0  0
  -22.0425  -12.8101   22.0497 N   0  0  0  0  0  0
  -25.3919  -15.1690   20.3969 N   0  0  0  0  0  0
  -31.9673  -14.4624   20.2074 O   0  0  0  0  0  0
  -21.6601   -6.8864   21.4245 O   0  0  0  0  0  0
  -22.3409  -14.5471   20.6818 O   0  0  0  0  0  0
  -24.6092  -31.8724   23.2137 C   0  0  0  0  0  0
  -25.9011  -32.4850   23.8418 C   0  0  1  0  0  0
  -27.2464  -27.4978   20.0629 C   0  0  0  0  0  0
  -25.5886  -33.8651   24.2349 N   0  0  0  0  0  0
  -23.3930  -30.4961   21.5552 C   0  0  2  0  0  0
  -24.8376  -28.9639   20.1214 C   0  0  0  0  0  0
  -22.7376  -29.4676   22.5031 C   0  0  0  0  0  0
  -18.0259  -28.1368   22.8480 C   0  0  0  0  0  0
  -24.1477  -36.7326   23.2624 C   0  0  0  0  0  0
  -25.9159  -30.8553   21.3568 C   0  0  0  0  0  0
  -25.9956  -29.4917   20.7092 C   0  0  0  0  0  0
  -27.1988  -28.7603   20.6861 C   0  0  0  0  0  0
  -26.0624  -26.9556   19.5086 C   0  0  0  0  0  0
  -24.8618  -27.6890   19.5276 C   0  0  0  0  0  0
  -23.5970  -29.8253   20.1706 C   0  0  0  0  0  0
  -25.4089  -36.3132   24.0342 C   0  0  1  0  0  0
  -20.5849  -28.3647   23.1341 C   0  0  2  0  0  0
  -20.6753  -26.9389   22.5428 C   0  0  0  0  0  0
  -19.5737  -26.6377   21.5212 C   0  0  0  0  0  0
  -18.1907  -26.7916   22.1604 C   0  0  0  0  0  0
  -19.1506  -28.8820   23.2912 C   0  0  0  0  0  0
  -18.9433  -30.1428   23.8926 C   0  0  0  0  0  0
  -17.6441  -30.6577   24.0559 C   0  0  0  0  0  0
  -25.9028  -34.9494   23.5145 C   0  0  0  0  0  0
  -16.5336  -29.9078   23.6328 C   0  0  0  0  0  0
  -16.7251  -28.6496   23.0345 C   0  0  0  0  0  0
  -26.4463  -31.6610   25.0724 C   0  0  0  0  0  0
  -25.3743  -31.3726   26.1489 C   0  0  0  0  0  0
  -27.0263  -30.3045   24.6061 C   0  0  0  0  0  0
  -27.6060  -32.4313   25.7475 C   0  0  0  0  0  0
  -27.5609  -37.1776   24.8432 C   0  0  0  0  0  0
  -21.4111  -29.3025   22.3767 N   0  0  0  0  0  0
  -26.4271  -37.3826   23.9455 N   0  0  0  0  0  0
  -24.6577  -31.0876   22.1012 N   0  0  0  0  0  0
  -23.4176  -28.8209   23.3045 O   0  0  0  0  0  0
  -28.4456  -26.8287   20.0207 O   0  0  0  0  0  0
  -26.5582  -34.8942   22.4702 O   0  0  0  0  0  0
  -23.5302  -32.1449   23.7570 O   0  0  0  0  0  0
  -27.4596  -22.0883   19.4908 C   0  0  0  0  0  0
  -28.2605  -22.9574   18.7290 C   0  0  0  0  0  0
  -30.0972  -22.6274   20.2960 C   0  0  0  0  0  0
  -27.2348  -17.1645   23.3169 C   0  0  0  0  0  0
  -29.2377  -15.8587   22.8749 C   0  0  0  0  0  0
  -27.9584  -21.4995   20.6759 C   0  0  0  0  0  0
  -29.5754  -23.2469   19.1444 C   0  0  0  0  0  0
  -28.2871  -16.3587   23.7848 C   0  0  0  0  0  0
  -29.3072  -21.7435   21.0578 C   0  0  0  0  0  0
  -27.1043  -17.4552   21.9440 C   0  0  0  0  0  0
  -28.0225  -16.8981   21.0113 C   0  0  0  0  0  0
  -29.1134  -16.1128   21.4892 C   0  0  0  0  0  0
  -27.0484  -20.6482   21.5090 C   0  0  0  0  0  0
  -28.9312  -26.3212   18.8708 C   0  0  0  0  0  0
  -28.4161  -16.0487   25.2630 C   0  0  0  0  0  0
  -29.9523  -21.0831   22.2695 C   0  0  0  0  0  0
  -27.8270  -17.1596   19.5158 C   0  0  0  0  0  0
  -31.6072  -17.7637   21.2075 C   0  0  0  0  0  0
  -30.3620  -24.3520   18.4694 C   0  0  0  0  0  0
  -25.9938  -18.4124   21.5118 C   0  0  0  0  0  0
  -30.9577  -16.9162   20.0961 C   0  0  0  0  0  0
  -26.5364  -19.5998   20.8657 N   0  0  0  0  0  0
  -30.0478  -25.5791   19.1805 N   0  0  0  0  0  0
  -30.1942  -15.7465   20.6262 N   0  0  0  0  0  0
  -26.8671  -20.8800   22.7073 O   0  0  0  0  0  0
  -28.4222  -26.4287   17.7519 O   0  0  0  0  0  0
  -31.4356  -12.3800   19.1203 H   0  0  0  0  0  0
  -30.2712  -11.3345   19.8754 H   0  0  0  0  0  0
  -29.7049  -11.7319   17.4573 H   0  0  0  0  0  0
  -29.6323  -13.4585   17.7313 H   0  0  0  0  0  0
  -27.8077  -11.3078   18.8439 H   0  0  0  0  0  0
  -27.3349  -12.6199   17.7986 H   0  0  0  0  0  0
  -27.6646  -14.2599   19.5466 H   0  0  0  0  0  0
  -28.6965  -12.0274   21.3478 H   0  0  0  0  0  0
  -28.4500  -13.6548   21.8514 H   0  0  0  0  0  0
  -25.2752   -9.5600   22.4793 H   0  0  0  0  0  0
  -23.9991   -7.4554   22.7474 H   0  0  0  0  0  0
  -21.0832   -8.8797   19.8903 H   0  0  0  0  0  0
  -22.3767  -10.9661   19.6212 H   0  0  0  0  0  0
  -21.1988   -7.6171   23.9756 H   0  0  0  0  0  0
  -21.1432   -6.0515   25.9088 H   0  0  0  0  0  0
  -22.0616   -2.7638   23.2883 H   0  0  0  0  0  0
  -22.3995  -11.9678   22.4753 H   0  0  0  0  0  0
  -21.1078  -13.1127   22.2849 H   0  0  0  0  0  0
  -24.6208  -15.8145   20.5148 H   0  0  0  0  0  0
  -26.2940  -15.6211   20.3093 H   0  0  0  0  0  0
  -26.7082  -32.5581   23.1193 H   0  0  0  0  0  0
  -25.0066  -33.9804   25.0511 H   0  0  0  0  0  0
  -22.6785  -31.3109   21.4196 H   0  0  0  0  0  0
  -23.3766  -35.9627   23.3222 H   0  0  0  0  0  0
  -24.3616  -36.9004   22.2057 H   0  0  0  0  0  0
  -23.7187  -37.6493   23.6681 H   0  0  0  0  0  0
  -26.0173  -31.6200   20.5859 H   0  0  0  0  0  0
  -26.8074  -30.9137   21.9688 H   0  0  0  0  0  0
  -28.0969  -29.1718   21.1273 H   0  0  0  0  0  0
  -26.0704  -25.9777   19.0497 H   0  0  0  0  0  0
  -23.9683  -27.2707   19.0851 H   0  0  0  0  0  0
  -23.6973  -30.5962   19.4057 H   0  0  0  0  0  0
  -22.7206  -29.2418   19.8832 H   0  0  0  0  0  0
  -25.1234  -36.1998   25.0829 H   0  0  0  0  0  0
  -20.9927  -28.3218   24.1466 H   0  0  0  0  0  0
  -20.5660  -26.2244   23.3606 H   0  0  0  0  0  0
  -21.6637  -26.7452   22.1238 H   0  0  0  0  0  0
  -19.6909  -25.6295   21.1224 H   0  0  0  0  0  0
  -19.6676  -27.3202   20.6751 H   0  0  0  0  0  0
  -17.4182  -26.6680   21.4000 H   0  0  0  0  0  0
  -18.0287  -26.0058   22.9002 H   0  0  0  0  0  0
  -19.7913  -30.7240   24.2313 H   0  0  0  0  0  0
  -17.5001  -31.6261   24.5152 H   0  0  0  0  0  0
  -15.5341  -30.2991   23.7645 H   0  0  0  0  0  0
  -15.8641  -28.0836   22.7044 H   0  0  0  0  0  0
  -24.5905  -30.7071   25.7866 H   0  0  0  0  0  0
  -24.8932  -32.2875   26.4953 H   0  0  0  0  0  0
  -25.8105  -30.8913   27.0242 H   0  0  0  0  0  0
  -26.2777  -29.6839   24.1118 H   0  0  0  0  0  0
  -27.4036  -29.7273   25.4512 H   0  0  0  0  0  0
  -27.8622  -30.4368   23.9186 H   0  0  0  0  0  0
  -27.2692  -33.3595   26.2112 H   0  0  0  0  0  0
  -28.3833  -32.6899   25.0273 H   0  0  0  0  0  0
  -28.0764  -31.8395   26.5336 H   0  0  0  0  0  0
  -28.2519  -38.0179   24.7664 H   0  0  0  0  0  0
  -28.1201  -36.2731   24.5990 H   0  0  0  0  0  0
  -27.2373  -37.1120   25.8833 H   0  0  0  0  0  0
  -20.9253  -29.8746   21.6995 H   0  0  0  0  0  0
  -26.0155  -38.2883   24.1554 H   0  0  0  0  0  0
  -26.4374  -21.9103   19.1861 H   0  0  0  0  0  0
  -27.8424  -23.4495   17.8595 H   0  0  0  0  0  0
  -31.1012  -22.8697   20.6199 H   0  0  0  0  0  0
  -26.5272  -17.5806   24.0219 H   0  0  0  0  0  0
  -30.0795  -15.2936   23.2527 H   0  0  0  0  0  0
  -27.6393  -16.5418   25.8490 H   0  0  0  0  0  0
  -29.3839  -16.3852   25.6378 H   0  0  0  0  0  0
  -28.3307  -14.9743   25.4309 H   0  0  0  0  0  0
  -30.9993  -20.8557   22.0610 H   0  0  0  0  0  0
  -29.4769  -20.1392   22.5364 H   0  0  0  0  0  0
  -29.9095  -21.7461   23.1345 H   0  0  0  0  0  0
  -26.7792  -17.1057   19.2213 H   0  0  0  0  0  0
  -28.3574  -16.4425   18.8909 H   0  0  0  0  0  0
  -28.1789  -18.1560   19.2515 H   0  0  0  0  0  0
  -32.2128  -18.5637   20.7792 H   0  0  0  0  0  0
  -32.2523  -17.1587   21.8447 H   0  0  0  0  0  0
  -30.8578  -18.2369   21.8452 H   0  0  0  0  0  0
  -30.1105  -24.4163   17.4082 H   0  0  0  0  0  0
  -31.4329  -24.1527   18.5332 H   0  0  0  0  0  0
  -25.3771  -18.6988   22.3656 H   0  0  0  0  0  0
  -25.3180  -17.9149   20.8172 H   0  0  0  0  0  0
  -31.7202  -16.6436   19.3634 H   0  0  0  0  0  0
  -30.3135  -17.5724   19.5217 H   0  0  0  0  0  0
  -26.7535  -19.5265   19.8823 H   0  0  0  0  0  0
  -30.3425  -25.6467   20.1455 H   0  0  0  0  0  0
  1 25  1  0  0  0
  1 30  2  0  0  0
  1 94  1  0  0  0
  2  3  1  0  0  0
  2 25  1  0  0  0
  2 97  1  0  0  0
  2 98  1  0  0  0
  3  4  1  0  0  0
  3 99  1  0  0  0
  3100  1  0  0  0
  4  5  1  0  0  0
  4101  1  0  0  0
  4102  1  0  0  0
  5  6  1  0  0  0
  5 26  1  0  0  0
  5103  1  0  0  0
  6 25  1  0  0  0
  6104  1  0  0  0
  6105  1  0  0  0
  7  8  2  0  0  0
  7 26  1  0  0  0
  7 29  1  0  0  0
  8  9  1  0  0  0
  8 22  1  0  0  0
  9 10  1  0  0  0
  9 27  2  0  0  0
 10 11  2  0  0  0
 10 15  1  0  0  0
 11 12  1  0  0  0
 11106  1  0  0  0
 12 13  2  0  0  0
 12107  1  0  0  0
 13 14  1  0  0  0
 13 31  1  0  0  0
 14 15  2  0  0  0
 14108  1  0  0  0
 15109  1  0  0  0
 16 17  2  0  0  0
 16 21  1  0  0  0
 16 31  1  0  0  0
 17 18  1  0  0  0
 17110  1  0  0  0
 18 19  2  0  0  0
 18111  1  0  0  0
 19 20  1  0  0  0
 19 24  1  0  0  0
 20 21  2  0  0  0
 20112  1  0  0  0
 21 23  1  0  0  0
 22 28  1  0  0  0
 22 32  2  0  0  0
 26 27  1  0  0  0
 28113  1  0  0  0
 28114  1  0  0  0
 29115  1  0  0  0
 29116  1  0  0  0
 33 34  1  0  0  0
 33 66  1  0  0  0
 33 70  2  0  0  0
 34 36  1  0  0  0
 34 59  1  0  0  0
 34117  1  0  0  0
 35 44  2  0  0  0
 35 45  1  0  0  0
 35 68  1  0  0  0
 36 56  1  0  0  0
 36118  1  0  0  0
 37 39  1  0  0  0
 37 47  1  0  0  0
 37 66  1  0  0  0
 37119  1  0  0  0
 38 43  2  0  0  0
 38 46  1  0  0  0
 38 47  1  0  0  0
 39 64  1  0  0  0
 39 67  2  0  0  0
 40 52  1  0  0  0
 40 53  2  0  0  0
 40 58  1  0  0  0
 41120  1  0  0  0
 41121  1  0  0  0
 41122  1  0  0  0
 41 48  1  0  0  0
 42 43  1  0  0  0
 42 66  1  0  0  0
 42123  1  0  0  0
 42124  1  0  0  0
 43 44  1  0  0  0
 44125  1  0  0  0
 45 46  2  0  0  0
 45126  1  0  0  0
 46127  1  0  0  0
 47128  1  0  0  0
 47129  1  0  0  0
 48 56  1  0  0  0
 48 65  1  0  0  0
 48130  1  0  0  0
 49 50  1  0  0  0
 49 53  1  0  0  0
 49 64  1  0  0  0
 49131  1  0  0  0
 50 51  1  0  0  0
 50132  1  0  0  0
 50133  1  0  0  0
 51 52  1  0  0  0
 51134  1  0  0  0
 51135  1  0  0  0
 52136  1  0  0  0
 52137  1  0  0  0
 53 54  1  0  0  0
 54 55  2  0  0  0
 54138  1  0  0  0
 55 57  1  0  0  0
 55139  1  0  0  0
 56 69  2  0  0  0
 57 58  2  0  0  0
 57140  1  0  0  0
 58141  1  0  0  0
 59 60  1  0  0  0
 59 61  1  0  0  0
 59 62  1  0  0  0
 60142  1  0  0  0
 60143  1  0  0  0
 60144  1  0  0  0
 61145  1  0  0  0
 61146  1  0  0  0
 61147  1  0  0  0
 62148  1  0  0  0
 62149  1  0  0  0
 62150  1  0  0  0
 63 65  1  0  0  0
 63151  1  0  0  0
 63152  1  0  0  0
 63153  1  0  0  0
 64154  1  0  0  0
 65155  1  0  0  0
 68 84  1  0  0  0
 71 72  2  0  0  0
 71 76  1  0  0  0
 71156  1  0  0  0
 72 77  1  0  0  0
 72157  1  0  0  0
 73 77  2  0  0  0
 73 79  1  0  0  0
 73158  1  0  0  0
 74 78  2  0  0  0
 74 80  1  0  0  0
 74159  1  0  0  0
 75 78  1  0  0  0
 75 82  2  0  0  0
 75160  1  0  0  0
 76 79  2  0  0  0
 76 83  1  0  0  0
 77 89  1  0  0  0
 78 85  1  0  0  0
 79 86  1  0  0  0
 80 81  2  0  0  0
 80 90  1  0  0  0
 81 82  1  0  0  0
 81 87  1  0  0  0
 82 94  1  0  0  0
 83 92  1  0  0  0
 83 95  2  0  0  0
 84 93  1  0  0  0
 84 96  2  0  0  0
 85161  1  0  0  0
 85162  1  0  0  0
 85163  1  0  0  0
 86164  1  0  0  0
 86165  1  0  0  0
 86166  1  0  0  0
 87167  1  0  0  0
 87168  1  0  0  0
 87169  1  0  0  0
 88 91  1  0  0  0
 88170  1  0  0  0
 88171  1  0  0  0
 88172  1  0  0  0
 89 93  1  0  0  0
 89173  1  0  0  0
 89174  1  0  0  0
 90 92  1  0  0  0
 90175  1  0  0  0
 90176  1  0  0  0
 91 94  1  0  0  0
 91177  1  0  0  0
 91178  1  0  0  0
 92179  1  0  0  0
 93180  1  0  0  0
M  ISO  4   1 100  68 101  84 101  94 100
M  END
> <chiral flag>
0

> <version>
0

> <s_m_source_file>
/data/baiqing/PycharmProjects/Reinvent-master-3.2/result/LINK_invent/BTK/process_docking_weight1_custom_product_contain_oxygen_bond_distance_aromatic_linkinvent_7_9_3/rearranged_h_0047.sdf

> <i_m_source_file_index>
27

> <r_mmod_Potential_Energy-OPLS-2005>
58.6066017150879

> <r_mmod_Stretch_Energy-OPLS-2005>
43.9141387939453

> <r_mmod_Bend_Energy-OPLS-2005>
122.382919311523

> <r_mmod_Torsional_Energy-OPLS-2005>
311.404632568359

> <r_mmod_Improper_Torsional_Energy-OPLS-2005>
13.6049880981445

> <r_mmod_Van_der_Waal_Energy-OPLS-2005>
180.830108642578

> <r_mmod_Electrostatic_Energy-OPLS-2005>
-411.666137695312

> <r_mmod_Solvation_Energy-OPLS-2005>
-229.695526123047

> <b_mmod_Minimization_Converged-OPLS-2005>
0

> <r_mmod_RMS_Derivative-OPLS-2005>
3.55648493766785

$$$$
27
                    3D
 Structure written by MMmdl.
159167  0  0  1  0            999 V2000
  -30.6511  -14.5753   20.5082 C   0  0  0  0  0  0
  -30.4347  -12.3513   19.4430 C   0  0  0  0  0  0
  -29.5062  -12.5038   18.2184 C   0  0  0  0  0  0
  -28.0266  -12.3552   18.6280 C   0  0  0  0  0  0
  -27.6577  -13.2147   19.8673 C   0  0  2  0  0  0
  -28.7029  -13.0422   20.9933 C   0  0  0  0  0  0
  -25.2582  -13.8174   20.5705 C   0  0  0  0  0  0
  -24.1833  -13.0433   20.9145 C   0  0  0  0  0  0
  -24.6403  -11.6905   20.8707 C   0  0  0  0  0  0
  -23.9076  -10.4287   21.0378 C   0  0  0  0  0  0
  -24.3624   -9.4206   21.9165 C   0  0  0  0  0  0
  -23.6295   -8.2245   22.0749 C   0  0  0  0  0  0
  -22.4276   -8.0278   21.3543 C   0  0  0  0  0  0
  -21.9910   -9.0246   20.4642 C   0  0  0  0  0  0
  -22.7245  -10.2119   20.3033 C   0  0  0  0  0  0
  -21.6857   -6.0727   22.5279 C   0  0  0  0  0  0
  -21.4017   -6.5637   23.8211 C   0  0  0  0  0  0
  -21.3660   -5.6790   24.9176 C   0  0  0  0  0  0
  -21.6041   -4.3052   24.7228 C   0  0  0  0  0  0
  -21.8819   -3.8141   23.4352 C   0  0  0  0  0  0
  -21.9200   -4.6955   22.3407 C   0  0  0  0  0  0
  -22.7858  -13.5228   21.1828 C   0  0  0  0  0  0
  -22.1669   -4.2143   21.0984 F   0  0  0  0  0  0
  -21.5629   -3.4535   25.7740 F   0  0  0  0  0  0
  -30.0255  -13.3635   20.4327 N   0  0  0  0  0  0
  -26.3022  -12.9357   20.3353 N   0  0  0  0  0  0
  -25.9333  -11.6505   20.5740 N   0  0  0  0  0  0
  -22.0510  -12.8212   22.0385 N   0  0  0  0  0  0
  -25.4275  -15.1904   20.4248 N   0  0  0  0  0  0
  -31.8152  -14.7278   20.1285 O   0  0  0  0  0  0
  -21.6644   -6.8869   21.4240 O   0  0  0  0  0  0
  -22.3536  -14.5540   20.6694 O   0  0  0  0  0  0
  -24.6196  -31.8641   23.2065 C   0  0  0  0  0  0
  -25.9070  -32.4806   23.8374 C   0  0  1  0  0  0
  -27.2249  -27.3757   20.1131 C   0  0  0  0  0  0
  -25.5912  -33.8606   24.2309 N   0  0  0  0  0  0
  -23.4104  -30.4876   21.5482 C   0  0  2  0  0  0
  -24.8572  -28.9474   20.1132 C   0  0  0  0  0  0
  -22.7437  -29.4647   22.4972 C   0  0  0  0  0  0
  -18.0274  -28.1378   22.8493 C   0  0  0  0  0  0
  -24.1487  -36.7295   23.2640 C   0  0  0  0  0  0
  -25.9453  -30.8128   21.3682 C   0  0  0  0  0  0
  -26.0220  -29.4439   20.7127 C   0  0  0  0  0  0
  -27.2124  -28.6690   20.7020 C   0  0  0  0  0  0
  -26.0442  -26.9139   19.4934 C   0  0  0  0  0  0
  -24.8669  -27.6854   19.4960 C   0  0  0  0  0  0
  -23.6218  -29.8206   20.1629 C   0  0  0  0  0  0
  -25.4110  -36.3099   24.0334 C   0  0  1  0  0  0
  -20.5870  -28.3672   23.1308 C   0  0  2  0  0  0
  -20.6771  -26.9403   22.5419 C   0  0  0  0  0  0
  -19.5750  -26.6380   21.5217 C   0  0  0  0  0  0
  -18.1925  -26.7924   22.1618 C   0  0  0  0  0  0
  -19.1526  -28.8838   23.2896 C   0  0  0  0  0  0
  -18.9455  -30.1445   23.8906 C   0  0  0  0  0  0
  -17.6457  -30.6586   24.0566 C   0  0  0  0  0  0
  -25.9042  -34.9468   23.5117 C   0  0  0  0  0  0
  -16.5350  -29.9088   23.6333 C   0  0  0  0  0  0
  -16.7263  -28.6504   23.0355 C   0  0  0  0  0  0
  -26.4481  -31.6599   25.0722 C   0  0  0  0  0  0
  -25.3728  -31.3713   26.1456 C   0  0  0  0  0  0
  -27.0316  -30.3035   24.6126 C   0  0  0  0  0  0
  -27.6045  -32.4323   25.7490 C   0  0  0  0  0  0
  -27.5576  -37.1798   24.8464 C   0  0  0  0  0  0
  -21.4158  -29.3034   22.3704 N   0  0  0  0  0  0
  -26.4291  -37.3787   23.9409 N   0  0  0  0  0  0
  -24.6770  -31.0697   22.0993 N   0  0  0  0  0  0
  -23.4190  -28.8194   23.3031 O   0  0  0  0  0  0
  -28.3580  -26.5727   20.1236 O   0  0  0  0  0  0
  -26.5603  -34.8928   22.4679 O   0  0  0  0  0  0
  -23.5379  -32.1418   23.7432 O   0  0  0  0  0  0
  -31.5447  -18.9819   20.7455 C   0  0  0  0  0  0
  -31.2088  -17.6749   20.7342 C   0  0  0  0  0  0
  -28.6459  -19.2906   20.1767 C   0  0  0  0  0  0
  -30.8496  -20.1404   20.6454 C   0  0  0  0  0  0
  -29.5732  -20.2923   20.1959 C   0  0  0  0  0  0
  -30.0197  -17.0355   20.6894 C   0  0  0  0  0  0
  -28.7668  -17.8368   20.5299 C   0  0  0  0  0  0
  -28.8511  -24.1031   19.7822 C   0  0  0  0  0  0
  -31.5631  -21.3739   21.1913 C   0  0  0  0  0  0
  -28.2770  -21.3841   18.2115 C   0  0  0  0  0  0
  -28.1945  -25.2167   20.6569 C   0  0  0  0  0  0
  -29.2359  -21.6132   19.4038 C   0  0  1  0  0  0
  -29.8367  -15.6215   20.8098 N   0  0  0  0  0  0
  -28.7830  -22.8005   20.1868 N   0  0  0  0  0  0
  -27.7049  -17.2157   20.6476 O   0  0  0  0  0  0
  -29.4084  -24.4202   18.7280 O   0  0  0  0  0  0
  -31.4792  -12.4598   19.1435 H   0  0  0  0  0  0
  -30.3500  -11.3499   19.8692 H   0  0  0  0  0  0
  -29.7606  -11.7627   17.4593 H   0  0  0  0  0  0
  -29.6616  -13.4803   17.7560 H   0  0  0  0  0  0
  -27.8488  -11.3009   18.8440 H   0  0  0  0  0  0
  -27.3765  -12.6049   17.7890 H   0  0  0  0  0  0
  -27.6809  -14.2545   19.5393 H   0  0  0  0  0  0
  -28.6970  -12.0165   21.3648 H   0  0  0  0  0  0
  -28.4618  -13.6701   21.8528 H   0  0  0  0  0  0
  -25.2765   -9.5685   22.4739 H   0  0  0  0  0  0
  -24.0007   -7.4636   22.7465 H   0  0  0  0  0  0
  -21.0842   -8.8760   19.8945 H   0  0  0  0  0  0
  -22.3709  -10.9648   19.6134 H   0  0  0  0  0  0
  -21.2003   -7.6143   23.9719 H   0  0  0  0  0  0
  -21.1486   -6.0516   25.9081 H   0  0  0  0  0  0
  -22.0600   -2.7601   23.2854 H   0  0  0  0  0  0
  -22.4143  -11.9880   22.4767 H   0  0  0  0  0  0
  -21.1120  -13.1220   22.2580 H   0  0  0  0  0  0
  -24.6657  -15.8400   20.5844 H   0  0  0  0  0  0
  -26.3117  -15.6680   20.2725 H   0  0  0  0  0  0
  -26.7141  -32.5497   23.1133 H   0  0  0  0  0  0
  -25.0064  -33.9767   25.0455 H   0  0  0  0  0  0
  -22.7016  -31.3058   21.4073 H   0  0  0  0  0  0
  -23.3757  -35.9620   23.3312 H   0  0  0  0  0  0
  -24.3569  -36.8902   22.2052 H   0  0  0  0  0  0
  -23.7236  -37.6498   23.6652 H   0  0  0  0  0  0
  -26.0659  -31.5789   20.6014 H   0  0  0  0  0  0
  -26.8302  -30.8632   21.9910 H   0  0  0  0  0  0
  -28.1110  -29.0470   21.1690 H   0  0  0  0  0  0
  -26.0294  -25.9487   19.0070 H   0  0  0  0  0  0
  -23.9734  -27.3015   19.0223 H   0  0  0  0  0  0
  -23.7339  -30.5963   19.4046 H   0  0  0  0  0  0
  -22.7444  -29.2438   19.8646 H   0  0  0  0  0  0
  -25.1294  -36.1952   25.0827 H   0  0  0  0  0  0
  -20.9954  -28.3238   24.1431 H   0  0  0  0  0  0
  -20.5682  -26.2279   23.3610 H   0  0  0  0  0  0
  -21.6641  -26.7448   22.1202 H   0  0  0  0  0  0
  -19.6917  -25.6293   21.1238 H   0  0  0  0  0  0
  -19.6698  -27.3200   20.6758 H   0  0  0  0  0  0
  -17.4203  -26.6682   21.4015 H   0  0  0  0  0  0
  -18.0314  -26.0059   22.9006 H   0  0  0  0  0  0
  -19.7936  -30.7252   24.2281 H   0  0  0  0  0  0
  -17.5021  -31.6271   24.5162 H   0  0  0  0  0  0
  -15.5353  -30.3000   23.7655 H   0  0  0  0  0  0
  -15.8658  -28.0830   22.7071 H   0  0  0  0  0  0
  -24.5910  -30.7063   25.7775 H   0  0  0  0  0  0
  -24.8917  -32.2879   26.4886 H   0  0  0  0  0  0
  -25.8066  -30.8883   27.0224 H   0  0  0  0  0  0
  -26.2874  -29.6793   24.1171 H   0  0  0  0  0  0
  -27.4074  -29.7279   25.4595 H   0  0  0  0  0  0
  -27.8718  -30.4348   23.9300 H   0  0  0  0  0  0
  -27.2663  -33.3623   26.2073 H   0  0  0  0  0  0
  -28.3860  -32.6881   25.0321 H   0  0  0  0  0  0
  -28.0717  -31.8446   26.5404 H   0  0  0  0  0  0
  -28.2593  -38.0094   24.7510 H   0  0  0  0  0  0
  -28.1073  -36.2627   24.6293 H   0  0  0  0  0  0
  -27.2289  -37.1443   25.8864 H   0  0  0  0  0  0
  -20.9325  -29.8747   21.6913 H   0  0  0  0  0  0
  -26.0176  -38.2861   24.1421 H   0  0  0  0  0  0
  -32.6084  -19.1282   20.8783 H   0  0  0  0  0  0
  -32.0583  -17.0299   20.8991 H   0  0  0  0  0  0
  -27.6345  -19.6265   20.0106 H   0  0  0  0  0  0
  -32.3806  -21.1129   21.8650 H   0  0  0  0  0  0
  -30.8795  -22.0005   21.7650 H   0  0  0  0  0  0
  -31.9837  -21.9722   20.3824 H   0  0  0  0  0  0
  -28.5236  -20.4727   17.6651 H   0  0  0  0  0  0
  -28.3403  -22.2020   17.4930 H   0  0  0  0  0  0
  -27.2360  -21.3167   18.5293 H   0  0  0  0  0  0
  -28.6642  -25.1909   21.6406 H   0  0  0  0  0  0
  -27.1500  -24.9496   20.8200 H   0  0  0  0  0  0
  -30.1784  -21.9002   18.9329 H   0  0  0  0  0  0
  -28.8728  -15.3691   20.9730 H   0  0  0  0  0  0
  -28.3352  -22.6189   21.0757 H   0  0  0  0  0  0
  1 25  1  0  0  0
  1 30  2  0  0  0
  1 83  1  0  0  0
  2  3  1  0  0  0
  2 25  1  0  0  0
  2 87  1  0  0  0
  2 88  1  0  0  0
  3  4  1  0  0  0
  3 89  1  0  0  0
  3 90  1  0  0  0
  4  5  1  0  0  0
  4 91  1  0  0  0
  4 92  1  0  0  0
  5  6  1  0  0  0
  5 26  1  0  0  0
  5 93  1  0  0  0
  6 25  1  0  0  0
  6 94  1  0  0  0
  6 95  1  0  0  0
  7  8  2  0  0  0
  7 26  1  0  0  0
  7 29  1  0  0  0
  8  9  1  0  0  0
  8 22  1  0  0  0
  9 10  1  0  0  0
  9 27  2  0  0  0
 10 11  2  0  0  0
 10 15  1  0  0  0
 11 12  1  0  0  0
 11 96  1  0  0  0
 12 13  2  0  0  0
 12 97  1  0  0  0
 13 14  1  0  0  0
 13 31  1  0  0  0
 14 15  2  0  0  0
 14 98  1  0  0  0
 15 99  1  0  0  0
 16 17  2  0  0  0
 16 21  1  0  0  0
 16 31  1  0  0  0
 17 18  1  0  0  0
 17100  1  0  0  0
 18 19  2  0  0  0
 18101  1  0  0  0
 19 20  1  0  0  0
 19 24  1  0  0  0
 20 21  2  0  0  0
 20102  1  0  0  0
 21 23  1  0  0  0
 22 28  1  0  0  0
 22 32  2  0  0  0
 26 27  1  0  0  0
 28103  1  0  0  0
 28104  1  0  0  0
 29105  1  0  0  0
 29106  1  0  0  0
 33 34  1  0  0  0
 33 66  1  0  0  0
 33 70  2  0  0  0
 34 36  1  0  0  0
 34 59  1  0  0  0
 34107  1  0  0  0
 35 44  2  0  0  0
 35 45  1  0  0  0
 35 68  1  0  0  0
 36 56  1  0  0  0
 36108  1  0  0  0
 37 39  1  0  0  0
 37 47  1  0  0  0
 37 66  1  0  0  0
 37109  1  0  0  0
 38 43  2  0  0  0
 38 46  1  0  0  0
 38 47  1  0  0  0
 39 64  1  0  0  0
 39 67  2  0  0  0
 40 52  1  0  0  0
 40 53  2  0  0  0
 40 58  1  0  0  0
 41110  1  0  0  0
 41111  1  0  0  0
 41112  1  0  0  0
 41 48  1  0  0  0
 42 43  1  0  0  0
 42 66  1  0  0  0
 42113  1  0  0  0
 42114  1  0  0  0
 43 44  1  0  0  0
 44115  1  0  0  0
 45 46  2  0  0  0
 45116  1  0  0  0
 46117  1  0  0  0
 47118  1  0  0  0
 47119  1  0  0  0
 48 56  1  0  0  0
 48 65  1  0  0  0
 48120  1  0  0  0
 49 50  1  0  0  0
 49 53  1  0  0  0
 49 64  1  0  0  0
 49121  1  0  0  0
 50 51  1  0  0  0
 50122  1  0  0  0
 50123  1  0  0  0
 51 52  1  0  0  0
 51124  1  0  0  0
 51125  1  0  0  0
 52126  1  0  0  0
 52127  1  0  0  0
 53 54  1  0  0  0
 54 55  2  0  0  0
 54128  1  0  0  0
 55 57  1  0  0  0
 55129  1  0  0  0
 56 69  2  0  0  0
 57 58  2  0  0  0
 57130  1  0  0  0
 58131  1  0  0  0
 59 60  1  0  0  0
 59 61  1  0  0  0
 59 62  1  0  0  0
 60132  1  0  0  0
 60133  1  0  0  0
 60134  1  0  0  0
 61135  1  0  0  0
 61136  1  0  0  0
 61137  1  0  0  0
 62138  1  0  0  0
 62139  1  0  0  0
 62140  1  0  0  0
 63 65  1  0  0  0
 63141  1  0  0  0
 63142  1  0  0  0
 63143  1  0  0  0
 64144  1  0  0  0
 65145  1  0  0  0
 68 81  1  0  0  0
 71 72  1  0  0  0
 71 74  2  0  0  0
 71146  1  0  0  0
 72 76  2  0  0  0
 72147  1  0  0  0
 73 75  2  0  0  0
 73 77  1  0  0  0
 73148  1  0  0  0
 74 75  1  0  0  0
 74 79  1  0  0  0
 75 82  1  0  0  0
 76 77  1  0  0  0
 76 83  1  0  0  0
 77 85  2  0  0  0
 78 81  1  0  0  0
 78 84  1  0  0  0
 78 86  2  0  0  0
 79149  1  0  0  0
 79150  1  0  0  0
 79151  1  0  0  0
 80152  1  0  0  0
 80153  1  0  0  0
 80154  1  0  0  0
 80 82  1  0  0  0
 81155  1  0  0  0
 81156  1  0  0  0
 82 84  1  0  0  0
 82157  1  0  0  0
 83158  1  0  0  0
 84159  1  0  0  0
M  ISO  4   1 100  68 101  81 101  83 100
M  END
> <chiral flag>
0

> <version>
0

> <s_m_source_file>
/data/baiqing/PycharmProjects/Reinvent-master-3.2/result/LINK_invent/BTK/process_docking_weight1_custom_product_contain_oxygen_bond_distance_aromatic_linkinvent_7_9_3/rearranged_h_0047.sdf

> <i_m_source_file_index>
28

> <r_mmod_Potential_Energy-OPLS-2005>
-117.801528930664

> <r_mmod_Stretch_Energy-OPLS-2005>
62.2956008911133

> <r_mmod_Bend_Energy-OPLS-2005>
155.751022338867

> <r_mmod_Torsional_Energy-OPLS-2005>
193.870147705078

> <r_mmod_Improper_Torsional_Energy-OPLS-2005>
6.63339853286743

> <r_mmod_Van_der_Waal_Energy-OPLS-2005>
156.303329467773

> <r_mmod_Electrostatic_Energy-OPLS-2005>
-493.29443359375

> <r_mmod_Solvation_Energy-OPLS-2005>
-228.147384643555

> <b_mmod_Minimization_Converged-OPLS-2005>
0

> <r_mmod_RMS_Derivative-OPLS-2005>
1.13228702545166

$$$$
28
                    3D
 Structure written by MMmdl.
154162  0  0  1  0            999 V2000
  -30.6254  -14.7444   20.4346 C   0  0  0  0  0  0
  -30.4272  -12.4484   19.4744 C   0  0  0  0  0  0
  -29.5046  -12.4971   18.2363 C   0  0  0  0  0  0
  -28.0330  -12.3234   18.6554 C   0  0  0  0  0  0
  -27.6395  -13.2341   19.8488 C   0  0  2  0  0  0
  -28.6872  -13.1853   20.9835 C   0  0  0  0  0  0
  -25.2478  -13.8188   20.5673 C   0  0  0  0  0  0
  -24.1784  -13.0436   20.9193 C   0  0  0  0  0  0
  -24.6391  -11.6921   20.8747 C   0  0  0  0  0  0
  -23.9076  -10.4293   21.0403 C   0  0  0  0  0  0
  -24.3627   -9.4208   21.9182 C   0  0  0  0  0  0
  -23.6300   -8.2242   22.0751 C   0  0  0  0  0  0
  -22.4284   -8.0276   21.3536 C   0  0  0  0  0  0
  -21.9920   -9.0253   20.4639 C   0  0  0  0  0  0
  -22.7248  -10.2130   20.3048 C   0  0  0  0  0  0
  -21.6855   -6.0736   22.5278 C   0  0  0  0  0  0
  -21.4016   -6.5642   23.8211 C   0  0  0  0  0  0
  -21.3660   -5.6793   24.9173 C   0  0  0  0  0  0
  -21.6044   -4.3056   24.7224 C   0  0  0  0  0  0
  -21.8819   -3.8148   23.4345 C   0  0  0  0  0  0
  -21.9195   -4.6963   22.3402 C   0  0  0  0  0  0
  -22.7807  -13.5209   21.1864 C   0  0  0  0  0  0
  -22.1664   -4.2151   21.0978 F   0  0  0  0  0  0
  -21.5628   -3.4540   25.7738 F   0  0  0  0  0  0
  -29.9890  -13.5234   20.3962 N   0  0  0  0  0  0
  -26.2932  -12.9417   20.3306 N   0  0  0  0  0  0
  -25.9329  -11.6554   20.5790 N   0  0  0  0  0  0
  -22.0471  -12.8189   22.0424 N   0  0  0  0  0  0
  -25.4114  -15.1903   20.4070 N   0  0  0  0  0  0
  -31.8211  -14.7960   20.1416 O   0  0  0  0  0  0
  -21.6639   -6.8877   21.4238 O   0  0  0  0  0  0
  -22.3478  -14.5520   20.6729 O   0  0  0  0  0  0
  -24.6322  -31.8524   23.1956 C   0  0  0  0  0  0
  -25.9155  -32.4718   23.8302 C   0  0  1  0  0  0
  -27.2199  -27.2575   20.1211 C   0  0  0  0  0  0
  -25.5956  -33.8526   24.2228 N   0  0  0  0  0  0
  -23.4287  -30.4767   21.5368 C   0  0  2  0  0  0
  -24.8737  -28.9189   20.1063 C   0  0  0  0  0  0
  -22.7498  -29.4612   22.4879 C   0  0  0  0  0  0
  -18.0291  -28.1401   22.8460 C   0  0  0  0  0  0
  -24.1497  -36.7276   23.2637 C   0  0  0  0  0  0
  -25.9744  -30.7634   21.3769 C   0  0  0  0  0  0
  -26.0446  -29.3873   20.7147 C   0  0  0  0  0  0
  -27.2169  -28.5675   20.7107 C   0  0  0  0  0  0
  -26.0194  -26.8465   19.4992 C   0  0  0  0  0  0
  -24.8658  -27.6560   19.4916 C   0  0  0  0  0  0
  -23.6468  -29.8087   20.1530 C   0  0  0  0  0  0
  -25.4124  -36.3041   24.0321 C   0  0  1  0  0  0
  -20.5899  -28.3721   23.1236 C   0  0  2  0  0  0
  -20.6785  -26.9440   22.5384 C   0  0  0  0  0  0
  -19.5761  -26.6394   21.5188 C   0  0  0  0  0  0
  -18.1938  -26.7939   22.1600 C   0  0  0  0  0  0
  -19.1551  -28.8873   23.2841 C   0  0  0  0  0  0
  -18.9478  -30.1464   23.8880 C   0  0  0  0  0  0
  -17.6487  -30.6599   24.0565 C   0  0  0  0  0  0
  -25.9072  -34.9414   23.5070 C   0  0  0  0  0  0
  -16.5373  -29.9102   23.6338 C   0  0  0  0  0  0
  -16.7283  -28.6524   23.0346 C   0  0  0  0  0  0
  -26.4523  -31.6560   25.0706 C   0  0  0  0  0  0
  -25.3746  -31.3724   26.1429 C   0  0  0  0  0  0
  -27.0392  -30.2972   24.6224 C   0  0  0  0  0  0
  -27.6060  -32.4321   25.7488 C   0  0  0  0  0  0
  -27.5579  -37.1792   24.8465 C   0  0  0  0  0  0
  -21.4210  -29.3064   22.3621 N   0  0  0  0  0  0
  -26.4288  -37.3753   23.9407 N   0  0  0  0  0  0
  -24.6971  -31.0495   22.0924 N   0  0  0  0  0  0
  -23.4186  -28.8151   23.2991 O   0  0  0  0  0  0
  -28.3392  -26.3996   20.2061 O   0  0  0  0  0  0
  -26.5636  -34.8896   22.4634 O   0  0  0  0  0  0
  -23.5479  -32.1358   23.7265 O   0  0  0  0  0  0
  -31.6974  -19.1136   19.6323 C   0  0  0  0  0  0
  -30.7782  -20.1454   19.8874 C   0  0  0  0  0  0
  -31.3766  -17.7625   19.8673 C   0  0  0  0  0  0
  -29.4943  -19.8631   20.3885 C   0  0  0  0  0  0
  -29.1779  -18.4530   20.6624 C   0  0  0  0  0  0
  -30.1241  -17.3569   20.3946 C   0  0  0  0  0  0
  -28.2770  -23.7252   20.4670 C   0  0  0  0  0  0
  -28.5265  -21.1067   20.6570 C   0  0  0  0  0  0
  -28.4342  -25.0421   19.5646 C   0  0  0  0  0  0
  -27.7945  -18.1539   21.2533 C   0  0  0  0  0  0
  -29.8576  -15.8933   20.6107 N   0  0  0  0  0  0
  -28.7799  -22.4948   20.0616 N   0  0  0  0  0  0
  -27.6540  -23.8131   21.5268 O   0  0  0  0  0  0
  -27.5741  -18.9163   22.3242 F   0  0  0  0  0  0
  -26.8568  -18.4161   20.3437 F   0  0  0  0  0  0
  -27.6418  -16.8871   21.6375 F   0  0  0  0  0  0
  -31.4689  -12.5594   19.1682 H   0  0  0  0  0  0
  -30.3628  -11.4762   19.9672 H   0  0  0  0  0  0
  -29.7829  -11.7180   17.5254 H   0  0  0  0  0  0
  -29.6314  -13.4475   17.7162 H   0  0  0  0  0  0
  -27.8949  -11.2776   18.9310 H   0  0  0  0  0  0
  -27.3716  -12.5025   17.8071 H   0  0  0  0  0  0
  -27.6280  -14.2509   19.4561 H   0  0  0  0  0  0
  -28.7216  -12.1963   21.4439 H   0  0  0  0  0  0
  -28.4271  -13.8855   21.7790 H   0  0  0  0  0  0
  -25.2765   -9.5685   22.4764 H   0  0  0  0  0  0
  -24.0007   -7.4631   22.7475 H   0  0  0  0  0  0
  -21.0848   -8.8767   19.8945 H   0  0  0  0  0  0
  -22.3702  -10.9668   19.6157 H   0  0  0  0  0  0
  -21.2007   -7.6149   23.9716 H   0  0  0  0  0  0
  -21.1483   -6.0523   25.9077 H   0  0  0  0  0  0
  -22.0597   -2.7610   23.2843 H   0  0  0  0  0  0
  -22.4101  -11.9839   22.4780 H   0  0  0  0  0  0
  -21.1090  -13.1196   22.2649 H   0  0  0  0  0  0
  -24.6481  -15.8419   20.5468 H   0  0  0  0  0  0
  -26.2807  -15.6492   20.1740 H   0  0  0  0  0  0
  -26.7217  -32.5353   23.1038 H   0  0  0  0  0  0
  -25.0116  -33.9651   25.0383 H   0  0  0  0  0  0
  -22.7277  -31.3014   21.3878 H   0  0  0  0  0  0
  -23.3750  -35.9618   23.3283 H   0  0  0  0  0  0
  -24.3595  -36.8921   22.2056 H   0  0  0  0  0  0
  -23.7263  -37.6475   23.6684 H   0  0  0  0  0  0
  -26.1238  -31.5276   20.6135 H   0  0  0  0  0  0
  -26.8467  -30.8021   22.0172 H   0  0  0  0  0  0
  -28.1144  -28.9202   21.1999 H   0  0  0  0  0  0
  -25.9263  -25.8705   19.0482 H   0  0  0  0  0  0
  -23.9647  -27.2847   19.0231 H   0  0  0  0  0  0
  -23.7786  -30.5835   19.3977 H   0  0  0  0  0  0
  -22.7632  -29.2487   19.8409 H   0  0  0  0  0  0
  -25.1304  -36.1882   25.0818 H   0  0  0  0  0  0
  -20.9992  -28.3317   24.1359 H   0  0  0  0  0  0
  -20.5694  -26.2339   23.3599 H   0  0  0  0  0  0
  -21.6655  -26.7476   22.1177 H   0  0  0  0  0  0
  -19.6944  -25.6298   21.1229 H   0  0  0  0  0  0
  -19.6702  -27.3187   20.6703 H   0  0  0  0  0  0
  -17.4210  -26.6671   21.3997 H   0  0  0  0  0  0
  -18.0359  -26.0083   22.8998 H   0  0  0  0  0  0
  -19.7970  -30.7262   24.2251 H   0  0  0  0  0  0
  -17.5064  -31.6279   24.5173 H   0  0  0  0  0  0
  -15.5384  -30.3013   23.7690 H   0  0  0  0  0  0
  -15.8672  -28.0853   22.7077 H   0  0  0  0  0  0
  -24.5925  -30.7070   25.7765 H   0  0  0  0  0  0
  -24.8943  -32.2897   26.4835 H   0  0  0  0  0  0
  -25.8063  -30.8916   27.0216 H   0  0  0  0  0  0
  -26.2985  -29.6680   24.1278 H   0  0  0  0  0  0
  -27.4095  -29.7278   25.4761 H   0  0  0  0  0  0
  -27.8850  -30.4226   23.9461 H   0  0  0  0  0  0
  -27.2654  -33.3636   26.2022 H   0  0  0  0  0  0
  -28.3898  -32.6861   25.0338 H   0  0  0  0  0  0
  -28.0702  -31.8480   26.5444 H   0  0  0  0  0  0
  -28.2581  -38.0097   24.7503 H   0  0  0  0  0  0
  -28.1085  -36.2627   24.6301 H   0  0  0  0  0  0
  -27.2293  -37.1456   25.8863 H   0  0  0  0  0  0
  -20.9416  -29.8800   21.6819 H   0  0  0  0  0  0
  -26.0158  -38.2822   24.1403 H   0  0  0  0  0  0
  -32.6773  -19.3648   19.2490 H   0  0  0  0  0  0
  -31.0765  -21.1681   19.7030 H   0  0  0  0  0  0
  -32.1460  -17.0493   19.6223 H   0  0  0  0  0  0
  -28.4549  -21.2222   21.7393 H   0  0  0  0  0  0
  -27.5290  -20.8188   20.3266 H   0  0  0  0  0  0
  -27.7912  -24.9581   18.6903 H   0  0  0  0  0  0
  -29.4410  -24.9899   19.1516 H   0  0  0  0  0  0
  -28.9068  -15.6900   20.8839 H   0  0  0  0  0  0
  -29.2772  -22.5030   19.1805 H   0  0  0  0  0  0
  1 25  1  0  0  0
  1 30  2  0  0  0
  1 81  1  0  0  0
  2  3  1  0  0  0
  2 25  1  0  0  0
  2 87  1  0  0  0
  2 88  1  0  0  0
  3  4  1  0  0  0
  3 89  1  0  0  0
  3 90  1  0  0  0
  4  5  1  0  0  0
  4 91  1  0  0  0
  4 92  1  0  0  0
  5  6  1  0  0  0
  5 26  1  0  0  0
  5 93  1  0  0  0
  6 25  1  0  0  0
  6 94  1  0  0  0
  6 95  1  0  0  0
  7  8  2  0  0  0
  7 26  1  0  0  0
  7 29  1  0  0  0
  8  9  1  0  0  0
  8 22  1  0  0  0
  9 10  1  0  0  0
  9 27  2  0  0  0
 10 11  2  0  0  0
 10 15  1  0  0  0
 11 12  1  0  0  0
 11 96  1  0  0  0
 12 13  2  0  0  0
 12 97  1  0  0  0
 13 14  1  0  0  0
 13 31  1  0  0  0
 14 15  2  0  0  0
 14 98  1  0  0  0
 15 99  1  0  0  0
 16 17  2  0  0  0
 16 21  1  0  0  0
 16 31  1  0  0  0
 17 18  1  0  0  0
 17100  1  0  0  0
 18 19  2  0  0  0
 18101  1  0  0  0
 19 20  1  0  0  0
 19 24  1  0  0  0
 20 21  2  0  0  0
 20102  1  0  0  0
 21 23  1  0  0  0
 22 28  1  0  0  0
 22 32  2  0  0  0
 26 27  1  0  0  0
 28103  1  0  0  0
 28104  1  0  0  0
 29105  1  0  0  0
 29106  1  0  0  0
 33 34  1  0  0  0
 33 66  1  0  0  0
 33 70  2  0  0  0
 34 36  1  0  0  0
 34 59  1  0  0  0
 34107  1  0  0  0
 35 44  2  0  0  0
 35 45  1  0  0  0
 35 68  1  0  0  0
 36 56  1  0  0  0
 36108  1  0  0  0
 37 39  1  0  0  0
 37 47  1  0  0  0
 37 66  1  0  0  0
 37109  1  0  0  0
 38 43  2  0  0  0
 38 46  1  0  0  0
 38 47  1  0  0  0
 39 64  1  0  0  0
 39 67  2  0  0  0
 40 52  1  0  0  0
 40 53  2  0  0  0
 40 58  1  0  0  0
 41110  1  0  0  0
 41111  1  0  0  0
 41112  1  0  0  0
 41 48  1  0  0  0
 42 43  1  0  0  0
 42 66  1  0  0  0
 42113  1  0  0  0
 42114  1  0  0  0
 43 44  1  0  0  0
 44115  1  0  0  0
 45 46  2  0  0  0
 45116  1  0  0  0
 46117  1  0  0  0
 47118  1  0  0  0
 47119  1  0  0  0
 48 56  1  0  0  0
 48 65  1  0  0  0
 48120  1  0  0  0
 49 50  1  0  0  0
 49 53  1  0  0  0
 49 64  1  0  0  0
 49121  1  0  0  0
 50 51  1  0  0  0
 50122  1  0  0  0
 50123  1  0  0  0
 51 52  1  0  0  0
 51124  1  0  0  0
 51125  1  0  0  0
 52126  1  0  0  0
 52127  1  0  0  0
 53 54  1  0  0  0
 54 55  2  0  0  0
 54128  1  0  0  0
 55 57  1  0  0  0
 55129  1  0  0  0
 56 69  2  0  0  0
 57 58  2  0  0  0
 57130  1  0  0  0
 58131  1  0  0  0
 59 60  1  0  0  0
 59 61  1  0  0  0
 59 62  1  0  0  0
 60132  1  0  0  0
 60133  1  0  0  0
 60134  1  0  0  0
 61135  1  0  0  0
 61136  1  0  0  0
 61137  1  0  0  0
 62138  1  0  0  0
 62139  1  0  0  0
 62140  1  0  0  0
 63 65  1  0  0  0
 63141  1  0  0  0
 63142  1  0  0  0
 63143  1  0  0  0
 64144  1  0  0  0
 65145  1  0  0  0
 68 79  1  0  0  0
 71 72  2  0  0  0
 71 73  1  0  0  0
 71146  1  0  0  0
 72 74  1  0  0  0
 72147  1  0  0  0
 73 76  2  0  0  0
 73148  1  0  0  0
 74 75  2  0  0  0
 74 78  1  0  0  0
 75 76  1  0  0  0
 75 80  1  0  0  0
 76 81  1  0  0  0
 77 79  1  0  0  0
 77 82  1  0  0  0
 77 83  2  0  0  0
 78 82  1  0  0  0
 78149  1  0  0  0
 78150  1  0  0  0
 79151  1  0  0  0
 79152  1  0  0  0
 80 84  1  0  0  0
 80 85  1  0  0  0
 80 86  1  0  0  0
 81153  1  0  0  0
 82154  1  0  0  0
M  ISO  4   1 100  68 101  79 101  81 100
M  END
> <chiral flag>
0

> <version>
0

> <s_m_source_file>
/data/baiqing/PycharmProjects/Reinvent-master-3.2/result/LINK_invent/BTK/process_docking_weight1_custom_product_contain_oxygen_bond_distance_aromatic_linkinvent_7_9_3/rearranged_h_0047.sdf

> <i_m_source_file_index>
29

> <r_mmod_Potential_Energy-OPLS-2005>
149.866638183594

> <r_mmod_Stretch_Energy-OPLS-2005>
133.068603515625

> <r_mmod_Bend_Energy-OPLS-2005>
172.89892578125

> <r_mmod_Torsional_Energy-OPLS-2005>
203.180435180664

> <r_mmod_Improper_Torsional_Energy-OPLS-2005>
4.61446762084961

> <r_mmod_Van_der_Waal_Energy-OPLS-2005>
146.331924438477

> <r_mmod_Electrostatic_Energy-OPLS-2005>
-360.652496337891

> <r_mmod_Solvation_Energy-OPLS-2005>
-235.087707519531

> <b_mmod_Minimization_Converged-OPLS-2005>
0

> <r_mmod_RMS_Derivative-OPLS-2005>
1.84899365901947

$$$$
29
                    3D
 Structure written by MMmdl.
154162  0  0  1  0            999 V2000
  -30.6757  -14.5080   20.4956 C   0  0  0  0  0  0
  -30.4152  -12.2979   19.4537 C   0  0  0  0  0  0
  -29.5055  -12.4799   18.2200 C   0  0  0  0  0  0
  -28.0181  -12.3750   18.6125 C   0  0  0  0  0  0
  -27.6534  -13.2202   19.8644 C   0  0  2  0  0  0
  -28.6919  -13.0343   20.9944 C   0  0  0  0  0  0
  -25.2516  -13.8187   20.5707 C   0  0  0  0  0  0
  -24.1785  -13.0440   20.9200 C   0  0  0  0  0  0
  -24.6373  -11.6917   20.8745 C   0  0  0  0  0  0
  -23.9049  -10.4281   21.0395 C   0  0  0  0  0  0
  -24.3614   -9.4187   21.9159 C   0  0  0  0  0  0
  -23.6282   -8.2224   22.0733 C   0  0  0  0  0  0
  -22.4251   -8.0271   21.3536 C   0  0  0  0  0  0
  -21.9887   -9.0238   20.4645 C   0  0  0  0  0  0
  -22.7227  -10.2109   20.3040 C   0  0  0  0  0  0
  -21.6835   -6.0727   22.5271 C   0  0  0  0  0  0
  -21.4025   -6.5625   23.8212 C   0  0  0  0  0  0
  -21.3676   -5.6780   24.9178 C   0  0  0  0  0  0
  -21.6035   -4.3043   24.7225 C   0  0  0  0  0  0
  -21.8811   -3.8136   23.4351 C   0  0  0  0  0  0
  -21.9176   -4.6956   22.3404 C   0  0  0  0  0  0
  -22.7809  -13.5225   21.1855 C   0  0  0  0  0  0
  -22.1642   -4.2142   21.0982 F   0  0  0  0  0  0
  -21.5627   -3.4527   25.7740 F   0  0  0  0  0  0
  -30.0224  -13.3157   20.4399 N   0  0  0  0  0  0
  -26.2963  -12.9396   20.3310 N   0  0  0  0  0  0
  -25.9295  -11.6538   20.5730 N   0  0  0  0  0  0
  -22.0445  -12.8246   22.0444 N   0  0  0  0  0  0
  -25.4206  -15.1924   20.4148 N   0  0  0  0  0  0
  -31.8518  -14.6309   20.1443 O   0  0  0  0  0  0
  -21.6616   -6.8865   21.4233 O   0  0  0  0  0  0
  -22.3495  -14.5523   20.6705 O   0  0  0  0  0  0
  -24.6175  -31.8671   23.2102 C   0  0  0  0  0  0
  -25.9044  -32.4820   23.8408 C   0  0  1  0  0  0
  -27.2379  -27.4040   20.0878 C   0  0  0  0  0  0
  -25.5875  -33.8622   24.2315 N   0  0  0  0  0  0
  -23.4056  -30.4908   21.5540 C   0  0  2  0  0  0
  -24.8511  -28.9568   20.1180 C   0  0  0  0  0  0
  -22.7425  -29.4646   22.5009 C   0  0  0  0  0  0
  -18.0265  -28.1349   22.8521 C   0  0  0  0  0  0
  -24.1477  -36.7306   23.2640 C   0  0  0  0  0  0
  -25.9432  -30.8192   21.3745 C   0  0  0  0  0  0
  -26.0145  -29.4548   20.7140 C   0  0  0  0  0  0
  -27.2060  -28.6880   20.6924 C   0  0  0  0  0  0
  -26.0430  -26.9314   19.4912 C   0  0  0  0  0  0
  -24.8628  -27.6947   19.5062 C   0  0  0  0  0  0
  -23.6150  -29.8266   20.1680 C   0  0  0  0  0  0
  -25.4100  -36.3115   24.0340 C   0  0  1  0  0  0
  -20.5875  -28.3628   23.1330 C   0  0  2  0  0  0
  -20.6760  -26.9359   22.5424 C   0  0  0  0  0  0
  -19.5733  -26.6358   21.5225 C   0  0  0  0  0  0
  -18.1912  -26.7893   22.1638 C   0  0  0  0  0  0
  -19.1522  -28.8807   23.2923 C   0  0  0  0  0  0
  -18.9446  -30.1421   23.8923 C   0  0  0  0  0  0
  -17.6446  -30.6563   24.0555 C   0  0  0  0  0  0
  -25.9026  -34.9477   23.5128 C   0  0  0  0  0  0
  -16.5340  -29.9061   23.6326 C   0  0  0  0  0  0
  -16.7263  -28.6474   23.0377 C   0  0  0  0  0  0
  -26.4458  -31.6628   25.0749 C   0  0  0  0  0  0
  -25.3725  -31.3770   26.1497 C   0  0  0  0  0  0
  -27.0294  -30.3057   24.6183 C   0  0  0  0  0  0
  -27.6000  -32.4394   25.7505 C   0  0  0  0  0  0
  -27.5589  -37.1799   24.8459 C   0  0  0  0  0  0
  -21.4156  -29.2986   22.3728 N   0  0  0  0  0  0
  -26.4290  -37.3802   23.9421 N   0  0  0  0  0  0
  -24.6735  -31.0743   22.1026 N   0  0  0  0  0  0
  -23.4181  -28.8161   23.3041 O   0  0  0  0  0  0
  -28.4334  -26.6935   20.1084 O   0  0  0  0  0  0
  -26.5608  -34.8939   22.4697 O   0  0  0  0  0  0
  -23.5353  -32.1414   23.7481 O   0  0  0  0  0  0
  -29.3312  -17.9958   20.9338 C   0  0  0  0  0  0
  -30.3044  -19.6411   19.4166 C   0  0  0  0  0  0
  -30.9071  -17.2820   19.2286 C   0  0  0  0  0  0
  -29.4520  -19.3451   20.5000 C   0  0  0  0  0  0
  -30.0688  -16.9451   20.3221 C   0  0  0  0  0  0
  -31.0243  -18.6130   18.7807 C   0  0  0  0  0  0
  -28.4021  -22.9197   20.6940 C   0  0  0  0  0  0
  -28.6503  -20.4589   21.1932 C   0  0  0  0  0  0
  -29.0611  -24.3244   20.7114 C   0  0  0  0  0  0
  -28.5310  -25.3247   19.6374 C   0  0  0  0  0  0
  -29.9043  -15.5878   20.7839 N   0  0  0  0  0  0
  -29.1493  -21.8377   20.9988 N   0  0  0  0  0  0
  -27.2000  -22.8159   20.4402 O   0  0  0  0  0  0
  -32.0538  -18.9840   17.4443 Cl  0  0  0  0  0  0
  -31.4671  -12.3714   19.1706 H   0  0  0  0  0  0
  -30.2918  -11.3006   19.8786 H   0  0  0  0  0  0
  -29.7458  -11.7318   17.4650 H   0  0  0  0  0  0
  -29.7001  -13.4514   17.7624 H   0  0  0  0  0  0
  -27.8013  -11.3248   18.8031 H   0  0  0  0  0  0
  -27.3899  -12.6678   17.7711 H   0  0  0  0  0  0
  -27.6879  -14.2645   19.5515 H   0  0  0  0  0  0
  -28.6560  -12.0151   21.3819 H   0  0  0  0  0  0
  -28.4615  -13.6771   21.8457 H   0  0  0  0  0  0
  -25.2761   -9.5666   22.4733 H   0  0  0  0  0  0
  -23.9991   -7.4613   22.7450 H   0  0  0  0  0  0
  -21.0803   -8.8773   19.8960 H   0  0  0  0  0  0
  -22.3687  -10.9648   19.6154 H   0  0  0  0  0  0
  -21.2033   -7.6127   23.9734 H   0  0  0  0  0  0
  -21.1514   -6.0499   25.9082 H   0  0  0  0  0  0
  -22.0580   -2.7600   23.2843 H   0  0  0  0  0  0
  -22.4059  -11.9951   22.4919 H   0  0  0  0  0  0
  -21.1060  -13.1272   22.2595 H   0  0  0  0  0  0
  -24.6574  -15.8468   20.5414 H   0  0  0  0  0  0
  -26.2673  -15.6330   20.0818 H   0  0  0  0  0  0
  -26.7107  -32.5511   23.1157 H   0  0  0  0  0  0
  -25.0039  -33.9784   25.0468 H   0  0  0  0  0  0
  -22.6948  -31.3085   21.4159 H   0  0  0  0  0  0
  -23.3761  -35.9620   23.3296 H   0  0  0  0  0  0
  -24.3573  -36.8920   22.2055 H   0  0  0  0  0  0
  -23.7194  -37.6490   23.6662 H   0  0  0  0  0  0
  -26.0803  -31.5914   20.6148 H   0  0  0  0  0  0
  -26.8209  -30.8568   22.0095 H   0  0  0  0  0  0
  -28.1055  -29.0784   21.1460 H   0  0  0  0  0  0
  -25.9670  -25.9801   18.9928 H   0  0  0  0  0  0
  -23.9675  -27.3030   19.0426 H   0  0  0  0  0  0
  -23.7273  -30.6026   19.4095 H   0  0  0  0  0  0
  -22.7386  -29.2475   19.8709 H   0  0  0  0  0  0
  -25.1275  -36.1985   25.0839 H   0  0  0  0  0  0
  -20.9991  -28.3183   24.1441 H   0  0  0  0  0  0
  -20.5675  -26.2222   23.3601 H   0  0  0  0  0  0
  -21.6627  -26.7396   22.1203 H   0  0  0  0  0  0
  -19.6879  -25.6275   21.1236 H   0  0  0  0  0  0
  -19.6669  -27.3190   20.6778 H   0  0  0  0  0  0
  -17.4180  -26.6682   21.4032 H   0  0  0  0  0  0
  -18.0285  -26.0015   22.9016 H   0  0  0  0  0  0
  -19.7922  -30.7235   24.2309 H   0  0  0  0  0  0
  -17.4993  -31.6253   24.5130 H   0  0  0  0  0  0
  -15.5340  -30.2964   23.7621 H   0  0  0  0  0  0
  -15.8669  -28.0777   22.7107 H   0  0  0  0  0  0
  -24.5825  -30.7204   25.7830 H   0  0  0  0  0  0
  -24.9015  -32.2962   26.4998 H   0  0  0  0  0  0
  -25.8052  -30.8868   27.0221 H   0  0  0  0  0  0
  -26.2863  -29.6823   24.1193 H   0  0  0  0  0  0
  -27.3975  -29.7289   25.4672 H   0  0  0  0  0  0
  -27.8747  -30.4335   23.9414 H   0  0  0  0  0  0
  -27.2557  -33.3669   26.2107 H   0  0  0  0  0  0
  -28.3781  -32.7023   25.0321 H   0  0  0  0  0  0
  -28.0719  -31.8539   26.5401 H   0  0  0  0  0  0
  -28.2589  -38.0117   24.7544 H   0  0  0  0  0  0
  -28.1105  -36.2642   24.6241 H   0  0  0  0  0  0
  -27.2320  -37.1398   25.8868 H   0  0  0  0  0  0
  -20.9301  -29.8701   21.6953 H   0  0  0  0  0  0
  -26.0181  -38.2888   24.1431 H   0  0  0  0  0  0
  -28.6643  -17.7719   21.7542 H   0  0  0  0  0  0
  -30.4117  -20.6526   19.0482 H   0  0  0  0  0  0
  -31.4699  -16.5327   18.6932 H   0  0  0  0  0  0
  -28.6469  -20.2584   22.2674 H   0  0  0  0  0  0
  -27.6106  -20.3738   20.8730 H   0  0  0  0  0  0
  -30.1423  -24.2254   20.6047 H   0  0  0  0  0  0
  -28.8924  -24.7466   21.7024 H   0  0  0  0  0  0
  -27.6355  -24.9336   19.1741 H   0  0  0  0  0  0
  -29.2490  -25.3363   18.8177 H   0  0  0  0  0  0
  -29.0221  -15.3743   21.2228 H   0  0  0  0  0  0
  -30.1230  -21.9890   21.2245 H   0  0  0  0  0  0
  1 25  1  0  0  0
  1 30  2  0  0  0
  1 81  1  0  0  0
  2  3  1  0  0  0
  2 25  1  0  0  0
  2 85  1  0  0  0
  2 86  1  0  0  0
  3  4  1  0  0  0
  3 87  1  0  0  0
  3 88  1  0  0  0
  4  5  1  0  0  0
  4 89  1  0  0  0
  4 90  1  0  0  0
  5  6  1  0  0  0
  5 26  1  0  0  0
  5 91  1  0  0  0
  6 25  1  0  0  0
  6 92  1  0  0  0
  6 93  1  0  0  0
  7  8  2  0  0  0
  7 26  1  0  0  0
  7 29  1  0  0  0
  8  9  1  0  0  0
  8 22  1  0  0  0
  9 10  1  0  0  0
  9 27  2  0  0  0
 10 11  2  0  0  0
 10 15  1  0  0  0
 11 12  1  0  0  0
 11 94  1  0  0  0
 12 13  2  0  0  0
 12 95  1  0  0  0
 13 14  1  0  0  0
 13 31  1  0  0  0
 14 15  2  0  0  0
 14 96  1  0  0  0
 15 97  1  0  0  0
 16 17  2  0  0  0
 16 21  1  0  0  0
 16 31  1  0  0  0
 17 18  1  0  0  0
 17 98  1  0  0  0
 18 19  2  0  0  0
 18 99  1  0  0  0
 19 20  1  0  0  0
 19 24  1  0  0  0
 20 21  2  0  0  0
 20100  1  0  0  0
 21 23  1  0  0  0
 22 28  1  0  0  0
 22 32  2  0  0  0
 26 27  1  0  0  0
 28101  1  0  0  0
 28102  1  0  0  0
 29103  1  0  0  0
 29104  1  0  0  0
 33 34  1  0  0  0
 33 66  1  0  0  0
 33 70  2  0  0  0
 34 36  1  0  0  0
 34 59  1  0  0  0
 34105  1  0  0  0
 35 44  2  0  0  0
 35 45  1  0  0  0
 35 68  1  0  0  0
 36 56  1  0  0  0
 36106  1  0  0  0
 37 39  1  0  0  0
 37 47  1  0  0  0
 37 66  1  0  0  0
 37107  1  0  0  0
 38 43  2  0  0  0
 38 46  1  0  0  0
 38 47  1  0  0  0
 39 64  1  0  0  0
 39 67  2  0  0  0
 40 52  1  0  0  0
 40 53  2  0  0  0
 40 58  1  0  0  0
 41108  1  0  0  0
 41109  1  0  0  0
 41110  1  0  0  0
 41 48  1  0  0  0
 42 43  1  0  0  0
 42 66  1  0  0  0
 42111  1  0  0  0
 42112  1  0  0  0
 43 44  1  0  0  0
 44113  1  0  0  0
 45 46  2  0  0  0
 45114  1  0  0  0
 46115  1  0  0  0
 47116  1  0  0  0
 47117  1  0  0  0
 48 56  1  0  0  0
 48 65  1  0  0  0
 48118  1  0  0  0
 49 50  1  0  0  0
 49 53  1  0  0  0
 49 64  1  0  0  0
 49119  1  0  0  0
 50 51  1  0  0  0
 50120  1  0  0  0
 50121  1  0  0  0
 51 52  1  0  0  0
 51122  1  0  0  0
 51123  1  0  0  0
 52124  1  0  0  0
 52125  1  0  0  0
 53 54  1  0  0  0
 54 55  2  0  0  0
 54126  1  0  0  0
 55 57  1  0  0  0
 55127  1  0  0  0
 56 69  2  0  0  0
 57 58  2  0  0  0
 57128  1  0  0  0
 58129  1  0  0  0
 59 60  1  0  0  0
 59 61  1  0  0  0
 59 62  1  0  0  0
 60130  1  0  0  0
 60131  1  0  0  0
 60132  1  0  0  0
 61133  1  0  0  0
 61134  1  0  0  0
 61135  1  0  0  0
 62136  1  0  0  0
 62137  1  0  0  0
 62138  1  0  0  0
 63 65  1  0  0  0
 63139  1  0  0  0
 63140  1  0  0  0
 63141  1  0  0  0
 64142  1  0  0  0
 65143  1  0  0  0
 68 80  1  0  0  0
 71 74  2  0  0  0
 71 75  1  0  0  0
 71144  1  0  0  0
 72 74  1  0  0  0
 72 76  2  0  0  0
 72145  1  0  0  0
 73 75  2  0  0  0
 73 76  1  0  0  0
 73146  1  0  0  0
 74 78  1  0  0  0
 75 81  1  0  0  0
 76 84  1  0  0  0
 77 79  1  0  0  0
 77 82  1  0  0  0
 77 83  2  0  0  0
 78 82  1  0  0  0
 78147  1  0  0  0
 78148  1  0  0  0
 79 80  1  0  0  0
 79149  1  0  0  0
 79150  1  0  0  0
 80151  1  0  0  0
 80152  1  0  0  0
 81153  1  0  0  0
 82154  1  0  0  0
M  ISO  4   1 100  68 101  80 101  81 100
M  END
> <chiral flag>
0

> <version>
0

> <s_m_source_file>
/data/baiqing/PycharmProjects/Reinvent-master-3.2/result/LINK_invent/BTK/process_docking_weight1_custom_product_contain_oxygen_bond_distance_aromatic_linkinvent_7_9_3/rearranged_h_0047.sdf

> <i_m_source_file_index>
30

> <r_mmod_Potential_Energy-OPLS-2005>
-114.050033569336

> <r_mmod_Stretch_Energy-OPLS-2005>
45.2667083740234

> <r_mmod_Bend_Energy-OPLS-2005>
110.716697692871

> <r_mmod_Torsional_Energy-OPLS-2005>
216.310165405273

> <r_mmod_Improper_Torsional_Energy-OPLS-2005>
4.91485977172852

> <r_mmod_Van_der_Waal_Energy-OPLS-2005>
160.912841796875

> <r_mmod_Electrostatic_Energy-OPLS-2005>
-433.863586425781

> <r_mmod_Solvation_Energy-OPLS-2005>
-238.843658447266

> <b_mmod_Minimization_Converged-OPLS-2005>
0

> <r_mmod_RMS_Derivative-OPLS-2005>
4.14831447601318

$$$$
30
                    3D
 Structure written by MMmdl.
163172  0  0  1  0            999 V2000
  -30.6012  -14.6550   20.4812 C   0  0  0  0  0  0
  -30.4425  -12.3955   19.4496 C   0  0  0  0  0  0
  -29.5078  -12.5026   18.2227 C   0  0  0  0  0  0
  -28.0298  -12.3433   18.6355 C   0  0  0  0  0  0
  -27.6519  -13.2152   19.8628 C   0  0  2  0  0  0
  -28.6992  -13.0712   20.9907 C   0  0  0  0  0  0
  -25.2537  -13.8133   20.5696 C   0  0  0  0  0  0
  -24.1809  -13.0399   20.9180 C   0  0  0  0  0  0
  -24.6393  -11.6886   20.8737 C   0  0  0  0  0  0
  -23.9065  -10.4275   21.0408 C   0  0  0  0  0  0
  -24.3614   -9.4195   21.9193 C   0  0  0  0  0  0
  -23.6291   -8.2231   22.0758 C   0  0  0  0  0  0
  -22.4271   -8.0272   21.3547 C   0  0  0  0  0  0
  -21.9911   -9.0242   20.4642 C   0  0  0  0  0  0
  -22.7240  -10.2120   20.3053 C   0  0  0  0  0  0
  -21.6852   -6.0737   22.5281 C   0  0  0  0  0  0
  -21.4012   -6.5640   23.8213 C   0  0  0  0  0  0
  -21.3656   -5.6795   24.9176 C   0  0  0  0  0  0
  -21.6038   -4.3057   24.7228 C   0  0  0  0  0  0
  -21.8821   -3.8148   23.4350 C   0  0  0  0  0  0
  -21.9192   -4.6967   22.3405 C   0  0  0  0  0  0
  -22.7835  -13.5203   21.1855 C   0  0  0  0  0  0
  -22.1663   -4.2152   21.0986 F   0  0  0  0  0  0
  -21.5625   -3.4540   25.7742 F   0  0  0  0  0  0
  -30.0132  -13.4175   20.4244 N   0  0  0  0  0  0
  -26.2984  -12.9330   20.3334 N   0  0  0  0  0  0
  -25.9322  -11.6485   20.5764 N   0  0  0  0  0  0
  -22.0469  -12.8196   22.0406 N   0  0  0  0  0  0
  -25.4156  -15.1846   20.4183 N   0  0  0  0  0  0
  -31.7722  -14.8310   20.1309 O   0  0  0  0  0  0
  -21.6630   -6.8874   21.4242 O   0  0  0  0  0  0
  -22.3524  -14.5518   20.6717 O   0  0  0  0  0  0
  -24.6251  -31.8568   23.1961 C   0  0  0  0  0  0
  -25.9088  -32.4743   23.8314 C   0  0  1  0  0  0
  -27.2348  -27.3080   20.1380 C   0  0  0  0  0  0
  -25.5913  -33.8550   24.2260 N   0  0  0  0  0  0
  -23.4196  -30.4747   21.5382 C   0  0  2  0  0  0
  -24.8676  -28.9110   20.1231 C   0  0  0  0  0  0
  -22.7462  -29.4592   22.4916 C   0  0  0  0  0  0
  -18.0291  -28.1384   22.8449 C   0  0  0  0  0  0
  -24.1502  -36.7277   23.2644 C   0  0  0  0  0  0
  -25.9579  -30.7857   21.3642 C   0  0  0  0  0  0
  -26.0331  -29.4052   20.7200 C   0  0  0  0  0  0
  -27.2202  -28.6174   20.7098 C   0  0  0  0  0  0
  -26.0484  -26.8535   19.5283 C   0  0  0  0  0  0
  -24.8753  -27.6401   19.5199 C   0  0  0  0  0  0
  -23.6370  -29.7961   20.1592 C   0  0  0  0  0  0
  -25.4115  -36.3056   24.0344 C   0  0  1  0  0  0
  -20.5888  -28.3673   23.1270 C   0  0  2  0  0  0
  -20.6780  -26.9397   22.5403 C   0  0  0  0  0  0
  -19.5773  -26.6385   21.5190 C   0  0  0  0  0  0
  -18.1945  -26.7919   22.1597 C   0  0  0  0  0  0
  -19.1541  -28.8845   23.2852 C   0  0  0  0  0  0
  -18.9478  -30.1443   23.8876 C   0  0  0  0  0  0
  -17.6481  -30.6578   24.0555 C   0  0  0  0  0  0
  -25.9053  -34.9432   23.5101 C   0  0  0  0  0  0
  -16.5371  -29.9073   23.6334 C   0  0  0  0  0  0
  -16.7276  -28.6502   23.0323 C   0  0  0  0  0  0
  -26.4480  -31.6554   25.0690 C   0  0  0  0  0  0
  -25.3720  -31.3709   26.1427 C   0  0  0  0  0  0
  -27.0325  -30.2989   24.6107 C   0  0  0  0  0  0
  -27.6037  -32.4284   25.7474 C   0  0  0  0  0  0
  -27.5577  -37.1793   24.8472 C   0  0  0  0  0  0
  -21.4180  -29.3022   22.3663 N   0  0  0  0  0  0
  -26.4284  -37.3755   23.9415 N   0  0  0  0  0  0
  -24.6860  -31.0572   22.0906 N   0  0  0  0  0  0
  -23.4186  -28.8149   23.3005 O   0  0  0  0  0  0
  -28.4076  -26.5419   20.0798 O   0  0  0  0  0  0
  -26.5628  -34.8910   22.4674 O   0  0  0  0  0  0
  -23.5414  -32.1376   23.7293 O   0  0  0  0  0  0
  -30.8942  -17.9787   20.6327 C   0  0  0  0  0  0
  -28.4287  -19.1815   20.0668 C   0  0  0  0  0  0
  -30.7913  -19.4010   20.4630 C   0  0  0  0  0  0
  -29.5410  -20.0561   20.1967 C   0  0  0  0  0  0
  -29.7668  -17.1267   20.5299 C   0  0  0  0  0  0
  -28.5385  -17.7708   20.2385 C   0  0  0  0  0  0
  -28.3772  -23.7689   22.7785 C   0  0  0  0  0  0
  -28.3744  -22.5991   22.1001 C   0  0  0  0  0  0
  -28.3732  -25.0934   22.1382 C   0  0  0  0  0  0
  -28.0313  -23.8353   19.9103 C   0  0  0  0  0  0
  -28.5752  -25.1541   20.6168 C   0  0  1  0  0  0
  -32.0760  -20.2095   20.5380 C   0  0  0  0  0  0
  -28.2808  -21.2417   22.7837 C   0  0  0  0  0  0
  -29.4228  -21.6282   19.9386 C   0  0  0  0  0  0
  -29.7448  -15.6829   20.7710 N   0  0  0  0  0  0
  -28.3403  -22.4916   20.5909 N   0  3  2  0  0  0
  -28.2568  -26.1292   22.8030 O   0  0  0  0  0  0
  -27.4299  -17.0078   20.1074 F   0  0  0  0  0  0
  -31.4824  -12.5284   19.1463 H   0  0  0  0  0  0
  -30.3839  -11.4001   19.8934 H   0  0  0  0  0  0
  -29.7708  -11.7478   17.4802 H   0  0  0  0  0  0
  -29.6481  -13.4683   17.7356 H   0  0  0  0  0  0
  -27.8632  -11.2904   18.8662 H   0  0  0  0  0  0
  -27.3753  -12.5747   17.7943 H   0  0  0  0  0  0
  -27.6641  -14.2496   19.5187 H   0  0  0  0  0  0
  -28.7128  -12.0492   21.3716 H   0  0  0  0  0  0
  -28.4462  -13.7004   21.8457 H   0  0  0  0  0  0
  -25.2756   -9.5673   22.4777 H   0  0  0  0  0  0
  -23.9994   -7.4621   22.7479 H   0  0  0  0  0  0
  -21.0842   -8.8756   19.8949 H   0  0  0  0  0  0
  -22.3698  -10.9658   19.6159 H   0  0  0  0  0  0
  -21.2009   -7.6148   23.9719 H   0  0  0  0  0  0
  -21.1474   -6.0525   25.9080 H   0  0  0  0  0  0
  -22.0606   -2.7608   23.2849 H   0  0  0  0  0  0
  -22.4063  -11.9836   22.4769 H   0  0  0  0  0  0
  -21.1093  -13.1231   22.2620 H   0  0  0  0  0  0
  -24.6494  -15.8327   20.5581 H   0  0  0  0  0  0
  -26.2769  -15.6587   20.1600 H   0  0  0  0  0  0
  -26.7140  -32.5412   23.1051 H   0  0  0  0  0  0
  -25.0075  -33.9699   25.0413 H   0  0  0  0  0  0
  -22.7123  -31.2926   21.3855 H   0  0  0  0  0  0
  -23.3763  -35.9611   23.3311 H   0  0  0  0  0  0
  -24.3608  -36.8892   22.2058 H   0  0  0  0  0  0
  -23.7284  -37.6492   23.6664 H   0  0  0  0  0  0
  -26.0879  -31.5404   20.5877 H   0  0  0  0  0  0
  -26.8386  -30.8410   21.9924 H   0  0  0  0  0  0
  -28.1242  -29.0014   21.1609 H   0  0  0  0  0  0
  -26.0272  -25.8906   19.0385 H   0  0  0  0  0  0
  -23.9812  -27.2542   19.0492 H   0  0  0  0  0  0
  -23.7597  -30.5650   19.3958 H   0  0  0  0  0  0
  -22.7571  -29.2239   19.8583 H   0  0  0  0  0  0
  -25.1303  -36.1896   25.0840 H   0  0  0  0  0  0
  -20.9979  -28.3254   24.1389 H   0  0  0  0  0  0
  -20.5703  -26.2267   23.3599 H   0  0  0  0  0  0
  -21.6647  -26.7443   22.1191 H   0  0  0  0  0  0
  -19.6960  -25.6306   21.1205 H   0  0  0  0  0  0
  -19.6732  -27.3185   20.6718 H   0  0  0  0  0  0
  -17.4220  -26.6643   21.3994 H   0  0  0  0  0  0
  -18.0364  -26.0065   22.9005 H   0  0  0  0  0  0
  -19.7963  -30.7255   24.2225 H   0  0  0  0  0  0
  -17.5048  -31.6257   24.5163 H   0  0  0  0  0  0
  -15.5368  -30.2980   23.7683 H   0  0  0  0  0  0
  -15.8671  -28.0847   22.7013 H   0  0  0  0  0  0
  -24.5908  -30.7019   25.7786 H   0  0  0  0  0  0
  -24.8888  -32.2879   26.4802 H   0  0  0  0  0  0
  -25.8054  -30.8947   27.0233 H   0  0  0  0  0  0
  -26.2892  -29.6750   24.1125 H   0  0  0  0  0  0
  -27.4057  -29.7215   25.4578 H   0  0  0  0  0  0
  -27.8738  -30.4303   23.9304 H   0  0  0  0  0  0
  -27.2648  -33.3606   26.2005 H   0  0  0  0  0  0
  -28.3873  -32.6807   25.0315 H   0  0  0  0  0  0
  -28.0659  -31.8434   26.5435 H   0  0  0  0  0  0
  -28.2574  -38.0103   24.7503 H   0  0  0  0  0  0
  -28.1101  -36.2641   24.6314 H   0  0  0  0  0  0
  -27.2304  -37.1439   25.8875 H   0  0  0  0  0  0
  -20.9363  -29.8742   21.6872 H   0  0  0  0  0  0
  -26.0176  -38.2832   24.1407 H   0  0  0  0  0  0
  -31.8552  -17.5347   20.8513 H   0  0  0  0  0  0
  -27.4544  -19.5807   19.8295 H   0  0  0  0  0  0
  -28.3535  -23.7563   23.8577 H   0  0  0  0  0  0
  -28.3537  -23.8171   18.8699 H   0  0  0  0  0  0
  -26.9447  -23.9098   19.8790 H   0  0  0  0  0  0
  -29.6568  -25.0394   20.5361 H   0  0  0  0  0  0
  -32.9477  -19.5692   20.6781 H   0  0  0  0  0  0
  -32.0449  -20.9135   21.3697 H   0  0  0  0  0  0
  -32.2314  -20.7641   19.6112 H   0  0  0  0  0  0
  -27.9462  -21.3601   23.8144 H   0  0  0  0  0  0
  -29.2538  -20.7502   22.8164 H   0  0  0  0  0  0
  -27.5618  -20.5860   22.2939 H   0  0  0  0  0  0
  -29.3298  -21.7295   18.8565 H   0  0  0  0  0  0
  -30.3663  -22.1102   20.1858 H   0  0  0  0  0  0
  -28.8222  -15.3405   20.9893 H   0  0  0  0  0  0
  -27.5126  -21.9606   20.3664 H   0  0  0  0  0  0
  1 25  1  0  0  0
  1 30  2  0  0  0
  1 85  1  0  0  0
  2  3  1  0  0  0
  2 25  1  0  0  0
  2 89  1  0  0  0
  2 90  1  0  0  0
  3  4  1  0  0  0
  3 91  1  0  0  0
  3 92  1  0  0  0
  4  5  1  0  0  0
  4 93  1  0  0  0
  4 94  1  0  0  0
  5  6  1  0  0  0
  5 26  1  0  0  0
  5 95  1  0  0  0
  6 25  1  0  0  0
  6 96  1  0  0  0
  6 97  1  0  0  0
  7  8  2  0  0  0
  7 26  1  0  0  0
  7 29  1  0  0  0
  8  9  1  0  0  0
  8 22  1  0  0  0
  9 10  1  0  0  0
  9 27  2  0  0  0
 10 11  2  0  0  0
 10 15  1  0  0  0
 11 12  1  0  0  0
 11 98  1  0  0  0
 12 13  2  0  0  0
 12 99  1  0  0  0
 13 14  1  0  0  0
 13 31  1  0  0  0
 14 15  2  0  0  0
 14100  1  0  0  0
 15101  1  0  0  0
 16 17  2  0  0  0
 16 21  1  0  0  0
 16 31  1  0  0  0
 17 18  1  0  0  0
 17102  1  0  0  0
 18 19  2  0  0  0
 18103  1  0  0  0
 19 20  1  0  0  0
 19 24  1  0  0  0
 20 21  2  0  0  0
 20104  1  0  0  0
 21 23  1  0  0  0
 22 28  1  0  0  0
 22 32  2  0  0  0
 26 27  1  0  0  0
 28105  1  0  0  0
 28106  1  0  0  0
 29107  1  0  0  0
 29108  1  0  0  0
 33 34  1  0  0  0
 33 66  1  0  0  0
 33 70  2  0  0  0
 34 36  1  0  0  0
 34 59  1  0  0  0
 34109  1  0  0  0
 35 44  2  0  0  0
 35 45  1  0  0  0
 35 68  1  0  0  0
 36 56  1  0  0  0
 36110  1  0  0  0
 37 39  1  0  0  0
 37 47  1  0  0  0
 37 66  1  0  0  0
 37111  1  0  0  0
 38 43  2  0  0  0
 38 46  1  0  0  0
 38 47  1  0  0  0
 39 64  1  0  0  0
 39 67  2  0  0  0
 40 52  1  0  0  0
 40 53  2  0  0  0
 40 58  1  0  0  0
 41112  1  0  0  0
 41113  1  0  0  0
 41114  1  0  0  0
 41 48  1  0  0  0
 42 43  1  0  0  0
 42 66  1  0  0  0
 42115  1  0  0  0
 42116  1  0  0  0
 43 44  1  0  0  0
 44117  1  0  0  0
 45 46  2  0  0  0
 45118  1  0  0  0
 46119  1  0  0  0
 47120  1  0  0  0
 47121  1  0  0  0
 48 56  1  0  0  0
 48 65  1  0  0  0
 48122  1  0  0  0
 49 50  1  0  0  0
 49 53  1  0  0  0
 49 64  1  0  0  0
 49123  1  0  0  0
 50 51  1  0  0  0
 50124  1  0  0  0
 50125  1  0  0  0
 51 52  1  0  0  0
 51126  1  0  0  0
 51127  1  0  0  0
 52128  1  0  0  0
 52129  1  0  0  0
 53 54  1  0  0  0
 54 55  2  0  0  0
 54130  1  0  0  0
 55 57  1  0  0  0
 55131  1  0  0  0
 56 69  2  0  0  0
 57 58  2  0  0  0
 57132  1  0  0  0
 58133  1  0  0  0
 59 60  1  0  0  0
 59 61  1  0  0  0
 59 62  1  0  0  0
 60134  1  0  0  0
 60135  1  0  0  0
 60136  1  0  0  0
 61137  1  0  0  0
 61138  1  0  0  0
 61139  1  0  0  0
 62140  1  0  0  0
 62141  1  0  0  0
 62142  1  0  0  0
 63 65  1  0  0  0
 63143  1  0  0  0
 63144  1  0  0  0
 63145  1  0  0  0
 64146  1  0  0  0
 65147  1  0  0  0
 68 81  1  0  0  0
 71 73  2  0  0  0
 71 75  1  0  0  0
 71148  1  0  0  0
 72 74  2  0  0  0
 72 76  1  0  0  0
 72149  1  0  0  0
 73 74  1  0  0  0
 73 82  1  0  0  0
 74 84  1  0  0  0
 75 76  2  0  0  0
 75 85  1  0  0  0
 76 88  1  0  0  0
 77 78  2  0  0  0
 77 79  1  0  0  0
 77150  1  0  0  0
 78 83  1  0  0  0
 78 86  1  0  0  0
 79 81  1  0  0  0
 79 87  2  0  0  0
 80 81  1  0  0  0
 80 86  1  0  0  0
 80151  1  0  0  0
 80152  1  0  0  0
 81153  1  0  0  0
 82154  1  0  0  0
 82155  1  0  0  0
 82156  1  0  0  0
 83157  1  0  0  0
 83158  1  0  0  0
 83159  1  0  0  0
 84160  1  0  0  0
 84161  1  0  0  0
 84 86  1  0  0  0
 85162  1  0  0  0
 86163  1  0  0  0
M  CHG  1  86   1
M  ISO  4   1 100  68 101  81 101  85 100
M  END
> <chiral flag>
0

> <version>
0

> <s_m_source_file>
/data/baiqing/PycharmProjects/Reinvent-master-3.2/result/LINK_invent/BTK/process_docking_weight1_custom_product_contain_oxygen_bond_distance_aromatic_linkinvent_7_9_3/rearranged_h_0047.sdf

> <i_m_source_file_index>
31

> <r_mmod_Potential_Energy-OPLS-2005>
-40.0601272583008

> <r_mmod_Stretch_Energy-OPLS-2005>
93.879638671875

> <r_mmod_Bend_Energy-OPLS-2005>
193.920913696289

> <r_mmod_Torsional_Energy-OPLS-2005>
226.468978881836

> <r_mmod_Improper_Torsional_Energy-OPLS-2005>
5.74508953094482

> <r_mmod_Van_der_Waal_Energy-OPLS-2005>
141.35791015625

> <r_mmod_Electrostatic_Energy-OPLS-2005>
-272.998260498047

> <r_mmod_Solvation_Energy-OPLS-2005>
-476.765228271484

> <b_mmod_Minimization_Converged-OPLS-2005>
0

> <r_mmod_RMS_Derivative-OPLS-2005>
2.07439088821411

$$$$
31
                    3D
 Structure written by MMmdl.
157165  0  0  1  0            999 V2000
  -30.7183  -14.4661   20.6143 C   0  0  0  0  0  0
  -30.4218  -12.3254   19.4140 C   0  0  0  0  0  0
  -29.4916  -12.5061   18.1983 C   0  0  0  0  0  0
  -28.0141  -12.3677   18.6132 C   0  0  0  0  0  0
  -27.6588  -13.2092   19.8684 C   0  0  2  0  0  0
  -28.6978  -13.0000   20.9906 C   0  0  0  0  0  0
  -25.2584  -13.8188   20.5673 C   0  0  0  0  0  0
  -24.1854  -13.0463   20.9191 C   0  0  0  0  0  0
  -24.6409  -11.6926   20.8736 C   0  0  0  0  0  0
  -23.9080  -10.4309   21.0403 C   0  0  0  0  0  0
  -24.3637   -9.4223   21.9172 C   0  0  0  0  0  0
  -23.6309   -8.2257   22.0746 C   0  0  0  0  0  0
  -22.4288   -8.0285   21.3549 C   0  0  0  0  0  0
  -21.9921   -9.0266   20.4669 C   0  0  0  0  0  0
  -22.7248  -10.2141   20.3061 C   0  0  0  0  0  0
  -21.6867   -6.0736   22.5273 C   0  0  0  0  0  0
  -21.4023   -6.5636   23.8207 C   0  0  0  0  0  0
  -21.3660   -5.6785   24.9164 C   0  0  0  0  0  0
  -21.6044   -4.3047   24.7216 C   0  0  0  0  0  0
  -21.8820   -3.8149   23.4330 C   0  0  0  0  0  0
  -21.9206   -4.6968   22.3391 C   0  0  0  0  0  0
  -22.7873  -13.5233   21.1839 C   0  0  0  0  0  0
  -22.1660   -4.2157   21.0973 F   0  0  0  0  0  0
  -21.5638   -3.4533   25.7727 F   0  0  0  0  0  0
  -30.0255  -13.3085   20.4349 N   0  0  0  0  0  0
  -26.3009  -12.9352   20.3319 N   0  0  0  0  0  0
  -25.9341  -11.6515   20.5775 N   0  0  0  0  0  0
  -22.0519  -12.8244   22.0400 N   0  0  0  0  0  0
  -25.4319  -15.1913   20.4110 N   0  0  0  0  0  0
  -31.8261  -14.6592   20.1065 O   0  0  0  0  0  0
  -21.6654   -6.8879   21.4230 O   0  0  0  0  0  0
  -22.3556  -14.5526   20.6668 O   0  0  0  0  0  0
  -24.6156  -31.8675   23.2109 C   0  0  0  0  0  0
  -25.9038  -32.4831   23.8390 C   0  0  1  0  0  0
  -27.2134  -27.4180   20.0916 C   0  0  0  0  0  0
  -25.5886  -33.8626   24.2316 N   0  0  0  0  0  0
  -23.4026  -30.4947   21.5527 C   0  0  2  0  0  0
  -24.8436  -28.9621   20.1101 C   0  0  0  0  0  0
  -22.7409  -29.4671   22.4999 C   0  0  0  0  0  0
  -18.0272  -28.1392   22.8508 C   0  0  0  0  0  0
  -24.1481  -36.7303   23.2646 C   0  0  0  0  0  0
  -25.9347  -30.8297   21.3647 C   0  0  0  0  0  0
  -26.0086  -29.4662   20.7035 C   0  0  0  0  0  0
  -27.2009  -28.7031   20.6844 C   0  0  0  0  0  0
  -26.0329  -26.9345   19.4878 C   0  0  0  0  0  0
  -24.8525  -27.6987   19.4963 C   0  0  0  0  0  0
  -23.6075  -29.8304   20.1659 C   0  0  0  0  0  0
  -25.4110  -36.3118   24.0334 C   0  0  1  0  0  0
  -20.5865  -28.3669   23.1334 C   0  0  2  0  0  0
  -20.6763  -26.9411   22.5423 C   0  0  0  0  0  0
  -19.5741  -26.6398   21.5221 C   0  0  0  0  0  0
  -18.1921  -26.7941   22.1633 C   0  0  0  0  0  0
  -19.1522  -28.8846   23.2920 C   0  0  0  0  0  0
  -18.9446  -30.1454   23.8930 C   0  0  0  0  0  0
  -17.6451  -30.6607   24.0567 C   0  0  0  0  0  0
  -25.9043  -34.9484   23.5131 C   0  0  0  0  0  0
  -16.5344  -29.9104   23.6335 C   0  0  0  0  0  0
  -16.7256  -28.6512   23.0369 C   0  0  0  0  0  0
  -26.4455  -31.6632   25.0741 C   0  0  0  0  0  0
  -25.3706  -31.3735   26.1482 C   0  0  0  0  0  0
  -27.0286  -30.3078   24.6122 C   0  0  0  0  0  0
  -27.6045  -32.4349   25.7479 C   0  0  0  0  0  0
  -27.5578  -37.1818   24.8473 C   0  0  0  0  0  0
  -21.4133  -29.3031   22.3727 N   0  0  0  0  0  0
  -26.4302  -37.3798   23.9411 N   0  0  0  0  0  0
  -24.6700  -31.0765   22.1020 N   0  0  0  0  0  0
  -23.4184  -28.8218   23.3046 O   0  0  0  0  0  0
  -28.3529  -26.6407   20.1154 O   0  0  0  0  0  0
  -26.5611  -34.8932   22.4698 O   0  0  0  0  0  0
  -23.5347  -32.1430   23.7503 O   0  0  0  0  0  0
  -29.5224  -20.7208   21.7836 C   0  0  0  0  0  0
  -29.7414  -20.0908   23.0226 C   0  0  0  0  0  0
  -29.8287  -18.5835   20.6634 C   0  0  0  0  0  0
  -29.5081  -19.9745   20.5817 C   0  0  0  0  0  0
  -30.1525  -17.9600   21.8978 C   0  0  0  0  0  0
  -30.0597  -18.7250   23.0837 C   0  0  0  0  0  0
  -29.3417  -20.6224   19.2146 C   0  0  0  0  0  0
  -30.7978  -16.5628   21.9661 C   0  0  0  0  0  0
  -28.4511  -24.2176   19.4376 C   0  0  0  0  0  0
  -27.9364  -22.7812   19.7576 C   0  0  0  0  0  0
  -28.1577  -25.2711   20.5363 C   0  0  0  0  0  0
  -28.6572  -21.7653   18.9701 N   0  0  0  0  0  0
  -30.1104  -15.4149   21.3541 N   0  0  0  0  0  0
  -29.8249  -20.0400   18.2435 O   0  0  0  0  0  0
  -30.3412  -18.1717   24.2883 F   0  0  0  0  0  0
  -31.4638  -12.4354   19.1066 H   0  0  0  0  0  0
  -30.3379  -11.3131   19.8137 H   0  0  0  0  0  0
  -29.7336  -11.7712   17.4300 H   0  0  0  0  0  0
  -29.6611  -13.4850   17.7487 H   0  0  0  0  0  0
  -27.8263  -11.3132   18.8118 H   0  0  0  0  0  0
  -27.3633  -12.6404   17.7811 H   0  0  0  0  0  0
  -27.6984  -14.2563   19.5670 H   0  0  0  0  0  0
  -28.4487  -13.6101   21.8597 H   0  0  0  0  0  0
  -28.6790  -11.9683   21.3469 H   0  0  0  0  0  0
  -25.2793   -9.5708   22.4731 H   0  0  0  0  0  0
  -24.0055   -7.4649   22.7449 H   0  0  0  0  0  0
  -21.0856   -8.8786   19.8970 H   0  0  0  0  0  0
  -22.3712  -10.9682   19.6170 H   0  0  0  0  0  0
  -21.1997   -7.6144   23.9707 H   0  0  0  0  0  0
  -21.1481   -6.0516   25.9073 H   0  0  0  0  0  0
  -22.0605   -2.7611   23.2829 H   0  0  0  0  0  0
  -22.4152  -11.9949   22.4856 H   0  0  0  0  0  0
  -21.1123  -13.1273   22.2545 H   0  0  0  0  0  0
  -24.6719  -15.8517   20.5379 H   0  0  0  0  0  0
  -26.2895  -15.6336   20.1071 H   0  0  0  0  0  0
  -26.7123  -32.5525   23.1155 H   0  0  0  0  0  0
  -25.0008  -33.9790   25.0435 H   0  0  0  0  0  0
  -22.6936  -31.3131   21.4191 H   0  0  0  0  0  0
  -23.3749  -35.9638   23.3344 H   0  0  0  0  0  0
  -24.3564  -36.8873   22.2058 H   0  0  0  0  0  0
  -23.7234  -37.6514   23.6628 H   0  0  0  0  0  0
  -26.0540  -31.6013   20.6032 H   0  0  0  0  0  0
  -26.8221  -30.8750   21.9854 H   0  0  0  0  0  0
  -28.1019  -29.0837   21.1449 H   0  0  0  0  0  0
  -26.0141  -25.9619   19.0143 H   0  0  0  0  0  0
  -23.9558  -27.3088   19.0348 H   0  0  0  0  0  0
  -23.7139  -30.6091   19.4099 H   0  0  0  0  0  0
  -22.7287  -29.2530   19.8700 H   0  0  0  0  0  0
  -25.1297  -36.1986   25.0831 H   0  0  0  0  0  0
  -20.9952  -28.3229   24.1456 H   0  0  0  0  0  0
  -20.5687  -26.2267   23.3604 H   0  0  0  0  0  0
  -21.6631  -26.7476   22.1203 H   0  0  0  0  0  0
  -19.6900  -25.6307   21.1249 H   0  0  0  0  0  0
  -19.6688  -27.3213   20.6759 H   0  0  0  0  0  0
  -17.4188  -26.6702   21.4036 H   0  0  0  0  0  0
  -18.0316  -26.0083   22.9027 H   0  0  0  0  0  0
  -19.7923  -30.7260   24.2321 H   0  0  0  0  0  0
  -17.5012  -31.6298   24.5149 H   0  0  0  0  0  0
  -15.5347  -30.3021   23.7656 H   0  0  0  0  0  0
  -15.8650  -28.0840   22.7095 H   0  0  0  0  0  0
  -24.5853  -30.7127   25.7784 H   0  0  0  0  0  0
  -24.8928  -32.2900   26.4966 H   0  0  0  0  0  0
  -25.8044  -30.8847   27.0218 H   0  0  0  0  0  0
  -26.2840  -29.6862   24.1139 H   0  0  0  0  0  0
  -27.4016  -29.7302   25.4589 H   0  0  0  0  0  0
  -27.8687  -30.4410   23.9303 H   0  0  0  0  0  0
  -27.2675  -33.3626   26.2108 H   0  0  0  0  0  0
  -28.3803  -32.6953   25.0266 H   0  0  0  0  0  0
  -28.0766  -31.8443   26.5338 H   0  0  0  0  0  0
  -28.2635  -38.0078   24.7494 H   0  0  0  0  0  0
  -28.1036  -36.2617   24.6335 H   0  0  0  0  0  0
  -27.2291  -37.1501   25.8874 H   0  0  0  0  0  0
  -20.9299  -29.8704   21.6911 H   0  0  0  0  0  0
  -26.0191  -38.2879   24.1398 H   0  0  0  0  0  0
  -29.4250  -21.7921   21.7948 H   0  0  0  0  0  0
  -29.7306  -20.6752   23.9315 H   0  0  0  0  0  0
  -29.9255  -18.0047   19.7559 H   0  0  0  0  0  0
  -30.9692  -16.2912   23.0083 H   0  0  0  0  0  0
  -31.7975  -16.6821   21.5464 H   0  0  0  0  0  0
  -28.0000  -24.5432   18.5004 H   0  0  0  0  0  0
  -29.5256  -24.1986   19.2567 H   0  0  0  0  0  0
  -26.8890  -22.7303   19.4519 H   0  0  0  0  0  0
  -27.8953  -22.5891   20.8227 H   0  0  0  0  0  0
  -28.8357  -25.0936   21.3713 H   0  0  0  0  0  0
  -27.1601  -25.1048   20.9459 H   0  0  0  0  0  0
  -28.6506  -21.9704   17.9808 H   0  0  0  0  0  0
  -29.1902  -15.1948   21.7022 H   0  0  0  0  0  0
  1 25  1  0  0  0
  1 30  2  0  0  0
  1 83  1  0  0  0
  2  3  1  0  0  0
  2 25  1  0  0  0
  2 86  1  0  0  0
  2 87  1  0  0  0
  3  4  1  0  0  0
  3 88  1  0  0  0
  3 89  1  0  0  0
  4  5  1  0  0  0
  4 90  1  0  0  0
  4 91  1  0  0  0
  5  6  1  0  0  0
  5 26  1  0  0  0
  5 92  1  0  0  0
  6 25  1  0  0  0
  6 93  1  0  0  0
  6 94  1  0  0  0
  7  8  2  0  0  0
  7 26  1  0  0  0
  7 29  1  0  0  0
  8  9  1  0  0  0
  8 22  1  0  0  0
  9 10  1  0  0  0
  9 27  2  0  0  0
 10 11  2  0  0  0
 10 15  1  0  0  0
 11 12  1  0  0  0
 11 95  1  0  0  0
 12 13  2  0  0  0
 12 96  1  0  0  0
 13 14  1  0  0  0
 13 31  1  0  0  0
 14 15  2  0  0  0
 14 97  1  0  0  0
 15 98  1  0  0  0
 16 17  2  0  0  0
 16 21  1  0  0  0
 16 31  1  0  0  0
 17 18  1  0  0  0
 17 99  1  0  0  0
 18 19  2  0  0  0
 18100  1  0  0  0
 19 20  1  0  0  0
 19 24  1  0  0  0
 20 21  2  0  0  0
 20101  1  0  0  0
 21 23  1  0  0  0
 22 28  1  0  0  0
 22 32  2  0  0  0
 26 27  1  0  0  0
 28102  1  0  0  0
 28103  1  0  0  0
 29104  1  0  0  0
 29105  1  0  0  0
 33 34  1  0  0  0
 33 66  1  0  0  0
 33 70  2  0  0  0
 34 36  1  0  0  0
 34 59  1  0  0  0
 34106  1  0  0  0
 35 44  2  0  0  0
 35 45  1  0  0  0
 35 68  1  0  0  0
 36 56  1  0  0  0
 36107  1  0  0  0
 37 39  1  0  0  0
 37 47  1  0  0  0
 37 66  1  0  0  0
 37108  1  0  0  0
 38 43  2  0  0  0
 38 46  1  0  0  0
 38 47  1  0  0  0
 39 64  1  0  0  0
 39 67  2  0  0  0
 40 52  1  0  0  0
 40 53  2  0  0  0
 40 58  1  0  0  0
 41109  1  0  0  0
 41110  1  0  0  0
 41111  1  0  0  0
 41 48  1  0  0  0
 42 43  1  0  0  0
 42 66  1  0  0  0
 42112  1  0  0  0
 42113  1  0  0  0
 43 44  1  0  0  0
 44114  1  0  0  0
 45 46  2  0  0  0
 45115  1  0  0  0
 46116  1  0  0  0
 47117  1  0  0  0
 47118  1  0  0  0
 48 56  1  0  0  0
 48 65  1  0  0  0
 48119  1  0  0  0
 49 50  1  0  0  0
 49 53  1  0  0  0
 49 64  1  0  0  0
 49120  1  0  0  0
 50 51  1  0  0  0
 50121  1  0  0  0
 50122  1  0  0  0
 51 52  1  0  0  0
 51123  1  0  0  0
 51124  1  0  0  0
 52125  1  0  0  0
 52126  1  0  0  0
 53 54  1  0  0  0
 54 55  2  0  0  0
 54127  1  0  0  0
 55 57  1  0  0  0
 55128  1  0  0  0
 56 69  2  0  0  0
 57 58  2  0  0  0
 57129  1  0  0  0
 58130  1  0  0  0
 59 60  1  0  0  0
 59 61  1  0  0  0
 59 62  1  0  0  0
 60131  1  0  0  0
 60132  1  0  0  0
 60133  1  0  0  0
 61134  1  0  0  0
 61135  1  0  0  0
 61136  1  0  0  0
 62137  1  0  0  0
 62138  1  0  0  0
 62139  1  0  0  0
 63 65  1  0  0  0
 63140  1  0  0  0
 63141  1  0  0  0
 63142  1  0  0  0
 64143  1  0  0  0
 65144  1  0  0  0
 68 81  1  0  0  0
 71 72  2  0  0  0
 71 74  1  0  0  0
 71145  1  0  0  0
 72 76  1  0  0  0
 72146  1  0  0  0
 73 74  2  0  0  0
 73 75  1  0  0  0
 73147  1  0  0  0
 74 77  1  0  0  0
 75 76  2  0  0  0
 75 78  1  0  0  0
 76 85  1  0  0  0
 77 82  1  0  0  0
 77 84  2  0  0  0
 78 83  1  0  0  0
 78148  1  0  0  0
 78149  1  0  0  0
 79 80  1  0  0  0
 79 81  1  0  0  0
 79150  1  0  0  0
 79151  1  0  0  0
 80 82  1  0  0  0
 80152  1  0  0  0
 80153  1  0  0  0
 81154  1  0  0  0
 81155  1  0  0  0
 82156  1  0  0  0
 83157  1  0  0  0
M  ISO  4   1 100  68 101  81 101  83 100
M  END
> <chiral flag>
0

> <version>
0

> <s_m_source_file>
/data/baiqing/PycharmProjects/Reinvent-master-3.2/result/LINK_invent/BTK/process_docking_weight1_custom_product_contain_oxygen_bond_distance_aromatic_linkinvent_7_9_3/rearranged_h_0047.sdf

> <i_m_source_file_index>
32

> <r_mmod_Potential_Energy-OPLS-2005>
-61.6299438476562

> <r_mmod_Stretch_Energy-OPLS-2005>
42.0958709716797

> <r_mmod_Bend_Energy-OPLS-2005>
133.580505371094

> <r_mmod_Torsional_Energy-OPLS-2005>
244.357360839844

> <r_mmod_Improper_Torsional_Energy-OPLS-2005>
4.39016485214233

> <r_mmod_Van_der_Waal_Energy-OPLS-2005>
159.975601196289

> <r_mmod_Electrostatic_Energy-OPLS-2005>
-431.614990234375

> <r_mmod_Solvation_Energy-OPLS-2005>
-229.057830810547

> <b_mmod_Minimization_Converged-OPLS-2005>
0

> <r_mmod_RMS_Derivative-OPLS-2005>
3.1271538734436

$$$$
32
                    3D
 Structure written by MMmdl.
154162  0  0  1  0            999 V2000
  -30.6238  -14.6427   20.5091 C   0  0  0  0  0  0
  -30.4394  -12.3944   19.4606 C   0  0  0  0  0  0
  -29.5114  -12.5084   18.2305 C   0  0  0  0  0  0
  -28.0344  -12.3428   18.6409 C   0  0  0  0  0  0
  -27.6549  -13.2156   19.8669 C   0  0  2  0  0  0
  -28.6967  -13.0724   20.9994 C   0  0  0  0  0  0
  -25.2566  -13.8169   20.5665 C   0  0  0  0  0  0
  -24.1829  -13.0442   20.9179 C   0  0  0  0  0  0
  -24.6393  -11.6907   20.8737 C   0  0  0  0  0  0
  -23.9060  -10.4289   21.0407 C   0  0  0  0  0  0
  -24.3618   -9.4210   21.9187 C   0  0  0  0  0  0
  -23.6294   -8.2246   22.0755 C   0  0  0  0  0  0
  -22.4279   -8.0282   21.3542 C   0  0  0  0  0  0
  -21.9912   -9.0252   20.4647 C   0  0  0  0  0  0
  -22.7234  -10.2133   20.3056 C   0  0  0  0  0  0
  -21.6851   -6.0743   22.5277 C   0  0  0  0  0  0
  -21.4013   -6.5645   23.8211 C   0  0  0  0  0  0
  -21.3660   -5.6796   24.9173 C   0  0  0  0  0  0
  -21.6047   -4.3056   24.7221 C   0  0  0  0  0  0
  -21.8818   -3.8151   23.4339 C   0  0  0  0  0  0
  -21.9193   -4.6973   22.3398 C   0  0  0  0  0  0
  -22.7853  -13.5239   21.1845 C   0  0  0  0  0  0
  -22.1662   -4.2159   21.0976 F   0  0  0  0  0  0
  -21.5632   -3.4537   25.7732 F   0  0  0  0  0  0
  -30.0145  -13.4155   20.4401 N   0  0  0  0  0  0
  -26.2995  -12.9347   20.3326 N   0  0  0  0  0  0
  -25.9324  -11.6501   20.5763 N   0  0  0  0  0  0
  -22.0494  -12.8224   22.0401 N   0  0  0  0  0  0
  -25.4300  -15.1885   20.4071 N   0  0  0  0  0  0
  -31.7756  -14.8047   20.0956 O   0  0  0  0  0  0
  -21.6640   -6.8884   21.4239 O   0  0  0  0  0  0
  -22.3539  -14.5553   20.6712 O   0  0  0  0  0  0
  -24.6272  -31.8590   23.2024 C   0  0  0  0  0  0
  -25.9111  -32.4783   23.8359 C   0  0  1  0  0  0
  -27.2318  -27.3239   20.1118 C   0  0  0  0  0  0
  -25.5923  -33.8578   24.2273 N   0  0  0  0  0  0
  -23.4208  -30.4849   21.5437 C   0  0  2  0  0  0
  -24.8692  -28.9430   20.1099 C   0  0  0  0  0  0
  -22.7489  -29.4627   22.4916 C   0  0  0  0  0  0
  -18.0288  -28.1394   22.8486 C   0  0  0  0  0  0
  -24.1489  -36.7296   23.2641 C   0  0  0  0  0  0
  -25.9628  -30.7960   21.3699 C   0  0  0  0  0  0
  -26.0397  -29.4236   20.7100 C   0  0  0  0  0  0
  -27.2250  -28.6281   20.6962 C   0  0  0  0  0  0
  -26.0333  -26.8978   19.4904 C   0  0  0  0  0  0
  -24.8681  -27.6859   19.4921 C   0  0  0  0  0  0
  -23.6371  -29.8213   20.1586 C   0  0  0  0  0  0
  -25.4110  -36.3075   24.0330 C   0  0  1  0  0  0
  -20.5893  -28.3688   23.1277 C   0  0  2  0  0  0
  -20.6778  -26.9410   22.5405 C   0  0  0  0  0  0
  -19.5749  -26.6376   21.5221 C   0  0  0  0  0  0
  -18.1930  -26.7936   22.1625 C   0  0  0  0  0  0
  -19.1544  -28.8851   23.2884 C   0  0  0  0  0  0
  -18.9476  -30.1457   23.8890 C   0  0  0  0  0  0
  -17.6476  -30.6592   24.0568 C   0  0  0  0  0  0
  -25.9040  -34.9455   23.5099 C   0  0  0  0  0  0
  -16.5367  -29.9096   23.6328 C   0  0  0  0  0  0
  -16.7275  -28.6521   23.0338 C   0  0  0  0  0  0
  -26.4489  -31.6595   25.0729 C   0  0  0  0  0  0
  -25.3723  -31.3763   26.1459 C   0  0  0  0  0  0
  -27.0320  -30.3015   24.6169 C   0  0  0  0  0  0
  -27.6038  -32.4329   25.7508 C   0  0  0  0  0  0
  -27.5573  -37.1803   24.8464 C   0  0  0  0  0  0
  -21.4194  -29.3056   22.3680 N   0  0  0  0  0  0
  -26.4284  -37.3773   23.9414 N   0  0  0  0  0  0
  -24.6892  -31.0624   22.0957 N   0  0  0  0  0  0
  -23.4227  -28.8149   23.2979 O   0  0  0  0  0  0
  -28.3496  -26.4708   20.1649 O   0  0  0  0  0  0
  -26.5606  -34.8919   22.4658 O   0  0  0  0  0  0
  -23.5422  -32.1374   23.7350 O   0  0  0  0  0  0
  -30.8469  -19.2425   19.8139 C   0  0  0  0  0  0
  -30.8352  -17.8198   19.9148 C   0  0  0  0  0  0
  -29.0344  -17.9858   21.4929 C   0  0  0  0  0  0
  -29.9717  -20.0892   20.5544 C   0  0  0  0  0  0
  -29.0446  -19.4185   21.4090 C   0  0  0  0  0  0
  -29.9315  -17.1444   20.7754 C   0  0  0  0  0  0
  -29.3109  -24.0425   20.3354 C   0  0  0  0  0  0
  -30.2158  -21.6523   20.5252 C   0  0  0  0  0  0
  -28.0979  -25.0113   20.0430 C   0  0  0  0  0  0
  -28.0814  -20.2219   22.2832 C   0  0  0  0  0  0
  -29.8395  -15.6860   20.9327 N   0  0  0  0  0  0
  -29.1324  -22.6783   20.3361 N   0  0  0  0  0  0
  -30.4252  -24.5304   20.5414 O   0  0  0  0  0  0
  -27.3209  -19.4372   23.0479 F   0  0  0  0  0  0
  -28.7660  -21.0320   23.0904 F   0  0  0  0  0  0
  -27.2692  -20.9557   21.5213 F   0  0  0  0  0  0
  -31.4806  -12.5185   19.1596 H   0  0  0  0  0  0
  -30.3747  -11.3978   19.9005 H   0  0  0  0  0  0
  -29.7779  -11.7568   17.4865 H   0  0  0  0  0  0
  -29.6523  -13.4787   17.7519 H   0  0  0  0  0  0
  -27.8748  -11.2894   18.8747 H   0  0  0  0  0  0
  -27.3800  -12.5683   17.7984 H   0  0  0  0  0  0
  -27.6751  -14.2511   19.5267 H   0  0  0  0  0  0
  -28.7046  -12.0512   21.3839 H   0  0  0  0  0  0
  -28.4340  -13.7042   21.8489 H   0  0  0  0  0  0
  -25.2767   -9.5689   22.4759 H   0  0  0  0  0  0
  -24.0008   -7.4635   22.7468 H   0  0  0  0  0  0
  -21.0851   -8.8771   19.8941 H   0  0  0  0  0  0
  -22.3700  -10.9678   19.6164 H   0  0  0  0  0  0
  -21.2000   -7.6152   23.9719 H   0  0  0  0  0  0
  -21.1486   -6.0525   25.9079 H   0  0  0  0  0  0
  -22.0597   -2.7614   23.2832 H   0  0  0  0  0  0
  -22.4106  -11.9871   22.4767 H   0  0  0  0  0  0
  -21.1119  -13.1261   22.2627 H   0  0  0  0  0  0
  -24.6610  -15.8431   20.4992 H   0  0  0  0  0  0
  -26.2797  -15.6217   20.0687 H   0  0  0  0  0  0
  -26.7173  -32.5444   23.1100 H   0  0  0  0  0  0
  -25.0084  -33.9723   25.0427 H   0  0  0  0  0  0
  -22.7164  -31.3061   21.3996 H   0  0  0  0  0  0
  -23.3750  -35.9627   23.3289 H   0  0  0  0  0  0
  -24.3586  -36.8915   22.2055 H   0  0  0  0  0  0
  -23.7251  -37.6498   23.6665 H   0  0  0  0  0  0
  -26.0916  -31.5646   20.6058 H   0  0  0  0  0  0
  -26.8439  -30.8434   21.9977 H   0  0  0  0  0  0
  -28.1248  -29.0003   21.1652 H   0  0  0  0  0  0
  -25.9586  -25.9403   19.0015 H   0  0  0  0  0  0
  -23.9713  -27.3093   19.0202 H   0  0  0  0  0  0
  -23.7621  -30.5985   19.4049 H   0  0  0  0  0  0
  -22.7599  -29.2506   19.8491 H   0  0  0  0  0  0
  -25.1296  -36.1913   25.0823 H   0  0  0  0  0  0
  -20.9976  -28.3238   24.1404 H   0  0  0  0  0  0
  -20.5673  -26.2301   23.3602 H   0  0  0  0  0  0
  -21.6647  -26.7431   22.1204 H   0  0  0  0  0  0
  -19.6914  -25.6285   21.1249 H   0  0  0  0  0  0
  -19.6688  -27.3181   20.6748 H   0  0  0  0  0  0
  -17.4206  -26.6672   21.4024 H   0  0  0  0  0  0
  -18.0325  -26.0088   22.9023 H   0  0  0  0  0  0
  -19.7960  -30.7277   24.2240 H   0  0  0  0  0  0
  -17.5047  -31.6269   24.5176 H   0  0  0  0  0  0
  -15.5376  -30.3010   23.7669 H   0  0  0  0  0  0
  -15.8675  -28.0860   22.7035 H   0  0  0  0  0  0
  -24.5907  -30.7091   25.7822 H   0  0  0  0  0  0
  -24.8931  -32.2954   26.4835 H   0  0  0  0  0  0
  -25.8059  -30.9003   27.0262 H   0  0  0  0  0  0
  -26.2890  -29.6780   24.1175 H   0  0  0  0  0  0
  -27.4011  -29.7245   25.4660 H   0  0  0  0  0  0
  -27.8763  -30.4308   23.9391 H   0  0  0  0  0  0
  -27.2633  -33.3646   26.2038 H   0  0  0  0  0  0
  -28.3883  -32.6838   25.0360 H   0  0  0  0  0  0
  -28.0651  -31.8480   26.5473 H   0  0  0  0  0  0
  -28.2577  -38.0109   24.7504 H   0  0  0  0  0  0
  -28.1076  -36.2637   24.6284 H   0  0  0  0  0  0
  -27.2298  -37.1439   25.8868 H   0  0  0  0  0  0
  -20.9356  -29.8847   21.6960 H   0  0  0  0  0  0
  -26.0155  -38.2838   24.1426 H   0  0  0  0  0  0
  -31.5859  -19.6933   19.1665 H   0  0  0  0  0  0
  -31.5418  -17.2547   19.3230 H   0  0  0  0  0  0
  -28.3231  -17.5170   22.1570 H   0  0  0  0  0  0
  -30.9536  -21.8498   19.7465 H   0  0  0  0  0  0
  -30.7282  -21.8951   21.4572 H   0  0  0  0  0  0
  -27.2863  -24.7297   20.7150 H   0  0  0  0  0  0
  -27.7751  -24.7913   19.0254 H   0  0  0  0  0  0
  -28.9835  -15.3675   21.3622 H   0  0  0  0  0  0
  -28.1945  -22.3275   20.1916 H   0  0  0  0  0  0
  1 25  1  0  0  0
  1 30  2  0  0  0
  1 81  1  0  0  0
  2  3  1  0  0  0
  2 25  1  0  0  0
  2 87  1  0  0  0
  2 88  1  0  0  0
  3  4  1  0  0  0
  3 89  1  0  0  0
  3 90  1  0  0  0
  4  5  1  0  0  0
  4 91  1  0  0  0
  4 92  1  0  0  0
  5  6  1  0  0  0
  5 26  1  0  0  0
  5 93  1  0  0  0
  6 25  1  0  0  0
  6 94  1  0  0  0
  6 95  1  0  0  0
  7  8  2  0  0  0
  7 26  1  0  0  0
  7 29  1  0  0  0
  8  9  1  0  0  0
  8 22  1  0  0  0
  9 10  1  0  0  0
  9 27  2  0  0  0
 10 11  2  0  0  0
 10 15  1  0  0  0
 11 12  1  0  0  0
 11 96  1  0  0  0
 12 13  2  0  0  0
 12 97  1  0  0  0
 13 14  1  0  0  0
 13 31  1  0  0  0
 14 15  2  0  0  0
 14 98  1  0  0  0
 15 99  1  0  0  0
 16 17  2  0  0  0
 16 21  1  0  0  0
 16 31  1  0  0  0
 17 18  1  0  0  0
 17100  1  0  0  0
 18 19  2  0  0  0
 18101  1  0  0  0
 19 20  1  0  0  0
 19 24  1  0  0  0
 20 21  2  0  0  0
 20102  1  0  0  0
 21 23  1  0  0  0
 22 28  1  0  0  0
 22 32  2  0  0  0
 26 27  1  0  0  0
 28103  1  0  0  0
 28104  1  0  0  0
 29105  1  0  0  0
 29106  1  0  0  0
 33 34  1  0  0  0
 33 66  1  0  0  0
 33 70  2  0  0  0
 34 36  1  0  0  0
 34 59  1  0  0  0
 34107  1  0  0  0
 35 44  2  0  0  0
 35 45  1  0  0  0
 35 68  1  0  0  0
 36 56  1  0  0  0
 36108  1  0  0  0
 37 39  1  0  0  0
 37 47  1  0  0  0
 37 66  1  0  0  0
 37109  1  0  0  0
 38 43  2  0  0  0
 38 46  1  0  0  0
 38 47  1  0  0  0
 39 64  1  0  0  0
 39 67  2  0  0  0
 40 52  1  0  0  0
 40 53  2  0  0  0
 40 58  1  0  0  0
 41110  1  0  0  0
 41111  1  0  0  0
 41112  1  0  0  0
 41 48  1  0  0  0
 42 43  1  0  0  0
 42 66  1  0  0  0
 42113  1  0  0  0
 42114  1  0  0  0
 43 44  1  0  0  0
 44115  1  0  0  0
 45 46  2  0  0  0
 45116  1  0  0  0
 46117  1  0  0  0
 47118  1  0  0  0
 47119  1  0  0  0
 48 56  1  0  0  0
 48 65  1  0  0  0
 48120  1  0  0  0
 49 50  1  0  0  0
 49 53  1  0  0  0
 49 64  1  0  0  0
 49121  1  0  0  0
 50 51  1  0  0  0
 50122  1  0  0  0
 50123  1  0  0  0
 51 52  1  0  0  0
 51124  1  0  0  0
 51125  1  0  0  0
 52126  1  0  0  0
 52127  1  0  0  0
 53 54  1  0  0  0
 54 55  2  0  0  0
 54128  1  0  0  0
 55 57  1  0  0  0
 55129  1  0  0  0
 56 69  2  0  0  0
 57 58  2  0  0  0
 57130  1  0  0  0
 58131  1  0  0  0
 59 60  1  0  0  0
 59 61  1  0  0  0
 59 62  1  0  0  0
 60132  1  0  0  0
 60133  1  0  0  0
 60134  1  0  0  0
 61135  1  0  0  0
 61136  1  0  0  0
 61137  1  0  0  0
 62138  1  0  0  0
 62139  1  0  0  0
 62140  1  0  0  0
 63 65  1  0  0  0
 63141  1  0  0  0
 63142  1  0  0  0
 63143  1  0  0  0
 64144  1  0  0  0
 65145  1  0  0  0
 68 79  1  0  0  0
 71 72  2  0  0  0
 71 74  1  0  0  0
 71146  1  0  0  0
 72 76  1  0  0  0
 72147  1  0  0  0
 73 75  1  0  0  0
 73 76  2  0  0  0
 73148  1  0  0  0
 74 75  2  0  0  0
 74 78  1  0  0  0
 75 80  1  0  0  0
 76 81  1  0  0  0
 77 79  1  0  0  0
 77 82  1  0  0  0
 77 83  2  0  0  0
 78 82  1  0  0  0
 78149  1  0  0  0
 78150  1  0  0  0
 79151  1  0  0  0
 79152  1  0  0  0
 80 84  1  0  0  0
 80 85  1  0  0  0
 80 86  1  0  0  0
 81153  1  0  0  0
 82154  1  0  0  0
M  ISO  4   1 100  68 101  79 101  81 100
M  END
> <chiral flag>
0

> <version>
0

> <s_m_source_file>
/data/baiqing/PycharmProjects/Reinvent-master-3.2/result/LINK_invent/BTK/process_docking_weight1_custom_product_contain_oxygen_bond_distance_aromatic_linkinvent_7_9_3/rearranged_h_0047.sdf

> <i_m_source_file_index>
33

> <r_mmod_Potential_Energy-OPLS-2005>
14.7556304931641

> <r_mmod_Stretch_Energy-OPLS-2005>
83.4133682250977

> <r_mmod_Bend_Energy-OPLS-2005>
141.16194152832

> <r_mmod_Torsional_Energy-OPLS-2005>
213.042770385742

> <r_mmod_Improper_Torsional_Energy-OPLS-2005>
4.24114274978638

> <r_mmod_Van_der_Waal_Energy-OPLS-2005>
149.847213745117

> <r_mmod_Electrostatic_Energy-OPLS-2005>
-387.640777587891

> <r_mmod_Solvation_Energy-OPLS-2005>
-237.318923950195

> <b_mmod_Minimization_Converged-OPLS-2005>
0

> <r_mmod_RMS_Derivative-OPLS-2005>
2.05578422546387

$$$$
33
                    3D
 Structure written by MMmdl.
152160  0  0  1  0            999 V2000
  -30.4929  -15.0786   20.4080 C   0  0  0  0  0  0
  -30.4462  -12.6852   19.4859 C   0  0  0  0  0  0
  -29.5207  -12.5270   18.2583 C   0  0  0  0  0  0
  -28.0639  -12.2887   18.6931 C   0  0  0  0  0  0
  -27.6192  -13.2513   19.8231 C   0  0  2  0  0  0
  -28.6637  -13.3504   20.9502 C   0  0  0  0  0  0
  -25.2423  -13.8221   20.5746 C   0  0  0  0  0  0
  -24.1750  -13.0450   20.9254 C   0  0  0  0  0  0
  -24.6379  -11.6929   20.8763 C   0  0  0  0  0  0
  -23.9073  -10.4298   21.0424 C   0  0  0  0  0  0
  -24.3615   -9.4208   21.9192 C   0  0  0  0  0  0
  -23.6288   -8.2246   22.0768 C   0  0  0  0  0  0
  -22.4278   -8.0279   21.3551 C   0  0  0  0  0  0
  -21.9913   -9.0261   20.4657 C   0  0  0  0  0  0
  -22.7246  -10.2140   20.3072 C   0  0  0  0  0  0
  -21.6869   -6.0720   22.5273 C   0  0  0  0  0  0
  -21.4015   -6.5621   23.8202 C   0  0  0  0  0  0
  -21.3664   -5.6775   24.9164 C   0  0  0  0  0  0
  -21.6053   -4.3042   24.7226 C   0  0  0  0  0  0
  -21.8821   -3.8127   23.4358 C   0  0  0  0  0  0
  -21.9194   -4.6937   22.3406 C   0  0  0  0  0  0
  -22.7765  -13.5215   21.1913 C   0  0  0  0  0  0
  -22.1669   -4.2123   21.0976 F   0  0  0  0  0  0
  -21.5631   -3.4526   25.7738 F   0  0  0  0  0  0
  -29.9105  -13.8052   20.3196 N   0  0  0  0  0  0
  -26.2849  -12.9463   20.3230 N   0  0  0  0  0  0
  -25.9305  -11.6590   20.5733 N   0  0  0  0  0  0
  -22.0416  -12.8217   22.0455 N   0  0  0  0  0  0
  -25.4069  -15.1960   20.4234 N   0  0  0  0  0  0
  -31.7214  -15.1143   20.2623 O   0  0  0  0  0  0
  -21.6649   -6.8871   21.4232 O   0  0  0  0  0  0
  -22.3452  -14.5538   20.6768 O   0  0  0  0  0  0
  -24.6539  -31.8352   23.1784 C   0  0  0  0  0  0
  -25.9278  -32.4634   23.8209 C   0  0  1  0  0  0
  -27.2084  -27.0550   20.1480 C   0  0  0  0  0  0
  -25.5985  -33.8446   24.2106 N   0  0  0  0  0  0
  -23.4591  -30.4541   21.5290 C   0  0  2  0  0  0
  -24.9067  -28.8695   20.1075 C   0  0  0  0  0  0
  -22.7616  -29.4495   22.4820 C   0  0  0  0  0  0
  -18.0308  -28.1399   22.8469 C   0  0  0  0  0  0
  -24.1484  -36.7254   23.2642 C   0  0  0  0  0  0
  -26.0241  -30.6817   21.3888 C   0  0  0  0  0  0
  -26.0919  -29.2882   20.7262 C   0  0  0  0  0  0
  -27.2426  -28.4005   20.7238 C   0  0  0  0  0  0
  -25.9916  -26.7557   19.4942 C   0  0  0  0  0  0
  -24.8752  -27.6206   19.4721 C   0  0  0  0  0  0
  -23.6899  -29.7818   20.1508 C   0  0  0  0  0  0
  -25.4126  -36.2983   24.0278 C   0  0  1  0  0  0
  -20.5925  -28.3724   23.1234 C   0  0  2  0  0  0
  -20.6788  -26.9421   22.5406 C   0  0  0  0  0  0
  -19.5749  -26.6377   21.5222 C   0  0  0  0  0  0
  -18.1932  -26.7935   22.1620 C   0  0  0  0  0  0
  -19.1569  -28.8878   23.2834 C   0  0  0  0  0  0
  -18.9479  -30.1481   23.8845 C   0  0  0  0  0  0
  -17.6479  -30.6597   24.0557 C   0  0  0  0  0  0
  -25.9091  -34.9371   23.5001 C   0  0  0  0  0  0
  -16.5371  -29.9077   23.6350 C   0  0  0  0  0  0
  -16.7289  -28.6500   23.0351 C   0  0  0  0  0  0
  -26.4556  -31.6554   25.0708 C   0  0  0  0  0  0
  -25.3705  -31.3815   26.1379 C   0  0  0  0  0  0
  -27.0431  -30.2914   24.6404 C   0  0  0  0  0  0
  -27.6023  -32.4400   25.7534 C   0  0  0  0  0  0
  -27.5558  -37.1772   24.8453 C   0  0  0  0  0  0
  -21.4293  -29.3040   22.3591 N   0  0  0  0  0  0
  -26.4262  -37.3723   23.9413 N   0  0  0  0  0  0
  -24.7330  -31.0118   22.0872 N   0  0  0  0  0  0
  -23.4224  -28.8046   23.3007 O   0  0  0  0  0  0
  -28.2296  -26.0094   20.2106 O   0  0  0  0  0  0
  -26.5683  -34.8877   22.4588 O   0  0  0  0  0  0
  -23.5637  -32.1304   23.6938 O   0  0  0  0  0  0
  -27.4109  -18.3792   22.2981 C   0  0  0  0  0  0
  -27.6511  -19.0031   21.0606 C   0  0  0  0  0  0
  -28.4698  -17.7342   22.9643 C   0  0  0  0  0  0
  -28.9627  -18.9951   20.5354 C   0  0  0  0  0  0
  -29.7683  -17.7376   20.8994 C   0  0  0  0  0  0
  -29.6774  -17.4667   22.2871 C   0  0  0  0  0  0
  -29.4707  -20.5257   20.2857 C   0  0  0  0  0  0
  -28.9034  -23.0925   20.1956 C   0  0  0  0  0  0
  -30.3490  -23.5484   20.2207 C   0  0  0  0  0  0
  -27.8829  -24.4612   20.0436 C   0  0  0  0  0  0
  -28.5766  -21.7480   20.2525 N   0  0  0  0  0  0
  -29.6989  -16.2874   20.3080 N   0  0  0  0  0  0
  -30.6895  -20.6173   20.1459 O   0  0  0  0  0  0
  -30.5698  -16.6433   22.8866 F   0  0  0  0  0  0
  -31.4638  -12.8882   19.1516 H   0  0  0  0  0  0
  -30.4949  -11.7602   20.0624 H   0  0  0  0  0  0
  -29.8638  -11.7007   17.6340 H   0  0  0  0  0  0
  -29.5772  -13.4227   17.6382 H   0  0  0  0  0  0
  -27.9940  -11.2606   19.0476 H   0  0  0  0  0  0
  -27.3896  -12.3646   17.8397 H   0  0  0  0  0  0
  -27.5574  -14.2350   19.3551 H   0  0  0  0  0  0
  -28.7950  -12.3939   21.4590 H   0  0  0  0  0  0
  -28.3420  -14.0695   21.7071 H   0  0  0  0  0  0
  -25.2760   -9.5672   22.4770 H   0  0  0  0  0  0
  -23.9980   -7.4642   22.7515 H   0  0  0  0  0  0
  -21.0825   -8.8797   19.8969 H   0  0  0  0  0  0
  -22.3706  -10.9677   19.6184 H   0  0  0  0  0  0
  -21.2017   -7.6131   23.9685 H   0  0  0  0  0  0
  -21.1480   -6.0519   25.9064 H   0  0  0  0  0  0
  -22.0599   -2.7592   23.2865 H   0  0  0  0  0  0
  -22.4004  -11.9866   22.4846 H   0  0  0  0  0  0
  -21.1033  -13.1255   22.2643 H   0  0  0  0  0  0
  -24.6367  -15.8410   20.5609 H   0  0  0  0  0  0
  -26.2539  -15.6531   20.1145 H   0  0  0  0  0  0
  -26.7347  -32.5187   23.0939 H   0  0  0  0  0  0
  -25.0116  -33.9560   25.0232 H   0  0  0  0  0  0
  -22.7649  -31.2810   21.3685 H   0  0  0  0  0  0
  -23.3713  -35.9617   23.3276 H   0  0  0  0  0  0
  -24.3578  -36.8943   22.2067 H   0  0  0  0  0  0
  -23.7273  -37.6444   23.6735 H   0  0  0  0  0  0
  -26.1919  -31.4321   20.6139 H   0  0  0  0  0  0
  -26.8901  -30.7302   22.0362 H   0  0  0  0  0  0
  -28.1455  -28.7195   21.2225 H   0  0  0  0  0  0
  -25.8542  -25.7989   19.0126 H   0  0  0  0  0  0
  -23.9713  -27.2972   18.9741 H   0  0  0  0  0  0
  -23.8361  -30.5562   19.3969 H   0  0  0  0  0  0
  -22.8014  -29.2342   19.8348 H   0  0  0  0  0  0
  -25.1318  -36.1771   25.0763 H   0  0  0  0  0  0
  -21.0000  -28.3297   24.1361 H   0  0  0  0  0  0
  -20.5688  -26.2323   23.3635 H   0  0  0  0  0  0
  -21.6648  -26.7427   22.1189 H   0  0  0  0  0  0
  -19.6927  -25.6279   21.1265 H   0  0  0  0  0  0
  -19.6694  -27.3172   20.6743 H   0  0  0  0  0  0
  -17.4215  -26.6694   21.4020 H   0  0  0  0  0  0
  -18.0298  -26.0096   22.9024 H   0  0  0  0  0  0
  -19.7961  -30.7315   24.2164 H   0  0  0  0  0  0
  -17.5035  -31.6258   24.5179 H   0  0  0  0  0  0
  -15.5360  -30.2963   23.7711 H   0  0  0  0  0  0
  -15.8689  -28.0819   22.7080 H   0  0  0  0  0  0
  -24.5870  -30.7181   25.7725 H   0  0  0  0  0  0
  -24.8914  -32.3017   26.4721 H   0  0  0  0  0  0
  -25.7943  -30.9055   27.0221 H   0  0  0  0  0  0
  -26.3071  -29.6613   24.1391 H   0  0  0  0  0  0
  -27.3950  -29.7266   25.5047 H   0  0  0  0  0  0
  -27.9020  -30.4094   23.9791 H   0  0  0  0  0  0
  -27.2533  -33.3713   26.2010 H   0  0  0  0  0  0
  -28.3887  -32.6967   25.0431 H   0  0  0  0  0  0
  -28.0629  -31.8621   26.5561 H   0  0  0  0  0  0
  -28.2528  -38.0100   24.7501 H   0  0  0  0  0  0
  -28.1068  -36.2622   24.6242 H   0  0  0  0  0  0
  -27.2274  -37.1387   25.8848 H   0  0  0  0  0  0
  -20.9508  -29.8772   21.6793 H   0  0  0  0  0  0
  -26.0076  -38.2761   24.1454 H   0  0  0  0  0  0
  -26.4591  -18.5229   22.7942 H   0  0  0  0  0  0
  -26.9236  -19.7359   20.7360 H   0  0  0  0  0  0
  -28.3252  -17.3610   23.9688 H   0  0  0  0  0  0
  -30.4220  -24.6330   20.1511 H   0  0  0  0  0  0
  -30.8896  -23.1336   19.3708 H   0  0  0  0  0  0
  -30.8304  -23.2351   21.1464 H   0  0  0  0  0  0
  -27.4947  -24.3783   19.0288 H   0  0  0  0  0  0
  -27.0247  -24.2757   20.6906 H   0  0  0  0  0  0
  -28.7681  -16.0640   19.9944 H   0  0  0  0  0  0
  1 25  1  0  0  0
  1 30  2  0  0  0
  1 82  1  0  0  0
  2  3  1  0  0  0
  2 25  1  0  0  0
  2 85  1  0  0  0
  2 86  1  0  0  0
  3  4  1  0  0  0
  3 87  1  0  0  0
  3 88  1  0  0  0
  4  5  1  0  0  0
  4 89  1  0  0  0
  4 90  1  0  0  0
  5  6  1  0  0  0
  5 26  1  0  0  0
  5 91  1  0  0  0
  6 25  1  0  0  0
  6 92  1  0  0  0
  6 93  1  0  0  0
  7  8  2  0  0  0
  7 26  1  0  0  0
  7 29  1  0  0  0
  8  9  1  0  0  0
  8 22  1  0  0  0
  9 10  1  0  0  0
  9 27  2  0  0  0
 10 11  2  0  0  0
 10 15  1  0  0  0
 11 12  1  0  0  0
 11 94  1  0  0  0
 12 13  2  0  0  0
 12 95  1  0  0  0
 13 14  1  0  0  0
 13 31  1  0  0  0
 14 15  2  0  0  0
 14 96  1  0  0  0
 15 97  1  0  0  0
 16 17  2  0  0  0
 16 21  1  0  0  0
 16 31  1  0  0  0
 17 18  1  0  0  0
 17 98  1  0  0  0
 18 19  2  0  0  0
 18 99  1  0  0  0
 19 20  1  0  0  0
 19 24  1  0  0  0
 20 21  2  0  0  0
 20100  1  0  0  0
 21 23  1  0  0  0
 22 28  1  0  0  0
 22 32  2  0  0  0
 26 27  1  0  0  0
 28101  1  0  0  0
 28102  1  0  0  0
 29103  1  0  0  0
 29104  1  0  0  0
 33 34  1  0  0  0
 33 66  1  0  0  0
 33 70  2  0  0  0
 34 36  1  0  0  0
 34 59  1  0  0  0
 34105  1  0  0  0
 35 44  2  0  0  0
 35 45  1  0  0  0
 35 68  1  0  0  0
 36 56  1  0  0  0
 36106  1  0  0  0
 37 39  1  0  0  0
 37 47  1  0  0  0
 37 66  1  0  0  0
 37107  1  0  0  0
 38 43  2  0  0  0
 38 46  1  0  0  0
 38 47  1  0  0  0
 39 64  1  0  0  0
 39 67  2  0  0  0
 40 52  1  0  0  0
 40 53  2  0  0  0
 40 58  1  0  0  0
 41108  1  0  0  0
 41109  1  0  0  0
 41110  1  0  0  0
 41 48  1  0  0  0
 42 43  1  0  0  0
 42 66  1  0  0  0
 42111  1  0  0  0
 42112  1  0  0  0
 43 44  1  0  0  0
 44113  1  0  0  0
 45 46  2  0  0  0
 45114  1  0  0  0
 46115  1  0  0  0
 47116  1  0  0  0
 47117  1  0  0  0
 48 56  1  0  0  0
 48 65  1  0  0  0
 48118  1  0  0  0
 49 50  1  0  0  0
 49 53  1  0  0  0
 49 64  1  0  0  0
 49119  1  0  0  0
 50 51  1  0  0  0
 50120  1  0  0  0
 50121  1  0  0  0
 51 52  1  0  0  0
 51122  1  0  0  0
 51123  1  0  0  0
 52124  1  0  0  0
 52125  1  0  0  0
 53 54  1  0  0  0
 54 55  2  0  0  0
 54126  1  0  0  0
 55 57  1  0  0  0
 55127  1  0  0  0
 56 69  2  0  0  0
 57 58  2  0  0  0
 57128  1  0  0  0
 58129  1  0  0  0
 59 60  1  0  0  0
 59 61  1  0  0  0
 59 62  1  0  0  0
 60130  1  0  0  0
 60131  1  0  0  0
 60132  1  0  0  0
 61133  1  0  0  0
 61134  1  0  0  0
 61135  1  0  0  0
 62136  1  0  0  0
 62137  1  0  0  0
 62138  1  0  0  0
 63 65  1  0  0  0
 63139  1  0  0  0
 63140  1  0  0  0
 63141  1  0  0  0
 64142  1  0  0  0
 65143  1  0  0  0
 68 80  1  0  0  0
 71 72  2  0  0  0
 71 73  1  0  0  0
 71144  1  0  0  0
 72 74  1  0  0  0
 72145  1  0  0  0
 73 76  2  0  0  0
 73146  1  0  0  0
 74 75  2  0  0  0
 74 77  1  0  0  0
 75 76  1  0  0  0
 75 82  1  0  0  0
 76 84  1  0  0  0
 77 81  1  0  0  0
 77 83  2  0  0  0
 78 79  1  0  0  0
 78 80  1  0  0  0
 78 81  2  0  0  0
 79147  1  0  0  0
 79148  1  0  0  0
 79149  1  0  0  0
 80150  1  0  0  0
 80151  1  0  0  0
 82152  1  0  0  0
M  ISO  4   1 100  68 101  80 101  82 100
M  END
> <chiral flag>
0

> <version>
0

> <s_m_source_file>
/data/baiqing/PycharmProjects/Reinvent-master-3.2/result/LINK_invent/BTK/process_docking_weight1_custom_product_contain_oxygen_bond_distance_aromatic_linkinvent_7_9_3/rearranged_h_0047.sdf

> <i_m_source_file_index>
34

> <r_mmod_Potential_Energy-OPLS-2005>
1007.24554443359

> <r_mmod_Stretch_Energy-OPLS-2005>
379.608764648438

> <r_mmod_Bend_Energy-OPLS-2005>
328.595397949219

> <r_mmod_Torsional_Energy-OPLS-2005>
443.588317871094

> <r_mmod_Improper_Torsional_Energy-OPLS-2005>
43.1945419311523

> <r_mmod_Van_der_Waal_Energy-OPLS-2005>
138.04670715332

> <r_mmod_Electrostatic_Energy-OPLS-2005>
-410.693145751953

> <r_mmod_Solvation_Energy-OPLS-2005>
-207.684356689453

> <b_mmod_Minimization_Converged-OPLS-2005>
0

> <r_mmod_RMS_Derivative-OPLS-2005>
3.31232309341431

$$$$
34
                    3D
 Structure written by MMmdl.
164173  0  0  1  0            999 V2000
  -30.6315  -14.6962   20.4113 C   0  0  0  0  0  0
  -30.4276  -12.4103   19.4663 C   0  0  0  0  0  0
  -29.5053  -12.4897   18.2300 C   0  0  0  0  0  0
  -28.0315  -12.3255   18.6495 C   0  0  0  0  0  0
  -27.6451  -13.2284   19.8514 C   0  0  2  0  0  0
  -28.6943  -13.1546   20.9829 C   0  0  0  0  0  0
  -25.2535  -13.8195   20.5682 C   0  0  0  0  0  0
  -24.1820  -13.0444   20.9204 C   0  0  0  0  0  0
  -24.6412  -11.6920   20.8765 C   0  0  0  0  0  0
  -23.9090  -10.4298   21.0422 C   0  0  0  0  0  0
  -24.3633   -9.4195   21.9193 C   0  0  0  0  0  0
  -23.6300   -8.2230   22.0763 C   0  0  0  0  0  0
  -22.4288   -8.0282   21.3541 C   0  0  0  0  0  0
  -21.9925   -9.0263   20.4650 C   0  0  0  0  0  0
  -22.7262  -10.2143   20.3063 C   0  0  0  0  0  0
  -21.6856   -6.0729   22.5273 C   0  0  0  0  0  0
  -21.4022   -6.5636   23.8209 C   0  0  0  0  0  0
  -21.3659   -5.6796   24.9174 C   0  0  0  0  0  0
  -21.6043   -4.3058   24.7231 C   0  0  0  0  0  0
  -21.8822   -3.8145   23.4355 C   0  0  0  0  0  0
  -21.9191   -4.6953   22.3403 C   0  0  0  0  0  0
  -22.7836  -13.5217   21.1843 C   0  0  0  0  0  0
  -22.1662   -4.2138   21.0980 F   0  0  0  0  0  0
  -21.5629   -3.4538   25.7744 F   0  0  0  0  0  0
  -29.9996  -13.4776   20.3953 N   0  0  0  0  0  0
  -26.2973  -12.9397   20.3317 N   0  0  0  0  0  0
  -25.9344  -11.6537   20.5768 N   0  0  0  0  0  0
  -22.0502  -12.8217   22.0423 N   0  0  0  0  0  0
  -25.4235  -15.1917   20.4060 N   0  0  0  0  0  0
  -31.8388  -14.7635   20.1700 O   0  0  0  0  0  0
  -21.6649   -6.8873   21.4236 O   0  0  0  0  0  0
  -22.3494  -14.5512   20.6690 O   0  0  0  0  0  0
  -24.6292  -31.8586   23.2000 C   0  0  0  0  0  0
  -25.9112  -32.4756   23.8357 C   0  0  1  0  0  0
  -27.2145  -27.2775   20.1142 C   0  0  0  0  0  0
  -25.5919  -33.8557   24.2268 N   0  0  0  0  0  0
  -23.4238  -30.4829   21.5450 C   0  0  2  0  0  0
  -24.8692  -28.9402   20.1081 C   0  0  0  0  0  0
  -22.7490  -29.4621   22.4929 C   0  0  0  0  0  0
  -18.0292  -28.1413   22.8484 C   0  0  0  0  0  0
  -24.1493  -36.7304   23.2643 C   0  0  0  0  0  0
  -25.9710  -30.7736   21.3813 C   0  0  0  0  0  0
  -26.0426  -29.4005   20.7199 C   0  0  0  0  0  0
  -27.2160  -28.5793   20.7180 C   0  0  0  0  0  0
  -26.0163  -26.8937   19.4638 C   0  0  0  0  0  0
  -24.8599  -27.6932   19.4728 C   0  0  0  0  0  0
  -23.6398  -29.8252   20.1592 C   0  0  0  0  0  0
  -25.4103  -36.3064   24.0336 C   0  0  1  0  0  0
  -20.5890  -28.3725   23.1278 C   0  0  2  0  0  0
  -20.6790  -26.9442   22.5432 C   0  0  0  0  0  0
  -19.5759  -26.6401   21.5235 C   0  0  0  0  0  0
  -18.1926  -26.7949   22.1631 C   0  0  0  0  0  0
  -19.1541  -28.8877   23.2877 C   0  0  0  0  0  0
  -18.9467  -30.1473   23.8900 C   0  0  0  0  0  0
  -17.6466  -30.6609   24.0563 C   0  0  0  0  0  0
  -25.9055  -34.9437   23.5108 C   0  0  0  0  0  0
  -16.5356  -29.9106   23.6342 C   0  0  0  0  0  0
  -16.7277  -28.6532   23.0349 C   0  0  0  0  0  0
  -26.4482  -31.6556   25.0734 C   0  0  0  0  0  0
  -25.3718  -31.3679   26.1468 C   0  0  0  0  0  0
  -27.0351  -30.2977   24.6221 C   0  0  0  0  0  0
  -27.6049  -32.4304   25.7474 C   0  0  0  0  0  0
  -27.5568  -37.1778   24.8455 C   0  0  0  0  0  0
  -21.4201  -29.3067   22.3667 N   0  0  0  0  0  0
  -26.4276  -37.3759   23.9415 N   0  0  0  0  0  0
  -24.6937  -31.0566   22.0978 N   0  0  0  0  0  0
  -23.4180  -28.8169   23.3037 O   0  0  0  0  0  0
  -28.3136  -26.3861   20.1867 O   0  0  0  0  0  0
  -26.5651  -34.8887   22.4691 O   0  0  0  0  0  0
  -23.5449  -32.1426   23.7306 O   0  0  0  0  0  0
  -31.1545  -18.6458   18.3130 C   0  0  0  0  0  0
  -29.5295  -18.4249   20.5701 C   0  0  0  0  0  0
  -29.7971  -19.7662   20.0369 C   0  0  0  0  0  0
  -30.0955  -17.2058   19.9987 C   0  0  0  0  0  0
  -30.8544  -17.3682   18.8116 C   0  0  0  0  0  0
  -30.6817  -19.8202   18.9240 C   0  0  0  0  0  0
  -28.9626  -23.8416   20.6006 C   0  0  0  0  0  0
  -29.5862  -24.0928   21.7656 C   0  0  0  0  0  0
  -28.1891  -23.3779   17.7495 C   0  0  0  0  0  0
  -28.4137  -24.8042   18.3018 C   0  0  0  0  0  0
  -28.0452  -22.2859   18.8308 C   0  0  0  0  0  0
  -28.1429  -24.9422   19.8115 C   0  0  2  0  0  0
  -28.6201  -18.2842   21.7833 C   0  0  0  0  0  0
  -29.2479  -21.1288   20.6936 C   0  0  0  0  0  0
  -29.8522  -15.8358   20.5175 N   0  0  0  0  0  0
  -29.0759  -22.4363   19.8863 N   0  3  2  0  0  0
  -31.2816  -16.3006   18.0951 F   0  0  0  0  0  0
  -31.2413  -21.3143   18.2545 Cl  0  0  0  0  0  0
  -31.4721  -12.5094   19.1643 H   0  0  0  0  0  0
  -30.3463  -11.4360   19.9494 H   0  0  0  0  0  0
  -29.7728  -11.7218   17.5021 H   0  0  0  0  0  0
  -29.6398  -13.4498   17.7280 H   0  0  0  0  0  0
  -27.8813  -11.2773   18.9132 H   0  0  0  0  0  0
  -27.3731  -12.5227   17.8029 H   0  0  0  0  0  0
  -27.6428  -14.2501   19.4684 H   0  0  0  0  0  0
  -28.7161  -12.1596   21.4311 H   0  0  0  0  0  0
  -28.4484  -13.8480   21.7892 H   0  0  0  0  0  0
  -25.2790   -9.5643   22.4751 H   0  0  0  0  0  0
  -23.9997   -7.4617   22.7499 H   0  0  0  0  0  0
  -21.0844   -8.8792   19.8960 H   0  0  0  0  0  0
  -22.3737  -10.9679   19.6162 H   0  0  0  0  0  0
  -21.2028   -7.6145   23.9705 H   0  0  0  0  0  0
  -21.1474   -6.0534   25.9075 H   0  0  0  0  0  0
  -22.0602   -2.7599   23.2872 H   0  0  0  0  0  0
  -22.4132  -11.9882   22.4791 H   0  0  0  0  0  0
  -21.1106  -13.1192   22.2640 H   0  0  0  0  0  0
  -24.6561  -15.8472   20.5051 H   0  0  0  0  0  0
  -26.2652  -15.6249   20.0497 H   0  0  0  0  0  0
  -26.7164  -32.5372   23.1081 H   0  0  0  0  0  0
  -24.9972  -33.9709   25.0345 H   0  0  0  0  0  0
  -22.7201  -31.3055   21.4029 H   0  0  0  0  0  0
  -23.3750  -35.9650   23.3288 H   0  0  0  0  0  0
  -24.3599  -36.8961   22.2068 H   0  0  0  0  0  0
  -23.7262  -37.6495   23.6702 H   0  0  0  0  0  0
  -26.1129  -31.5358   20.6132 H   0  0  0  0  0  0
  -26.8449  -30.8159   22.0199 H   0  0  0  0  0  0
  -28.1112  -28.9248   21.2178 H   0  0  0  0  0  0
  -25.9198  -25.9519   18.9494 H   0  0  0  0  0  0
  -23.9638  -27.3378   18.9836 H   0  0  0  0  0  0
  -23.7650  -30.6074   19.4096 H   0  0  0  0  0  0
  -22.7551  -29.2633   19.8514 H   0  0  0  0  0  0
  -25.1273  -36.1924   25.0835 H   0  0  0  0  0  0
  -20.9963  -28.3336   24.1402 H   0  0  0  0  0  0
  -20.5737  -26.2332   23.3649 H   0  0  0  0  0  0
  -21.6652  -26.7510   22.1187 H   0  0  0  0  0  0
  -19.6946  -25.6314   21.1258 H   0  0  0  0  0  0
  -19.6695  -27.3230   20.6773 H   0  0  0  0  0  0
  -17.4210  -26.6714   21.4021 H   0  0  0  0  0  0
  -18.0304  -26.0101   22.9031 H   0  0  0  0  0  0
  -19.7940  -30.7288   24.2271 H   0  0  0  0  0  0
  -17.5021  -31.6278   24.5186 H   0  0  0  0  0  0
  -15.5354  -30.2997   23.7679 H   0  0  0  0  0  0
  -15.8680  -28.0856   22.7046 H   0  0  0  0  0  0
  -24.5925  -30.6994   25.7778 H   0  0  0  0  0  0
  -24.8876  -32.2841   26.4866 H   0  0  0  0  0  0
  -25.8061  -30.8873   27.0251 H   0  0  0  0  0  0
  -26.2969  -29.6665   24.1274 H   0  0  0  0  0  0
  -27.4071  -29.7261   25.4720 H   0  0  0  0  0  0
  -27.8804  -30.4231   23.9459 H   0  0  0  0  0  0
  -27.2694  -33.3631   26.2017 H   0  0  0  0  0  0
  -28.3850  -32.6826   25.0277 H   0  0  0  0  0  0
  -28.0738  -31.8465   26.5395 H   0  0  0  0  0  0
  -28.2547  -38.0096   24.7511 H   0  0  0  0  0  0
  -28.1095  -36.2627   24.6272 H   0  0  0  0  0  0
  -27.2301  -37.1419   25.8856 H   0  0  0  0  0  0
  -20.9420  -29.8753   21.6823 H   0  0  0  0  0  0
  -26.0163  -38.2840   24.1413 H   0  0  0  0  0  0
  -31.7694  -18.7226   17.4282 H   0  0  0  0  0  0
  -29.5068  -25.0688   22.2239 H   0  0  0  0  0  0
  -30.1786  -23.3599   22.2891 H   0  0  0  0  0  0
  -29.0179  -23.1284   17.0843 H   0  0  0  0  0  0
  -27.2974  -23.3673   17.1223 H   0  0  0  0  0  0
  -27.8140  -25.5155   17.7342 H   0  0  0  0  0  0
  -29.4461  -25.1000   18.1161 H   0  0  0  0  0  0
  -28.1174  -21.3044   18.3588 H   0  0  0  0  0  0
  -27.0527  -22.3315   19.2836 H   0  0  0  0  0  0
  -27.1182  -24.6485   20.0364 H   0  0  0  0  0  0
  -27.5792  -18.3496   21.4685 H   0  0  0  0  0  0
  -28.8069  -19.0633   22.5206 H   0  0  0  0  0  0
  -28.7505  -17.3321   22.2978 H   0  0  0  0  0  0
  -29.9315  -21.3305   21.5154 H   0  0  0  0  0  0
  -28.2835  -20.9273   21.1602 H   0  0  0  0  0  0
  -28.9250  -15.6715   20.8741 H   0  0  0  0  0  0
  -29.9431  -22.4658   19.3624 H   0  0  0  0  0  0
  1 25  1  0  0  0
  1 30  2  0  0  0
  1 85  1  0  0  0
  2  3  1  0  0  0
  2 25  1  0  0  0
  2 89  1  0  0  0
  2 90  1  0  0  0
  3  4  1  0  0  0
  3 91  1  0  0  0
  3 92  1  0  0  0
  4  5  1  0  0  0
  4 93  1  0  0  0
  4 94  1  0  0  0
  5  6  1  0  0  0
  5 26  1  0  0  0
  5 95  1  0  0  0
  6 25  1  0  0  0
  6 96  1  0  0  0
  6 97  1  0  0  0
  7  8  2  0  0  0
  7 26  1  0  0  0
  7 29  1  0  0  0
  8  9  1  0  0  0
  8 22  1  0  0  0
  9 10  1  0  0  0
  9 27  2  0  0  0
 10 11  2  0  0  0
 10 15  1  0  0  0
 11 12  1  0  0  0
 11 98  1  0  0  0
 12 13  2  0  0  0
 12 99  1  0  0  0
 13 14  1  0  0  0
 13 31  1  0  0  0
 14 15  2  0  0  0
 14100  1  0  0  0
 15101  1  0  0  0
 16 17  2  0  0  0
 16 21  1  0  0  0
 16 31  1  0  0  0
 17 18  1  0  0  0
 17102  1  0  0  0
 18 19  2  0  0  0
 18103  1  0  0  0
 19 20  1  0  0  0
 19 24  1  0  0  0
 20 21  2  0  0  0
 20104  1  0  0  0
 21 23  1  0  0  0
 22 28  1  0  0  0
 22 32  2  0  0  0
 26 27  1  0  0  0
 28105  1  0  0  0
 28106  1  0  0  0
 29107  1  0  0  0
 29108  1  0  0  0
 33 34  1  0  0  0
 33 66  1  0  0  0
 33 70  2  0  0  0
 34 36  1  0  0  0
 34 59  1  0  0  0
 34109  1  0  0  0
 35 44  2  0  0  0
 35 45  1  0  0  0
 35 68  1  0  0  0
 36 56  1  0  0  0
 36110  1  0  0  0
 37 39  1  0  0  0
 37 47  1  0  0  0
 37 66  1  0  0  0
 37111  1  0  0  0
 38 43  2  0  0  0
 38 46  1  0  0  0
 38 47  1  0  0  0
 39 64  1  0  0  0
 39 67  2  0  0  0
 40 52  1  0  0  0
 40 53  2  0  0  0
 40 58  1  0  0  0
 41112  1  0  0  0
 41113  1  0  0  0
 41114  1  0  0  0
 41 48  1  0  0  0
 42 43  1  0  0  0
 42 66  1  0  0  0
 42115  1  0  0  0
 42116  1  0  0  0
 43 44  1  0  0  0
 44117  1  0  0  0
 45 46  2  0  0  0
 45118  1  0  0  0
 46119  1  0  0  0
 47120  1  0  0  0
 47121  1  0  0  0
 48 56  1  0  0  0
 48 65  1  0  0  0
 48122  1  0  0  0
 49 50  1  0  0  0
 49 53  1  0  0  0
 49 64  1  0  0  0
 49123  1  0  0  0
 50 51  1  0  0  0
 50124  1  0  0  0
 50125  1  0  0  0
 51 52  1  0  0  0
 51126  1  0  0  0
 51127  1  0  0  0
 52128  1  0  0  0
 52129  1  0  0  0
 53 54  1  0  0  0
 54 55  2  0  0  0
 54130  1  0  0  0
 55 57  1  0  0  0
 55131  1  0  0  0
 56 69  2  0  0  0
 57 58  2  0  0  0
 57132  1  0  0  0
 58133  1  0  0  0
 59 60  1  0  0  0
 59 61  1  0  0  0
 59 62  1  0  0  0
 60134  1  0  0  0
 60135  1  0  0  0
 60136  1  0  0  0
 61137  1  0  0  0
 61138  1  0  0  0
 61139  1  0  0  0
 62140  1  0  0  0
 62141  1  0  0  0
 62142  1  0  0  0
 63 65  1  0  0  0
 63143  1  0  0  0
 63144  1  0  0  0
 63145  1  0  0  0
 64146  1  0  0  0
 65147  1  0  0  0
 68 82  1  0  0  0
 71 75  2  0  0  0
 71 76  1  0  0  0
 71148  1  0  0  0
 72 73  1  0  0  0
 72 74  2  0  0  0
 72 83  1  0  0  0
 73 76  2  0  0  0
 73 84  1  0  0  0
 74 75  1  0  0  0
 74 85  1  0  0  0
 75 87  1  0  0  0
 76 88  1  0  0  0
 77 78  2  0  0  0
 77 82  1  0  0  0
 77 86  1  0  0  0
 78149  1  0  0  0
 78150  1  0  0  0
 79 80  1  0  0  0
 79 81  1  0  0  0
 79151  1  0  0  0
 79152  1  0  0  0
 80 82  1  0  0  0
 80153  1  0  0  0
 80154  1  0  0  0
 81 86  1  0  0  0
 81155  1  0  0  0
 81156  1  0  0  0
 82157  1  0  0  0
 83158  1  0  0  0
 83159  1  0  0  0
 83160  1  0  0  0
 84161  1  0  0  0
 84162  1  0  0  0
 84 86  1  0  0  0
 85163  1  0  0  0
 86164  1  0  0  0
M  CHG  1  86   1
M  ISO  4   1 100  68 101  82 101  85 100
M  END
> <chiral flag>
0

> <version>
0

> <s_m_source_file>
/data/baiqing/PycharmProjects/Reinvent-master-3.2/result/LINK_invent/BTK/process_docking_weight1_custom_product_contain_oxygen_bond_distance_aromatic_linkinvent_7_9_3/rearranged_h_0047.sdf

> <i_m_source_file_index>
35

> <r_mmod_Potential_Energy-OPLS-2005>
4.01624059677124

> <r_mmod_Stretch_Energy-OPLS-2005>
129.29118347168

> <r_mmod_Bend_Energy-OPLS-2005>
161.896957397461

> <r_mmod_Torsional_Energy-OPLS-2005>
252.578323364258

> <r_mmod_Improper_Torsional_Energy-OPLS-2005>
4.9857702255249

> <r_mmod_Van_der_Waal_Energy-OPLS-2005>
162.231018066406

> <r_mmod_Electrostatic_Energy-OPLS-2005>
-334.615081787109

> <r_mmod_Solvation_Energy-OPLS-2005>
-447.039123535156

> <b_mmod_Minimization_Converged-OPLS-2005>
0

> <r_mmod_RMS_Derivative-OPLS-2005>
2.8340744972229

$$$$
35
                    3D
 Structure written by MMmdl.
161170  0  0  1  0            999 V2000
  -30.5884  -14.7779   20.4523 C   0  0  0  0  0  0
  -30.4452  -12.4790   19.4591 C   0  0  0  0  0  0
  -29.5125  -12.5070   18.2278 C   0  0  0  0  0  0
  -28.0401  -12.3215   18.6472 C   0  0  0  0  0  0
  -27.6403  -13.2273   19.8418 C   0  0  2  0  0  0
  -28.6908  -13.1715   20.9713 C   0  0  0  0  0  0
  -25.2518  -13.8181   20.5680 C   0  0  0  0  0  0
  -24.1810  -13.0432   20.9209 C   0  0  0  0  0  0
  -24.6395  -11.6909   20.8748 C   0  0  0  0  0  0
  -23.9068  -10.4291   21.0410 C   0  0  0  0  0  0
  -24.3620   -9.4205   21.9185 C   0  0  0  0  0  0
  -23.6296   -8.2241   22.0754 C   0  0  0  0  0  0
  -22.4278   -8.0279   21.3546 C   0  0  0  0  0  0
  -21.9913   -9.0252   20.4647 C   0  0  0  0  0  0
  -22.7242  -10.2131   20.3058 C   0  0  0  0  0  0
  -21.6853   -6.0734   22.5278 C   0  0  0  0  0  0
  -21.4014   -6.5638   23.8211 C   0  0  0  0  0  0
  -21.3662   -5.6792   24.9174 C   0  0  0  0  0  0
  -21.6046   -4.3054   24.7224 C   0  0  0  0  0  0
  -21.8820   -3.8145   23.4345 C   0  0  0  0  0  0
  -21.9193   -4.6962   22.3401 C   0  0  0  0  0  0
  -22.7831  -13.5217   21.1868 C   0  0  0  0  0  0
  -22.1661   -4.2147   21.0978 F   0  0  0  0  0  0
  -21.5630   -3.4537   25.7736 F   0  0  0  0  0  0
  -29.9843  -13.5412   20.3798 N   0  0  0  0  0  0
  -26.2937  -12.9375   20.3247 N   0  0  0  0  0  0
  -25.9322  -11.6526   20.5738 N   0  0  0  0  0  0
  -22.0474  -12.8213   22.0425 N   0  0  0  0  0  0
  -25.4188  -15.1910   20.4080 N   0  0  0  0  0  0
  -31.8001  -14.8786   20.2477 O   0  0  0  0  0  0
  -21.6642   -6.8876   21.4241 O   0  0  0  0  0  0
  -22.3514  -14.5520   20.6708 O   0  0  0  0  0  0
  -24.6386  -31.8539   23.1993 C   0  0  0  0  0  0
  -25.9195  -32.4745   23.8337 C   0  0  1  0  0  0
  -27.2061  -27.2095   20.1003 C   0  0  0  0  0  0
  -25.5973  -33.8547   24.2253 N   0  0  0  0  0  0
  -23.4341  -30.4843   21.5466 C   0  0  2  0  0  0
  -24.8732  -28.9380   20.1128 C   0  0  0  0  0  0
  -22.7536  -29.4613   22.4902 C   0  0  0  0  0  0
  -18.0301  -28.1392   22.8480 C   0  0  0  0  0  0
  -24.1493  -36.7275   23.2637 C   0  0  0  0  0  0
  -25.9901  -30.7518   21.3866 C   0  0  0  0  0  0
  -26.0559  -29.3749   20.7184 C   0  0  0  0  0  0
  -27.2198  -28.5267   20.6991 C   0  0  0  0  0  0
  -25.9710  -26.8596   19.5047 C   0  0  0  0  0  0
  -24.8395  -27.6871   19.4984 C   0  0  0  0  0  0
  -23.6518  -29.8327   20.1603 C   0  0  0  0  0  0
  -25.4121  -36.3059   24.0321 C   0  0  1  0  0  0
  -20.5911  -28.3713   23.1248 C   0  0  2  0  0  0
  -20.6791  -26.9426   22.5396 C   0  0  0  0  0  0
  -19.5759  -26.6385   21.5208 C   0  0  0  0  0  0
  -18.1944  -26.7931   22.1626 C   0  0  0  0  0  0
  -19.1557  -28.8870   23.2858 C   0  0  0  0  0  0
  -18.9473  -30.1469   23.8879 C   0  0  0  0  0  0
  -17.6470  -30.6589   24.0561 C   0  0  0  0  0  0
  -25.9070  -34.9432   23.5085 C   0  0  0  0  0  0
  -16.5361  -29.9083   23.6334 C   0  0  0  0  0  0
  -16.7286  -28.6503   23.0351 C   0  0  0  0  0  0
  -26.4529  -31.6578   25.0744 C   0  0  0  0  0  0
  -25.3730  -31.3743   26.1448 C   0  0  0  0  0  0
  -27.0379  -30.2983   24.6270 C   0  0  0  0  0  0
  -27.6073  -32.4325   25.7526 C   0  0  0  0  0  0
  -27.5578  -37.1797   24.8465 C   0  0  0  0  0  0
  -21.4238  -29.3060   22.3640 N   0  0  0  0  0  0
  -26.4289  -37.3764   23.9408 N   0  0  0  0  0  0
  -24.7079  -31.0475   22.0994 N   0  0  0  0  0  0
  -23.4220  -28.8129   23.2996 O   0  0  0  0  0  0
  -28.3186  -26.3059   20.1634 O   0  0  0  0  0  0
  -26.5634  -34.8911   22.4649 O   0  0  0  0  0  0
  -23.5526  -32.1383   23.7262 O   0  0  0  0  0  0
  -31.4090  -17.8716   18.8927 C   0  0  0  0  0  0
  -32.3037  -18.6053   18.1021 C   0  0  0  0  0  0
  -31.4385  -20.6412   19.0692 C   0  0  0  0  0  0
  -30.5094  -18.4742   19.8071 C   0  0  0  0  0  0
  -30.4245  -19.9634   19.7962 C   0  0  0  0  0  0
  -32.3510  -19.9931   18.2276 C   0  0  0  0  0  0
  -28.8937  -23.6322   20.4213 C   0  0  0  0  0  0
  -27.8875  -23.1374   17.7113 C   0  0  0  0  0  0
  -27.4715  -24.4004   18.4822 C   0  0  0  0  0  0
  -29.0437  -22.3460   18.3438 C   0  0  0  0  0  0
  -28.4982  -24.9170   19.5141 C   0  0  1  0  0  0
  -29.3901  -20.9906   20.4718 C   0  0  0  0  0  0
  -29.8484  -17.4134   20.7896 C   0  0  0  0  0  0
  -29.1032  -22.3790   19.8185 N   0  0  0  0  0  0
  -29.7506  -15.8872   20.5334 N   0  0  0  0  0  0
  -28.9831  -23.7749   21.6444 O   0  0  0  0  0  0
  -33.2580  -20.7113   17.5239 F   0  0  0  0  0  0
  -31.4808  -12.6307   19.1493 H   0  0  0  0  0  0
  -30.4138  -11.5055   19.9507 H   0  0  0  0  0  0
  -29.8009  -11.7310   17.5173 H   0  0  0  0  0  0
  -29.6260  -13.4576   17.7044 H   0  0  0  0  0  0
  -27.9066  -11.2741   18.9199 H   0  0  0  0  0  0
  -27.3793  -12.5003   17.7981 H   0  0  0  0  0  0
  -27.6268  -14.2448   19.4515 H   0  0  0  0  0  0
  -28.7394  -12.1740   21.4102 H   0  0  0  0  0  0
  -28.4233  -13.8499   21.7833 H   0  0  0  0  0  0
  -25.2766   -9.5680   22.4758 H   0  0  0  0  0  0
  -24.0005   -7.4633   22.7475 H   0  0  0  0  0  0
  -21.0843   -8.8774   19.8954 H   0  0  0  0  0  0
  -22.3702  -10.9671   19.6168 H   0  0  0  0  0  0
  -21.2004   -7.6147   23.9713 H   0  0  0  0  0  0
  -21.1485   -6.0522   25.9077 H   0  0  0  0  0  0
  -22.0597   -2.7607   23.2847 H   0  0  0  0  0  0
  -22.4092  -11.9881   22.4823 H   0  0  0  0  0  0
  -21.1090  -13.1237   22.2625 H   0  0  0  0  0  0
  -24.6446  -15.8378   20.5136 H   0  0  0  0  0  0
  -26.2517  -15.6335   20.0428 H   0  0  0  0  0  0
  -26.7258  -32.5368   23.1069 H   0  0  0  0  0  0
  -25.0119  -33.9677   25.0399 H   0  0  0  0  0  0
  -22.7327  -31.3096   21.4065 H   0  0  0  0  0  0
  -23.3757  -35.9604   23.3291 H   0  0  0  0  0  0
  -24.3583  -36.8909   22.2054 H   0  0  0  0  0  0
  -23.7246  -37.6472   23.6670 H   0  0  0  0  0  0
  -26.1407  -31.5149   20.6218 H   0  0  0  0  0  0
  -26.8639  -30.7917   22.0254 H   0  0  0  0  0  0
  -28.1248  -28.8647   21.1840 H   0  0  0  0  0  0
  -25.7573  -25.9195   19.0558 H   0  0  0  0  0  0
  -23.9278  -27.3343   19.0359 H   0  0  0  0  0  0
  -23.7874  -30.6154   19.4130 H   0  0  0  0  0  0
  -22.7657  -29.2783   19.8455 H   0  0  0  0  0  0
  -25.1303  -36.1897   25.0813 H   0  0  0  0  0  0
  -21.0003  -28.3291   24.1369 H   0  0  0  0  0  0
  -20.5696  -26.2323   23.3606 H   0  0  0  0  0  0
  -21.6656  -26.7448   22.1184 H   0  0  0  0  0  0
  -19.6921  -25.6293   21.1246 H   0  0  0  0  0  0
  -19.6690  -27.3188   20.6731 H   0  0  0  0  0  0
  -17.4209  -26.6671   21.4034 H   0  0  0  0  0  0
  -18.0351  -26.0079   22.9031 H   0  0  0  0  0  0
  -19.7948  -30.7292   24.2238 H   0  0  0  0  0  0
  -17.5022  -31.6265   24.5169 H   0  0  0  0  0  0
  -15.5361  -30.2977   23.7668 H   0  0  0  0  0  0
  -15.8689  -28.0817   22.7071 H   0  0  0  0  0  0
  -24.5918  -30.7079   25.7771 H   0  0  0  0  0  0
  -24.8909  -32.2916   26.4836 H   0  0  0  0  0  0
  -25.8030  -30.8945   27.0248 H   0  0  0  0  0  0
  -26.2979  -29.6725   24.1268 H   0  0  0  0  0  0
  -27.4006  -29.7256   25.4816 H   0  0  0  0  0  0
  -27.8885  -30.4236   23.9567 H   0  0  0  0  0  0
  -27.2677  -33.3637   26.2073 H   0  0  0  0  0  0
  -28.3905  -32.6864   25.0371 H   0  0  0  0  0  0
  -28.0715  -31.8468   26.5471 H   0  0  0  0  0  0
  -28.2589  -38.0100   24.7512 H   0  0  0  0  0  0
  -28.1081  -36.2629   24.6291 H   0  0  0  0  0  0
  -27.2294  -37.1443   25.8868 H   0  0  0  0  0  0
  -20.9429  -29.8804   21.6860 H   0  0  0  0  0  0
  -26.0160  -38.2833   24.1414 H   0  0  0  0  0  0
  -31.4675  -16.8015   18.8019 H   0  0  0  0  0  0
  -32.9884  -18.0983   17.4376 H   0  0  0  0  0  0
  -31.5185  -21.7154   19.1221 H   0  0  0  0  0  0
  -28.1685  -23.4060   16.6918 H   0  0  0  0  0  0
  -27.0175  -22.4871   17.6062 H   0  0  0  0  0  0
  -26.5684  -24.1110   19.0196 H   0  0  0  0  0  0
  -27.2296  -25.1723   17.7519 H   0  0  0  0  0  0
  -29.9756  -22.7659   17.9627 H   0  0  0  0  0  0
  -28.9964  -21.3221   17.9710 H   0  0  0  0  0  0
  -29.4057  -25.0883   18.9339 H   0  0  0  0  0  0
  -29.7298  -21.1622   21.4938 H   0  0  0  0  0  0
  -28.4329  -20.4774   20.5664 H   0  0  0  0  0  0
  -28.8308  -17.7588   20.9741 H   0  0  0  0  0  0
  -30.3605  -17.5281   21.7460 H   0  0  0  0  0  0
  -28.7890  -15.5862   20.5533 H   0  0  0  0  0  0
  1 25  1  0  0  0
  1 30  2  0  0  0
  1 85  1  0  0  0
  2  3  1  0  0  0
  2 25  1  0  0  0
  2 88  1  0  0  0
  2 89  1  0  0  0
  3  4  1  0  0  0
  3 90  1  0  0  0
  3 91  1  0  0  0
  4  5  1  0  0  0
  4 92  1  0  0  0
  4 93  1  0  0  0
  5  6  1  0  0  0
  5 26  1  0  0  0
  5 94  1  0  0  0
  6 25  1  0  0  0
  6 95  1  0  0  0
  6 96  1  0  0  0
  7  8  2  0  0  0
  7 26  1  0  0  0
  7 29  1  0  0  0
  8  9  1  0  0  0
  8 22  1  0  0  0
  9 10  1  0  0  0
  9 27  2  0  0  0
 10 11  2  0  0  0
 10 15  1  0  0  0
 11 12  1  0  0  0
 11 97  1  0  0  0
 12 13  2  0  0  0
 12 98  1  0  0  0
 13 14  1  0  0  0
 13 31  1  0  0  0
 14 15  2  0  0  0
 14 99  1  0  0  0
 15100  1  0  0  0
 16 17  2  0  0  0
 16 21  1  0  0  0
 16 31  1  0  0  0
 17 18  1  0  0  0
 17101  1  0  0  0
 18 19  2  0  0  0
 18102  1  0  0  0
 19 20  1  0  0  0
 19 24  1  0  0  0
 20 21  2  0  0  0
 20103  1  0  0  0
 21 23  1  0  0  0
 22 28  1  0  0  0
 22 32  2  0  0  0
 26 27  1  0  0  0
 28104  1  0  0  0
 28105  1  0  0  0
 29106  1  0  0  0
 29107  1  0  0  0
 33 34  1  0  0  0
 33 66  1  0  0  0
 33 70  2  0  0  0
 34 36  1  0  0  0
 34 59  1  0  0  0
 34108  1  0  0  0
 35 44  2  0  0  0
 35 45  1  0  0  0
 35 68  1  0  0  0
 36 56  1  0  0  0
 36109  1  0  0  0
 37 39  1  0  0  0
 37 47  1  0  0  0
 37 66  1  0  0  0
 37110  1  0  0  0
 38 43  2  0  0  0
 38 46  1  0  0  0
 38 47  1  0  0  0
 39 64  1  0  0  0
 39 67  2  0  0  0
 40 52  1  0  0  0
 40 53  2  0  0  0
 40 58  1  0  0  0
 41111  1  0  0  0
 41112  1  0  0  0
 41113  1  0  0  0
 41 48  1  0  0  0
 42 43  1  0  0  0
 42 66  1  0  0  0
 42114  1  0  0  0
 42115  1  0  0  0
 43 44  1  0  0  0
 44116  1  0  0  0
 45 46  2  0  0  0
 45117  1  0  0  0
 46118  1  0  0  0
 47119  1  0  0  0
 47120  1  0  0  0
 48 56  1  0  0  0
 48 65  1  0  0  0
 48121  1  0  0  0
 49 50  1  0  0  0
 49 53  1  0  0  0
 49 64  1  0  0  0
 49122  1  0  0  0
 50 51  1  0  0  0
 50123  1  0  0  0
 50124  1  0  0  0
 51 52  1  0  0  0
 51125  1  0  0  0
 51126  1  0  0  0
 52127  1  0  0  0
 52128  1  0  0  0
 53 54  1  0  0  0
 54 55  2  0  0  0
 54129  1  0  0  0
 55 57  1  0  0  0
 55130  1  0  0  0
 56 69  2  0  0  0
 57 58  2  0  0  0
 57131  1  0  0  0
 58132  1  0  0  0
 59 60  1  0  0  0
 59 61  1  0  0  0
 59 62  1  0  0  0
 60133  1  0  0  0
 60134  1  0  0  0
 60135  1  0  0  0
 61136  1  0  0  0
 61137  1  0  0  0
 61138  1  0  0  0
 62139  1  0  0  0
 62140  1  0  0  0
 62141  1  0  0  0
 63 65  1  0  0  0
 63142  1  0  0  0
 63143  1  0  0  0
 63144  1  0  0  0
 64145  1  0  0  0
 65146  1  0  0  0
 68 81  1  0  0  0
 71 72  2  0  0  0
 71 74  1  0  0  0
 71147  1  0  0  0
 72 76  1  0  0  0
 72148  1  0  0  0
 73 75  1  0  0  0
 73 76  2  0  0  0
 73149  1  0  0  0
 74 75  2  0  0  0
 74 83  1  0  0  0
 75 82  1  0  0  0
 76 87  1  0  0  0
 77 81  1  0  0  0
 77 84  1  0  0  0
 77 86  2  0  0  0
 78 79  1  0  0  0
 78 80  1  0  0  0
 78150  1  0  0  0
 78151  1  0  0  0
 79 81  1  0  0  0
 79152  1  0  0  0
 79153  1  0  0  0
 80 84  1  0  0  0
 80154  1  0  0  0
 80155  1  0  0  0
 81156  1  0  0  0
 82 84  1  0  0  0
 82157  1  0  0  0
 82158  1  0  0  0
 83 85  1  0  0  0
 83159  1  0  0  0
 83160  1  0  0  0
 85161  1  0  0  0
M  ISO  4   1 100  68 101  81 101  85 100
M  END
> <chiral flag>
0

> <version>
0

> <s_m_source_file>
/data/baiqing/PycharmProjects/Reinvent-master-3.2/result/LINK_invent/BTK/process_docking_weight1_custom_product_contain_oxygen_bond_distance_aromatic_linkinvent_7_9_3/rearranged_h_0047.sdf

> <i_m_source_file_index>
36

> <r_mmod_Potential_Energy-OPLS-2005>
370.281799316406

> <r_mmod_Stretch_Energy-OPLS-2005>
178.072570800781

> <r_mmod_Bend_Energy-OPLS-2005>
269.365814208984

> <r_mmod_Torsional_Energy-OPLS-2005>
245.444229125977

> <r_mmod_Improper_Torsional_Energy-OPLS-2005>
5.87536287307739

> <r_mmod_Van_der_Waal_Energy-OPLS-2005>
166.696197509766

> <r_mmod_Electrostatic_Energy-OPLS-2005>
-362.326507568359

> <r_mmod_Solvation_Energy-OPLS-2005>
-241.466156005859

> <b_mmod_Minimization_Converged-OPLS-2005>
0

> <r_mmod_RMS_Derivative-OPLS-2005>
0.465236455202103

$$$$
36
                    3D
 Structure written by MMmdl.
154162  0  0  1  0            999 V2000
  -30.6869  -14.5091   20.4455 C   0  0  0  0  0  0
  -30.4126  -12.2865   19.4397 C   0  0  0  0  0  0
  -29.5049  -12.4719   18.2039 C   0  0  0  0  0  0
  -28.0230  -12.3344   18.6206 C   0  0  0  0  0  0
  -27.6572  -13.2144   19.8508 C   0  0  2  0  0  0
  -28.7073  -13.0680   20.9820 C   0  0  0  0  0  0
  -25.2557  -13.8174   20.5662 C   0  0  0  0  0  0
  -24.1859  -13.0427   20.9209 C   0  0  0  0  0  0
  -24.6426  -11.6906   20.8722 C   0  0  0  0  0  0
  -23.9082  -10.4279   21.0388 C   0  0  0  0  0  0
  -24.3640   -9.4194   21.9157 C   0  0  0  0  0  0
  -23.6305   -8.2242   22.0745 C   0  0  0  0  0  0
  -22.4283   -8.0267   21.3563 C   0  0  0  0  0  0
  -21.9915   -9.0237   20.4666 C   0  0  0  0  0  0
  -22.7248  -10.2119   20.3046 C   0  0  0  0  0  0
  -21.6825   -6.0723   22.5292 C   0  0  0  0  0  0
  -21.4015   -6.5624   23.8230 C   0  0  0  0  0  0
  -21.3662   -5.6770   24.9179 C   0  0  0  0  0  0
  -21.6045   -4.3037   24.7222 C   0  0  0  0  0  0
  -21.8811   -3.8142   23.4340 C   0  0  0  0  0  0
  -21.9203   -4.6957   22.3408 C   0  0  0  0  0  0
  -22.7886  -13.5215   21.1894 C   0  0  0  0  0  0
  -22.1646   -4.2131   21.0983 F   0  0  0  0  0  0
  -21.5636   -3.4539   25.7745 F   0  0  0  0  0  0
  -30.0271  -13.3242   20.4032 N   0  0  0  0  0  0
  -26.3027  -12.9372   20.3303 N   0  0  0  0  0  0
  -25.9353  -11.6515   20.5733 N   0  0  0  0  0  0
  -22.0536  -12.8170   22.0420 N   0  0  0  0  0  0
  -25.4185  -15.1922   20.4099 N   0  0  0  0  0  0
  -31.8755  -14.6251   20.1462 O   0  0  0  0  0  0
  -21.6632   -6.8889   21.4256 O   0  0  0  0  0  0
  -22.3526  -14.5498   20.6707 O   0  0  0  0  0  0
  -24.6132  -31.8684   23.2137 C   0  0  0  0  0  0
  -25.9006  -32.4852   23.8435 C   0  0  1  0  0  0
  -27.2059  -27.4208   20.0872 C   0  0  0  0  0  0
  -25.5856  -33.8648   24.2363 N   0  0  0  0  0  0
  -23.4036  -30.5006   21.5520 C   0  0  2  0  0  0
  -24.8470  -28.9760   20.1007 C   0  0  0  0  0  0
  -22.7423  -29.4668   22.4937 C   0  0  0  0  0  0
  -18.0317  -28.1464   22.8387 C   0  0  0  0  0  0
  -24.1475  -36.7337   23.2640 C   0  0  0  0  0  0
  -25.9365  -30.8289   21.3712 C   0  0  0  0  0  0
  -26.0099  -29.4654   20.7107 C   0  0  0  0  0  0
  -27.1981  -28.6965   20.6997 C   0  0  0  0  0  0
  -26.0366  -26.9685   19.4386 C   0  0  0  0  0  0
  -24.8574  -27.7325   19.4515 C   0  0  0  0  0  0
  -23.6088  -29.8452   20.1605 C   0  0  0  0  0  0
  -25.4092  -36.3142   24.0359 C   0  0  1  0  0  0
  -20.5835  -28.3829   23.1389 C   0  0  2  0  0  0
  -20.6817  -26.9480   22.5754 C   0  0  0  0  0  0
  -19.5981  -26.6292   21.5381 C   0  0  0  0  0  0
  -18.2025  -26.8000   22.1484 C   0  0  0  0  0  0
  -19.1482  -28.8946   23.2910 C   0  0  0  0  0  0
  -18.9318  -30.1527   23.8975 C   0  0  0  0  0  0
  -17.6322  -30.6652   24.0579 C   0  0  0  0  0  0
  -25.9021  -34.9494   23.5168 C   0  0  0  0  0  0
  -16.5278  -29.9105   23.6191 C   0  0  0  0  0  0
  -16.7278  -28.6525   23.0145 C   0  0  0  0  0  0
  -26.4451  -31.6621   25.0750 C   0  0  0  0  0  0
  -25.3746  -31.3686   26.1533 C   0  0  0  0  0  0
  -27.0258  -30.3070   24.6086 C   0  0  0  0  0  0
  -27.6074  -32.4324   25.7498 C   0  0  0  0  0  0
  -27.5591  -37.1818   24.8472 C   0  0  0  0  0  0
  -21.4113  -29.3244   22.3875 N   0  0  0  0  0  0
  -26.4287  -37.3837   23.9426 N   0  0  0  0  0  0
  -24.6703  -31.0788   22.1060 N   0  0  0  0  0  0
  -23.4241  -28.8017   23.2801 O   0  0  0  0  0  0
  -28.3124  -26.6041   20.1336 O   0  0  0  0  0  0
  -26.5590  -34.8948   22.4743 O   0  0  0  0  0  0
  -23.5316  -32.1418   23.7518 O   0  0  0  0  0  0
  -29.7756  -19.3682   20.4740 C   0  0  0  0  0  0
  -27.6502  -20.3058   19.7730 C   0  0  0  0  0  0
  -28.1122  -17.9170   19.4589 C   0  0  0  0  0  0
  -28.9173  -20.4823   20.3630 C   0  0  0  0  0  0
  -29.3880  -18.0789   20.0415 C   0  0  0  0  0  0
  -27.2489  -19.0288   19.3257 C   0  0  0  0  0  0
  -29.0116  -24.2414   20.5287 C   0  0  0  0  0  0
  -29.4227  -21.8145   20.9230 C   0  0  0  0  0  0
  -30.3917  -16.9295   20.1170 C   0  0  0  0  0  0
  -28.0314  -25.3843   20.8566 C   0  0  0  0  0  0
  -28.5650  -22.9905   20.7492 N   0  0  0  0  0  0
  -29.9053  -15.6043   20.5311 N   0  0  0  0  0  0
  -30.1584  -24.4861   20.1450 O   0  0  0  0  0  0
  -26.0153  -18.8664   18.7773 F   0  0  0  0  0  0
  -31.4698  -12.3273   19.1720 H   0  0  0  0  0  0
  -30.2477  -11.3001   19.8779 H   0  0  0  0  0  0
  -29.7474  -11.7301   17.4400 H   0  0  0  0  0  0
  -29.6783  -13.4460   17.7478 H   0  0  0  0  0  0
  -27.8578  -11.2880   18.8676 H   0  0  0  0  0  0
  -27.3651  -12.5570   17.7770 H   0  0  0  0  0  0
  -27.6683  -14.2438   19.4885 H   0  0  0  0  0  0
  -28.6975  -12.0656   21.4063 H   0  0  0  0  0  0
  -28.5053  -13.7564   21.8071 H   0  0  0  0  0  0
  -25.2807   -9.5615   22.4694 H   0  0  0  0  0  0
  -23.9988   -7.4622   22.7467 H   0  0  0  0  0  0
  -21.0832   -8.8787   19.8976 H   0  0  0  0  0  0
  -22.3744  -10.9648   19.6131 H   0  0  0  0  0  0
  -21.1989   -7.6137   23.9719 H   0  0  0  0  0  0
  -21.1491   -6.0515   25.9090 H   0  0  0  0  0  0
  -22.0598   -2.7602   23.2864 H   0  0  0  0  0  0
  -22.4137  -11.9847   22.4827 H   0  0  0  0  0  0
  -21.1172  -13.1206   22.2673 H   0  0  0  0  0  0
  -24.6396  -15.8338   20.5089 H   0  0  0  0  0  0
  -26.2519  -15.6472   20.0642 H   0  0  0  0  0  0
  -26.7058  -32.5568   23.1196 H   0  0  0  0  0  0
  -25.0012  -33.9851   25.0503 H   0  0  0  0  0  0
  -22.7018  -31.3238   21.4151 H   0  0  0  0  0  0
  -23.3755  -35.9657   23.3301 H   0  0  0  0  0  0
  -24.3567  -36.8938   22.2055 H   0  0  0  0  0  0
  -23.7201  -37.6544   23.6638 H   0  0  0  0  0  0
  -26.0461  -31.6026   20.6103 H   0  0  0  0  0  0
  -26.8279  -30.8858   21.9812 H   0  0  0  0  0  0
  -28.0949  -29.0572   21.1871 H   0  0  0  0  0  0
  -26.0308  -26.0161   18.9243 H   0  0  0  0  0  0
  -23.9734  -27.3657   18.9492 H   0  0  0  0  0  0
  -23.7165  -30.6192   19.3986 H   0  0  0  0  0  0
  -22.7300  -29.2645   19.8693 H   0  0  0  0  0  0
  -25.1250  -36.2052   25.0855 H   0  0  0  0  0  0
  -20.9854  -28.3542   24.1539 H   0  0  0  0  0  0
  -20.5449  -26.2621   23.4147 H   0  0  0  0  0  0
  -21.6845  -26.7313   22.1940 H   0  0  0  0  0  0
  -19.7206  -25.6125   21.1564 H   0  0  0  0  0  0
  -19.7208  -27.2986   20.6860 H   0  0  0  0  0  0
  -18.0120  -26.0244   22.8904 H   0  0  0  0  0  0
  -17.4484  -26.6732   21.3667 H   0  0  0  0  0  0
  -19.7727  -30.7355   24.2380 H   0  0  0  0  0  0
  -17.4789  -31.6303   24.5231 H   0  0  0  0  0  0
  -15.5241  -30.2981   23.7421 H   0  0  0  0  0  0
  -15.8733  -28.0828   22.6695 H   0  0  0  0  0  0
  -24.5960  -30.6995   25.7885 H   0  0  0  0  0  0
  -24.8892  -32.2807   26.5017 H   0  0  0  0  0  0
  -25.8153  -30.8863   27.0267 H   0  0  0  0  0  0
  -26.2773  -29.6884   24.1147 H   0  0  0  0  0  0
  -27.4047  -29.7286   25.4513 H   0  0  0  0  0  0
  -27.8612  -30.4414   23.9218 H   0  0  0  0  0  0
  -27.2748  -33.3632   26.2114 H   0  0  0  0  0  0
  -28.3868  -32.6860   25.0301 H   0  0  0  0  0  0
  -28.0767  -31.8403   26.5368 H   0  0  0  0  0  0
  -28.2610  -38.0111   24.7526 H   0  0  0  0  0  0
  -28.1076  -36.2652   24.6276 H   0  0  0  0  0  0
  -27.2311  -37.1451   25.8872 H   0  0  0  0  0  0
  -20.9204  -29.9504   21.7658 H   0  0  0  0  0  0
  -26.0192  -38.2928   24.1448 H   0  0  0  0  0  0
  -30.7523  -19.5197   20.9103 H   0  0  0  0  0  0
  -26.9616  -21.1343   19.6667 H   0  0  0  0  0  0
  -27.8047  -16.9564   19.0839 H   0  0  0  0  0  0
  -30.4297  -22.0005   20.5377 H   0  0  0  0  0  0
  -29.5315  -21.6705   21.9996 H   0  0  0  0  0  0
  -31.2227  -17.2210   20.7648 H   0  0  0  0  0  0
  -30.8187  -16.8488   19.1166 H   0  0  0  0  0  0
  -28.0932  -25.5862   21.9271 H   0  0  0  0  0  0
  -27.0260  -25.0011   20.6845 H   0  0  0  0  0  0
  -27.5996  -22.8861   21.0381 H   0  0  0  0  0  0
  -28.9302  -15.4960   20.7741 H   0  0  0  0  0  0
  1 25  1  0  0  0
  1 30  2  0  0  0
  1 82  1  0  0  0
  2  3  1  0  0  0
  2 25  1  0  0  0
  2 85  1  0  0  0
  2 86  1  0  0  0
  3  4  1  0  0  0
  3 87  1  0  0  0
  3 88  1  0  0  0
  4  5  1  0  0  0
  4 89  1  0  0  0
  4 90  1  0  0  0
  5  6  1  0  0  0
  5 26  1  0  0  0
  5 91  1  0  0  0
  6 25  1  0  0  0
  6 92  1  0  0  0
  6 93  1  0  0  0
  7  8  2  0  0  0
  7 26  1  0  0  0
  7 29  1  0  0  0
  8  9  1  0  0  0
  8 22  1  0  0  0
  9 10  1  0  0  0
  9 27  2  0  0  0
 10 11  2  0  0  0
 10 15  1  0  0  0
 11 12  1  0  0  0
 11 94  1  0  0  0
 12 13  2  0  0  0
 12 95  1  0  0  0
 13 14  1  0  0  0
 13 31  1  0  0  0
 14 15  2  0  0  0
 14 96  1  0  0  0
 15 97  1  0  0  0
 16 17  2  0  0  0
 16 21  1  0  0  0
 16 31  1  0  0  0
 17 18  1  0  0  0
 17 98  1  0  0  0
 18 19  2  0  0  0
 18 99  1  0  0  0
 19 20  1  0  0  0
 19 24  1  0  0  0
 20 21  2  0  0  0
 20100  1  0  0  0
 21 23  1  0  0  0
 22 28  1  0  0  0
 22 32  2  0  0  0
 26 27  1  0  0  0
 28101  1  0  0  0
 28102  1  0  0  0
 29103  1  0  0  0
 29104  1  0  0  0
 33 34  1  0  0  0
 33 66  1  0  0  0
 33 70  2  0  0  0
 34 36  1  0  0  0
 34 59  1  0  0  0
 34105  1  0  0  0
 35 44  2  0  0  0
 35 45  1  0  0  0
 35 68  1  0  0  0
 36 56  1  0  0  0
 36106  1  0  0  0
 37 39  1  0  0  0
 37 47  1  0  0  0
 37 66  1  0  0  0
 37107  1  0  0  0
 38 43  2  0  0  0
 38 46  1  0  0  0
 38 47  1  0  0  0
 39 64  1  0  0  0
 39 67  2  0  0  0
 40 52  1  0  0  0
 40 53  2  0  0  0
 40 58  1  0  0  0
 41108  1  0  0  0
 41109  1  0  0  0
 41110  1  0  0  0
 41 48  1  0  0  0
 42 43  1  0  0  0
 42 66  1  0  0  0
 42111  1  0  0  0
 42112  1  0  0  0
 43 44  1  0  0  0
 44113  1  0  0  0
 45 46  2  0  0  0
 45114  1  0  0  0
 46115  1  0  0  0
 47116  1  0  0  0
 47117  1  0  0  0
 48 56  1  0  0  0
 48 65  1  0  0  0
 48118  1  0  0  0
 49 50  1  0  0  0
 49 53  1  0  0  0
 49 64  1  0  0  0
 49119  1  0  0  0
 50 51  1  0  0  0
 50120  1  0  0  0
 50121  1  0  0  0
 51 52  1  0  0  0
 51122  1  0  0  0
 51123  1  0  0  0
 52124  1  0  0  0
 52125  1  0  0  0
 53 54  1  0  0  0
 54 55  2  0  0  0
 54126  1  0  0  0
 55 57  1  0  0  0
 55127  1  0  0  0
 56 69  2  0  0  0
 57 58  2  0  0  0
 57128  1  0  0  0
 58129  1  0  0  0
 59 60  1  0  0  0
 59 61  1  0  0  0
 59 62  1  0  0  0
 60130  1  0  0  0
 60131  1  0  0  0
 60132  1  0  0  0
 61133  1  0  0  0
 61134  1  0  0  0
 61135  1  0  0  0
 62136  1  0  0  0
 62137  1  0  0  0
 62138  1  0  0  0
 63 65  1  0  0  0
 63139  1  0  0  0
 63140  1  0  0  0
 63141  1  0  0  0
 64142  1  0  0  0
 65143  1  0  0  0
 68 80  1  0  0  0
 71 74  2  0  0  0
 71 75  1  0  0  0
 71144  1  0  0  0
 72 74  1  0  0  0
 72 76  2  0  0  0
 72145  1  0  0  0
 73 75  2  0  0  0
 73 76  1  0  0  0
 73146  1  0  0  0
 74 78  1  0  0  0
 75 79  1  0  0  0
 76 84  1  0  0  0
 77 80  1  0  0  0
 77 81  1  0  0  0
 77 83  2  0  0  0
 78 81  1  0  0  0
 78147  1  0  0  0
 78148  1  0  0  0
 79 82  1  0  0  0
 79149  1  0  0  0
 79150  1  0  0  0
 80151  1  0  0  0
 80152  1  0  0  0
 81153  1  0  0  0
 82154  1  0  0  0
M  ISO  4   1 100  68 101  80 101  82 100
M  END
> <chiral flag>
0

> <version>
0

> <s_m_source_file>
/data/baiqing/PycharmProjects/Reinvent-master-3.2/result/LINK_invent/BTK/process_docking_weight1_custom_product_contain_oxygen_bond_distance_aromatic_linkinvent_7_9_3/rearranged_h_0047.sdf

> <i_m_source_file_index>
37

> <r_mmod_Potential_Energy-OPLS-2005>
-146.040969848633

> <r_mmod_Stretch_Energy-OPLS-2005>
36.2747459411621

> <r_mmod_Bend_Energy-OPLS-2005>
95.9387588500977

> <r_mmod_Torsional_Energy-OPLS-2005>
229.177795410156

> <r_mmod_Improper_Torsional_Energy-OPLS-2005>
8.79991245269775

> <r_mmod_Van_der_Waal_Energy-OPLS-2005>
152.193893432617

> <r_mmod_Electrostatic_Energy-OPLS-2005>
-455.143859863281

> <r_mmod_Solvation_Energy-OPLS-2005>
-241.2431640625

> <b_mmod_Minimization_Converged-OPLS-2005>
0

> <r_mmod_RMS_Derivative-OPLS-2005>
8.23917579650879

$$$$
37
                    3D
 Structure written by MMmdl.
161170  0  0  1  0            999 V2000
  -30.6084  -14.7287   20.4946 C   0  0  0  0  0  0
  -30.4418  -12.4483   19.4881 C   0  0  0  0  0  0
  -29.5228  -12.5260   18.2471 C   0  0  0  0  0  0
  -28.0476  -12.3507   18.6516 C   0  0  0  0  0  0
  -27.6546  -13.2309   19.8672 C   0  0  2  0  0  0
  -28.6942  -13.1321   21.0072 C   0  0  0  0  0  0
  -25.2572  -13.8197   20.5699 C   0  0  0  0  0  0
  -24.1847  -13.0446   20.9180 C   0  0  0  0  0  0
  -24.6426  -11.6918   20.8735 C   0  0  0  0  0  0
  -23.9097  -10.4305   21.0404 C   0  0  0  0  0  0
  -24.3636   -9.4215   21.9185 C   0  0  0  0  0  0
  -23.6298   -8.2261   22.0767 C   0  0  0  0  0  0
  -22.4281   -8.0307   21.3550 C   0  0  0  0  0  0
  -21.9915   -9.0290   20.4661 C   0  0  0  0  0  0
  -22.7255  -10.2164   20.3062 C   0  0  0  0  0  0
  -21.6867   -6.0743   22.5275 C   0  0  0  0  0  0
  -21.4016   -6.5641   23.8204 C   0  0  0  0  0  0
  -21.3654   -5.6797   24.9166 C   0  0  0  0  0  0
  -21.6043   -4.3064   24.7213 C   0  0  0  0  0  0
  -21.8821   -3.8145   23.4336 C   0  0  0  0  0  0
  -21.9191   -4.6969   22.3389 C   0  0  0  0  0  0
  -22.7863  -13.5241   21.1822 C   0  0  0  0  0  0
  -22.1661   -4.2150   21.0964 F   0  0  0  0  0  0
  -21.5625   -3.4532   25.7726 F   0  0  0  0  0  0
  -30.0038  -13.4914   20.4476 N   0  0  0  0  0  0
  -26.3013  -12.9407   20.3338 N   0  0  0  0  0  0
  -25.9372  -11.6545   20.5764 N   0  0  0  0  0  0
  -22.0500  -12.8246   22.0384 N   0  0  0  0  0  0
  -25.4294  -15.1921   20.4134 N   0  0  0  0  0  0
  -31.7539  -14.8689   20.0594 O   0  0  0  0  0  0
  -21.6655   -6.8895   21.4244 O   0  0  0  0  0  0
  -22.3551  -14.5535   20.6659 O   0  0  0  0  0  0
  -24.6321  -31.8536   23.2009 C   0  0  0  0  0  0
  -25.9150  -32.4749   23.8341 C   0  0  1  0  0  0
  -27.2021  -27.2436   20.1425 C   0  0  0  0  0  0
  -25.5941  -33.8553   24.2262 N   0  0  0  0  0  0
  -23.4306  -30.4791   21.5416 C   0  0  2  0  0  0
  -24.8801  -28.9415   20.0963 C   0  0  0  0  0  0
  -22.7509  -29.4582   22.4866 C   0  0  0  0  0  0
  -18.0293  -28.1401   22.8465 C   0  0  0  0  0  0
  -24.1493  -36.7285   23.2640 C   0  0  0  0  0  0
  -25.9788  -30.7610   21.3903 C   0  0  0  0  0  0
  -26.0491  -29.3865   20.7279 C   0  0  0  0  0  0
  -27.2129  -28.5477   20.7475 C   0  0  0  0  0  0
  -26.0314  -26.9078   19.4220 C   0  0  0  0  0  0
  -24.8806  -27.7140   19.4245 C   0  0  0  0  0  0
  -23.6506  -29.8265   20.1519 C   0  0  0  0  0  0
  -25.4120  -36.3061   24.0318 C   0  0  1  0  0  0
  -20.5899  -28.3704   23.1253 C   0  0  2  0  0  0
  -20.6784  -26.9416   22.5394 C   0  0  0  0  0  0
  -19.5767  -26.6376   21.5198 C   0  0  0  0  0  0
  -18.1944  -26.7932   22.1609 C   0  0  0  0  0  0
  -19.1546  -28.8873   23.2853 C   0  0  0  0  0  0
  -18.9465  -30.1466   23.8886 C   0  0  0  0  0  0
  -17.6468  -30.6594   24.0567 C   0  0  0  0  0  0
  -25.9054  -34.9432   23.5092 C   0  0  0  0  0  0
  -16.5363  -29.9092   23.6344 C   0  0  0  0  0  0
  -16.7273  -28.6516   23.0348 C   0  0  0  0  0  0
  -26.4511  -31.6579   25.0740 C   0  0  0  0  0  0
  -25.3727  -31.3758   26.1459 C   0  0  0  0  0  0
  -27.0367  -30.2981   24.6274 C   0  0  0  0  0  0
  -27.6060  -32.4324   25.7518 C   0  0  0  0  0  0
  -27.5573  -37.1805   24.8460 C   0  0  0  0  0  0
  -21.4205  -29.3048   22.3621 N   0  0  0  0  0  0
  -26.4293  -37.3758   23.9386 N   0  0  0  0  0  0
  -24.6987  -31.0489   22.1008 N   0  0  0  0  0  0
  -23.4187  -28.8100   23.2957 O   0  0  0  0  0  0
  -28.2358  -26.2780   20.2832 O   0  0  0  0  0  0
  -26.5621  -34.8907   22.4656 O   0  0  0  0  0  0
  -23.5462  -32.1372   23.7287 O   0  0  0  0  0  0
  -29.0087  -18.3651   18.3018 C   0  0  0  0  0  0
  -29.3358  -17.1659   18.9582 C   0  0  0  0  0  0
  -29.0555  -19.6187   18.9501 C   0  0  0  0  0  0
  -29.4281  -19.7138   20.3184 C   0  0  0  0  0  0
  -29.7014  -17.1492   20.3186 C   0  0  0  0  0  0
  -29.7269  -18.4445   20.9919 C   0  0  0  0  0  0
  -28.9916  -23.6739   20.4382 C   0  0  0  0  0  0
  -26.2271  -23.0316   21.0041 C   0  0  0  0  0  0
  -26.7225  -24.4580   21.2702 C   0  0  0  0  0  0
  -27.3305  -22.0072   21.3024 C   0  0  0  0  0  0
  -27.8530  -24.8034   20.2705 C   0  0  1  0  0  0
  -28.7202  -20.8472   18.1204 C   0  0  0  0  0  0
  -29.6225  -21.1669   20.9754 C   0  0  0  0  0  0
  -28.6628  -22.3492   20.7725 N   0  0  0  0  0  0
  -29.8824  -15.8177   20.9472 N   0  0  0  0  0  0
  -30.1623  -23.9969   20.2144 O   0  0  0  0  0  0
  -30.1450  -18.4602   22.6691 Cl  0  0  0  0  0  0
  -31.4852  -12.5722   19.1923 H   0  0  0  0  0  0
  -30.3830  -11.4622   19.9515 H   0  0  0  0  0  0
  -29.8064  -11.7643   17.5208 H   0  0  0  0  0  0
  -29.6562  -13.4894   17.7498 H   0  0  0  0  0  0
  -27.8983  -11.2970   18.8942 H   0  0  0  0  0  0
  -27.3957  -12.5622   17.8032 H   0  0  0  0  0  0
  -27.6609  -14.2614   19.5095 H   0  0  0  0  0  0
  -28.7206  -12.1205   21.4142 H   0  0  0  0  0  0
  -28.4261  -13.7870   21.8371 H   0  0  0  0  0  0
  -25.2788   -9.5691   22.4762 H   0  0  0  0  0  0
  -23.9996   -7.4650   22.7502 H   0  0  0  0  0  0
  -21.0835   -8.8830   19.8981 H   0  0  0  0  0  0
  -22.3719  -10.9709   19.6180 H   0  0  0  0  0  0
  -21.2024   -7.6149   23.9706 H   0  0  0  0  0  0
  -21.1469   -6.0528   25.9071 H   0  0  0  0  0  0
  -22.0607   -2.7602   23.2842 H   0  0  0  0  0  0
  -22.4076  -11.9887   22.4762 H   0  0  0  0  0  0
  -21.1146  -13.1348   22.2622 H   0  0  0  0  0  0
  -24.6658  -15.8501   20.5282 H   0  0  0  0  0  0
  -26.2831  -15.6303   20.0929 H   0  0  0  0  0  0
  -26.7217  -32.5388   23.1077 H   0  0  0  0  0  0
  -25.0097  -33.9686   25.0412 H   0  0  0  0  0  0
  -22.7300  -31.3038   21.4008 H   0  0  0  0  0  0
  -23.3730  -35.9644   23.3328 H   0  0  0  0  0  0
  -24.3575  -36.8877   22.2047 H   0  0  0  0  0  0
  -23.7275  -37.6507   23.6651 H   0  0  0  0  0  0
  -26.1267  -31.5243   20.6251 H   0  0  0  0  0  0
  -26.8537  -30.8036   22.0267 H   0  0  0  0  0  0
  -28.0926  -28.8661   21.2898 H   0  0  0  0  0  0
  -25.9526  -25.9784   18.8824 H   0  0  0  0  0  0
  -23.9985  -27.3840   18.8939 H   0  0  0  0  0  0
  -23.7732  -30.6110   19.4036 H   0  0  0  0  0  0
  -22.7698  -29.2608   19.8424 H   0  0  0  0  0  0
  -25.1302  -36.1921   25.0810 H   0  0  0  0  0  0
  -20.9998  -28.3302   24.1377 H   0  0  0  0  0  0
  -20.5685  -26.2311   23.3597 H   0  0  0  0  0  0
  -21.6653  -26.7430   22.1206 H   0  0  0  0  0  0
  -19.6928  -25.6282   21.1239 H   0  0  0  0  0  0
  -19.6719  -27.3174   20.6725 H   0  0  0  0  0  0
  -17.4204  -26.6661   21.4026 H   0  0  0  0  0  0
  -18.0351  -26.0088   22.9022 H   0  0  0  0  0  0
  -19.7943  -30.7276   24.2249 H   0  0  0  0  0  0
  -17.5027  -31.6278   24.5157 H   0  0  0  0  0  0
  -15.5366  -30.2996   23.7673 H   0  0  0  0  0  0
  -15.8666  -28.0831   22.7075 H   0  0  0  0  0  0
  -24.5889  -30.7125   25.7784 H   0  0  0  0  0  0
  -24.8948  -32.2952   26.4857 H   0  0  0  0  0  0
  -25.8033  -30.8941   27.0249 H   0  0  0  0  0  0
  -26.2980  -29.6719   24.1268 H   0  0  0  0  0  0
  -27.3980  -29.7262   25.4829 H   0  0  0  0  0  0
  -27.8881  -30.4223   23.9583 H   0  0  0  0  0  0
  -27.2657  -33.3613   26.2109 H   0  0  0  0  0  0
  -28.3877  -32.6904   25.0359 H   0  0  0  0  0  0
  -28.0733  -31.8447   26.5432 H   0  0  0  0  0  0
  -28.2606  -38.0085   24.7465 H   0  0  0  0  0  0
  -28.1051  -36.2611   24.6340 H   0  0  0  0  0  0
  -27.2280  -37.1520   25.8863 H   0  0  0  0  0  0
  -20.9376  -29.8798   21.6860 H   0  0  0  0  0  0
  -26.0169  -38.2830   24.1380 H   0  0  0  0  0  0
  -28.7180  -18.3148   17.2615 H   0  0  0  0  0  0
  -29.2654  -16.2433   18.4008 H   0  0  0  0  0  0
  -25.9084  -22.9348   19.9642 H   0  0  0  0  0  0
  -25.3467  -22.8140   21.6109 H   0  0  0  0  0  0
  -27.0816  -24.5485   22.2960 H   0  0  0  0  0  0
  -25.8709  -25.1300   21.1997 H   0  0  0  0  0  0
  -27.0209  -21.0282   20.9342 H   0  0  0  0  0  0
  -27.4208  -21.9058   22.3854 H   0  0  0  0  0  0
  -27.4943  -24.6083   19.2610 H   0  0  0  0  0  0
  -28.5942  -20.6014   17.0661 H   0  0  0  0  0  0
  -29.5134  -21.5914   18.1834 H   0  0  0  0  0  0
  -27.7862  -21.2967   18.4563 H   0  0  0  0  0  0
  -30.6205  -21.4865   20.6766 H   0  0  0  0  0  0
  -29.7051  -21.0379   22.0541 H   0  0  0  0  0  0
  -29.1301  -15.5630   21.5703 H   0  0  0  0  0  0
  1 25  1  0  0  0
  1 30  2  0  0  0
  1 85  1  0  0  0
  2  3  1  0  0  0
  2 25  1  0  0  0
  2 88  1  0  0  0
  2 89  1  0  0  0
  3  4  1  0  0  0
  3 90  1  0  0  0
  3 91  1  0  0  0
  4  5  1  0  0  0
  4 92  1  0  0  0
  4 93  1  0  0  0
  5  6  1  0  0  0
  5 26  1  0  0  0
  5 94  1  0  0  0
  6 25  1  0  0  0
  6 95  1  0  0  0
  6 96  1  0  0  0
  7  8  2  0  0  0
  7 26  1  0  0  0
  7 29  1  0  0  0
  8  9  1  0  0  0
  8 22  1  0  0  0
  9 10  1  0  0  0
  9 27  2  0  0  0
 10 11  2  0  0  0
 10 15  1  0  0  0
 11 12  1  0  0  0
 11 97  1  0  0  0
 12 13  2  0  0  0
 12 98  1  0  0  0
 13 14  1  0  0  0
 13 31  1  0  0  0
 14 15  2  0  0  0
 14 99  1  0  0  0
 15100  1  0  0  0
 16 17  2  0  0  0
 16 21  1  0  0  0
 16 31  1  0  0  0
 17 18  1  0  0  0
 17101  1  0  0  0
 18 19  2  0  0  0
 18102  1  0  0  0
 19 20  1  0  0  0
 19 24  1  0  0  0
 20 21  2  0  0  0
 20103  1  0  0  0
 21 23  1  0  0  0
 22 28  1  0  0  0
 22 32  2  0  0  0
 26 27  1  0  0  0
 28104  1  0  0  0
 28105  1  0  0  0
 29106  1  0  0  0
 29107  1  0  0  0
 33 34  1  0  0  0
 33 66  1  0  0  0
 33 70  2  0  0  0
 34 36  1  0  0  0
 34 59  1  0  0  0
 34108  1  0  0  0
 35 44  2  0  0  0
 35 45  1  0  0  0
 35 68  1  0  0  0
 36 56  1  0  0  0
 36109  1  0  0  0
 37 39  1  0  0  0
 37 47  1  0  0  0
 37 66  1  0  0  0
 37110  1  0  0  0
 38 43  2  0  0  0
 38 46  1  0  0  0
 38 47  1  0  0  0
 39 64  1  0  0  0
 39 67  2  0  0  0
 40 52  1  0  0  0
 40 53  2  0  0  0
 40 58  1  0  0  0
 41111  1  0  0  0
 41112  1  0  0  0
 41113  1  0  0  0
 41 48  1  0  0  0
 42 43  1  0  0  0
 42 66  1  0  0  0
 42114  1  0  0  0
 42115  1  0  0  0
 43 44  1  0  0  0
 44116  1  0  0  0
 45 46  2  0  0  0
 45117  1  0  0  0
 46118  1  0  0  0
 47119  1  0  0  0
 47120  1  0  0  0
 48 56  1  0  0  0
 48 65  1  0  0  0
 48121  1  0  0  0
 49 50  1  0  0  0
 49 53  1  0  0  0
 49 64  1  0  0  0
 49122  1  0  0  0
 50 51  1  0  0  0
 50123  1  0  0  0
 50124  1  0  0  0
 51 52  1  0  0  0
 51125  1  0  0  0
 51126  1  0  0  0
 52127  1  0  0  0
 52128  1  0  0  0
 53 54  1  0  0  0
 54 55  2  0  0  0
 54129  1  0  0  0
 55 57  1  0  0  0
 55130  1  0  0  0
 56 69  2  0  0  0
 57 58  2  0  0  0
 57131  1  0  0  0
 58132  1  0  0  0
 59 60  1  0  0  0
 59 61  1  0  0  0
 59 62  1  0  0  0
 60133  1  0  0  0
 60134  1  0  0  0
 60135  1  0  0  0
 61136  1  0  0  0
 61137  1  0  0  0
 61138  1  0  0  0
 62139  1  0  0  0
 62140  1  0  0  0
 62141  1  0  0  0
 63 65  1  0  0  0
 63142  1  0  0  0
 63143  1  0  0  0
 63144  1  0  0  0
 64145  1  0  0  0
 65146  1  0  0  0
 68 81  1  0  0  0
 71 72  2  0  0  0
 71 73  1  0  0  0
 71147  1  0  0  0
 72 75  1  0  0  0
 72148  1  0  0  0
 73 74  2  0  0  0
 73 82  1  0  0  0
 74 76  1  0  0  0
 74 83  1  0  0  0
 75 76  2  0  0  0
 75 85  1  0  0  0
 76 87  1  0  0  0
 77 81  1  0  0  0
 77 84  1  0  0  0
 77 86  2  0  0  0
 78 79  1  0  0  0
 78 80  1  0  0  0
 78149  1  0  0  0
 78150  1  0  0  0
 79 81  1  0  0  0
 79151  1  0  0  0
 79152  1  0  0  0
 80 84  1  0  0  0
 80153  1  0  0  0
 80154  1  0  0  0
 81155  1  0  0  0
 82156  1  0  0  0
 82157  1  0  0  0
 82158  1  0  0  0
 83 84  1  0  0  0
 83159  1  0  0  0
 83160  1  0  0  0
 85161  1  0  0  0
M  ISO  4   1 100  68 101  81 101  85 100
M  END
> <chiral flag>
0

> <version>
0

> <s_m_source_file>
/data/baiqing/PycharmProjects/Reinvent-master-3.2/result/LINK_invent/BTK/process_docking_weight1_custom_product_contain_oxygen_bond_distance_aromatic_linkinvent_7_9_3/rearranged_h_0047.sdf

> <i_m_source_file_index>
38

> <r_mmod_Potential_Energy-OPLS-2005>
254.194869995117

> <r_mmod_Stretch_Energy-OPLS-2005>
140.074996948242

> <r_mmod_Bend_Energy-OPLS-2005>
168.230331420898

> <r_mmod_Torsional_Energy-OPLS-2005>
271.230133056641

> <r_mmod_Improper_Torsional_Energy-OPLS-2005>
5.844801902771

> <r_mmod_Van_der_Waal_Energy-OPLS-2005>
150.192474365234

> <r_mmod_Electrostatic_Energy-OPLS-2005>
-346.175567626953

> <r_mmod_Solvation_Energy-OPLS-2005>
-232.103546142578

> <b_mmod_Minimization_Converged-OPLS-2005>
0

> <r_mmod_RMS_Derivative-OPLS-2005>
2.98550605773926

$$$$
38
                    3D
 Structure written by MMmdl.
161170  0  0  1  0            999 V2000
  -30.6037  -14.7522   20.4475 C   0  0  0  0  0  0
  -30.4289  -12.4568   19.4713 C   0  0  0  0  0  0
  -29.5049  -12.5016   18.2347 C   0  0  0  0  0  0
  -28.0341  -12.3194   18.6552 C   0  0  0  0  0  0
  -27.6378  -13.2284   19.8493 C   0  0  2  0  0  0
  -28.6828  -13.1724   20.9848 C   0  0  0  0  0  0
  -25.2485  -13.8173   20.5676 C   0  0  0  0  0  0
  -24.1788  -13.0427   20.9224 C   0  0  0  0  0  0
  -24.6381  -11.6908   20.8780 C   0  0  0  0  0  0
  -23.9068  -10.4282   21.0427 C   0  0  0  0  0  0
  -24.3620   -9.4197   21.9202 C   0  0  0  0  0  0
  -23.6292   -8.2235   22.0768 C   0  0  0  0  0  0
  -22.4277   -8.0279   21.3554 C   0  0  0  0  0  0
  -21.9910   -9.0253   20.4652 C   0  0  0  0  0  0
  -22.7245  -10.2129   20.3066 C   0  0  0  0  0  0
  -21.6847   -6.0732   22.5278 C   0  0  0  0  0  0
  -21.4010   -6.5640   23.8211 C   0  0  0  0  0  0
  -21.3658   -5.6798   24.9177 C   0  0  0  0  0  0
  -21.6041   -4.3056   24.7225 C   0  0  0  0  0  0
  -21.8825   -3.8144   23.4346 C   0  0  0  0  0  0
  -21.9191   -4.6960   22.3397 C   0  0  0  0  0  0
  -22.7815  -13.5220   21.1874 C   0  0  0  0  0  0
  -22.1662   -4.2146   21.0975 F   0  0  0  0  0  0
  -21.5625   -3.4539   25.7735 F   0  0  0  0  0  0
  -29.9817  -13.5237   20.3977 N   0  0  0  0  0  0
  -26.2913  -12.9379   20.3281 N   0  0  0  0  0  0
  -25.9311  -11.6525   20.5782 N   0  0  0  0  0  0
  -22.0455  -12.8211   22.0423 N   0  0  0  0  0  0
  -25.4139  -15.1884   20.4010 N   0  0  0  0  0  0
  -31.7976  -14.8302   20.1412 O   0  0  0  0  0  0
  -21.6642   -6.8876   21.4244 O   0  0  0  0  0  0
  -22.3508  -14.5530   20.6721 O   0  0  0  0  0  0
  -24.6310  -31.8535   23.1940 C   0  0  0  0  0  0
  -25.9140  -32.4733   23.8290 C   0  0  1  0  0  0
  -27.2211  -27.2565   20.1238 C   0  0  0  0  0  0
  -25.5925  -33.8545   24.2221 N   0  0  0  0  0  0
  -23.4279  -30.4734   21.5376 C   0  0  2  0  0  0
  -24.8726  -28.9171   20.1056 C   0  0  0  0  0  0
  -22.7499  -29.4590   22.4913 C   0  0  0  0  0  0
  -18.0290  -28.1392   22.8500 C   0  0  0  0  0  0
  -24.1495  -36.7266   23.2642 C   0  0  0  0  0  0
  -25.9737  -30.7631   21.3735 C   0  0  0  0  0  0
  -26.0417  -29.3858   20.7142 C   0  0  0  0  0  0
  -27.2148  -28.5666   20.7137 C   0  0  0  0  0  0
  -26.0241  -26.8462   19.4961 C   0  0  0  0  0  0
  -24.8680  -27.6549   19.4883 C   0  0  0  0  0  0
  -23.6434  -29.8038   20.1532 C   0  0  0  0  0  0
  -25.4128  -36.3058   24.0322 C   0  0  1  0  0  0
  -20.5892  -28.3693   23.1273 C   0  0  2  0  0  0
  -20.6792  -26.9411   22.5410 C   0  0  0  0  0  0
  -19.5766  -26.6387   21.5215 C   0  0  0  0  0  0
  -18.1942  -26.7939   22.1621 C   0  0  0  0  0  0
  -19.1547  -28.8864   23.2879 C   0  0  0  0  0  0
  -18.9468  -30.1474   23.8878 C   0  0  0  0  0  0
  -17.6471  -30.6589   24.0577 C   0  0  0  0  0  0
  -25.9061  -34.9431   23.5079 C   0  0  0  0  0  0
  -16.5357  -29.9095   23.6336 C   0  0  0  0  0  0
  -16.7275  -28.6516   23.0353 C   0  0  0  0  0  0
  -26.4503  -31.6578   25.0698 C   0  0  0  0  0  0
  -25.3711  -31.3735   26.1404 C   0  0  0  0  0  0
  -27.0368  -30.3008   24.6199 C   0  0  0  0  0  0
  -27.6049  -32.4334   25.7466 C   0  0  0  0  0  0
  -27.5582  -37.1797   24.8476 C   0  0  0  0  0  0
  -21.4213  -29.3044   22.3676 N   0  0  0  0  0  0
  -26.4298  -37.3767   23.9407 N   0  0  0  0  0  0
  -24.6966  -31.0506   22.0900 N   0  0  0  0  0  0
  -23.4203  -28.8154   23.3024 O   0  0  0  0  0  0
  -28.3409  -26.3991   20.2272 O   0  0  0  0  0  0
  -26.5662  -34.8912   22.4660 O   0  0  0  0  0  0
  -23.5460  -32.1346   23.7242 O   0  0  0  0  0  0
  -31.7982  -19.1432   20.9037 C   0  0  0  0  0  0
  -30.8387  -20.1592   20.7280 C   0  0  0  0  0  0
  -31.4530  -17.7773   20.8491 C   0  0  0  0  0  0
  -29.4898  -19.8531   20.4626 C   0  0  0  0  0  0
  -29.1519  -18.4269   20.3972 C   0  0  0  0  0  0
  -30.1276  -17.3513   20.5989 C   0  0  0  0  0  0
  -28.3005  -23.7052   20.3776 C   0  0  0  0  0  0
  -30.6080  -23.7518   18.6963 C   0  0  0  0  0  0
  -29.9196  -25.1179   18.9125 C   0  0  0  0  0  0
  -29.6169  -22.5723   18.6624 C   0  0  0  0  0  0
  -28.5038  -25.0688   19.5402 C   0  0  2  0  0  0
  -27.7115  -18.0551   20.0862 C   0  0  0  0  0  0
  -28.4502  -21.0695   20.3316 C   0  0  0  0  0  0
  -28.8258  -22.5005   19.8980 N   0  0  0  0  0  0
  -29.8117  -15.8887   20.6092 N   0  0  0  0  0  0
  -27.6229  -23.7468   21.4087 O   0  0  0  0  0  0
  -31.4691  -12.5798   19.1654 H   0  0  0  0  0  0
  -30.3747  -11.4829   19.9598 H   0  0  0  0  0  0
  -29.7893  -11.7262   17.5226 H   0  0  0  0  0  0
  -29.6241  -13.4543   17.7162 H   0  0  0  0  0  0
  -27.9016  -11.2719   18.9318 H   0  0  0  0  0  0
  -27.3704  -12.4934   17.8070 H   0  0  0  0  0  0
  -27.6291  -14.2463   19.4605 H   0  0  0  0  0  0
  -28.7206  -12.1791   21.4323 H   0  0  0  0  0  0
  -28.4158  -13.8594   21.7895 H   0  0  0  0  0  0
  -25.2758   -9.5667   22.4783 H   0  0  0  0  0  0
  -23.9991   -7.4620   22.7483 H   0  0  0  0  0  0
  -21.0842   -8.8775   19.8945 H   0  0  0  0  0  0
  -22.3715  -10.9673   19.6170 H   0  0  0  0  0  0
  -21.2010   -7.6152   23.9714 H   0  0  0  0  0  0
  -21.1473   -6.0525   25.9078 H   0  0  0  0  0  0
  -22.0604   -2.7605   23.2843 H   0  0  0  0  0  0
  -22.4056  -11.9851   22.4779 H   0  0  0  0  0  0
  -21.1088  -13.1252   22.2657 H   0  0  0  0  0  0
  -24.6355  -15.8324   20.4853 H   0  0  0  0  0  0
  -26.2348  -15.6103   19.9908 H   0  0  0  0  0  0
  -26.7210  -32.5366   23.1027 H   0  0  0  0  0  0
  -25.0090  -33.9697   25.0373 H   0  0  0  0  0  0
  -22.7264  -31.2972   21.3900 H   0  0  0  0  0  0
  -23.3765  -35.9583   23.3298 H   0  0  0  0  0  0
  -24.3588  -36.8897   22.2056 H   0  0  0  0  0  0
  -23.7235  -37.6462   23.6676 H   0  0  0  0  0  0
  -26.1217  -31.5254   20.6066 H   0  0  0  0  0  0
  -26.8485  -30.8062   22.0115 H   0  0  0  0  0  0
  -28.1091  -28.9200   21.2062 H   0  0  0  0  0  0
  -25.9371  -25.8705   19.0455 H   0  0  0  0  0  0
  -23.9653  -27.2885   19.0182 H   0  0  0  0  0  0
  -23.7691  -30.5777   19.3938 H   0  0  0  0  0  0
  -22.7600  -29.2380   19.8501 H   0  0  0  0  0  0
  -25.1315  -36.1890   25.0817 H   0  0  0  0  0  0
  -20.9989  -28.3247   24.1385 H   0  0  0  0  0  0
  -20.5715  -26.2293   23.3611 H   0  0  0  0  0  0
  -21.6658  -26.7462   22.1183 H   0  0  0  0  0  0
  -19.6929  -25.6296   21.1245 H   0  0  0  0  0  0
  -19.6690  -27.3216   20.6755 H   0  0  0  0  0  0
  -17.4224  -26.6697   21.4016 H   0  0  0  0  0  0
  -18.0321  -26.0082   22.9006 H   0  0  0  0  0  0
  -19.7948  -30.7321   24.2207 H   0  0  0  0  0  0
  -17.5016  -31.6256   24.5209 H   0  0  0  0  0  0
  -15.5358  -30.2999   23.7679 H   0  0  0  0  0  0
  -15.8671  -28.0843   22.7052 H   0  0  0  0  0  0
  -24.5885  -30.7095   25.7729 H   0  0  0  0  0  0
  -24.8889  -32.2907   26.4806 H   0  0  0  0  0  0
  -25.7990  -30.8921   27.0199 H   0  0  0  0  0  0
  -26.2959  -29.6747   24.1231 H   0  0  0  0  0  0
  -27.4092  -29.7289   25.4703 H   0  0  0  0  0  0
  -27.8803  -30.4322   23.9416 H   0  0  0  0  0  0
  -27.2664  -33.3673   26.1978 H   0  0  0  0  0  0
  -28.3877  -32.6852   25.0291 H   0  0  0  0  0  0
  -28.0704  -31.8506   26.5429 H   0  0  0  0  0  0
  -28.2612  -38.0093   24.7532 H   0  0  0  0  0  0
  -28.1073  -36.2626   24.6286 H   0  0  0  0  0  0
  -27.2306  -37.1419   25.8886 H   0  0  0  0  0  0
  -20.9406  -29.8725   21.6843 H   0  0  0  0  0  0
  -26.0162  -38.2835   24.1403 H   0  0  0  0  0  0
  -32.8237  -19.4185   21.1025 H   0  0  0  0  0  0
  -31.1529  -21.1904   20.8117 H   0  0  0  0  0  0
  -32.2402  -17.0602   21.0269 H   0  0  0  0  0  0
  -31.3234  -23.5840   19.5039 H   0  0  0  0  0  0
  -31.1996  -23.7740   17.7798 H   0  0  0  0  0  0
  -29.8435  -25.6354   17.9560 H   0  0  0  0  0  0
  -30.5759  -25.7408   19.5217 H   0  0  0  0  0  0
  -30.1626  -21.6436   18.4981 H   0  0  0  0  0  0
  -28.9424  -22.6766   17.8107 H   0  0  0  0  0  0
  -27.8103  -24.9948   18.7042 H   0  0  0  0  0  0
  -27.0378  -18.4714   20.8347 H   0  0  0  0  0  0
  -27.5527  -16.9801   20.0576 H   0  0  0  0  0  0
  -27.4258  -18.4448   19.1082 H   0  0  0  0  0  0
  -27.9309  -21.1312   21.2889 H   0  0  0  0  0  0
  -27.6820  -20.7577   19.6243 H   0  0  0  0  0  0
  -28.8356  -15.6712   20.7319 H   0  0  0  0  0  0
  1 25  1  0  0  0
  1 30  2  0  0  0
  1 85  1  0  0  0
  2  3  1  0  0  0
  2 25  1  0  0  0
  2 87  1  0  0  0
  2 88  1  0  0  0
  3  4  1  0  0  0
  3 89  1  0  0  0
  3 90  1  0  0  0
  4  5  1  0  0  0
  4 91  1  0  0  0
  4 92  1  0  0  0
  5  6  1  0  0  0
  5 26  1  0  0  0
  5 93  1  0  0  0
  6 25  1  0  0  0
  6 94  1  0  0  0
  6 95  1  0  0  0
  7  8  2  0  0  0
  7 26  1  0  0  0
  7 29  1  0  0  0
  8  9  1  0  0  0
  8 22  1  0  0  0
  9 10  1  0  0  0
  9 27  2  0  0  0
 10 11  2  0  0  0
 10 15  1  0  0  0
 11 12  1  0  0  0
 11 96  1  0  0  0
 12 13  2  0  0  0
 12 97  1  0  0  0
 13 14  1  0  0  0
 13 31  1  0  0  0
 14 15  2  0  0  0
 14 98  1  0  0  0
 15 99  1  0  0  0
 16 17  2  0  0  0
 16 21  1  0  0  0
 16 31  1  0  0  0
 17 18  1  0  0  0
 17100  1  0  0  0
 18 19  2  0  0  0
 18101  1  0  0  0
 19 20  1  0  0  0
 19 24  1  0  0  0
 20 21  2  0  0  0
 20102  1  0  0  0
 21 23  1  0  0  0
 22 28  1  0  0  0
 22 32  2  0  0  0
 26 27  1  0  0  0
 28103  1  0  0  0
 28104  1  0  0  0
 29105  1  0  0  0
 29106  1  0  0  0
 33 34  1  0  0  0
 33 66  1  0  0  0
 33 70  2  0  0  0
 34 36  1  0  0  0
 34 59  1  0  0  0
 34107  1  0  0  0
 35 44  2  0  0  0
 35 45  1  0  0  0
 35 68  1  0  0  0
 36 56  1  0  0  0
 36108  1  0  0  0
 37 39  1  0  0  0
 37 47  1  0  0  0
 37 66  1  0  0  0
 37109  1  0  0  0
 38 43  2  0  0  0
 38 46  1  0  0  0
 38 47  1  0  0  0
 39 64  1  0  0  0
 39 67  2  0  0  0
 40 52  1  0  0  0
 40 53  2  0  0  0
 40 58  1  0  0  0
 41110  1  0  0  0
 41111  1  0  0  0
 41112  1  0  0  0
 41 48  1  0  0  0
 42 43  1  0  0  0
 42 66  1  0  0  0
 42113  1  0  0  0
 42114  1  0  0  0
 43 44  1  0  0  0
 44115  1  0  0  0
 45 46  2  0  0  0
 45116  1  0  0  0
 46117  1  0  0  0
 47118  1  0  0  0
 47119  1  0  0  0
 48 56  1  0  0  0
 48 65  1  0  0  0
 48120  1  0  0  0
 49 50  1  0  0  0
 49 53  1  0  0  0
 49 64  1  0  0  0
 49121  1  0  0  0
 50 51  1  0  0  0
 50122  1  0  0  0
 50123  1  0  0  0
 51 52  1  0  0  0
 51124  1  0  0  0
 51125  1  0  0  0
 52126  1  0  0  0
 52127  1  0  0  0
 53 54  1  0  0  0
 54 55  2  0  0  0
 54128  1  0  0  0
 55 57  1  0  0  0
 55129  1  0  0  0
 56 69  2  0  0  0
 57 58  2  0  0  0
 57130  1  0  0  0
 58131  1  0  0  0
 59 60  1  0  0  0
 59 61  1  0  0  0
 59 62  1  0  0  0
 60132  1  0  0  0
 60133  1  0  0  0
 60134  1  0  0  0
 61135  1  0  0  0
 61136  1  0  0  0
 61137  1  0  0  0
 62138  1  0  0  0
 62139  1  0  0  0
 62140  1  0  0  0
 63 65  1  0  0  0
 63141  1  0  0  0
 63142  1  0  0  0
 63143  1  0  0  0
 64144  1  0  0  0
 65145  1  0  0  0
 68 81  1  0  0  0
 71 72  2  0  0  0
 71 73  1  0  0  0
 71146  1  0  0  0
 72 74  1  0  0  0
 72147  1  0  0  0
 73 76  2  0  0  0
 73148  1  0  0  0
 74 75  2  0  0  0
 74 83  1  0  0  0
 75 76  1  0  0  0
 75 82  1  0  0  0
 76 85  1  0  0  0
 77 81  1  0  0  0
 77 84  1  0  0  0
 77 86  2  0  0  0
 78 79  1  0  0  0
 78 80  1  0  0  0
 78149  1  0  0  0
 78150  1  0  0  0
 79 81  1  0  0  0
 79151  1  0  0  0
 79152  1  0  0  0
 80 84  1  0  0  0
 80153  1  0  0  0
 80154  1  0  0  0
 81155  1  0  0  0
 82156  1  0  0  0
 82157  1  0  0  0
 82158  1  0  0  0
 83 84  1  0  0  0
 83159  1  0  0  0
 83160  1  0  0  0
 85161  1  0  0  0
M  ISO  4   1 100  68 101  81 101  85 100
M  END
> <chiral flag>
0

> <version>
0

> <s_m_source_file>
/data/baiqing/PycharmProjects/Reinvent-master-3.2/result/LINK_invent/BTK/process_docking_weight1_custom_product_contain_oxygen_bond_distance_aromatic_linkinvent_7_9_3/rearranged_h_0047.sdf

> <i_m_source_file_index>
39

> <r_mmod_Potential_Energy-OPLS-2005>
220.310195922852

> <r_mmod_Stretch_Energy-OPLS-2005>
139.211883544922

> <r_mmod_Bend_Energy-OPLS-2005>
176.576812744141

> <r_mmod_Torsional_Energy-OPLS-2005>
242.835494995117

> <r_mmod_Improper_Torsional_Energy-OPLS-2005>
6.75346612930298

> <r_mmod_Van_der_Waal_Energy-OPLS-2005>
147.470001220703

> <r_mmod_Electrostatic_Energy-OPLS-2005>
-345.661926269531

> <r_mmod_Solvation_Energy-OPLS-2005>
-234.506744384766

> <b_mmod_Minimization_Converged-OPLS-2005>
0

> <r_mmod_RMS_Derivative-OPLS-2005>
2.37469029426575

$$$$
39
                    3D
 Structure written by MMmdl.
170179  0  0  1  0            999 V2000
  -30.6154  -14.7294   20.4241 C   0  0  0  0  0  0
  -30.4378  -12.4292   19.4821 C   0  0  0  0  0  0
  -29.5115  -12.4513   18.2455 C   0  0  0  0  0  0
  -28.0345  -12.3093   18.6575 C   0  0  0  0  0  0
  -27.6454  -13.2259   19.8485 C   0  0  2  0  0  0
  -28.6897  -13.1633   20.9852 C   0  0  0  0  0  0
  -25.2530  -13.8207   20.5689 C   0  0  0  0  0  0
  -24.1812  -13.0453   20.9211 C   0  0  0  0  0  0
  -24.6397  -11.6928   20.8765 C   0  0  0  0  0  0
  -23.9074  -10.4303   21.0419 C   0  0  0  0  0  0
  -24.3625   -9.4214   21.9187 C   0  0  0  0  0  0
  -23.6299   -8.2247   22.0752 C   0  0  0  0  0  0
  -22.4280   -8.0290   21.3546 C   0  0  0  0  0  0
  -21.9923   -9.0264   20.4639 C   0  0  0  0  0  0
  -22.7254  -10.2141   20.3056 C   0  0  0  0  0  0
  -21.6855   -6.0737   22.5276 C   0  0  0  0  0  0
  -21.4014   -6.5638   23.8208 C   0  0  0  0  0  0
  -21.3659   -5.6790   24.9172 C   0  0  0  0  0  0
  -21.6042   -4.3056   24.7225 C   0  0  0  0  0  0
  -21.8822   -3.8146   23.4345 C   0  0  0  0  0  0
  -21.9192   -4.6959   22.3402 C   0  0  0  0  0  0
  -22.7833  -13.5230   21.1870 C   0  0  0  0  0  0
  -22.1656   -4.2144   21.0979 F   0  0  0  0  0  0
  -21.5632   -3.4538   25.7735 F   0  0  0  0  0  0
  -29.9948  -13.5015   20.4030 N   0  0  0  0  0  0
  -26.2956  -12.9402   20.3284 N   0  0  0  0  0  0
  -25.9326  -11.6550   20.5786 N   0  0  0  0  0  0
  -22.0479  -12.8208   22.0421 N   0  0  0  0  0  0
  -25.4235  -15.1932   20.4073 N   0  0  0  0  0  0
  -31.8121  -14.8203   20.1366 O   0  0  0  0  0  0
  -21.6645   -6.8886   21.4238 O   0  0  0  0  0  0
  -22.3514  -14.5539   20.6728 O   0  0  0  0  0  0
  -24.6304  -31.8577   23.2019 C   0  0  0  0  0  0
  -25.9138  -32.4778   23.8348 C   0  0  1  0  0  0
  -27.2130  -27.2679   20.1287 C   0  0  0  0  0  0
  -25.5965  -33.8579   24.2286 N   0  0  0  0  0  0
  -23.4246  -30.4811   21.5467 C   0  0  2  0  0  0
  -24.8686  -28.9338   20.1079 C   0  0  0  0  0  0
  -22.7495  -29.4611   22.4954 C   0  0  0  0  0  0
  -18.0279  -28.1411   22.8502 C   0  0  0  0  0  0
  -24.1478  -36.7272   23.2645 C   0  0  0  0  0  0
  -25.9699  -30.7695   21.3821 C   0  0  0  0  0  0
  -26.0377  -29.3931   20.7253 C   0  0  0  0  0  0
  -27.2084  -28.5703   20.7313 C   0  0  0  0  0  0
  -26.0250  -26.8883   19.4594 C   0  0  0  0  0  0
  -24.8674  -27.6889   19.4636 C   0  0  0  0  0  0
  -23.6389  -29.8188   20.1605 C   0  0  0  0  0  0
  -25.4106  -36.3078   24.0333 C   0  0  1  0  0  0
  -20.5885  -28.3698   23.1311 C   0  0  2  0  0  0
  -20.6787  -26.9425   22.5432 C   0  0  0  0  0  0
  -19.5751  -26.6389   21.5254 C   0  0  0  0  0  0
  -18.1918  -26.7969   22.1620 C   0  0  0  0  0  0
  -19.1540  -28.8874   23.2897 C   0  0  0  0  0  0
  -18.9466  -30.1489   23.8889 C   0  0  0  0  0  0
  -17.6462  -30.6618   24.0571 C   0  0  0  0  0  0
  -25.9050  -34.9454   23.5095 C   0  0  0  0  0  0
  -16.5348  -29.9108   23.6362 C   0  0  0  0  0  0
  -16.7264  -28.6528   23.0368 C   0  0  0  0  0  0
  -26.4507  -31.6610   25.0737 C   0  0  0  0  0  0
  -25.3710  -31.3775   26.1443 C   0  0  0  0  0  0
  -27.0393  -30.3045   24.6221 C   0  0  0  0  0  0
  -27.6051  -32.4368   25.7510 C   0  0  0  0  0  0
  -27.5575  -37.1790   24.8465 C   0  0  0  0  0  0
  -21.4205  -29.3050   22.3709 N   0  0  0  0  0  0
  -26.4281  -37.3778   23.9423 N   0  0  0  0  0  0
  -24.6938  -31.0548   22.1000 N   0  0  0  0  0  0
  -23.4217  -28.8154   23.3041 O   0  0  0  0  0  0
  -28.3174  -26.3876   20.2244 O   0  0  0  0  0  0
  -26.5598  -34.8925   22.4654 O   0  0  0  0  0  0
  -23.5456  -32.1400   23.7333 O   0  0  0  0  0  0
  -30.1429  -19.7606   18.6245 C   0  0  0  0  0  0
  -30.3369  -18.5579   17.9310 C   0  0  0  0  0  0
  -29.7718  -19.7854   19.9835 C   0  0  0  0  0  0
  -29.6794  -18.4794   20.6456 C   0  0  0  0  0  0
  -29.9477  -17.2107   19.9585 C   0  0  0  0  0  0
  -30.2294  -17.3087   18.5634 C   0  0  0  0  0  0
  -28.7759  -23.8057   20.9275 C   0  0  0  0  0  0
  -29.2175  -24.0793   22.1860 C   0  0  0  0  0  0
  -28.8666  -23.2126   18.0929 C   0  0  0  0  0  0
  -28.6777  -24.6941   18.4723 C   0  0  0  0  0  0
  -28.0711  -22.2679   19.0140 C   0  0  0  0  0  0
  -28.2036  -24.9157   19.9228 C   0  0  2  0  0  0
  -29.3335  -18.4403   22.1272 C   0  0  0  0  0  0
  -29.4858  -23.0392   23.2663 C   0  0  0  0  0  0
  -29.4295  -25.4942   22.7026 C   0  0  0  0  0  0
  -29.7107  -21.2429   20.6576 C   0  0  0  0  0  0
  -29.8337  -15.8640   20.5886 N   0  0  0  0  0  0
  -28.6051  -22.3048   20.4024 N   0  3  1  0  0  0
  -30.3879  -15.9407   17.5182 Cl  0  0  0  0  0  0
  -31.4763  -12.5547   19.1699 H   0  0  0  0  0  0
  -30.3915  -11.4599   19.9801 H   0  0  0  0  0  0
  -29.7823  -11.6426   17.5656 H   0  0  0  0  0  0
  -29.6501  -13.3714   17.6832 H   0  0  0  0  0  0
  -27.8780  -11.2658   18.9326 H   0  0  0  0  0  0
  -27.3820  -12.4951   17.8036 H   0  0  0  0  0  0
  -27.6427  -14.2447   19.4592 H   0  0  0  0  0  0
  -28.7173  -12.1699   21.4349 H   0  0  0  0  0  0
  -28.4284  -13.8535   21.7888 H   0  0  0  0  0  0
  -25.2776   -9.5680   22.4758 H   0  0  0  0  0  0
  -24.0000   -7.4638   22.7475 H   0  0  0  0  0  0
  -21.0858   -8.8792   19.8944 H   0  0  0  0  0  0
  -22.3731  -10.9677   19.6158 H   0  0  0  0  0  0
  -21.2004   -7.6143   23.9713 H   0  0  0  0  0  0
  -21.1472   -6.0519   25.9077 H   0  0  0  0  0  0
  -22.0602   -2.7605   23.2849 H   0  0  0  0  0  0
  -22.4081  -11.9853   22.4789 H   0  0  0  0  0  0
  -21.1092  -13.1223   22.2625 H   0  0  0  0  0  0
  -24.6567  -15.8476   20.5195 H   0  0  0  0  0  0
  -26.2639  -15.6291   20.0507 H   0  0  0  0  0  0
  -26.7206  -32.5416   23.1089 H   0  0  0  0  0  0
  -25.0201  -33.9737   25.0491 H   0  0  0  0  0  0
  -22.7191  -31.3027   21.4061 H   0  0  0  0  0  0
  -23.3768  -35.9575   23.3287 H   0  0  0  0  0  0
  -24.3572  -36.8907   22.2062 H   0  0  0  0  0  0
  -23.7194  -37.6454   23.6671 H   0  0  0  0  0  0
  -26.1082  -31.5284   20.6107 H   0  0  0  0  0  0
  -26.8498  -30.8183   22.0108 H   0  0  0  0  0  0
  -28.0964  -28.9131   21.2433 H   0  0  0  0  0  0
  -25.9473  -25.9561   18.9238 H   0  0  0  0  0  0
  -23.9760  -27.3399   18.9600 H   0  0  0  0  0  0
  -23.7575  -30.5968   19.4057 H   0  0  0  0  0  0
  -22.7562  -29.2513   19.8592 H   0  0  0  0  0  0
  -25.1292  -36.1912   25.0827 H   0  0  0  0  0  0
  -20.9956  -28.3249   24.1438 H   0  0  0  0  0  0
  -20.5735  -26.2299   23.3632 H   0  0  0  0  0  0
  -21.6648  -26.7490   22.1187 H   0  0  0  0  0  0
  -19.6907  -25.6295   21.1294 H   0  0  0  0  0  0
  -19.6703  -27.3195   20.6788 H   0  0  0  0  0  0
  -17.4221  -26.6782   21.3981 H   0  0  0  0  0  0
  -18.0232  -26.0098   22.8987 H   0  0  0  0  0  0
  -19.7938  -30.7334   24.2219 H   0  0  0  0  0  0
  -17.5017  -31.6299   24.5176 H   0  0  0  0  0  0
  -15.5354  -30.3011   23.7721 H   0  0  0  0  0  0
  -15.8656  -28.0865   22.7077 H   0  0  0  0  0  0
  -24.5906  -30.7099   25.7780 H   0  0  0  0  0  0
  -24.8878  -32.2958   26.4788 H   0  0  0  0  0  0
  -25.8003  -30.9017   27.0268 H   0  0  0  0  0  0
  -26.3011  -29.6772   24.1216 H   0  0  0  0  0  0
  -27.4096  -29.7313   25.4733 H   0  0  0  0  0  0
  -27.8857  -30.4389   23.9481 H   0  0  0  0  0  0
  -27.2661  -33.3695   26.2028 H   0  0  0  0  0  0
  -28.3880  -32.6888   25.0346 H   0  0  0  0  0  0
  -28.0694  -31.8535   26.5470 H   0  0  0  0  0  0
  -28.2584  -38.0099   24.7541 H   0  0  0  0  0  0
  -28.1084  -36.2637   24.6248 H   0  0  0  0  0  0
  -27.2310  -37.1376   25.8873 H   0  0  0  0  0  0
  -20.9385  -29.8774   21.6923 H   0  0  0  0  0  0
  -26.0154  -38.2849   24.1437 H   0  0  0  0  0  0
  -30.2906  -20.6819   18.0805 H   0  0  0  0  0  0
  -30.5724  -18.5932   16.8768 H   0  0  0  0  0  0
  -29.9270  -22.9629   18.1401 H   0  0  0  0  0  0
  -28.5778  -23.0599   17.0517 H   0  0  0  0  0  0
  -27.9567  -25.1542   17.7959 H   0  0  0  0  0  0
  -29.6163  -25.2253   18.3085 H   0  0  0  0  0  0
  -28.0333  -21.2587   18.6145 H   0  0  0  0  0  0
  -27.0237  -22.5749   19.0285 H   0  0  0  0  0  0
  -27.1478  -24.6606   19.9759 H   0  0  0  0  0  0
  -28.5511  -19.1602   22.3673 H   0  0  0  0  0  0
  -30.2140  -18.6760   22.7261 H   0  0  0  0  0  0
  -28.9682  -17.4640   22.4428 H   0  0  0  0  0  0
  -28.7938  -22.1998   23.2103 H   0  0  0  0  0  0
  -29.3302  -23.4613   24.2598 H   0  0  0  0  0  0
  -30.5152  -22.6825   23.2228 H   0  0  0  0  0  0
  -29.9449  -26.1109   21.9667 H   0  0  0  0  0  0
  -30.0580  -25.5054   23.5943 H   0  0  0  0  0  0
  -28.4757  -25.9579   22.9559 H   0  0  0  0  0  0
  -30.6460  -21.7295   20.3773 H   0  0  0  0  0  0
  -29.8197  -21.0667   21.7197 H   0  0  0  0  0  0
  -28.9423  -15.6825   21.0208 H   0  0  0  0  0  0
  -27.8368  -21.9183   20.9313 H   0  0  0  0  0  0
  1 25  1  0  0  0
  1 30  2  0  0  0
  1 87  1  0  0  0
  2  3  1  0  0  0
  2 25  1  0  0  0
  2 90  1  0  0  0
  2 91  1  0  0  0
  3  4  1  0  0  0
  3 92  1  0  0  0
  3 93  1  0  0  0
  4  5  1  0  0  0
  4 94  1  0  0  0
  4 95  1  0  0  0
  5  6  1  0  0  0
  5 26  1  0  0  0
  5 96  1  0  0  0
  6 25  1  0  0  0
  6 97  1  0  0  0
  6 98  1  0  0  0
  7  8  2  0  0  0
  7 26  1  0  0  0
  7 29  1  0  0  0
  8  9  1  0  0  0
  8 22  1  0  0  0
  9 10  1  0  0  0
  9 27  2  0  0  0
 10 11  2  0  0  0
 10 15  1  0  0  0
 11 12  1  0  0  0
 11 99  1  0  0  0
 12 13  2  0  0  0
 12100  1  0  0  0
 13 14  1  0  0  0
 13 31  1  0  0  0
 14 15  2  0  0  0
 14101  1  0  0  0
 15102  1  0  0  0
 16 17  2  0  0  0
 16 21  1  0  0  0
 16 31  1  0  0  0
 17 18  1  0  0  0
 17103  1  0  0  0
 18 19  2  0  0  0
 18104  1  0  0  0
 19 20  1  0  0  0
 19 24  1  0  0  0
 20 21  2  0  0  0
 20105  1  0  0  0
 21 23  1  0  0  0
 22 28  1  0  0  0
 22 32  2  0  0  0
 26 27  1  0  0  0
 28106  1  0  0  0
 28107  1  0  0  0
 29108  1  0  0  0
 29109  1  0  0  0
 33 34  1  0  0  0
 33 66  1  0  0  0
 33 70  2  0  0  0
 34 36  1  0  0  0
 34 59  1  0  0  0
 34110  1  0  0  0
 35 44  2  0  0  0
 35 45  1  0  0  0
 35 68  1  0  0  0
 36 56  1  0  0  0
 36111  1  0  0  0
 37 39  1  0  0  0
 37 47  1  0  0  0
 37 66  1  0  0  0
 37112  1  0  0  0
 38 43  2  0  0  0
 38 46  1  0  0  0
 38 47  1  0  0  0
 39 64  1  0  0  0
 39 67  2  0  0  0
 40 52  1  0  0  0
 40 53  2  0  0  0
 40 58  1  0  0  0
 41113  1  0  0  0
 41114  1  0  0  0
 41115  1  0  0  0
 41 48  1  0  0  0
 42 43  1  0  0  0
 42 66  1  0  0  0
 42116  1  0  0  0
 42117  1  0  0  0
 43 44  1  0  0  0
 44118  1  0  0  0
 45 46  2  0  0  0
 45119  1  0  0  0
 46120  1  0  0  0
 47121  1  0  0  0
 47122  1  0  0  0
 48 56  1  0  0  0
 48 65  1  0  0  0
 48123  1  0  0  0
 49 50  1  0  0  0
 49 53  1  0  0  0
 49 64  1  0  0  0
 49124  1  0  0  0
 50 51  1  0  0  0
 50125  1  0  0  0
 50126  1  0  0  0
 51 52  1  0  0  0
 51127  1  0  0  0
 51128  1  0  0  0
 52129  1  0  0  0
 52130  1  0  0  0
 53 54  1  0  0  0
 54 55  2  0  0  0
 54131  1  0  0  0
 55 57  1  0  0  0
 55132  1  0  0  0
 56 69  2  0  0  0
 57 58  2  0  0  0
 57133  1  0  0  0
 58134  1  0  0  0
 59 60  1  0  0  0
 59 61  1  0  0  0
 59 62  1  0  0  0
 60135  1  0  0  0
 60136  1  0  0  0
 60137  1  0  0  0
 61138  1  0  0  0
 61139  1  0  0  0
 61140  1  0  0  0
 62141  1  0  0  0
 62142  1  0  0  0
 62143  1  0  0  0
 63 65  1  0  0  0
 63144  1  0  0  0
 63145  1  0  0  0
 63146  1  0  0  0
 64147  1  0  0  0
 65148  1  0  0  0
 68 82  1  0  0  0
 71 72  2  0  0  0
 71 73  1  0  0  0
 71149  1  0  0  0
 72 76  1  0  0  0
 72150  1  0  0  0
 73 74  2  0  0  0
 73 86  1  0  0  0
 74 75  1  0  0  0
 74 83  1  0  0  0
 75 76  2  0  0  0
 75 87  1  0  0  0
 76 89  1  0  0  0
 77 78  2  0  0  0
 77 82  1  0  0  0
 77 88  1  0  0  0
 78 84  1  0  0  0
 78 85  1  0  0  0
 79 80  1  0  0  0
 79 81  1  0  0  0
 79151  1  0  0  0
 79152  1  0  0  0
 80 82  1  0  0  0
 80153  1  0  0  0
 80154  1  0  0  0
 81 88  1  0  0  0
 81155  1  0  0  0
 81156  1  0  0  0
 82157  1  0  0  0
 83158  1  0  0  0
 83159  1  0  0  0
 83160  1  0  0  0
 84161  1  0  0  0
 84162  1  0  0  0
 84163  1  0  0  0
 85164  1  0  0  0
 85165  1  0  0  0
 85166  1  0  0  0
 86167  1  0  0  0
 86168  1  0  0  0
 86 88  1  0  0  0
 87169  1  0  0  0
 88170  1  0  0  0
M  CHG  1  88   1
M  ISO  4   1 100  68 101  82 101  87 100
M  END
> <chiral flag>
0

> <version>
0

> <s_m_source_file>
/data/baiqing/PycharmProjects/Reinvent-master-3.2/result/LINK_invent/BTK/process_docking_weight1_custom_product_contain_oxygen_bond_distance_aromatic_linkinvent_7_9_3/rearranged_h_0047.sdf

> <i_m_source_file_index>
40

> <r_mmod_Potential_Energy-OPLS-2005>
122.59912109375

> <r_mmod_Stretch_Energy-OPLS-2005>
147.201354980469

> <r_mmod_Bend_Energy-OPLS-2005>
190.904327392578

> <r_mmod_Torsional_Energy-OPLS-2005>
279.125457763672

> <r_mmod_Improper_Torsional_Energy-OPLS-2005>
6.25118637084961

> <r_mmod_Van_der_Waal_Energy-OPLS-2005>
162.121551513672

> <r_mmod_Electrostatic_Energy-OPLS-2005>
-294.735565185547

> <r_mmod_Solvation_Energy-OPLS-2005>
-451.600067138672

> <b_mmod_Minimization_Converged-OPLS-2005>
0

> <r_mmod_RMS_Derivative-OPLS-2005>
1.85296225547791

$$$$
40
                    3D
 Structure written by MMmdl.
161170  0  0  1  0            999 V2000
  -30.5749  -14.7714   20.4689 C   0  0  0  0  0  0
  -30.4456  -12.4741   19.4633 C   0  0  0  0  0  0
  -29.5138  -12.5020   18.2301 C   0  0  0  0  0  0
  -28.0385  -12.3202   18.6460 C   0  0  0  0  0  0
  -27.6378  -13.2238   19.8405 C   0  0  2  0  0  0
  -28.6847  -13.1608   20.9714 C   0  0  0  0  0  0
  -25.2504  -13.8179   20.5678 C   0  0  0  0  0  0
  -24.1791  -13.0433   20.9195 C   0  0  0  0  0  0
  -24.6380  -11.6911   20.8738 C   0  0  0  0  0  0
  -23.9059  -10.4292   21.0416 C   0  0  0  0  0  0
  -24.3614   -9.4204   21.9193 C   0  0  0  0  0  0
  -23.6286   -8.2242   22.0762 C   0  0  0  0  0  0
  -22.4265   -8.0286   21.3553 C   0  0  0  0  0  0
  -21.9897   -9.0257   20.4653 C   0  0  0  0  0  0
  -22.7231  -10.2134   20.3066 C   0  0  0  0  0  0
  -21.6852   -6.0738   22.5279 C   0  0  0  0  0  0
  -21.4018   -6.5644   23.8212 C   0  0  0  0  0  0
  -21.3661   -5.6792   24.9174 C   0  0  0  0  0  0
  -21.6046   -4.3053   24.7224 C   0  0  0  0  0  0
  -21.8817   -3.8145   23.4343 C   0  0  0  0  0  0
  -21.9188   -4.6965   22.3400 C   0  0  0  0  0  0
  -22.7816  -13.5225   21.1874 C   0  0  0  0  0  0
  -22.1658   -4.2156   21.0978 F   0  0  0  0  0  0
  -21.5626   -3.4538   25.7736 F   0  0  0  0  0  0
  -29.9799  -13.5321   20.3852 N   0  0  0  0  0  0
  -26.2910  -12.9366   20.3218 N   0  0  0  0  0  0
  -25.9296  -11.6515   20.5695 N   0  0  0  0  0  0
  -22.0468  -12.8207   22.0436 N   0  0  0  0  0  0
  -25.4179  -15.1914   20.4139 N   0  0  0  0  0  0
  -31.7815  -14.8977   20.2402 O   0  0  0  0  0  0
  -21.6635   -6.8879   21.4244 O   0  0  0  0  0  0
  -22.3493  -14.5528   20.6719 O   0  0  0  0  0  0
  -24.6308  -31.8544   23.1955 C   0  0  0  0  0  0
  -25.9125  -32.4752   23.8314 C   0  0  1  0  0  0
  -27.2268  -27.2639   20.1393 C   0  0  0  0  0  0
  -25.5911  -33.8555   24.2233 N   0  0  0  0  0  0
  -23.4284  -30.4723   21.5398 C   0  0  2  0  0  0
  -24.8777  -28.9094   20.1186 C   0  0  0  0  0  0
  -22.7500  -29.4590   22.4934 C   0  0  0  0  0  0
  -18.0290  -28.1375   22.8484 C   0  0  0  0  0  0
  -24.1487  -36.7297   23.2640 C   0  0  0  0  0  0
  -25.9728  -30.7674   21.3743 C   0  0  0  0  0  0
  -26.0494  -29.3869   20.7232 C   0  0  0  0  0  0
  -27.2300  -28.5778   20.7170 C   0  0  0  0  0  0
  -26.0339  -26.8437   19.5187 C   0  0  0  0  0  0
  -24.8748  -27.6454   19.5054 C   0  0  0  0  0  0
  -23.6474  -29.7958   20.1603 C   0  0  0  0  0  0
  -25.4112  -36.3074   24.0322 C   0  0  1  0  0  0
  -20.5887  -28.3689   23.1272 C   0  0  2  0  0  0
  -20.6774  -26.9404   22.5408 C   0  0  0  0  0  0
  -19.5751  -26.6375   21.5212 C   0  0  0  0  0  0
  -18.1931  -26.7919   22.1621 C   0  0  0  0  0  0
  -19.1540  -28.8849   23.2872 C   0  0  0  0  0  0
  -18.9467  -30.1447   23.8896 C   0  0  0  0  0  0
  -17.6464  -30.6582   24.0555 C   0  0  0  0  0  0
  -25.9050  -34.9442   23.5084 C   0  0  0  0  0  0
  -16.5355  -29.9078   23.6324 C   0  0  0  0  0  0
  -16.7274  -28.6487   23.0363 C   0  0  0  0  0  0
  -26.4477  -31.6586   25.0719 C   0  0  0  0  0  0
  -25.3686  -31.3758   26.1437 C   0  0  0  0  0  0
  -27.0329  -30.2998   24.6224 C   0  0  0  0  0  0
  -27.6025  -32.4333   25.7492 C   0  0  0  0  0  0
  -27.5574  -37.1801   24.8454 C   0  0  0  0  0  0
  -21.4205  -29.3037   22.3672 N   0  0  0  0  0  0
  -26.4286  -37.3775   23.9403 N   0  0  0  0  0  0
  -24.6964  -31.0503   22.0930 N   0  0  0  0  0  0
  -23.4193  -28.8147   23.3048 O   0  0  0  0  0  0
  -28.3291  -26.3864   20.1073 O   0  0  0  0  0  0
  -26.5643  -34.8917   22.4665 O   0  0  0  0  0  0
  -23.5455  -32.1370   23.7239 O   0  0  0  0  0  0
  -29.3169  -19.8344   22.2356 C   0  0  0  0  0  0
  -29.5241  -18.6767   23.0102 C   0  0  0  0  0  0
  -29.6040  -18.4785   20.2463 C   0  0  0  0  0  0
  -29.3925  -19.8045   20.8286 C   0  0  0  0  0  0
  -29.7549  -17.4086   22.4317 C   0  0  0  0  0  0
  -29.7850  -17.2501   21.0216 C   0  0  0  0  0  0
  -28.4628  -23.6920   20.0286 C   0  0  0  0  0  0
  -29.6195  -23.8615   22.6594 C   0  0  0  0  0  0
  -29.2420  -25.2081   22.0254 C   0  0  0  0  0  0
  -30.1677  -22.9176   21.5749 C   0  0  0  0  0  0
  -28.2616  -25.0772   20.8429 C   0  0  1  0  0  0
  -29.8729  -16.2181   23.3705 C   0  0  0  0  0  0
  -29.1717  -21.1594   19.9867 C   0  0  0  0  0  0
  -29.1400  -22.5922   20.5741 N   0  0  0  0  0  0
  -29.7173  -15.8675   20.4743 N   0  0  0  0  0  0
  -27.9085  -23.5963   18.9297 O   0  0  0  0  0  0
  -31.4824  -12.6276   19.1589 H   0  0  0  0  0  0
  -30.4143  -11.5008   19.9558 H   0  0  0  0  0  0
  -29.7994  -11.7231   17.5225 H   0  0  0  0  0  0
  -29.6305  -13.4501   17.7029 H   0  0  0  0  0  0
  -27.8953  -11.2723   18.9119 H   0  0  0  0  0  0
  -27.3809  -12.5090   17.7971 H   0  0  0  0  0  0
  -27.6262  -14.2407   19.4493 H   0  0  0  0  0  0
  -28.7276  -12.1616   21.4073 H   0  0  0  0  0  0
  -28.4122  -13.8373   21.7817 H   0  0  0  0  0  0
  -25.2773   -9.5671   22.4749 H   0  0  0  0  0  0
  -24.0004   -7.4623   22.7466 H   0  0  0  0  0  0
  -21.0830   -8.8777   19.8944 H   0  0  0  0  0  0
  -22.3708  -10.9669   19.6160 H   0  0  0  0  0  0
  -21.2028   -7.6154   23.9721 H   0  0  0  0  0  0
  -21.1480   -6.0522   25.9075 H   0  0  0  0  0  0
  -22.0592   -2.7610   23.2841 H   0  0  0  0  0  0
  -22.4084  -11.9863   22.4809 H   0  0  0  0  0  0
  -21.1093  -13.1230   22.2671 H   0  0  0  0  0  0
  -24.6483  -15.8396   20.5382 H   0  0  0  0  0  0
  -26.2609  -15.6418   20.0838 H   0  0  0  0  0  0
  -26.7197  -32.5403   23.1059 H   0  0  0  0  0  0
  -25.0014  -33.9691   25.0347 H   0  0  0  0  0  0
  -22.7242  -31.2932   21.3876 H   0  0  0  0  0  0
  -23.3746  -35.9631   23.3297 H   0  0  0  0  0  0
  -24.3573  -36.8939   22.2056 H   0  0  0  0  0  0
  -23.7252  -37.6495   23.6682 H   0  0  0  0  0  0
  -26.1085  -31.5241   20.6004 H   0  0  0  0  0  0
  -26.8503  -30.8207   22.0074 H   0  0  0  0  0  0
  -28.1337  -28.9430   21.1844 H   0  0  0  0  0  0
  -25.9986  -25.8724   19.0457 H   0  0  0  0  0  0
  -23.9783  -27.2743   19.0273 H   0  0  0  0  0  0
  -23.7658  -30.5640   19.3956 H   0  0  0  0  0  0
  -22.7678  -29.2222   19.8635 H   0  0  0  0  0  0
  -25.1296  -36.1912   25.0817 H   0  0  0  0  0  0
  -20.9970  -28.3268   24.1395 H   0  0  0  0  0  0
  -20.5664  -26.2298   23.3613 H   0  0  0  0  0  0
  -21.6646  -26.7422   22.1206 H   0  0  0  0  0  0
  -19.6910  -25.6288   21.1245 H   0  0  0  0  0  0
  -19.6689  -27.3178   20.6737 H   0  0  0  0  0  0
  -17.4196  -26.6662   21.4028 H   0  0  0  0  0  0
  -18.0328  -26.0064   22.9018 H   0  0  0  0  0  0
  -19.7946  -30.7260   24.2270 H   0  0  0  0  0  0
  -17.5025  -31.6265   24.5152 H   0  0  0  0  0  0
  -15.5356  -30.2981   23.7663 H   0  0  0  0  0  0
  -15.8671  -28.0806   22.7093 H   0  0  0  0  0  0
  -24.5823  -30.7160   25.7751 H   0  0  0  0  0  0
  -24.8924  -32.2946   26.4871 H   0  0  0  0  0  0
  -25.7970  -30.8902   27.0214 H   0  0  0  0  0  0
  -26.2922  -29.6757   24.1214 H   0  0  0  0  0  0
  -27.3957  -29.7259   25.4763 H   0  0  0  0  0  0
  -27.8823  -30.4262   23.9507 H   0  0  0  0  0  0
  -27.2610  -33.3618   26.2077 H   0  0  0  0  0  0
  -28.3824  -32.6927   25.0320 H   0  0  0  0  0  0
  -28.0704  -31.8465   26.5405 H   0  0  0  0  0  0
  -28.2579  -38.0109   24.7505 H   0  0  0  0  0  0
  -28.1084  -36.2641   24.6267 H   0  0  0  0  0  0
  -27.2298  -37.1430   25.8859 H   0  0  0  0  0  0
  -20.9399  -29.8739   21.6854 H   0  0  0  0  0  0
  -26.0164  -38.2850   24.1405 H   0  0  0  0  0  0
  -29.0819  -20.7516   22.7550 H   0  0  0  0  0  0
  -29.4581  -18.7717   24.0850 H   0  0  0  0  0  0
  -29.5852  -18.3980   19.1685 H   0  0  0  0  0  0
  -28.7529  -23.4129   23.1486 H   0  0  0  0  0  0
  -30.3670  -24.0182   23.4380 H   0  0  0  0  0  0
  -30.1525  -25.6953   21.6755 H   0  0  0  0  0  0
  -28.8176  -25.8704   22.7811 H   0  0  0  0  0  0
  -30.6217  -22.0386   22.0238 H   0  0  0  0  0  0
  -30.9949  -23.4075   21.0582 H   0  0  0  0  0  0
  -27.2620  -24.9854   21.2718 H   0  0  0  0  0  0
  -29.9316  -16.5368   24.4117 H   0  0  0  0  0  0
  -30.7703  -15.6375   23.1607 H   0  0  0  0  0  0
  -29.0025  -15.5699   23.2717 H   0  0  0  0  0  0
  -28.2322  -21.0168   19.4504 H   0  0  0  0  0  0
  -29.9359  -21.1688   19.2087 H   0  0  0  0  0  0
  -28.7678  -15.5658   20.3241 H   0  0  0  0  0  0
  1 25  1  0  0  0
  1 30  2  0  0  0
  1 85  1  0  0  0
  2  3  1  0  0  0
  2 25  1  0  0  0
  2 87  1  0  0  0
  2 88  1  0  0  0
  3  4  1  0  0  0
  3 89  1  0  0  0
  3 90  1  0  0  0
  4  5  1  0  0  0
  4 91  1  0  0  0
  4 92  1  0  0  0
  5  6  1  0  0  0
  5 26  1  0  0  0
  5 93  1  0  0  0
  6 25  1  0  0  0
  6 94  1  0  0  0
  6 95  1  0  0  0
  7  8  2  0  0  0
  7 26  1  0  0  0
  7 29  1  0  0  0
  8  9  1  0  0  0
  8 22  1  0  0  0
  9 10  1  0  0  0
  9 27  2  0  0  0
 10 11  2  0  0  0
 10 15  1  0  0  0
 11 12  1  0  0  0
 11 96  1  0  0  0
 12 13  2  0  0  0
 12 97  1  0  0  0
 13 14  1  0  0  0
 13 31  1  0  0  0
 14 15  2  0  0  0
 14 98  1  0  0  0
 15 99  1  0  0  0
 16 17  2  0  0  0
 16 21  1  0  0  0
 16 31  1  0  0  0
 17 18  1  0  0  0
 17100  1  0  0  0
 18 19  2  0  0  0
 18101  1  0  0  0
 19 20  1  0  0  0
 19 24  1  0  0  0
 20 21  2  0  0  0
 20102  1  0  0  0
 21 23  1  0  0  0
 22 28  1  0  0  0
 22 32  2  0  0  0
 26 27  1  0  0  0
 28103  1  0  0  0
 28104  1  0  0  0
 29105  1  0  0  0
 29106  1  0  0  0
 33 34  1  0  0  0
 33 66  1  0  0  0
 33 70  2  0  0  0
 34 36  1  0  0  0
 34 59  1  0  0  0
 34107  1  0  0  0
 35 44  2  0  0  0
 35 45  1  0  0  0
 35 68  1  0  0  0
 36 56  1  0  0  0
 36108  1  0  0  0
 37 39  1  0  0  0
 37 47  1  0  0  0
 37 66  1  0  0  0
 37109  1  0  0  0
 38 43  2  0  0  0
 38 46  1  0  0  0
 38 47  1  0  0  0
 39 64  1  0  0  0
 39 67  2  0  0  0
 40 52  1  0  0  0
 40 53  2  0  0  0
 40 58  1  0  0  0
 41110  1  0  0  0
 41111  1  0  0  0
 41112  1  0  0  0
 41 48  1  0  0  0
 42 43  1  0  0  0
 42 66  1  0  0  0
 42113  1  0  0  0
 42114  1  0  0  0
 43 44  1  0  0  0
 44115  1  0  0  0
 45 46  2  0  0  0
 45116  1  0  0  0
 46117  1  0  0  0
 47118  1  0  0  0
 47119  1  0  0  0
 48 56  1  0  0  0
 48 65  1  0  0  0
 48120  1  0  0  0
 49 50  1  0  0  0
 49 53  1  0  0  0
 49 64  1  0  0  0
 49121  1  0  0  0
 50 51  1  0  0  0
 50122  1  0  0  0
 50123  1  0  0  0
 51 52  1  0  0  0
 51124  1  0  0  0
 51125  1  0  0  0
 52126  1  0  0  0
 52127  1  0  0  0
 53 54  1  0  0  0
 54 55  2  0  0  0
 54128  1  0  0  0
 55 57  1  0  0  0
 55129  1  0  0  0
 56 69  2  0  0  0
 57 58  2  0  0  0
 57130  1  0  0  0
 58131  1  0  0  0
 59 60  1  0  0  0
 59 61  1  0  0  0
 59 62  1  0  0  0
 60132  1  0  0  0
 60133  1  0  0  0
 60134  1  0  0  0
 61135  1  0  0  0
 61136  1  0  0  0
 61137  1  0  0  0
 62138  1  0  0  0
 62139  1  0  0  0
 62140  1  0  0  0
 63 65  1  0  0  0
 63141  1  0  0  0
 63142  1  0  0  0
 63143  1  0  0  0
 64144  1  0  0  0
 65145  1  0  0  0
 68 81  1  0  0  0
 71 72  2  0  0  0
 71 74  1  0  0  0
 71146  1  0  0  0
 72 75  1  0  0  0
 72147  1  0  0  0
 73 74  2  0  0  0
 73 76  1  0  0  0
 73148  1  0  0  0
 74 83  1  0  0  0
 75 76  2  0  0  0
 75 82  1  0  0  0
 76 85  1  0  0  0
 77 81  1  0  0  0
 77 84  1  0  0  0
 77 86  2  0  0  0
 78 79  1  0  0  0
 78 80  1  0  0  0
 78149  1  0  0  0
 78150  1  0  0  0
 79 81  1  0  0  0
 79151  1  0  0  0
 79152  1  0  0  0
 80 84  1  0  0  0
 80153  1  0  0  0
 80154  1  0  0  0
 81155  1  0  0  0
 82156  1  0  0  0
 82157  1  0  0  0
 82158  1  0  0  0
 83 84  1  0  0  0
 83159  1  0  0  0
 83160  1  0  0  0
 85161  1  0  0  0
M  ISO  4   1 100  68 101  81 101  85 100
M  END
> <chiral flag>
0

> <version>
0

> <s_m_source_file>
/data/baiqing/PycharmProjects/Reinvent-master-3.2/result/LINK_invent/BTK/process_docking_weight1_custom_product_contain_oxygen_bond_distance_aromatic_linkinvent_7_9_3/rearranged_h_0047.sdf

> <i_m_source_file_index>
41

> <r_mmod_Potential_Energy-OPLS-2005>
272.948944091797

> <r_mmod_Stretch_Energy-OPLS-2005>
138.050506591797

> <r_mmod_Bend_Energy-OPLS-2005>
174.041854858398

> <r_mmod_Torsional_Energy-OPLS-2005>
298.955017089844

> <r_mmod_Improper_Torsional_Energy-OPLS-2005>
13.1792783737183

> <r_mmod_Van_der_Waal_Energy-OPLS-2005>
139.971069335938

> <r_mmod_Electrostatic_Energy-OPLS-2005>
-353.644012451172

> <r_mmod_Solvation_Energy-OPLS-2005>
-229.624710083008

> <b_mmod_Minimization_Converged-OPLS-2005>
0

> <r_mmod_RMS_Derivative-OPLS-2005>
1.78075683116913

$$$$
41
                    3D
 Structure written by MMmdl.
174183  0  0  1  0            999 V2000
  -30.6364  -14.7177   20.4262 C   0  0  0  0  0  0
  -30.4220  -12.4314   19.4656 C   0  0  0  0  0  0
  -29.5036  -12.5059   18.2278 C   0  0  0  0  0  0
  -28.0306  -12.3357   18.6459 C   0  0  0  0  0  0
  -27.6413  -13.2354   19.8510 C   0  0  2  0  0  0
  -28.6889  -13.1709   20.9839 C   0  0  0  0  0  0
  -25.2487  -13.8196   20.5670 C   0  0  0  0  0  0
  -24.1810  -13.0443   20.9228 C   0  0  0  0  0  0
  -24.6414  -11.6916   20.8760 C   0  0  0  0  0  0
  -23.9100  -10.4297   21.0413 C   0  0  0  0  0  0
  -24.3635   -9.4208   21.9190 C   0  0  0  0  0  0
  -23.6299   -8.2249   22.0745 C   0  0  0  0  0  0
  -22.4279   -8.0280   21.3556 C   0  0  0  0  0  0
  -21.9940   -9.0268   20.4659 C   0  0  0  0  0  0
  -22.7272  -10.2142   20.3072 C   0  0  0  0  0  0
  -21.6852   -6.0750   22.5277 C   0  0  0  0  0  0
  -21.4018   -6.5643   23.8216 C   0  0  0  0  0  0
  -21.3666   -5.6795   24.9169 C   0  0  0  0  0  0
  -21.6038   -4.3055   24.7224 C   0  0  0  0  0  0
  -21.8813   -3.8157   23.4342 C   0  0  0  0  0  0
  -21.9194   -4.6981   22.3393 C   0  0  0  0  0  0
  -22.7842  -13.5223   21.1875 C   0  0  0  0  0  0
  -22.1656   -4.2160   21.0985 F   0  0  0  0  0  0
  -21.5633   -3.4541   25.7745 F   0  0  0  0  0  0
  -29.9920  -13.5030   20.3933 N   0  0  0  0  0  0
  -26.2936  -12.9421   20.3312 N   0  0  0  0  0  0
  -25.9344  -11.6554   20.5786 N   0  0  0  0  0  0
  -22.0493  -12.8205   22.0418 N   0  0  0  0  0  0
  -25.4129  -15.1903   20.3930 N   0  0  0  0  0  0
  -31.8344  -14.7636   20.1440 O   0  0  0  0  0  0
  -21.6629   -6.8886   21.4238 O   0  0  0  0  0  0
  -22.3537  -14.5539   20.6722 O   0  0  0  0  0  0
  -24.6327  -31.8546   23.1987 C   0  0  0  0  0  0
  -25.9144  -32.4750   23.8352 C   0  0  1  0  0  0
  -27.2191  -27.2748   20.1026 C   0  0  0  0  0  0
  -25.5944  -33.8550   24.2272 N   0  0  0  0  0  0
  -23.4305  -30.4763   21.5438 C   0  0  2  0  0  0
  -24.8735  -28.9292   20.1011 C   0  0  0  0  0  0
  -22.7523  -29.4556   22.4912 C   0  0  0  0  0  0
  -18.0280  -28.1375   22.8502 C   0  0  0  0  0  0
  -24.1462  -36.7279   23.2660 C   0  0  0  0  0  0
  -25.9758  -30.7659   21.3812 C   0  0  0  0  0  0
  -26.0419  -29.3920   20.7162 C   0  0  0  0  0  0
  -27.2129  -28.5729   20.7119 C   0  0  0  0  0  0
  -26.0258  -26.8725   19.4616 C   0  0  0  0  0  0
  -24.8702  -27.6794   19.4608 C   0  0  0  0  0  0
  -23.6438  -29.8155   20.1567 C   0  0  0  0  0  0
  -25.4096  -36.3067   24.0348 C   0  0  1  0  0  0
  -20.5895  -28.3673   23.1283 C   0  0  2  0  0  0
  -20.6765  -26.9385   22.5411 C   0  0  0  0  0  0
  -19.5718  -26.6367   21.5232 C   0  0  0  0  0  0
  -18.1892  -26.7922   22.1632 C   0  0  0  0  0  0
  -19.1542  -28.8842   23.2884 C   0  0  0  0  0  0
  -18.9482  -30.1469   23.8877 C   0  0  0  0  0  0
  -17.6470  -30.6587   24.0559 C   0  0  0  0  0  0
  -25.9050  -34.9434   23.5107 C   0  0  0  0  0  0
  -16.5356  -29.9082   23.6344 C   0  0  0  0  0  0
  -16.7278  -28.6499   23.0374 C   0  0  0  0  0  0
  -26.4480  -31.6606   25.0783 C   0  0  0  0  0  0
  -25.3676  -31.3729   26.1498 C   0  0  0  0  0  0
  -27.0406  -30.3053   24.6283 C   0  0  0  0  0  0
  -27.6008  -32.4411   25.7540 C   0  0  0  0  0  0
  -27.5553  -37.1796   24.8481 C   0  0  0  0  0  0
  -21.4224  -29.3006   22.3683 N   0  0  0  0  0  0
  -26.4269  -37.3773   23.9423 N   0  0  0  0  0  0
  -24.6988  -31.0499   22.0966 N   0  0  0  0  0  0
  -23.4227  -28.8092   23.2998 O   0  0  0  0  0  0
  -28.3462  -26.4287   20.1792 O   0  0  0  0  0  0
  -26.5598  -34.8880   22.4665 O   0  0  0  0  0  0
  -23.5473  -32.1367   23.7275 O   0  0  0  0  0  0
  -31.8525  -19.0871   19.9184 C   0  0  0  0  0  0
  -30.8995  -20.1093   20.0557 C   0  0  0  0  0  0
  -31.5088  -17.7314   20.0751 C   0  0  0  0  0  0
  -29.5420  -19.8125   20.3071 C   0  0  0  0  0  0
  -29.2026  -18.3958   20.4671 C   0  0  0  0  0  0
  -30.1860  -17.3174   20.3722 C   0  0  0  0  0  0
  -28.0430  -23.7863   20.4005 C   0  0  0  0  0  0
  -27.0820  -23.8968   21.3530 C   0  0  0  0  0  0
  -25.0254  -21.1442   21.9370 C   0  0  0  0  0  0
  -26.5237  -22.9208   22.2017 C   0  0  0  0  0  0
  -30.1172  -23.6580   18.2028 C   0  0  0  0  0  0
  -29.8866  -24.9383   19.0355 C   0  0  0  0  0  0
  -29.1534  -22.5055   18.5516 C   0  0  0  0  0  0
  -28.4434  -25.0723   19.5518 C   0  0  2  0  0  0
  -27.7497  -18.0292   20.7305 C   0  0  0  0  0  0
  -24.1516  -20.2720   21.0649 C   0  0  0  0  0  0
  -28.5135  -21.0308   20.4494 C   0  0  0  0  0  0
  -25.7126  -22.1107   21.4647 N   0  0  0  0  0  0
  -29.8678  -15.8703   20.5584 N   0  0  0  0  0  0
  -26.7346  -22.8150   23.4680 N   0  3  0  0  0  0
  -28.8705  -22.4728   20.0074 N   0  3  2  0  0  0
  -31.4668  -12.5261   19.1637 H   0  0  0  0  0  0
  -30.3406  -11.4554   19.9464 H   0  0  0  0  0  0
  -29.7777  -11.7395   17.5026 H   0  0  0  0  0  0
  -29.6364  -13.4659   17.7263 H   0  0  0  0  0  0
  -27.8853  -11.2869   18.9090 H   0  0  0  0  0  0
  -27.3708  -12.5320   17.8005 H   0  0  0  0  0  0
  -27.6364  -14.2586   19.4733 H   0  0  0  0  0  0
  -28.7136  -12.1769   21.4330 H   0  0  0  0  0  0
  -28.4348  -13.8630   21.7871 H   0  0  0  0  0  0
  -25.2785   -9.5660   22.4757 H   0  0  0  0  0  0
  -24.0002   -7.4636   22.7450 H   0  0  0  0  0  0
  -21.0883   -8.8811   19.8953 H   0  0  0  0  0  0
  -22.3756  -10.9688   19.6169 H   0  0  0  0  0  0
  -21.2006   -7.6155   23.9723 H   0  0  0  0  0  0
  -21.1489   -6.0529   25.9080 H   0  0  0  0  0  0
  -22.0586   -2.7622   23.2845 H   0  0  0  0  0  0
  -22.4111  -11.9850   22.4781 H   0  0  0  0  0  0
  -21.1104  -13.1202   22.2606 H   0  0  0  0  0  0
  -24.6155  -15.8143   20.4330 H   0  0  0  0  0  0
  -26.2127  -15.6037   19.9345 H   0  0  0  0  0  0
  -26.7209  -32.5361   23.1084 H   0  0  0  0  0  0
  -25.0181  -33.9693   25.0473 H   0  0  0  0  0  0
  -22.7311  -31.3034   21.4009 H   0  0  0  0  0  0
  -23.3746  -35.9597   23.3335 H   0  0  0  0  0  0
  -24.3545  -36.8892   22.2072 H   0  0  0  0  0  0
  -23.7171  -37.6458   23.6688 H   0  0  0  0  0  0
  -26.1333  -31.5282   20.6170 H   0  0  0  0  0  0
  -26.8480  -30.8030   22.0234 H   0  0  0  0  0  0
  -28.1095  -28.9167   21.2089 H   0  0  0  0  0  0
  -25.9424  -25.9200   18.9619 H   0  0  0  0  0  0
  -23.9764  -27.3307   18.9625 H   0  0  0  0  0  0
  -23.7648  -30.5976   19.4052 H   0  0  0  0  0  0
  -22.7600  -29.2525   19.8549 H   0  0  0  0  0  0
  -25.1257  -36.1940   25.0849 H   0  0  0  0  0  0
  -21.0013  -28.3253   24.1397 H   0  0  0  0  0  0
  -20.5716  -26.2266   23.3617 H   0  0  0  0  0  0
  -21.6616  -26.7408   22.1154 H   0  0  0  0  0  0
  -19.6889  -25.6285   21.1252 H   0  0  0  0  0  0
  -19.6666  -27.3195   20.6779 H   0  0  0  0  0  0
  -17.4168  -26.6729   21.4016 H   0  0  0  0  0  0
  -18.0244  -26.0056   22.9012 H   0  0  0  0  0  0
  -19.7949  -30.7316   24.2201 H   0  0  0  0  0  0
  -17.5000  -31.6245   24.5185 H   0  0  0  0  0  0
  -15.5353  -30.2966   23.7669 H   0  0  0  0  0  0
  -15.8676  -28.0811   22.7109 H   0  0  0  0  0  0
  -24.5844  -30.7095   25.7791 H   0  0  0  0  0  0
  -24.8863  -32.2882   26.4967 H   0  0  0  0  0  0
  -25.7957  -30.8856   27.0265 H   0  0  0  0  0  0
  -26.3029  -29.6744   24.1312 H   0  0  0  0  0  0
  -27.4132  -29.7358   25.4806 H   0  0  0  0  0  0
  -27.8849  -30.4407   23.9526 H   0  0  0  0  0  0
  -27.2610  -33.3758   26.2004 H   0  0  0  0  0  0
  -28.3819  -32.6924   25.0360 H   0  0  0  0  0  0
  -28.0666  -31.8642   26.5527 H   0  0  0  0  0  0
  -28.2576  -38.0084   24.7537 H   0  0  0  0  0  0
  -28.1027  -36.2618   24.6303 H   0  0  0  0  0  0
  -27.2279  -37.1439   25.8883 H   0  0  0  0  0  0
  -20.9433  -29.8776   21.6913 H   0  0  0  0  0  0
  -26.0161  -38.2855   24.1426 H   0  0  0  0  0  0
  -32.8779  -19.3515   19.6896 H   0  0  0  0  0  0
  -31.2428  -21.1291   19.9513 H   0  0  0  0  0  0
  -32.3187  -17.0296   19.9530 H   0  0  0  0  0  0
  -26.6454  -24.8723   21.5080 H   0  0  0  0  0  0
  -25.0233  -20.8698   22.9962 H   0  0  0  0  0  0
  -31.1475  -23.3272   18.3436 H   0  0  0  0  0  0
  -30.0161  -23.8813   17.1387 H   0  0  0  0  0  0
  -30.1603  -25.8095   18.4399 H   0  0  0  0  0  0
  -30.5671  -24.9489   19.8887 H   0  0  0  0  0  0
  -29.5733  -21.5652   18.1907 H   0  0  0  0  0  0
  -28.2074  -22.6247   18.0167 H   0  0  0  0  0  0
  -27.8257  -25.0660   18.6560 H   0  0  0  0  0  0
  -27.1947  -18.0065   19.7923 H   0  0  0  0  0  0
  -27.2689  -18.7468   21.3942 H   0  0  0  0  0  0
  -27.6517  -17.0544   21.2061 H   0  0  0  0  0  0
  -24.7685  -19.6196   20.4487 H   0  0  0  0  0  0
  -23.5360  -20.8837   20.4060 H   0  0  0  0  0  0
  -23.4889  -19.6582   21.6762 H   0  0  0  0  0  0
  -28.2874  -21.0440   21.5132 H   0  0  0  0  0  0
  -27.5940  -20.7466   19.9370 H   0  0  0  0  0  0
  -28.9016  -15.6728   20.7559 H   0  0  0  0  0  0
  -27.3242  -23.4825   23.9455 H   0  0  0  0  0  0
  -26.2908  -22.1194   24.0463 H   0  0  0  0  0  0
  -29.7774  -22.5944   20.4331 H   0  0  0  0  0  0
  1 25  1  0  0  0
  1 30  2  0  0  0
  1 89  1  0  0  0
  2  3  1  0  0  0
  2 25  1  0  0  0
  2 92  1  0  0  0
  2 93  1  0  0  0
  3  4  1  0  0  0
  3 94  1  0  0  0
  3 95  1  0  0  0
  4  5  1  0  0  0
  4 96  1  0  0  0
  4 97  1  0  0  0
  5  6  1  0  0  0
  5 26  1  0  0  0
  5 98  1  0  0  0
  6 25  1  0  0  0
  6 99  1  0  0  0
  6100  1  0  0  0
  7  8  2  0  0  0
  7 26  1  0  0  0
  7 29  1  0  0  0
  8  9  1  0  0  0
  8 22  1  0  0  0
  9 10  1  0  0  0
  9 27  2  0  0  0
 10 11  2  0  0  0
 10 15  1  0  0  0
 11 12  1  0  0  0
 11101  1  0  0  0
 12 13  2  0  0  0
 12102  1  0  0  0
 13 14  1  0  0  0
 13 31  1  0  0  0
 14 15  2  0  0  0
 14103  1  0  0  0
 15104  1  0  0  0
 16 17  2  0  0  0
 16 21  1  0  0  0
 16 31  1  0  0  0
 17 18  1  0  0  0
 17105  1  0  0  0
 18 19  2  0  0  0
 18106  1  0  0  0
 19 20  1  0  0  0
 19 24  1  0  0  0
 20 21  2  0  0  0
 20107  1  0  0  0
 21 23  1  0  0  0
 22 28  1  0  0  0
 22 32  2  0  0  0
 26 27  1  0  0  0
 28108  1  0  0  0
 28109  1  0  0  0
 29110  1  0  0  0
 29111  1  0  0  0
 33 34  1  0  0  0
 33 66  1  0  0  0
 33 70  2  0  0  0
 34 36  1  0  0  0
 34 59  1  0  0  0
 34112  1  0  0  0
 35 44  2  0  0  0
 35 45  1  0  0  0
 35 68  1  0  0  0
 36 56  1  0  0  0
 36113  1  0  0  0
 37 39  1  0  0  0
 37 47  1  0  0  0
 37 66  1  0  0  0
 37114  1  0  0  0
 38 43  2  0  0  0
 38 46  1  0  0  0
 38 47  1  0  0  0
 39 64  1  0  0  0
 39 67  2  0  0  0
 40 52  1  0  0  0
 40 53  2  0  0  0
 40 58  1  0  0  0
 41115  1  0  0  0
 41116  1  0  0  0
 41117  1  0  0  0
 41 48  1  0  0  0
 42 43  1  0  0  0
 42 66  1  0  0  0
 42118  1  0  0  0
 42119  1  0  0  0
 43 44  1  0  0  0
 44120  1  0  0  0
 45 46  2  0  0  0
 45121  1  0  0  0
 46122  1  0  0  0
 47123  1  0  0  0
 47124  1  0  0  0
 48 56  1  0  0  0
 48 65  1  0  0  0
 48125  1  0  0  0
 49 50  1  0  0  0
 49 53  1  0  0  0
 49 64  1  0  0  0
 49126  1  0  0  0
 50 51  1  0  0  0
 50127  1  0  0  0
 50128  1  0  0  0
 51 52  1  0  0  0
 51129  1  0  0  0
 51130  1  0  0  0
 52131  1  0  0  0
 52132  1  0  0  0
 53 54  1  0  0  0
 54 55  2  0  0  0
 54133  1  0  0  0
 55 57  1  0  0  0
 55134  1  0  0  0
 56 69  2  0  0  0
 57 58  2  0  0  0
 57135  1  0  0  0
 58136  1  0  0  0
 59 60  1  0  0  0
 59 61  1  0  0  0
 59 62  1  0  0  0
 60137  1  0  0  0
 60138  1  0  0  0
 60139  1  0  0  0
 61140  1  0  0  0
 61141  1  0  0  0
 61142  1  0  0  0
 62143  1  0  0  0
 62144  1  0  0  0
 62145  1  0  0  0
 63 65  1  0  0  0
 63146  1  0  0  0
 63147  1  0  0  0
 63148  1  0  0  0
 64149  1  0  0  0
 65150  1  0  0  0
 68 84  1  0  0  0
 71 72  2  0  0  0
 71 73  1  0  0  0
 71151  1  0  0  0
 72 74  1  0  0  0
 72152  1  0  0  0
 73 76  2  0  0  0
 73153  1  0  0  0
 74 75  2  0  0  0
 74 87  1  0  0  0
 75 76  1  0  0  0
 75 85  1  0  0  0
 76 89  1  0  0  0
 77 78  2  0  0  0
 77 84  1  0  0  0
 77 91  1  0  0  0
 78 80  1  0  0  0
 78154  1  0  0  0
 79 86  1  0  0  0
 79 88  2  0  0  0
 79155  1  0  0  0
 80 88  1  0  0  0
 80 90  2  0  0  0
 81 82  1  0  0  0
 81 83  1  0  0  0
 81156  1  0  0  0
 81157  1  0  0  0
 82 84  1  0  0  0
 82158  1  0  0  0
 82159  1  0  0  0
 83 91  1  0  0  0
 83160  1  0  0  0
 83161  1  0  0  0
 84162  1  0  0  0
 85163  1  0  0  0
 85164  1  0  0  0
 85165  1  0  0  0
 86166  1  0  0  0
 86167  1  0  0  0
 86168  1  0  0  0
 87169  1  0  0  0
 87170  1  0  0  0
 87 91  1  0  0  0
 89171  1  0  0  0
 90172  1  0  0  0
 90173  1  0  0  0
 91174  1  0  0  0
M  CHG  2  90   1  91   1
M  ISO  4   1 100  68 101  84 101  89 100
M  END
> <chiral flag>
0

> <version>
0

> <s_m_source_file>
/data/baiqing/PycharmProjects/Reinvent-master-3.2/result/LINK_invent/BTK/process_docking_weight1_custom_product_contain_oxygen_bond_distance_aromatic_linkinvent_7_9_3/rearranged_h_0047.sdf

> <i_m_source_file_index>
42

> <r_mmod_Potential_Energy-OPLS-2005>
-188.120559692383

> <r_mmod_Stretch_Energy-OPLS-2005>
139.474563598633

> <r_mmod_Bend_Energy-OPLS-2005>
209.143676757812

> <r_mmod_Torsional_Energy-OPLS-2005>
269.206207275391

> <r_mmod_Improper_Torsional_Energy-OPLS-2005>
6.02544260025024

> <r_mmod_Van_der_Waal_Energy-OPLS-2005>
152.362167358398

> <r_mmod_Electrostatic_Energy-OPLS-2005>
-57.8512535095215

> <r_mmod_Solvation_Energy-OPLS-2005>
-981.974792480469

> <b_mmod_Minimization_Converged-OPLS-2005>
0

> <r_mmod_RMS_Derivative-OPLS-2005>
3.78309369087219

$$$$
42
                    3D
 Structure written by MMmdl.
157165  0  0  1  0            999 V2000
  -30.6585  -14.5428   20.5011 C   0  0  0  0  0  0
  -30.4296  -12.3242   19.4561 C   0  0  0  0  0  0
  -29.5110  -12.4882   18.2238 C   0  0  0  0  0  0
  -28.0286  -12.3519   18.6248 C   0  0  0  0  0  0
  -27.6586  -13.2080   19.8665 C   0  0  2  0  0  0
  -28.6979  -13.0348   21.0003 C   0  0  0  0  0  0
  -25.2590  -13.8162   20.5694 C   0  0  0  0  0  0
  -24.1845  -13.0446   20.9205 C   0  0  0  0  0  0
  -24.6382  -11.6907   20.8728 C   0  0  0  0  0  0
  -23.9044  -10.4306   21.0405 C   0  0  0  0  0  0
  -24.3601   -9.4232   21.9181 C   0  0  0  0  0  0
  -23.6304   -8.2250   22.0738 C   0  0  0  0  0  0
  -22.4281   -8.0281   21.3546 C   0  0  0  0  0  0
  -21.9909   -9.0250   20.4644 C   0  0  0  0  0  0
  -22.7216  -10.2145   20.3059 C   0  0  0  0  0  0
  -21.6861   -6.0742   22.5293 C   0  0  0  0  0  0
  -21.4001   -6.5642   23.8227 C   0  0  0  0  0  0
  -21.3657   -5.6795   24.9187 C   0  0  0  0  0  0
  -21.6044   -4.3055   24.7236 C   0  0  0  0  0  0
  -21.8816   -3.8154   23.4356 C   0  0  0  0  0  0
  -21.9193   -4.6972   22.3413 C   0  0  0  0  0  0
  -22.7884  -13.5271   21.1885 C   0  0  0  0  0  0
  -22.1676   -4.2154   21.0996 F   0  0  0  0  0  0
  -21.5629   -3.4537   25.7752 F   0  0  0  0  0  0
  -30.0291  -13.3347   20.4497 N   0  0  0  0  0  0
  -26.3011  -12.9318   20.3316 N   0  0  0  0  0  0
  -25.9302  -11.6482   20.5728 N   0  0  0  0  0  0
  -22.0489  -12.8262   22.0416 N   0  0  0  0  0  0
  -25.4313  -15.1885   20.4119 N   0  0  0  0  0  0
  -31.8069  -14.7100   20.0816 O   0  0  0  0  0  0
  -21.6642   -6.8885   21.4255 O   0  0  0  0  0  0
  -22.3590  -14.5588   20.6736 O   0  0  0  0  0  0
  -24.6137  -31.8659   23.2070 C   0  0  0  0  0  0
  -25.9040  -32.4816   23.8371 C   0  0  1  0  0  0
  -27.2464  -27.4199   20.0927 C   0  0  0  0  0  0
  -25.5917  -33.8619   24.2310 N   0  0  0  0  0  0
  -23.4003  -30.4879   21.5467 C   0  0  2  0  0  0
  -24.8481  -28.9439   20.1144 C   0  0  0  0  0  0
  -22.7392  -29.4650   22.4979 C   0  0  0  0  0  0
  -18.0272  -28.1363   22.8505 C   0  0  0  0  0  0
  -24.1481  -36.7301   23.2633 C   0  0  0  0  0  0
  -25.9272  -30.8298   21.3547 C   0  0  0  0  0  0
  -26.0064  -29.4589   20.7089 C   0  0  0  0  0  0
  -27.2018  -28.7026   20.6953 C   0  0  0  0  0  0
  -26.0652  -26.9188   19.5007 C   0  0  0  0  0  0
  -24.8739  -27.6740   19.5105 C   0  0  0  0  0  0
  -23.6076  -29.8114   20.1642 C   0  0  0  0  0  0
  -25.4105  -36.3105   24.0338 C   0  0  1  0  0  0
  -20.5860  -28.3654   23.1325 C   0  0  2  0  0  0
  -20.6754  -26.9397   22.5407 C   0  0  0  0  0  0
  -19.5726  -26.6391   21.5203 C   0  0  0  0  0  0
  -18.1912  -26.7911   22.1624 C   0  0  0  0  0  0
  -19.1520  -28.8826   23.2916 C   0  0  0  0  0  0
  -18.9448  -30.1445   23.8913 C   0  0  0  0  0  0
  -17.6447  -30.6567   24.0571 C   0  0  0  0  0  0
  -25.9041  -34.9476   23.5110 C   0  0  0  0  0  0
  -16.5342  -29.9065   23.6337 C   0  0  0  0  0  0
  -16.7268  -28.6481   23.0347 C   0  0  0  0  0  0
  -26.4483  -31.6606   25.0697 C   0  0  0  0  0  0
  -25.3775  -31.3731   26.1472 C   0  0  0  0  0  0
  -27.0300  -30.3052   24.6049 C   0  0  0  0  0  0
  -27.6048  -32.4329   25.7459 C   0  0  0  0  0  0
  -27.5575  -37.1787   24.8455 C   0  0  0  0  0  0
  -21.4117  -29.3034   22.3732 N   0  0  0  0  0  0
  -26.4272  -37.3809   23.9432 N   0  0  0  0  0  0
  -24.6658  -31.0752   22.0968 N   0  0  0  0  0  0
  -23.4158  -28.8216   23.3033 O   0  0  0  0  0  0
  -28.4509  -26.7348   20.1026 O   0  0  0  0  0  0
  -26.5579  -34.8931   22.4660 O   0  0  0  0  0  0
  -23.5338  -32.1420   23.7477 O   0  0  0  0  0  0
  -30.4100  -19.5154   22.7382 C   0  0  0  0  0  0
  -29.7821  -20.6543   22.2027 C   0  0  0  0  0  0
  -30.4088  -18.3034   22.0257 C   0  0  0  0  0  0
  -29.1597  -20.6236   20.9322 C   0  0  0  0  0  0
  -29.8066  -18.2162   20.7524 C   0  0  0  0  0  0
  -29.2137  -19.3956   20.1836 C   0  0  0  0  0  0
  -28.3735  -21.8550   20.4912 C   0  0  0  0  0  0
  -28.6497  -19.3464   18.7629 C   0  0  0  0  0  0
  -29.8522  -16.8645   19.9973 C   0  0  0  0  0  0
  -28.1873  -24.3519   20.8172 C   0  0  0  0  0  0
  -28.5649  -25.3549   19.6956 C   0  0  0  0  0  0
  -28.9080  -23.0611   20.7684 N   0  0  0  0  0  0
  -29.8559  -15.5979   20.7719 N   0  0  0  0  0  0
  -27.2688  -21.7440   19.9554 O   0  0  0  0  0  0
  -31.4778  -12.4172   19.1660 H   0  0  0  0  0  0
  -30.3305  -11.3247   19.8814 H   0  0  0  0  0  0
  -29.7633  -11.7391   17.4711 H   0  0  0  0  0  0
  -29.6790  -13.4600   17.7559 H   0  0  0  0  0  0
  -27.8460  -11.2990   18.8374 H   0  0  0  0  0  0
  -27.3859  -12.6072   17.7816 H   0  0  0  0  0  0
  -27.6847  -14.2475   19.5396 H   0  0  0  0  0  0
  -28.6782  -12.0155   21.3871 H   0  0  0  0  0  0
  -28.4553  -13.6777   21.8487 H   0  0  0  0  0  0
  -25.2744   -9.5726   22.4754 H   0  0  0  0  0  0
  -24.0032   -7.4642   22.7440 H   0  0  0  0  0  0
  -21.0845   -8.8766   19.8950 H   0  0  0  0  0  0
  -22.3668  -10.9683   19.6169 H   0  0  0  0  0  0
  -21.1970   -7.6146   23.9732 H   0  0  0  0  0  0
  -21.1491   -6.0522   25.9093 H   0  0  0  0  0  0
  -22.0585   -2.7617   23.2858 H   0  0  0  0  0  0
  -22.4091  -11.9948   22.4870 H   0  0  0  0  0  0
  -21.1085  -13.1288   22.2535 H   0  0  0  0  0  0
  -24.6639  -15.8421   20.5176 H   0  0  0  0  0  0
  -26.2820  -15.6279   20.0827 H   0  0  0  0  0  0
  -26.7114  -32.5519   23.1138 H   0  0  0  0  0  0
  -25.0134  -33.9790   25.0499 H   0  0  0  0  0  0
  -22.6898  -31.3061   21.4062 H   0  0  0  0  0  0
  -23.3743  -35.9627   23.3268 H   0  0  0  0  0  0
  -24.3585  -36.8929   22.2049 H   0  0  0  0  0  0
  -23.7223  -37.6497   23.6664 H   0  0  0  0  0  0
  -26.0297  -31.5904   20.5786 H   0  0  0  0  0  0
  -26.8192  -30.8946   21.9665 H   0  0  0  0  0  0
  -28.0944  -29.1015   21.1556 H   0  0  0  0  0  0
  -26.0429  -25.9499   19.0262 H   0  0  0  0  0  0
  -23.9814  -27.2713   19.0507 H   0  0  0  0  0  0
  -23.7105  -30.5810   19.3980 H   0  0  0  0  0  0
  -22.7318  -29.2277   19.8736 H   0  0  0  0  0  0
  -25.1275  -36.1953   25.0832 H   0  0  0  0  0  0
  -20.9998  -28.3214   24.1425 H   0  0  0  0  0  0
  -20.5651  -26.2265   23.3578 H   0  0  0  0  0  0
  -21.6626  -26.7424   22.1214 H   0  0  0  0  0  0
  -19.6880  -25.6314   21.1192 H   0  0  0  0  0  0
  -19.6657  -27.3232   20.6754 H   0  0  0  0  0  0
  -17.4193  -26.6708   21.4002 H   0  0  0  0  0  0
  -18.0308  -26.0012   22.8978 H   0  0  0  0  0  0
  -19.7927  -30.7277   24.2254 H   0  0  0  0  0  0
  -17.4997  -31.6248   24.5179 H   0  0  0  0  0  0
  -15.5340  -30.2965   23.7659 H   0  0  0  0  0  0
  -15.8667  -28.0821   22.7032 H   0  0  0  0  0  0
  -24.5936  -30.7070   25.7853 H   0  0  0  0  0  0
  -24.8984  -32.2895   26.4929 H   0  0  0  0  0  0
  -25.8164  -30.8924   27.0223 H   0  0  0  0  0  0
  -26.2823  -29.6807   24.1140 H   0  0  0  0  0  0
  -27.4119  -29.7307   25.4495 H   0  0  0  0  0  0
  -27.8639  -30.4366   23.9148 H   0  0  0  0  0  0
  -27.2657  -33.3622   26.2054 H   0  0  0  0  0  0
  -28.3855  -32.6901   25.0289 H   0  0  0  0  0  0
  -28.0721  -31.8447   26.5364 H   0  0  0  0  0  0
  -28.2581  -38.0100   24.7551 H   0  0  0  0  0  0
  -28.1079  -36.2633   24.6208 H   0  0  0  0  0  0
  -27.2297  -37.1350   25.8857 H   0  0  0  0  0  0
  -20.9260  -29.8771   21.6979 H   0  0  0  0  0  0
  -26.0132  -38.2864   24.1497 H   0  0  0  0  0  0
  -30.8778  -19.5675   23.7130 H   0  0  0  0  0  0
  -29.7631  -21.5566   22.7993 H   0  0  0  0  0  0
  -30.8868  -17.4374   22.4623 H   0  0  0  0  0  0
  -28.7902  -20.2974   18.2470 H   0  0  0  0  0  0
  -27.5835  -19.1186   18.7787 H   0  0  0  0  0  0
  -29.1502  -18.6076   18.1383 H   0  0  0  0  0  0
  -28.9607  -16.7865   19.3748 H   0  0  0  0  0  0
  -30.6931  -16.8996   19.3022 H   0  0  0  0  0  0
  -27.1063  -24.2087   20.8393 H   0  0  0  0  0  0
  -28.4418  -24.7989   21.7785 H   0  0  0  0  0  0
  -28.0403  -25.1431   18.7649 H   0  0  0  0  0  0
  -29.6199  -25.2137   19.4586 H   0  0  0  0  0  0
  -29.8442  -23.0509   21.1489 H   0  0  0  0  0  0
  -28.9712  -15.3569   21.1927 H   0  0  0  0  0  0
  1 25  1  0  0  0
  1 30  2  0  0  0
  1 83  1  0  0  0
  2  3  1  0  0  0
  2 25  1  0  0  0
  2 85  1  0  0  0
  2 86  1  0  0  0
  3  4  1  0  0  0
  3 87  1  0  0  0
  3 88  1  0  0  0
  4  5  1  0  0  0
  4 89  1  0  0  0
  4 90  1  0  0  0
  5  6  1  0  0  0
  5 26  1  0  0  0
  5 91  1  0  0  0
  6 25  1  0  0  0
  6 92  1  0  0  0
  6 93  1  0  0  0
  7  8  2  0  0  0
  7 26  1  0  0  0
  7 29  1  0  0  0
  8  9  1  0  0  0
  8 22  1  0  0  0
  9 10  1  0  0  0
  9 27  2  0  0  0
 10 11  2  0  0  0
 10 15  1  0  0  0
 11 12  1  0  0  0
 11 94  1  0  0  0
 12 13  2  0  0  0
 12 95  1  0  0  0
 13 14  1  0  0  0
 13 31  1  0  0  0
 14 15  2  0  0  0
 14 96  1  0  0  0
 15 97  1  0  0  0
 16 17  2  0  0  0
 16 21  1  0  0  0
 16 31  1  0  0  0
 17 18  1  0  0  0
 17 98  1  0  0  0
 18 19  2  0  0  0
 18 99  1  0  0  0
 19 20  1  0  0  0
 19 24  1  0  0  0
 20 21  2  0  0  0
 20100  1  0  0  0
 21 23  1  0  0  0
 22 28  1  0  0  0
 22 32  2  0  0  0
 26 27  1  0  0  0
 28101  1  0  0  0
 28102  1  0  0  0
 29103  1  0  0  0
 29104  1  0  0  0
 33 34  1  0  0  0
 33 66  1  0  0  0
 33 70  2  0  0  0
 34 36  1  0  0  0
 34 59  1  0  0  0
 34105  1  0  0  0
 35 44  2  0  0  0
 35 45  1  0  0  0
 35 68  1  0  0  0
 36 56  1  0  0  0
 36106  1  0  0  0
 37 39  1  0  0  0
 37 47  1  0  0  0
 37 66  1  0  0  0
 37107  1  0  0  0
 38 43  2  0  0  0
 38 46  1  0  0  0
 38 47  1  0  0  0
 39 64  1  0  0  0
 39 67  2  0  0  0
 40 52  1  0  0  0
 40 53  2  0  0  0
 40 58  1  0  0  0
 41108  1  0  0  0
 41109  1  0  0  0
 41110  1  0  0  0
 41 48  1  0  0  0
 42 43  1  0  0  0
 42 66  1  0  0  0
 42111  1  0  0  0
 42112  1  0  0  0
 43 44  1  0  0  0
 44113  1  0  0  0
 45 46  2  0  0  0
 45114  1  0  0  0
 46115  1  0  0  0
 47116  1  0  0  0
 47117  1  0  0  0
 48 56  1  0  0  0
 48 65  1  0  0  0
 48118  1  0  0  0
 49 50  1  0  0  0
 49 53  1  0  0  0
 49 64  1  0  0  0
 49119  1  0  0  0
 50 51  1  0  0  0
 50120  1  0  0  0
 50121  1  0  0  0
 51 52  1  0  0  0
 51122  1  0  0  0
 51123  1  0  0  0
 52124  1  0  0  0
 52125  1  0  0  0
 53 54  1  0  0  0
 54 55  2  0  0  0
 54126  1  0  0  0
 55 57  1  0  0  0
 55127  1  0  0  0
 56 69  2  0  0  0
 57 58  2  0  0  0
 57128  1  0  0  0
 58129  1  0  0  0
 59 60  1  0  0  0
 59 61  1  0  0  0
 59 62  1  0  0  0
 60130  1  0  0  0
 60131  1  0  0  0
 60132  1  0  0  0
 61133  1  0  0  0
 61134  1  0  0  0
 61135  1  0  0  0
 62136  1  0  0  0
 62137  1  0  0  0
 62138  1  0  0  0
 63 65  1  0  0  0
 63139  1  0  0  0
 63140  1  0  0  0
 63141  1  0  0  0
 64142  1  0  0  0
 65143  1  0  0  0
 68 81  1  0  0  0
 71 72  2  0  0  0
 71 73  1  0  0  0
 71144  1  0  0  0
 72 74  1  0  0  0
 72145  1  0  0  0
 73 75  2  0  0  0
 73146  1  0  0  0
 74 76  2  0  0  0
 74 77  1  0  0  0
 75 76  1  0  0  0
 75 79  1  0  0  0
 76 78  1  0  0  0
 77 82  1  0  0  0
 77 84  2  0  0  0
 78147  1  0  0  0
 78148  1  0  0  0
 78149  1  0  0  0
 79 83  1  0  0  0
 79150  1  0  0  0
 79151  1  0  0  0
 80 81  1  0  0  0
 80 82  1  0  0  0
 80152  1  0  0  0
 80153  1  0  0  0
 81154  1  0  0  0
 81155  1  0  0  0
 82156  1  0  0  0
 83157  1  0  0  0
M  ISO  4   1 100  68 101  81 101  83 100
M  END
> <chiral flag>
0

> <version>
0

> <s_m_source_file>
/data/baiqing/PycharmProjects/Reinvent-master-3.2/result/LINK_invent/BTK/process_docking_weight1_custom_product_contain_oxygen_bond_distance_aromatic_linkinvent_7_9_3/rearranged_h_0047.sdf

> <i_m_source_file_index>
43

> <r_mmod_Potential_Energy-OPLS-2005>
-114.477516174316

> <r_mmod_Stretch_Energy-OPLS-2005>
48.8262786865234

> <r_mmod_Bend_Energy-OPLS-2005>
114.32836151123

> <r_mmod_Torsional_Energy-OPLS-2005>
228.095718383789

> <r_mmod_Improper_Torsional_Energy-OPLS-2005>
9.90103435516357

> <r_mmod_Van_der_Waal_Energy-OPLS-2005>
154.089462280273

> <r_mmod_Electrostatic_Energy-OPLS-2005>
-457.748077392578

> <r_mmod_Solvation_Energy-OPLS-2005>
-232.168395996094

> <b_mmod_Minimization_Converged-OPLS-2005>
0

> <r_mmod_RMS_Derivative-OPLS-2005>
2.72219920158386

$$$$
43
                    3D
 Structure written by MMmdl.
164173  0  0  1  0            999 V2000
  -30.6753  -14.5387   20.5275 C   0  0  0  0  0  0
  -30.4292  -12.3324   19.4480 C   0  0  0  0  0  0
  -29.5054  -12.5085   18.2237 C   0  0  0  0  0  0
  -28.0232  -12.3693   18.6280 C   0  0  0  0  0  0
  -27.6615  -13.2053   19.8852 C   0  0  2  0  0  0
  -28.7076  -13.0237   21.0092 C   0  0  0  0  0  0
  -25.2615  -13.8152   20.5737 C   0  0  0  0  0  0
  -24.1863  -13.0444   20.9198 C   0  0  0  0  0  0
  -24.6411  -11.6908   20.8766 C   0  0  0  0  0  0
  -23.9081  -10.4307   21.0427 C   0  0  0  0  0  0
  -24.3637   -9.4232   21.9197 C   0  0  0  0  0  0
  -23.6326   -8.2264   22.0752 C   0  0  0  0  0  0
  -22.4302   -8.0302   21.3549 C   0  0  0  0  0  0
  -21.9938   -9.0274   20.4650 C   0  0  0  0  0  0
  -22.7261  -10.2159   20.3071 C   0  0  0  0  0  0
  -21.6860   -6.0765   22.5292 C   0  0  0  0  0  0
  -21.4004   -6.5650   23.8234 C   0  0  0  0  0  0
  -21.3663   -5.6795   24.9190 C   0  0  0  0  0  0
  -21.6053   -4.3069   24.7235 C   0  0  0  0  0  0
  -21.8822   -3.8170   23.4348 C   0  0  0  0  0  0
  -21.9195   -4.6984   22.3413 C   0  0  0  0  0  0
  -22.7892  -13.5260   21.1860 C   0  0  0  0  0  0
  -22.1674   -4.2193   21.0980 F   0  0  0  0  0  0
  -21.5639   -3.4537   25.7735 F   0  0  0  0  0  0
  -30.0344  -13.3353   20.4526 N   0  0  0  0  0  0
  -26.3042  -12.9299   20.3443 N   0  0  0  0  0  0
  -25.9334  -11.6463   20.5807 N   0  0  0  0  0  0
  -22.0542  -12.8239   22.0397 N   0  0  0  0  0  0
  -25.4354  -15.1877   20.4160 N   0  0  0  0  0  0
  -31.8161  -14.7088   20.0854 O   0  0  0  0  0  0
  -21.6649   -6.8910   21.4254 O   0  0  0  0  0  0
  -22.3596  -14.5591   20.6739 O   0  0  0  0  0  0
  -24.6180  -31.8660   23.2096 C   0  0  0  0  0  0
  -25.9071  -32.4807   23.8390 C   0  0  1  0  0  0
  -27.2249  -27.3875   20.1069 C   0  0  0  0  0  0
  -25.5920  -33.8610   24.2320 N   0  0  0  0  0  0
  -23.4049  -30.4916   21.5518 C   0  0  2  0  0  0
  -24.8505  -28.9574   20.1125 C   0  0  0  0  0  0
  -22.7404  -29.4651   22.4983 C   0  0  0  0  0  0
  -18.0269  -28.1379   22.8491 C   0  0  0  0  0  0
  -24.1487  -36.7292   23.2636 C   0  0  0  0  0  0
  -25.9398  -30.8154   21.3748 C   0  0  0  0  0  0
  -26.0128  -29.4496   20.7158 C   0  0  0  0  0  0
  -27.1994  -28.6721   20.7110 C   0  0  0  0  0  0
  -26.0432  -26.9330   19.4743 C   0  0  0  0  0  0
  -24.8633  -27.7003   19.4874 C   0  0  0  0  0  0
  -23.6142  -29.8299   20.1642 C   0  0  0  0  0  0
  -25.4113  -36.3098   24.0334 C   0  0  1  0  0  0
  -20.5855  -28.3667   23.1310 C   0  0  2  0  0  0
  -20.6776  -26.9407   22.5420 C   0  0  0  0  0  0
  -19.5751  -26.6391   21.5223 C   0  0  0  0  0  0
  -18.1920  -26.7927   22.1621 C   0  0  0  0  0  0
  -19.1520  -28.8840   23.2894 C   0  0  0  0  0  0
  -18.9450  -30.1449   23.8896 C   0  0  0  0  0  0
  -17.6455  -30.6589   24.0565 C   0  0  0  0  0  0
  -25.9043  -34.9469   23.5122 C   0  0  0  0  0  0
  -16.5343  -29.9086   23.6345 C   0  0  0  0  0  0
  -16.7261  -28.6509   23.0358 C   0  0  0  0  0  0
  -26.4493  -31.6601   25.0736 C   0  0  0  0  0  0
  -25.3747  -31.3727   26.1470 C   0  0  0  0  0  0
  -27.0359  -30.3032   24.6189 C   0  0  0  0  0  0
  -27.6054  -32.4341   25.7493 C   0  0  0  0  0  0
  -27.5580  -37.1804   24.8462 C   0  0  0  0  0  0
  -21.4134  -29.3028   22.3711 N   0  0  0  0  0  0
  -26.4297  -37.3790   23.9406 N   0  0  0  0  0  0
  -24.6717  -31.0727   22.1021 N   0  0  0  0  0  0
  -23.4173  -28.8207   23.3045 O   0  0  0  0  0  0
  -28.3836  -26.6185   20.1616 O   0  0  0  0  0  0
  -26.5598  -34.8911   22.4676 O   0  0  0  0  0  0
  -23.5365  -32.1440   23.7474 O   0  0  0  0  0  0
  -28.7883  -17.9608   18.3276 C   0  0  0  0  0  0
  -29.0673  -16.7802   19.0347 C   0  0  0  0  0  0
  -30.1505  -18.0886   20.7768 C   0  0  0  0  0  0
  -29.2132  -19.2124   18.8139 C   0  0  0  0  0  0
  -29.9059  -19.2978   20.0507 C   0  0  0  0  0  0
  -29.7531  -16.8159   20.2668 C   0  0  0  0  0  0
  -29.8395  -23.0392   20.1781 C   0  0  0  0  0  0
  -27.8454  -22.8594   22.2753 C   0  0  0  0  0  0
  -28.7500  -24.0955   22.2424 C   0  0  0  0  0  0
  -28.6053  -21.6007   21.8166 C   0  0  0  0  0  0
  -29.2931  -24.3527   20.8243 C   0  0  2  0  0  0
  -28.9440  -20.4321   17.9525 C   0  0  0  0  0  0
  -30.5041  -20.6437   20.5414 C   0  0  0  0  0  0
  -28.3041  -25.1810   19.9357 C   0  0  0  0  0  0
  -29.6093  -21.8208   20.7618 N   0  0  0  0  0  0
  -29.9396  -15.5811   20.9836 N   0  0  0  0  0  0
  -30.5666  -23.1551   19.1872 O   0  0  0  0  0  0
  -31.4743  -12.4306   19.1498 H   0  0  0  0  0  0
  -30.3313  -11.3257   19.8588 H   0  0  0  0  0  0
  -29.7572  -11.7759   17.4572 H   0  0  0  0  0  0
  -29.6761  -13.4882   17.7751 H   0  0  0  0  0  0
  -27.8257  -11.3132   18.8130 H   0  0  0  0  0  0
  -27.3834  -12.6523   17.7920 H   0  0  0  0  0  0
  -27.6871  -14.2478   19.5829 H   0  0  0  0  0  0
  -28.7025  -11.9975   21.3800 H   0  0  0  0  0  0
  -28.4664  -13.6509   21.8685 H   0  0  0  0  0  0
  -25.2777   -9.5731   22.4768 H   0  0  0  0  0  0
  -24.0064   -7.4643   22.7436 H   0  0  0  0  0  0
  -21.0892   -8.8807   19.8922 H   0  0  0  0  0  0
  -22.3731  -10.9718   19.6206 H   0  0  0  0  0  0
  -21.1975   -7.6156   23.9748 H   0  0  0  0  0  0
  -21.1483   -6.0523   25.9099 H   0  0  0  0  0  0
  -22.0590   -2.7629   23.2833 H   0  0  0  0  0  0
  -22.4134  -11.9861   22.4737 H   0  0  0  0  0  0
  -21.1162  -13.1275   22.2617 H   0  0  0  0  0  0
  -24.6744  -15.8470   20.5323 H   0  0  0  0  0  0
  -26.2943  -15.6307   20.1172 H   0  0  0  0  0  0
  -26.7124  -32.5497   23.1129 H   0  0  0  0  0  0
  -25.0117  -33.9783   25.0491 H   0  0  0  0  0  0
  -22.6948  -31.3104   21.4169 H   0  0  0  0  0  0
  -23.3764  -35.9609   23.3310 H   0  0  0  0  0  0
  -24.3575  -36.8900   22.2046 H   0  0  0  0  0  0
  -23.7234  -37.6493   23.6651 H   0  0  0  0  0  0
  -26.0706  -31.5895   20.6176 H   0  0  0  0  0  0
  -26.8162  -30.8522   22.0097 H   0  0  0  0  0  0
  -28.0888  -29.0450   21.1981 H   0  0  0  0  0  0
  -26.0029  -25.9852   18.9582 H   0  0  0  0  0  0
  -23.9717  -27.3221   19.0074 H   0  0  0  0  0  0
  -23.7179  -30.6096   19.4085 H   0  0  0  0  0  0
  -22.7351  -29.2548   19.8679 H   0  0  0  0  0  0
  -25.1302  -36.1958   25.0834 H   0  0  0  0  0  0
  -20.9942  -28.3248   24.1431 H   0  0  0  0  0  0
  -20.5714  -26.2271   23.3605 H   0  0  0  0  0  0
  -21.6641  -26.7476   22.1186 H   0  0  0  0  0  0
  -19.6919  -25.6311   21.1237 H   0  0  0  0  0  0
  -19.6695  -27.3211   20.6762 H   0  0  0  0  0  0
  -17.4202  -26.6684   21.4014 H   0  0  0  0  0  0
  -18.0301  -26.0061   22.9004 H   0  0  0  0  0  0
  -19.7932  -30.7270   24.2252 H   0  0  0  0  0  0
  -17.5017  -31.6272   24.5166 H   0  0  0  0  0  0
  -15.5347  -30.2990   23.7687 H   0  0  0  0  0  0
  -15.8656  -28.0839   22.7072 H   0  0  0  0  0  0
  -24.5894  -30.7114   25.7789 H   0  0  0  0  0  0
  -24.8975  -32.2896   26.4937 H   0  0  0  0  0  0
  -25.8069  -30.8859   27.0220 H   0  0  0  0  0  0
  -26.2946  -29.6753   24.1232 H   0  0  0  0  0  0
  -27.4080  -29.7317   25.4706 H   0  0  0  0  0  0
  -27.8797  -30.4322   23.9405 H   0  0  0  0  0  0
  -27.2660  -33.3623   26.2096 H   0  0  0  0  0  0
  -28.3841  -32.6936   25.0312 H   0  0  0  0  0  0
  -28.0753  -31.8468   26.5390 H   0  0  0  0  0  0
  -28.2601  -38.0098   24.7527 H   0  0  0  0  0  0
  -28.1076  -36.2638   24.6281 H   0  0  0  0  0  0
  -27.2292  -37.1438   25.8860 H   0  0  0  0  0  0
  -20.9293  -29.8714   21.6895 H   0  0  0  0  0  0
  -26.0184  -38.2863   24.1424 H   0  0  0  0  0  0
  -28.2579  -17.8946   17.3860 H   0  0  0  0  0  0
  -28.7471  -15.8436   18.6055 H   0  0  0  0  0  0
  -30.6678  -18.1384   21.7264 H   0  0  0  0  0  0
  -26.9793  -23.0210   21.6343 H   0  0  0  0  0  0
  -27.4477  -22.7050   23.2797 H   0  0  0  0  0  0
  -29.5830  -23.9465   22.9325 H   0  0  0  0  0  0
  -28.2159  -24.9751   22.6021 H   0  0  0  0  0  0
  -27.8911  -20.8524   21.4710 H   0  0  0  0  0  0
  -29.1138  -21.1668   22.6776 H   0  0  0  0  0  0
  -30.1755  -24.9838   20.9344 H   0  0  0  0  0  0
  -28.5694  -20.1486   16.9670 H   0  0  0  0  0  0
  -29.8531  -21.0118   17.7958 H   0  0  0  0  0  0
  -28.1977  -21.0698   18.4232 H   0  0  0  0  0  0
  -31.3012  -20.8966   19.8403 H   0  0  0  0  0  0
  -31.0354  -20.4604   21.4766 H   0  0  0  0  0  0
  -27.3068  -24.7968   20.1448 H   0  0  0  0  0  0
  -28.4881  -24.9976   18.8771 H   0  0  0  0  0  0
  -29.1155  -15.2681   21.4762 H   0  0  0  0  0  0
  1 25  1  0  0  0
  1 30  2  0  0  0
  1 86  1  0  0  0
  2  3  1  0  0  0
  2 25  1  0  0  0
  2 88  1  0  0  0
  2 89  1  0  0  0
  3  4  1  0  0  0
  3 90  1  0  0  0
  3 91  1  0  0  0
  4  5  1  0  0  0
  4 92  1  0  0  0
  4 93  1  0  0  0
  5  6  1  0  0  0
  5 26  1  0  0  0
  5 94  1  0  0  0
  6 25  1  0  0  0
  6 95  1  0  0  0
  6 96  1  0  0  0
  7  8  2  0  0  0
  7 26  1  0  0  0
  7 29  1  0  0  0
  8  9  1  0  0  0
  8 22  1  0  0  0
  9 10  1  0  0  0
  9 27  2  0  0  0
 10 11  2  0  0  0
 10 15  1  0  0  0
 11 12  1  0  0  0
 11 97  1  0  0  0
 12 13  2  0  0  0
 12 98  1  0  0  0
 13 14  1  0  0  0
 13 31  1  0  0  0
 14 15  2  0  0  0
 14 99  1  0  0  0
 15100  1  0  0  0
 16 17  2  0  0  0
 16 21  1  0  0  0
 16 31  1  0  0  0
 17 18  1  0  0  0
 17101  1  0  0  0
 18 19  2  0  0  0
 18102  1  0  0  0
 19 20  1  0  0  0
 19 24  1  0  0  0
 20 21  2  0  0  0
 20103  1  0  0  0
 21 23  1  0  0  0
 22 28  1  0  0  0
 22 32  2  0  0  0
 26 27  1  0  0  0
 28104  1  0  0  0
 28105  1  0  0  0
 29106  1  0  0  0
 29107  1  0  0  0
 33 34  1  0  0  0
 33 66  1  0  0  0
 33 70  2  0  0  0
 34 36  1  0  0  0
 34 59  1  0  0  0
 34108  1  0  0  0
 35 44  2  0  0  0
 35 45  1  0  0  0
 35 68  1  0  0  0
 36 56  1  0  0  0
 36109  1  0  0  0
 37 39  1  0  0  0
 37 47  1  0  0  0
 37 66  1  0  0  0
 37110  1  0  0  0
 38 43  2  0  0  0
 38 46  1  0  0  0
 38 47  1  0  0  0
 39 64  1  0  0  0
 39 67  2  0  0  0
 40 52  1  0  0  0
 40 53  2  0  0  0
 40 58  1  0  0  0
 41111  1  0  0  0
 41112  1  0  0  0
 41113  1  0  0  0
 41 48  1  0  0  0
 42 43  1  0  0  0
 42 66  1  0  0  0
 42114  1  0  0  0
 42115  1  0  0  0
 43 44  1  0  0  0
 44116  1  0  0  0
 45 46  2  0  0  0
 45117  1  0  0  0
 46118  1  0  0  0
 47119  1  0  0  0
 47120  1  0  0  0
 48 56  1  0  0  0
 48 65  1  0  0  0
 48121  1  0  0  0
 49 50  1  0  0  0
 49 53  1  0  0  0
 49 64  1  0  0  0
 49122  1  0  0  0
 50 51  1  0  0  0
 50123  1  0  0  0
 50124  1  0  0  0
 51 52  1  0  0  0
 51125  1  0  0  0
 51126  1  0  0  0
 52127  1  0  0  0
 52128  1  0  0  0
 53 54  1  0  0  0
 54 55  2  0  0  0
 54129  1  0  0  0
 55 57  1  0  0  0
 55130  1  0  0  0
 56 69  2  0  0  0
 57 58  2  0  0  0
 57131  1  0  0  0
 58132  1  0  0  0
 59 60  1  0  0  0
 59 61  1  0  0  0
 59 62  1  0  0  0
 60133  1  0  0  0
 60134  1  0  0  0
 60135  1  0  0  0
 61136  1  0  0  0
 61137  1  0  0  0
 61138  1  0  0  0
 62139  1  0  0  0
 62140  1  0  0  0
 62141  1  0  0  0
 63 65  1  0  0  0
 63142  1  0  0  0
 63143  1  0  0  0
 63144  1  0  0  0
 64145  1  0  0  0
 65146  1  0  0  0
 68 84  1  0  0  0
 71 72  2  0  0  0
 71 74  1  0  0  0
 71147  1  0  0  0
 72 76  1  0  0  0
 72148  1  0  0  0
 73 75  1  0  0  0
 73 76  2  0  0  0
 73149  1  0  0  0
 74 75  2  0  0  0
 74 82  1  0  0  0
 75 83  1  0  0  0
 76 86  1  0  0  0
 77 81  1  0  0  0
 77 85  1  0  0  0
 77 87  2  0  0  0
 78 79  1  0  0  0
 78 80  1  0  0  0
 78150  1  0  0  0
 78151  1  0  0  0
 79 81  1  0  0  0
 79152  1  0  0  0
 79153  1  0  0  0
 80 85  1  0  0  0
 80154  1  0  0  0
 80155  1  0  0  0
 81 84  1  0  0  0
 81156  1  0  0  0
 82157  1  0  0  0
 82158  1  0  0  0
 82159  1  0  0  0
 83 85  1  0  0  0
 83160  1  0  0  0
 83161  1  0  0  0
 84162  1  0  0  0
 84163  1  0  0  0
 86164  1  0  0  0
M  ISO  4   1 100  68 101  84 101  86 100
M  END
> <chiral flag>
0

> <version>
0

> <s_m_source_file>
/data/baiqing/PycharmProjects/Reinvent-master-3.2/result/LINK_invent/BTK/process_docking_weight1_custom_product_contain_oxygen_bond_distance_aromatic_linkinvent_7_9_3/rearranged_h_0047.sdf

> <i_m_source_file_index>
44

> <r_mmod_Potential_Energy-OPLS-2005>
55.5764007568359

> <r_mmod_Stretch_Energy-OPLS-2005>
55.4550437927246

> <r_mmod_Bend_Energy-OPLS-2005>
116.716972351074

> <r_mmod_Torsional_Energy-OPLS-2005>
287.849212646484

> <r_mmod_Improper_Torsional_Energy-OPLS-2005>
8.02126502990723

> <r_mmod_Van_der_Waal_Energy-OPLS-2005>
155.983337402344

> <r_mmod_Electrostatic_Energy-OPLS-2005>
-367.160919189453

> <r_mmod_Solvation_Energy-OPLS-2005>
-224.261352539062

> <b_mmod_Minimization_Converged-OPLS-2005>
0

> <r_mmod_RMS_Derivative-OPLS-2005>
3.19482016563416

$$$$
44
                    3D
 Structure written by MMmdl.
163172  0  0  1  0            999 V2000
  -30.6392  -14.7660   20.4179 C   0  0  0  0  0  0
  -30.4169  -12.4702   19.4634 C   0  0  0  0  0  0
  -29.5013  -12.5053   18.2256 C   0  0  0  0  0  0
  -28.0301  -12.3356   18.6508 C   0  0  0  0  0  0
  -27.6344  -13.2472   19.8449 C   0  0  2  0  0  0
  -28.6858  -13.2279   20.9723 C   0  0  0  0  0  0
  -25.2494  -13.8238   20.5767 C   0  0  0  0  0  0
  -24.1800  -13.0459   20.9209 C   0  0  0  0  0  0
  -24.6411  -11.6947   20.8726 C   0  0  0  0  0  0
  -23.9115  -10.4323   21.0381 C   0  0  0  0  0  0
  -24.3650   -9.4235   21.9168 C   0  0  0  0  0  0
  -23.6327   -8.2267   22.0759 C   0  0  0  0  0  0
  -22.4300   -8.0308   21.3559 C   0  0  0  0  0  0
  -21.9950   -9.0285   20.4646 C   0  0  0  0  0  0
  -22.7279  -10.2165   20.3046 C   0  0  0  0  0  0
  -21.6864   -6.0759   22.5279 C   0  0  0  0  0  0
  -21.4026   -6.5657   23.8219 C   0  0  0  0  0  0
  -21.3656   -5.6800   24.9170 C   0  0  0  0  0  0
  -21.6051   -4.3070   24.7230 C   0  0  0  0  0  0
  -21.8818   -3.8168   23.4353 C   0  0  0  0  0  0
  -21.9210   -4.6991   22.3414 C   0  0  0  0  0  0
  -22.7817  -13.5226   21.1903 C   0  0  0  0  0  0
  -22.1672   -4.2170   21.0993 F   0  0  0  0  0  0
  -21.5637   -3.4553   25.7748 F   0  0  0  0  0  0
  -29.9660  -13.5667   20.3503 N   0  0  0  0  0  0
  -26.2928  -12.9484   20.3317 N   0  0  0  0  0  0
  -25.9347  -11.6595   20.5732 N   0  0  0  0  0  0
  -22.0494  -12.8184   22.0440 N   0  0  0  0  0  0
  -25.4138  -15.1973   20.4332 N   0  0  0  0  0  0
  -31.8653  -14.7551   20.2971 O   0  0  0  0  0  0
  -21.6656   -6.8904   21.4245 O   0  0  0  0  0  0
  -22.3491  -14.5559   20.6790 O   0  0  0  0  0  0
  -24.6326  -31.8525   23.1968 C   0  0  0  0  0  0
  -25.9144  -32.4732   23.8322 C   0  0  1  0  0  0
  -27.2174  -27.2478   20.1398 C   0  0  0  0  0  0
  -25.5909  -33.8533   24.2216 N   0  0  0  0  0  0
  -23.4298  -30.4755   21.5400 C   0  0  2  0  0  0
  -24.8783  -28.9172   20.1148 C   0  0  0  0  0  0
  -22.7501  -29.4595   22.4891 C   0  0  0  0  0  0
  -18.0290  -28.1394   22.8466 C   0  0  0  0  0  0
  -24.1490  -36.7267   23.2639 C   0  0  0  0  0  0
  -25.9776  -30.7660   21.3758 C   0  0  0  0  0  0
  -26.0527  -29.3871   20.7179 C   0  0  0  0  0  0
  -27.2307  -28.5685   20.7108 C   0  0  0  0  0  0
  -26.0207  -26.8421   19.5179 C   0  0  0  0  0  0
  -24.8675  -27.6533   19.5030 C   0  0  0  0  0  0
  -23.6501  -29.8066   20.1581 C   0  0  0  0  0  0
  -25.4118  -36.3044   24.0315 C   0  0  1  0  0  0
  -20.5897  -28.3702   23.1253 C   0  0  2  0  0  0
  -20.6779  -26.9410   22.5418 C   0  0  0  0  0  0
  -19.5759  -26.6382   21.5211 C   0  0  0  0  0  0
  -18.1938  -26.7926   22.1618 C   0  0  0  0  0  0
  -19.1553  -28.8862   23.2851 C   0  0  0  0  0  0
  -18.9465  -30.1457   23.8872 C   0  0  0  0  0  0
  -17.6471  -30.6587   24.0557 C   0  0  0  0  0  0
  -25.9070  -34.9421   23.5078 C   0  0  0  0  0  0
  -16.5359  -29.9088   23.6328 C   0  0  0  0  0  0
  -16.7279  -28.6513   23.0333 C   0  0  0  0  0  0
  -26.4509  -31.6574   25.0720 C   0  0  0  0  0  0
  -25.3722  -31.3750   26.1435 C   0  0  0  0  0  0
  -27.0353  -30.2972   24.6243 C   0  0  0  0  0  0
  -27.6055  -32.4329   25.7485 C   0  0  0  0  0  0
  -27.5573  -37.1789   24.8458 C   0  0  0  0  0  0
  -21.4212  -29.3028   22.3618 N   0  0  0  0  0  0
  -26.4282  -37.3750   23.9410 N   0  0  0  0  0  0
  -24.6994  -31.0499   22.0937 N   0  0  0  0  0  0
  -23.4206  -28.8138   23.2993 O   0  0  0  0  0  0
  -28.3040  -26.3410   20.1245 O   0  0  0  0  0  0
  -26.5670  -34.8909   22.4663 O   0  0  0  0  0  0
  -23.5468  -32.1347   23.7257 O   0  0  0  0  0  0
  -29.4919  -18.4338   20.0792 C   0  0  0  0  0  0
  -27.6427  -17.9075   21.9532 C   0  0  0  0  0  0
  -28.6960  -19.5818   20.5066 C   0  0  0  0  0  0
  -27.6854  -19.2340   21.4557 C   0  0  0  0  0  0
  -29.3336  -17.0753   20.5872 C   0  0  0  0  0  0
  -28.3866  -23.6309   19.9165 C   0  0  0  0  0  0
  -29.0381  -23.6258   22.7335 C   0  0  0  0  0  0
  -29.0956  -24.9675   21.9901 C   0  0  0  0  0  0
  -29.4359  -22.4438   21.8271 C   0  0  0  0  0  0
  -28.1548  -24.9822   20.7769 C   0  0  1  0  0  0
  -26.6531  -20.5408   23.4125 C   0  0  0  0  0  0
  -28.8456  -21.0417   19.8200 C   0  0  0  0  0  0
  -26.5510  -20.1547   21.9283 C   0  0  0  0  0  0
  -28.4232  -16.8766   21.5552 N   0  0  0  0  0  0
  -28.7611  -22.4176   20.5209 N   0  0  0  0  0  0
  -30.0185  -15.9248   19.9668 N   0  0  0  0  0  0
  -28.1560  -23.6802   18.7041 O   0  0  0  0  0  0
  -25.4079  -19.4798   21.7960 F   0  0  0  0  0  0
  -26.4131  -21.2565   21.1984 F   0  0  0  0  0  0
  -31.4585  -12.5804   19.1587 H   0  0  0  0  0  0
  -30.3478  -11.5054   19.9685 H   0  0  0  0  0  0
  -29.7822  -11.7233   17.5196 H   0  0  0  0  0  0
  -29.6306  -13.4529   17.6994 H   0  0  0  0  0  0
  -27.8945  -11.2890   18.9245 H   0  0  0  0  0  0
  -27.3681  -12.5240   17.8051 H   0  0  0  0  0  0
  -27.6143  -14.2639   19.4514 H   0  0  0  0  0  0
  -28.7350  -12.2523   21.4600 H   0  0  0  0  0  0
  -28.4316  -13.9588   21.7417 H   0  0  0  0  0  0
  -25.2797   -9.5725   22.4731 H   0  0  0  0  0  0
  -24.0052   -7.4669   22.7490 H   0  0  0  0  0  0
  -21.0881   -8.8824   19.8961 H   0  0  0  0  0  0
  -22.3730  -10.9715   19.6172 H   0  0  0  0  0  0
  -21.2005   -7.6163   23.9729 H   0  0  0  0  0  0
  -21.1478   -6.0517   25.9078 H   0  0  0  0  0  0
  -22.0609   -2.7632   23.2859 H   0  0  0  0  0  0
  -22.4162  -11.9870   22.4857 H   0  0  0  0  0  0
  -21.1071  -13.1103   22.2617 H   0  0  0  0  0  0
  -24.6489  -15.8448   20.5826 H   0  0  0  0  0  0
  -26.3006  -15.6553   20.2590 H   0  0  0  0  0  0
  -26.7206  -32.5365   23.1061 H   0  0  0  0  0  0
  -24.9959  -33.9677   25.0289 H   0  0  0  0  0  0
  -22.7270  -31.2976   21.3911 H   0  0  0  0  0  0
  -23.3754  -35.9601   23.3293 H   0  0  0  0  0  0
  -24.3569  -36.8901   22.2056 H   0  0  0  0  0  0
  -23.7268  -37.6466   23.6682 H   0  0  0  0  0  0
  -26.1243  -31.5308   20.6122 H   0  0  0  0  0  0
  -26.8535  -30.8112   22.0117 H   0  0  0  0  0  0
  -28.1344  -28.9325   21.1795 H   0  0  0  0  0  0
  -25.9718  -25.8704   19.0473 H   0  0  0  0  0  0
  -23.9678  -27.2869   19.0273 H   0  0  0  0  0  0
  -23.7757  -30.5825   19.4019 H   0  0  0  0  0  0
  -22.7678  -29.2412   19.8517 H   0  0  0  0  0  0
  -25.1315  -36.1872   25.0809 H   0  0  0  0  0  0
  -20.9990  -28.3298   24.1369 H   0  0  0  0  0  0
  -20.5652  -26.2319   23.3632 H   0  0  0  0  0  0
  -21.6650  -26.7410   22.1225 H   0  0  0  0  0  0
  -19.6933  -25.6296   21.1226 H   0  0  0  0  0  0
  -19.6708  -27.3204   20.6750 H   0  0  0  0  0  0
  -17.4206  -26.6641   21.4028 H   0  0  0  0  0  0
  -18.0349  -26.0090   22.9037 H   0  0  0  0  0  0
  -19.7949  -30.7269   24.2240 H   0  0  0  0  0  0
  -17.5030  -31.6256   24.5167 H   0  0  0  0  0  0
  -15.5363  -30.2987   23.7664 H   0  0  0  0  0  0
  -15.8675  -28.0836   22.7050 H   0  0  0  0  0  0
  -24.5900  -30.7094   25.7767 H   0  0  0  0  0  0
  -24.8923  -32.2934   26.4818 H   0  0  0  0  0  0
  -25.8031  -30.8953   27.0233 H   0  0  0  0  0  0
  -26.2961  -29.6731   24.1205 H   0  0  0  0  0  0
  -27.3932  -29.7223   25.4797 H   0  0  0  0  0  0
  -27.8884  -30.4207   23.9569 H   0  0  0  0  0  0
  -27.2646  -33.3628   26.2049 H   0  0  0  0  0  0
  -28.3867  -32.6896   25.0318 H   0  0  0  0  0  0
  -28.0732  -31.8478   26.5408 H   0  0  0  0  0  0
  -28.2587  -38.0086   24.7492 H   0  0  0  0  0  0
  -28.1068  -36.2617   24.6295 H   0  0  0  0  0  0
  -27.2285  -37.1447   25.8857 H   0  0  0  0  0  0
  -20.9404  -29.8715   21.6784 H   0  0  0  0  0  0
  -26.0144  -38.2812   24.1424 H   0  0  0  0  0  0
  -30.2189  -18.6003   19.2966 H   0  0  0  0  0  0
  -26.8893  -17.6311   22.6768 H   0  0  0  0  0  0
  -28.0375  -23.4715   23.1409 H   0  0  0  0  0  0
  -29.7104  -23.6583   23.5906 H   0  0  0  0  0  0
  -30.1148  -25.1587   21.6507 H   0  0  0  0  0  0
  -28.8410  -25.7743   22.6778 H   0  0  0  0  0  0
  -29.2643  -21.5117   22.3581 H   0  0  0  0  0  0
  -30.5103  -22.4752   21.6421 H   0  0  0  0  0  0
  -27.1354  -24.8989   21.1575 H   0  0  0  0  0  0
  -27.5691  -21.0768   23.6427 H   0  0  0  0  0  0
  -26.6226  -19.6579   24.0507 H   0  0  0  0  0  0
  -25.8241  -21.1843   23.7066 H   0  0  0  0  0  0
  -28.1182  -21.0565   19.0058 H   0  0  0  0  0  0
  -29.8143  -21.0387   19.3208 H   0  0  0  0  0  0
  -30.6153  -16.2717   19.2327 H   0  0  0  0  0  0
  1 25  1  0  0  0
  1 30  2  0  0  0
  1 86  1  0  0  0
  2  3  1  0  0  0
  2 25  1  0  0  0
  2 90  1  0  0  0
  2 91  1  0  0  0
  3  4  1  0  0  0
  3 92  1  0  0  0
  3 93  1  0  0  0
  4  5  1  0  0  0
  4 94  1  0  0  0
  4 95  1  0  0  0
  5  6  1  0  0  0
  5 26  1  0  0  0
  5 96  1  0  0  0
  6 25  1  0  0  0
  6 97  1  0  0  0
  6 98  1  0  0  0
  7  8  2  0  0  0
  7 26  1  0  0  0
  7 29  1  0  0  0
  8  9  1  0  0  0
  8 22  1  0  0  0
  9 10  1  0  0  0
  9 27  2  0  0  0
 10 11  2  0  0  0
 10 15  1  0  0  0
 11 12  1  0  0  0
 11 99  1  0  0  0
 12 13  2  0  0  0
 12100  1  0  0  0
 13 14  1  0  0  0
 13 31  1  0  0  0
 14 15  2  0  0  0
 14101  1  0  0  0
 15102  1  0  0  0
 16 17  2  0  0  0
 16 21  1  0  0  0
 16 31  1  0  0  0
 17 18  1  0  0  0
 17103  1  0  0  0
 18 19  2  0  0  0
 18104  1  0  0  0
 19 20  1  0  0  0
 19 24  1  0  0  0
 20 21  2  0  0  0
 20105  1  0  0  0
 21 23  1  0  0  0
 22 28  1  0  0  0
 22 32  2  0  0  0
 26 27  1  0  0  0
 28106  1  0  0  0
 28107  1  0  0  0
 29108  1  0  0  0
 29109  1  0  0  0
 33 34  1  0  0  0
 33 66  1  0  0  0
 33 70  2  0  0  0
 34 36  1  0  0  0
 34 59  1  0  0  0
 34110  1  0  0  0
 35 44  2  0  0  0
 35 45  1  0  0  0
 35 68  1  0  0  0
 36 56  1  0  0  0
 36111  1  0  0  0
 37 39  1  0  0  0
 37 47  1  0  0  0
 37 66  1  0  0  0
 37112  1  0  0  0
 38 43  2  0  0  0
 38 46  1  0  0  0
 38 47  1  0  0  0
 39 64  1  0  0  0
 39 67  2  0  0  0
 40 52  1  0  0  0
 40 53  2  0  0  0
 40 58  1  0  0  0
 41113  1  0  0  0
 41114  1  0  0  0
 41115  1  0  0  0
 41 48  1  0  0  0
 42 43  1  0  0  0
 42 66  1  0  0  0
 42116  1  0  0  0
 42117  1  0  0  0
 43 44  1  0  0  0
 44118  1  0  0  0
 45 46  2  0  0  0
 45119  1  0  0  0
 46120  1  0  0  0
 47121  1  0  0  0
 47122  1  0  0  0
 48 56  1  0  0  0
 48 65  1  0  0  0
 48123  1  0  0  0
 49 50  1  0  0  0
 49 53  1  0  0  0
 49 64  1  0  0  0
 49124  1  0  0  0
 50 51  1  0  0  0
 50125  1  0  0  0
 50126  1  0  0  0
 51 52  1  0  0  0
 51127  1  0  0  0
 51128  1  0  0  0
 52129  1  0  0  0
 52130  1  0  0  0
 53 54  1  0  0  0
 54 55  2  0  0  0
 54131  1  0  0  0
 55 57  1  0  0  0
 55132  1  0  0  0
 56 69  2  0  0  0
 57 58  2  0  0  0
 57133  1  0  0  0
 58134  1  0  0  0
 59 60  1  0  0  0
 59 61  1  0  0  0
 59 62  1  0  0  0
 60135  1  0  0  0
 60136  1  0  0  0
 60137  1  0  0  0
 61138  1  0  0  0
 61139  1  0  0  0
 61140  1  0  0  0
 62141  1  0  0  0
 62142  1  0  0  0
 62143  1  0  0  0
 63 65  1  0  0  0
 63144  1  0  0  0
 63145  1  0  0  0
 63146  1  0  0  0
 64147  1  0  0  0
 65148  1  0  0  0
 68 80  1  0  0  0
 71 73  2  0  0  0
 71 75  1  0  0  0
 71149  1  0  0  0
 72 74  2  0  0  0
 72 84  1  0  0  0
 72150  1  0  0  0
 73 74  1  0  0  0
 73 82  1  0  0  0
 74 83  1  0  0  0
 75 84  2  0  0  0
 75 86  1  0  0  0
 76 80  1  0  0  0
 76 85  1  0  0  0
 76 87  2  0  0  0
 77 78  1  0  0  0
 77 79  1  0  0  0
 77151  1  0  0  0
 77152  1  0  0  0
 78 80  1  0  0  0
 78153  1  0  0  0
 78154  1  0  0  0
 79 85  1  0  0  0
 79155  1  0  0  0
 79156  1  0  0  0
 80157  1  0  0  0
 81158  1  0  0  0
 81159  1  0  0  0
 81160  1  0  0  0
 81 83  1  0  0  0
 82 85  1  0  0  0
 82161  1  0  0  0
 82162  1  0  0  0
 83 88  1  0  0  0
 83 89  1  0  0  0
 86163  1  0  0  0
M  ISO  4   1 100  68 101  80 101  86 100
M  END
> <chiral flag>
0

> <version>
0

> <s_m_source_file>
/data/baiqing/PycharmProjects/Reinvent-master-3.2/result/LINK_invent/BTK/process_docking_weight1_custom_product_contain_oxygen_bond_distance_aromatic_linkinvent_7_9_3/rearranged_h_0047.sdf

> <i_m_source_file_index>
45

> <r_mmod_Potential_Energy-OPLS-2005>
192.77897644043

> <r_mmod_Stretch_Energy-OPLS-2005>
142.633270263672

> <r_mmod_Bend_Energy-OPLS-2005>
215.446548461914

> <r_mmod_Torsional_Energy-OPLS-2005>
306.636779785156

> <r_mmod_Improper_Torsional_Energy-OPLS-2005>
30.1673583984375

> <r_mmod_Van_der_Waal_Energy-OPLS-2005>
134.199493408203

> <r_mmod_Electrostatic_Energy-OPLS-2005>
-516.642883300781

> <r_mmod_Solvation_Energy-OPLS-2005>
-221.958786010742

> <b_mmod_Minimization_Converged-OPLS-2005>
0

> <r_mmod_RMS_Derivative-OPLS-2005>
3.09068417549133

$$$$
45
                    3D
 Structure written by MMmdl.
159167  0  0  1  0            999 V2000
  -30.7840  -14.3428   20.7151 C   0  0  0  0  0  0
  -30.4157  -12.2943   19.3851 C   0  0  0  0  0  0
  -29.4799  -12.5350   18.1870 C   0  0  0  0  0  0
  -28.0062  -12.3840   18.6067 C   0  0  0  0  0  0
  -27.6661  -13.2027   19.8794 C   0  0  2  0  0  0
  -28.7037  -12.9366   20.9911 C   0  0  0  0  0  0
  -25.2604  -13.8162   20.5670 C   0  0  0  0  0  0
  -24.1843  -13.0445   20.9152 C   0  0  0  0  0  0
  -24.6394  -11.6908   20.8723 C   0  0  0  0  0  0
  -23.9061  -10.4297   21.0407 C   0  0  0  0  0  0
  -24.3610   -9.4217   21.9192 C   0  0  0  0  0  0
  -23.6281   -8.2252   22.0764 C   0  0  0  0  0  0
  -22.4266   -8.0288   21.3552 C   0  0  0  0  0  0
  -21.9905   -9.0258   20.4650 C   0  0  0  0  0  0
  -22.7239  -10.2135   20.3055 C   0  0  0  0  0  0
  -21.6853   -6.0737   22.5278 C   0  0  0  0  0  0
  -21.4005   -6.5636   23.8210 C   0  0  0  0  0  0
  -21.3656   -5.6786   24.9170 C   0  0  0  0  0  0
  -21.6045   -4.3050   24.7216 C   0  0  0  0  0  0
  -21.8822   -3.8147   23.4337 C   0  0  0  0  0  0
  -21.9192   -4.6966   22.3398 C   0  0  0  0  0  0
  -22.7867  -13.5247   21.1828 C   0  0  0  0  0  0
  -22.1662   -4.2158   21.0975 F   0  0  0  0  0  0
  -21.5629   -3.4533   25.7728 F   0  0  0  0  0  0
  -30.0487  -13.2301   20.4576 N   0  0  0  0  0  0
  -26.3046  -12.9325   20.3382 N   0  0  0  0  0  0
  -25.9319  -11.6489   20.5752 N   0  0  0  0  0  0
  -22.0503  -12.8228   22.0377 N   0  0  0  0  0  0
  -25.4339  -15.1877   20.4092 N   0  0  0  0  0  0
  -31.7857  -14.6519   20.0610 O   0  0  0  0  0  0
  -21.6636   -6.8882   21.4243 O   0  0  0  0  0  0
  -22.3555  -14.5572   20.6703 O   0  0  0  0  0  0
  -24.6070  -31.8720   23.2123 C   0  0  0  0  0  0
  -25.8988  -32.4847   23.8409 C   0  0  1  0  0  0
  -27.2652  -27.4895   20.1012 C   0  0  0  0  0  0
  -25.5876  -33.8642   24.2356 N   0  0  0  0  0  0
  -23.3929  -30.4917   21.5513 C   0  0  2  0  0  0
  -24.8447  -28.9600   20.1203 C   0  0  0  0  0  0
  -22.7368  -29.4669   22.5028 C   0  0  0  0  0  0
  -18.0257  -28.1370   22.8487 C   0  0  0  0  0  0
  -24.1472  -36.7304   23.2635 C   0  0  0  0  0  0
  -25.9100  -30.8600   21.3505 C   0  0  0  0  0  0
  -25.9957  -29.4936   20.7085 C   0  0  0  0  0  0
  -27.2045  -28.7733   20.6965 C   0  0  0  0  0  0
  -26.0933  -26.9634   19.5163 C   0  0  0  0  0  0
  -24.8847  -27.6886   19.5216 C   0  0  0  0  0  0
  -23.5998  -29.8155   20.1677 C   0  0  0  0  0  0
  -25.4097  -36.3124   24.0345 C   0  0  1  0  0  0
  -20.5840  -28.3633   23.1337 C   0  0  2  0  0  0
  -20.6753  -26.9379   22.5424 C   0  0  0  0  0  0
  -19.5741  -26.6376   21.5209 C   0  0  0  0  0  0
  -18.1909  -26.7917   22.1608 C   0  0  0  0  0  0
  -19.1506  -28.8817   23.2909 C   0  0  0  0  0  0
  -18.9444  -30.1429   23.8919 C   0  0  0  0  0  0
  -17.6451  -30.6577   24.0568 C   0  0  0  0  0  0
  -25.9025  -34.9488   23.5148 C   0  0  0  0  0  0
  -16.5338  -29.9085   23.6332 C   0  0  0  0  0  0
  -16.7247  -28.6504   23.0344 C   0  0  0  0  0  0
  -26.4458  -31.6601   25.0697 C   0  0  0  0  0  0
  -25.3756  -31.3645   26.1458 C   0  0  0  0  0  0
  -27.0288  -30.3070   24.5980 C   0  0  0  0  0  0
  -27.6034  -32.4310   25.7479 C   0  0  0  0  0  0
  -27.5584  -37.1793   24.8454 C   0  0  0  0  0  0
  -21.4103  -29.3019   22.3768 N   0  0  0  0  0  0
  -26.4273  -37.3816   23.9436 N   0  0  0  0  0  0
  -24.6550  -31.0871   22.0990 N   0  0  0  0  0  0
  -23.4171  -28.8226   23.3059 O   0  0  0  0  0  0
  -28.3945  -26.7002   20.0233 O   0  0  0  0  0  0
  -26.5581  -34.8927   22.4706 O   0  0  0  0  0  0
  -23.5281  -32.1447   23.7556 O   0  0  0  0  0  0
  -32.8298  -17.5873   23.0559 C   0  0  0  0  0  0
  -31.9499  -18.4693   23.7110 C   0  0  0  0  0  0
  -32.3280  -16.4521   22.3920 C   0  0  0  0  0  0
  -30.5619  -18.2161   23.7155 C   0  0  0  0  0  0
  -30.9362  -16.1971   22.3761 C   0  0  0  0  0  0
  -30.0618  -17.0742   23.0506 C   0  0  0  0  0  0
  -30.0327  -23.7029   22.6208 C   0  0  0  0  0  0
  -29.4233  -22.5180   22.8153 C   0  0  0  0  0  0
  -29.4830  -24.7383   21.7699 C   0  0  0  0  0  0
  -30.1145  -25.9055   21.5575 C   0  0  0  0  0  0
  -30.0032  -21.5196   23.6967 C   0  0  0  0  0  0
  -29.6216  -19.1700   24.4388 C   0  0  0  0  0  0
  -29.5965  -27.0530   20.7128 C   0  0  0  0  0  0
  -30.3549  -15.0560   21.7655 N   0  0  0  0  0  0
  -29.3199  -20.3703   23.6629 N   0  0  0  0  0  0
  -30.9957  -21.6835   24.4098 O   0  0  0  0  0  0
  -28.7319  -16.8076   23.0527 F   0  0  0  0  0  0
  -31.4585  -12.3980   19.0784 H   0  0  0  0  0  0
  -30.3161  -11.2686   19.7441 H   0  0  0  0  0  0
  -29.7112  -11.8368   17.3815 H   0  0  0  0  0  0
  -29.6451  -13.5352   17.7837 H   0  0  0  0  0  0
  -27.8169  -11.3246   18.7845 H   0  0  0  0  0  0
  -27.3497  -12.6760   17.7864 H   0  0  0  0  0  0
  -27.7255  -14.2580   19.6119 H   0  0  0  0  0  0
  -28.6652  -11.8903   21.2969 H   0  0  0  0  0  0
  -28.4427  -13.5027   21.8853 H   0  0  0  0  0  0
  -25.2755   -9.5689   22.4767 H   0  0  0  0  0  0
  -23.9984   -7.4647   22.7492 H   0  0  0  0  0  0
  -21.0837   -8.8783   19.8951 H   0  0  0  0  0  0
  -22.3715  -10.9673   19.6154 H   0  0  0  0  0  0
  -21.1989   -7.6141   23.9718 H   0  0  0  0  0  0
  -21.1471   -6.0511   25.9072 H   0  0  0  0  0  0
  -22.0601   -2.7610   23.2833 H   0  0  0  0  0  0
  -22.4093  -11.9856   22.4725 H   0  0  0  0  0  0
  -21.1127  -13.1268   22.2593 H   0  0  0  0  0  0
  -24.6733  -15.8486   20.5240 H   0  0  0  0  0  0
  -26.3018  -15.6300   20.1315 H   0  0  0  0  0  0
  -26.7065  -32.5598   23.1191 H   0  0  0  0  0  0
  -25.0073  -33.9824   25.0531 H   0  0  0  0  0  0
  -22.6784  -31.3051   21.4093 H   0  0  0  0  0  0
  -23.3765  -35.9600   23.3258 H   0  0  0  0  0  0
  -24.3580  -36.8956   22.2058 H   0  0  0  0  0  0
  -23.7166  -37.6469   23.6673 H   0  0  0  0  0  0
  -25.9990  -31.6231   20.5761 H   0  0  0  0  0  0
  -26.8051  -30.9313   21.9559 H   0  0  0  0  0  0
  -28.0659  -29.2495   21.1351 H   0  0  0  0  0  0
  -26.1215  -25.9875   19.0518 H   0  0  0  0  0  0
  -23.9999  -27.2661   19.0663 H   0  0  0  0  0  0
  -23.6988  -30.5862   19.4024 H   0  0  0  0  0  0
  -22.7290  -29.2244   19.8781 H   0  0  0  0  0  0
  -25.1271  -36.1989   25.0835 H   0  0  0  0  0  0
  -20.9920  -28.3184   24.1461 H   0  0  0  0  0  0
  -20.5653  -26.2240   23.3598 H   0  0  0  0  0  0
  -21.6625  -26.7433   22.1208 H   0  0  0  0  0  0
  -19.6899  -25.6295   21.1216 H   0  0  0  0  0  0
  -19.6695  -27.3207   20.6758 H   0  0  0  0  0  0
  -17.4190  -26.6691   21.3991 H   0  0  0  0  0  0
  -18.0282  -26.0041   22.8981 H   0  0  0  0  0  0
  -19.7922  -30.7241   24.2293 H   0  0  0  0  0  0
  -17.5009  -31.6262   24.5155 H   0  0  0  0  0  0
  -15.5348  -30.3004   23.7653 H   0  0  0  0  0  0
  -15.8636  -28.0847   22.7047 H   0  0  0  0  0  0
  -24.5947  -30.6974   25.7783 H   0  0  0  0  0  0
  -24.8924  -32.2770   26.4964 H   0  0  0  0  0  0
  -25.8141  -30.8781   27.0180 H   0  0  0  0  0  0
  -26.2798  -29.6823   24.1097 H   0  0  0  0  0  0
  -27.4183  -29.7294   25.4372 H   0  0  0  0  0  0
  -27.8566  -30.4433   23.9017 H   0  0  0  0  0  0
  -27.2663  -33.3613   26.2065 H   0  0  0  0  0  0
  -28.3872  -32.6866   25.0333 H   0  0  0  0  0  0
  -28.0666  -31.8415   26.5400 H   0  0  0  0  0  0
  -28.2546  -38.0153   24.7612 H   0  0  0  0  0  0
  -28.1149  -36.2692   24.6153 H   0  0  0  0  0  0
  -27.2318  -37.1265   25.8856 H   0  0  0  0  0  0
  -20.9258  -29.8744   21.6995 H   0  0  0  0  0  0
  -26.0161  -38.2871   24.1530 H   0  0  0  0  0  0
  -33.8945  -17.7765   23.0676 H   0  0  0  0  0  0
  -32.3454  -19.3364   24.2218 H   0  0  0  0  0  0
  -33.0278  -15.7817   21.9155 H   0  0  0  0  0  0
  -30.9704  -23.8984   23.1257 H   0  0  0  0  0  0
  -28.4882  -22.3150   22.3110 H   0  0  0  0  0  0
  -28.5242  -24.5700   21.2972 H   0  0  0  0  0  0
  -31.0746  -26.0806   22.0235 H   0  0  0  0  0  0
  -30.0559  -19.4372   25.4040 H   0  0  0  0  0  0
  -28.6843  -18.6624   24.6710 H   0  0  0  0  0  0
  -30.3524  -27.3141   19.9714 H   0  0  0  0  0  0
  -29.5226  -27.8946   21.3940 H   0  0  0  0  0  0
  -29.4607  -14.7778   22.1402 H   0  0  0  0  0  0
  -28.5117  -20.3261   23.0581 H   0  0  0  0  0  0
  1 25  1  0  0  0
  1 30  2  0  0  0
  1 84  1  0  0  0
  2  3  1  0  0  0
  2 25  1  0  0  0
  2 88  1  0  0  0
  2 89  1  0  0  0
  3  4  1  0  0  0
  3 90  1  0  0  0
  3 91  1  0  0  0
  4  5  1  0  0  0
  4 92  1  0  0  0
  4 93  1  0  0  0
  5  6  1  0  0  0
  5 26  1  0  0  0
  5 94  1  0  0  0
  6 25  1  0  0  0
  6 95  1  0  0  0
  6 96  1  0  0  0
  7  8  2  0  0  0
  7 26  1  0  0  0
  7 29  1  0  0  0
  8  9  1  0  0  0
  8 22  1  0  0  0
  9 10  1  0  0  0
  9 27  2  0  0  0
 10 11  2  0  0  0
 10 15  1  0  0  0
 11 12  1  0  0  0
 11 97  1  0  0  0
 12 13  2  0  0  0
 12 98  1  0  0  0
 13 14  1  0  0  0
 13 31  1  0  0  0
 14 15  2  0  0  0
 14 99  1  0  0  0
 15100  1  0  0  0
 16 17  2  0  0  0
 16 21  1  0  0  0
 16 31  1  0  0  0
 17 18  1  0  0  0
 17101  1  0  0  0
 18 19  2  0  0  0
 18102  1  0  0  0
 19 20  1  0  0  0
 19 24  1  0  0  0
 20 21  2  0  0  0
 20103  1  0  0  0
 21 23  1  0  0  0
 22 28  1  0  0  0
 22 32  2  0  0  0
 26 27  1  0  0  0
 28104  1  0  0  0
 28105  1  0  0  0
 29106  1  0  0  0
 29107  1  0  0  0
 33 34  1  0  0  0
 33 66  1  0  0  0
 33 70  2  0  0  0
 34 36  1  0  0  0
 34 59  1  0  0  0
 34108  1  0  0  0
 35 44  2  0  0  0
 35 45  1  0  0  0
 35 68  1  0  0  0
 36 56  1  0  0  0
 36109  1  0  0  0
 37 39  1  0  0  0
 37 47  1  0  0  0
 37 66  1  0  0  0
 37110  1  0  0  0
 38 43  2  0  0  0
 38 46  1  0  0  0
 38 47  1  0  0  0
 39 64  1  0  0  0
 39 67  2  0  0  0
 40 52  1  0  0  0
 40 53  2  0  0  0
 40 58  1  0  0  0
 41111  1  0  0  0
 41112  1  0  0  0
 41113  1  0  0  0
 41 48  1  0  0  0
 42 43  1  0  0  0
 42 66  1  0  0  0
 42114  1  0  0  0
 42115  1  0  0  0
 43 44  1  0  0  0
 44116  1  0  0  0
 45 46  2  0  0  0
 45117  1  0  0  0
 46118  1  0  0  0
 47119  1  0  0  0
 47120  1  0  0  0
 48 56  1  0  0  0
 48 65  1  0  0  0
 48121  1  0  0  0
 49 50  1  0  0  0
 49 53  1  0  0  0
 49 64  1  0  0  0
 49122  1  0  0  0
 50 51  1  0  0  0
 50123  1  0  0  0
 50124  1  0  0  0
 51 52  1  0  0  0
 51125  1  0  0  0
 51126  1  0  0  0
 52127  1  0  0  0
 52128  1  0  0  0
 53 54  1  0  0  0
 54 55  2  0  0  0
 54129  1  0  0  0
 55 57  1  0  0  0
 55130  1  0  0  0
 56 69  2  0  0  0
 57 58  2  0  0  0
 57131  1  0  0  0
 58132  1  0  0  0
 59 60  1  0  0  0
 59 61  1  0  0  0
 59 62  1  0  0  0
 60133  1  0  0  0
 60134  1  0  0  0
 60135  1  0  0  0
 61136  1  0  0  0
 61137  1  0  0  0
 61138  1  0  0  0
 62139  1  0  0  0
 62140  1  0  0  0
 62141  1  0  0  0
 63 65  1  0  0  0
 63142  1  0  0  0
 63143  1  0  0  0
 63144  1  0  0  0
 64145  1  0  0  0
 65146  1  0  0  0
 68 83  1  0  0  0
 71 72  2  0  0  0
 71 73  1  0  0  0
 71147  1  0  0  0
 72 74  1  0  0  0
 72148  1  0  0  0
 73 75  2  0  0  0
 73149  1  0  0  0
 74 76  2  0  0  0
 74 82  1  0  0  0
 75 76  1  0  0  0
 75 84  1  0  0  0
 76 87  1  0  0  0
 77 78  2  0  0  0
 77 79  1  0  0  0
 77150  1  0  0  0
 78 81  1  0  0  0
 78151  1  0  0  0
 79 80  2  0  0  0
 79152  1  0  0  0
 80 83  1  0  0  0
 80153  1  0  0  0
 81 85  1  0  0  0
 81 86  2  0  0  0
 82 85  1  0  0  0
 82154  1  0  0  0
 82155  1  0  0  0
 83156  1  0  0  0
 83157  1  0  0  0
 84158  1  0  0  0
 85159  1  0  0  0
M  ISO  4   1 100  68 101  83 101  84 100
M  END
> <chiral flag>
0

> <version>
0

> <s_m_source_file>
/data/baiqing/PycharmProjects/Reinvent-master-3.2/result/LINK_invent/BTK/process_docking_weight1_custom_product_contain_oxygen_bond_distance_aromatic_linkinvent_7_9_3/rearranged_h_0047.sdf

> <i_m_source_file_index>
46

> <r_mmod_Potential_Energy-OPLS-2005>
-185.628494262695

> <r_mmod_Stretch_Energy-OPLS-2005>
31.9812469482422

> <r_mmod_Bend_Energy-OPLS-2005>
104.509620666504

> <r_mmod_Torsional_Energy-OPLS-2005>
197.050277709961

> <r_mmod_Improper_Torsional_Energy-OPLS-2005>
1.80491638183594

> <r_mmod_Van_der_Waal_Energy-OPLS-2005>
166.457931518555

> <r_mmod_Electrostatic_Energy-OPLS-2005>
-469.992095947266

> <r_mmod_Solvation_Energy-OPLS-2005>
-223.218856811523

> <b_mmod_Minimization_Converged-OPLS-2005>
0

> <r_mmod_RMS_Derivative-OPLS-2005>
1.1761931180954

$$$$
46
                    3D
 Structure written by MMmdl.
171180  0  0  1  0            999 V2000
  -30.7675  -14.3858   20.6509 C   0  0  0  0  0  0
  -30.4111  -12.2883   19.4059 C   0  0  0  0  0  0
  -29.4848  -12.5213   18.1982 C   0  0  0  0  0  0
  -28.0080  -12.3843   18.6125 C   0  0  0  0  0  0
  -27.6648  -13.2084   19.8822 C   0  0  2  0  0  0
  -28.7042  -12.9666   21.0003 C   0  0  0  0  0  0
  -25.2587  -13.8171   20.5677 C   0  0  0  0  0  0
  -24.1833  -13.0440   20.9157 C   0  0  0  0  0  0
  -24.6395  -11.6909   20.8729 C   0  0  0  0  0  0
  -23.9059  -10.4294   21.0401 C   0  0  0  0  0  0
  -24.3609   -9.4213   21.9180 C   0  0  0  0  0  0
  -23.6289   -8.2248   22.0754 C   0  0  0  0  0  0
  -22.4274   -8.0284   21.3541 C   0  0  0  0  0  0
  -21.9911   -9.0253   20.4638 C   0  0  0  0  0  0
  -22.7236  -10.2133   20.3047 C   0  0  0  0  0  0
  -21.6851   -6.0733   22.5274 C   0  0  0  0  0  0
  -21.4008   -6.5636   23.8207 C   0  0  0  0  0  0
  -21.3660   -5.6792   24.9172 C   0  0  0  0  0  0
  -21.6045   -4.3057   24.7224 C   0  0  0  0  0  0
  -21.8822   -3.8149   23.4347 C   0  0  0  0  0  0
  -21.9191   -4.6960   22.3400 C   0  0  0  0  0  0
  -22.7859  -13.5230   21.1829 C   0  0  0  0  0  0
  -22.1664   -4.2149   21.0978 F   0  0  0  0  0  0
  -21.5631   -3.4543   25.7742 F   0  0  0  0  0  0
  -30.0448  -13.2512   20.4562 N   0  0  0  0  0  0
  -26.3039  -12.9346   20.3402 N   0  0  0  0  0  0
  -25.9321  -11.6497   20.5765 N   0  0  0  0  0  0
  -22.0503  -12.8220   22.0389 N   0  0  0  0  0  0
  -25.4312  -15.1887   20.4099 N   0  0  0  0  0  0
  -31.8165  -14.6266   20.0468 O   0  0  0  0  0  0
  -21.6638   -6.8880   21.4238 O   0  0  0  0  0  0
  -22.3542  -14.5540   20.6689 O   0  0  0  0  0  0
  -24.6108  -31.8699   23.2126 C   0  0  0  0  0  0
  -25.9017  -32.4823   23.8415 C   0  0  1  0  0  0
  -27.2331  -27.4463   20.0743 C   0  0  0  0  0  0
  -25.5890  -33.8627   24.2346 N   0  0  0  0  0  0
  -23.3974  -30.4939   21.5524 C   0  0  2  0  0  0
  -24.8425  -28.9626   20.1141 C   0  0  0  0  0  0
  -22.7386  -29.4667   22.4998 C   0  0  0  0  0  0
  -18.0276  -28.1349   22.8489 C   0  0  0  0  0  0
  -24.1485  -36.7311   23.2638 C   0  0  0  0  0  0
  -25.9270  -30.8286   21.3739 C   0  0  0  0  0  0
  -25.9985  -29.4637   20.7228 C   0  0  0  0  0  0
  -27.1882  -28.7033   20.7176 C   0  0  0  0  0  0
  -26.0614  -26.9693   19.4435 C   0  0  0  0  0  0
  -24.8667  -27.7110   19.4782 C   0  0  0  0  0  0
  -23.6048  -29.8268   20.1666 C   0  0  0  0  0  0
  -25.4110  -36.3115   24.0335 C   0  0  1  0  0  0
  -20.5859  -28.3641   23.1310 C   0  0  2  0  0  0
  -20.6766  -26.9378   22.5410 C   0  0  0  0  0  0
  -19.5755  -26.6357   21.5193 C   0  0  0  0  0  0
  -18.1924  -26.7895   22.1602 C   0  0  0  0  0  0
  -19.1522  -28.8812   23.2895 C   0  0  0  0  0  0
  -18.9455  -30.1413   23.8913 C   0  0  0  0  0  0
  -17.6462  -30.6562   24.0557 C   0  0  0  0  0  0
  -25.9040  -34.9475   23.5142 C   0  0  0  0  0  0
  -16.5354  -29.9060   23.6327 C   0  0  0  0  0  0
  -16.7267  -28.6465   23.0365 C   0  0  0  0  0  0
  -26.4462  -31.6593   25.0734 C   0  0  0  0  0  0
  -25.3729  -31.3647   26.1471 C   0  0  0  0  0  0
  -27.0323  -30.3050   24.6111 C   0  0  0  0  0  0
  -27.6042  -32.4312   25.7493 C   0  0  0  0  0  0
  -27.5584  -37.1807   24.8462 C   0  0  0  0  0  0
  -21.4120  -29.3020   22.3723 N   0  0  0  0  0  0
  -26.4299  -37.3797   23.9408 N   0  0  0  0  0  0
  -24.6625  -31.0799   22.1033 N   0  0  0  0  0  0
  -23.4167  -28.8211   23.3030 O   0  0  0  0  0  0
  -28.4221  -26.7461   20.1077 O   0  0  0  0  0  0
  -26.5604  -34.8907   22.4704 O   0  0  0  0  0  0
  -23.5305  -32.1478   23.7514 O   0  0  0  0  0  0
  -28.5129  -19.5891   23.7586 C   0  0  0  0  0  0
  -28.6611  -18.3470   24.4043 C   0  0  0  0  0  0
  -29.8931  -18.7926   21.9182 C   0  0  0  0  0  0
  -29.1291  -19.8215   22.5104 C   0  0  0  0  0  0
  -30.0566  -17.5444   22.5649 C   0  0  0  0  0  0
  -29.4334  -17.3258   23.8176 C   0  0  0  0  0  0
  -23.5852  -22.7289   22.7659 C   0  0  0  0  0  0
  -25.0592  -23.0783   22.7731 C   0  0  0  0  0  0
  -27.2208  -22.7345   21.4403 C   0  0  0  0  0  0
  -24.9550  -22.1575   20.4041 C   0  0  0  0  0  0
  -23.4498  -22.5000   20.4130 C   0  0  0  0  0  0
  -25.7287  -23.0733   21.3830 C   0  0  1  0  0  0
  -28.9987  -21.1830   21.8346 C   0  0  0  0  0  0
  -30.9565  -16.4911   21.9281 C   0  0  0  0  0  0
  -28.1206  -23.9282   21.0918 C   0  0  0  0  0  0
  -28.0324  -24.2990   19.5974 C   0  0  0  0  0  0
  -28.6687  -25.6555   19.2139 C   0  0  0  0  0  0
  -22.8597  -22.4385   21.7506 N   0  0  0  0  0  0
  -27.5974  -21.5444   21.7251 N   0  0  0  0  0  0
  -30.2790  -15.2507   21.5484 N   0  0  0  0  0  0
  -25.6644  -23.3931   23.8045 O   0  0  0  0  0  0
  -29.6182  -15.8308   24.6658 Cl  0  0  0  0  0  0
  -31.4563  -12.3733   19.1022 H   0  0  0  0  0  0
  -30.2979  -11.2707   19.7832 H   0  0  0  0  0  0
  -29.7159  -11.8115   17.4031 H   0  0  0  0  0  0
  -29.6605  -13.5152   17.7831 H   0  0  0  0  0  0
  -27.8097  -11.3267   18.7905 H   0  0  0  0  0  0
  -27.3584  -12.6806   17.7876 H   0  0  0  0  0  0
  -27.7185  -14.2612   19.6040 H   0  0  0  0  0  0
  -28.6656  -11.9280   21.3331 H   0  0  0  0  0  0
  -28.4591  -13.5614   21.8812 H   0  0  0  0  0  0
  -25.2752   -9.5694   22.4753 H   0  0  0  0  0  0
  -23.9999   -7.4646   22.7482 H   0  0  0  0  0  0
  -21.0841   -8.8764   19.8943 H   0  0  0  0  0  0
  -22.3695  -10.9665   19.6152 H   0  0  0  0  0  0
  -21.2003   -7.6140   23.9711 H   0  0  0  0  0  0
  -21.1476   -6.0521   25.9071 H   0  0  0  0  0  0
  -22.0605   -2.7612   23.2852 H   0  0  0  0  0  0
  -22.4128  -11.9878   22.4760 H   0  0  0  0  0  0
  -21.1121  -13.1236   22.2602 H   0  0  0  0  0  0
  -24.6667  -15.8468   20.5171 H   0  0  0  0  0  0
  -26.2963  -15.6295   20.1225 H   0  0  0  0  0  0
  -26.7070  -32.5544   23.1165 H   0  0  0  0  0  0
  -25.0029  -33.9798   25.0483 H   0  0  0  0  0  0
  -22.6850  -31.3100   21.4132 H   0  0  0  0  0  0
  -23.3739  -35.9650   23.3307 H   0  0  0  0  0  0
  -24.3570  -36.8942   22.2054 H   0  0  0  0  0  0
  -23.7239  -37.6512   23.6658 H   0  0  0  0  0  0
  -26.0485  -31.5933   20.6055 H   0  0  0  0  0  0
  -26.8120  -30.8771   21.9969 H   0  0  0  0  0  0
  -28.0786  -29.0835   21.1994 H   0  0  0  0  0  0
  -26.0394  -26.0406   18.9030 H   0  0  0  0  0  0
  -23.9806  -27.3255   18.9928 H   0  0  0  0  0  0
  -23.7070  -30.5997   19.4037 H   0  0  0  0  0  0
  -22.7299  -29.2425   19.8770 H   0  0  0  0  0  0
  -25.1277  -36.1993   25.0825 H   0  0  0  0  0  0
  -20.9965  -28.3206   24.1425 H   0  0  0  0  0  0
  -20.5663  -26.2237   23.3585 H   0  0  0  0  0  0
  -21.6641  -26.7411   22.1215 H   0  0  0  0  0  0
  -19.6920  -25.6264   21.1232 H   0  0  0  0  0  0
  -19.6694  -27.3155   20.6715 H   0  0  0  0  0  0
  -17.4200  -26.6656   21.3990 H   0  0  0  0  0  0
  -18.0315  -26.0014   22.8971 H   0  0  0  0  0  0
  -19.7932  -30.7217   24.2301 H   0  0  0  0  0  0
  -17.5015  -31.6250   24.5134 H   0  0  0  0  0  0
  -15.5357  -30.2976   23.7622 H   0  0  0  0  0  0
  -15.8662  -28.0790   22.7099 H   0  0  0  0  0  0
  -24.5923  -30.6986   25.7772 H   0  0  0  0  0  0
  -24.8879  -32.2769   26.4948 H   0  0  0  0  0  0
  -25.8083  -30.8781   27.0211 H   0  0  0  0  0  0
  -26.2880  -29.6769   24.1199 H   0  0  0  0  0  0
  -27.4153  -29.7318   25.4569 H   0  0  0  0  0  0
  -27.8675  -30.4390   23.9236 H   0  0  0  0  0  0
  -27.2687  -33.3614   26.2088 H   0  0  0  0  0  0
  -28.3835  -32.6881   25.0304 H   0  0  0  0  0  0
  -28.0718  -31.8418   26.5396 H   0  0  0  0  0  0
  -28.2593  -38.0110   24.7542 H   0  0  0  0  0  0
  -28.1101  -36.2650   24.6270 H   0  0  0  0  0  0
  -27.2296  -37.1442   25.8861 H   0  0  0  0  0  0
  -20.9268  -29.8760   21.6970 H   0  0  0  0  0  0
  -26.0191  -38.2879   24.1402 H   0  0  0  0  0  0
  -27.9280  -20.3692   24.2274 H   0  0  0  0  0  0
  -28.1916  -18.1802   25.3632 H   0  0  0  0  0  0
  -30.3778  -18.9717   20.9680 H   0  0  0  0  0  0
  -23.1137  -22.7132   23.7517 H   0  0  0  0  0  0
  -25.3492  -22.2689   19.3933 H   0  0  0  0  0  0
  -25.0924  -21.1069   20.6684 H   0  0  0  0  0  0
  -22.9243  -21.8089   19.7513 H   0  0  0  0  0  0
  -23.2941  -23.4939   19.9886 H   0  0  0  0  0  0
  -25.6238  -24.0963   21.0236 H   0  0  0  0  0  0
  -29.4692  -21.1629   20.8490 H   0  0  0  0  0  0
  -29.5544  -21.8958   22.4470 H   0  0  0  0  0  0
  -31.7599  -16.2498   22.6255 H   0  0  0  0  0  0
  -31.4436  -16.9322   21.0566 H   0  0  0  0  0  0
  -29.1595  -23.7591   21.3656 H   0  0  0  0  0  0
  -27.7948  -24.7740   21.6978 H   0  0  0  0  0  0
  -26.9980  -24.2693   19.2683 H   0  0  0  0  0  0
  -28.5165  -23.5172   19.0093 H   0  0  0  0  0  0
  -28.3972  -25.9332   18.1941 H   0  0  0  0  0  0
  -29.7511  -25.5257   19.1991 H   0  0  0  0  0  0
  -29.4284  -15.0076   22.0323 H   0  0  0  0  0  0
  1 25  1  0  0  0
  1 30  2  0  0  0
  1 90  1  0  0  0
  2  3  1  0  0  0
  2 25  1  0  0  0
  2 93  1  0  0  0
  2 94  1  0  0  0
  3  4  1  0  0  0
  3 95  1  0  0  0
  3 96  1  0  0  0
  4  5  1  0  0  0
  4 97  1  0  0  0
  4 98  1  0  0  0
  5  6  1  0  0  0
  5 26  1  0  0  0
  5 99  1  0  0  0
  6 25  1  0  0  0
  6100  1  0  0  0
  6101  1  0  0  0
  7  8  2  0  0  0
  7 26  1  0  0  0
  7 29  1  0  0  0
  8  9  1  0  0  0
  8 22  1  0  0  0
  9 10  1  0  0  0
  9 27  2  0  0  0
 10 11  2  0  0  0
 10 15  1  0  0  0
 11 12  1  0  0  0
 11102  1  0  0  0
 12 13  2  0  0  0
 12103  1  0  0  0
 13 14  1  0  0  0
 13 31  1  0  0  0
 14 15  2  0  0  0
 14104  1  0  0  0
 15105  1  0  0  0
 16 17  2  0  0  0
 16 21  1  0  0  0
 16 31  1  0  0  0
 17 18  1  0  0  0
 17106  1  0  0  0
 18 19  2  0  0  0
 18107  1  0  0  0
 19 20  1  0  0  0
 19 24  1  0  0  0
 20 21  2  0  0  0
 20108  1  0  0  0
 21 23  1  0  0  0
 22 28  1  0  0  0
 22 32  2  0  0  0
 26 27  1  0  0  0
 28109  1  0  0  0
 28110  1  0  0  0
 29111  1  0  0  0
 29112  1  0  0  0
 33 34  1  0  0  0
 33 66  1  0  0  0
 33 70  2  0  0  0
 34 36  1  0  0  0
 34 59  1  0  0  0
 34113  1  0  0  0
 35 44  2  0  0  0
 35 45  1  0  0  0
 35 68  1  0  0  0
 36 56  1  0  0  0
 36114  1  0  0  0
 37 39  1  0  0  0
 37 47  1  0  0  0
 37 66  1  0  0  0
 37115  1  0  0  0
 38 43  2  0  0  0
 38 46  1  0  0  0
 38 47  1  0  0  0
 39 64  1  0  0  0
 39 67  2  0  0  0
 40 52  1  0  0  0
 40 53  2  0  0  0
 40 58  1  0  0  0
 41116  1  0  0  0
 41117  1  0  0  0
 41118  1  0  0  0
 41 48  1  0  0  0
 42 43  1  0  0  0
 42 66  1  0  0  0
 42119  1  0  0  0
 42120  1  0  0  0
 43 44  1  0  0  0
 44121  1  0  0  0
 45 46  2  0  0  0
 45122  1  0  0  0
 46123  1  0  0  0
 47124  1  0  0  0
 47125  1  0  0  0
 48 56  1  0  0  0
 48 65  1  0  0  0
 48126  1  0  0  0
 49 50  1  0  0  0
 49 53  1  0  0  0
 49 64  1  0  0  0
 49127  1  0  0  0
 50 51  1  0  0  0
 50128  1  0  0  0
 50129  1  0  0  0
 51 52  1  0  0  0
 51130  1  0  0  0
 51131  1  0  0  0
 52132  1  0  0  0
 52133  1  0  0  0
 53 54  1  0  0  0
 54 55  2  0  0  0
 54134  1  0  0  0
 55 57  1  0  0  0
 55135  1  0  0  0
 56 69  2  0  0  0
 57 58  2  0  0  0
 57136  1  0  0  0
 58137  1  0  0  0
 59 60  1  0  0  0
 59 61  1  0  0  0
 59 62  1  0  0  0
 60138  1  0  0  0
 60139  1  0  0  0
 60140  1  0  0  0
 61141  1  0  0  0
 61142  1  0  0  0
 61143  1  0  0  0
 62144  1  0  0  0
 62145  1  0  0  0
 62146  1  0  0  0
 63 65  1  0  0  0
 63147  1  0  0  0
 63148  1  0  0  0
 63149  1  0  0  0
 64150  1  0  0  0
 65151  1  0  0  0
 68 87  1  0  0  0
 71 72  2  0  0  0
 71 74  1  0  0  0
 71152  1  0  0  0
 72 76  1  0  0  0
 72153  1  0  0  0
 73 74  2  0  0  0
 73 75  1  0  0  0
 73154  1  0  0  0
 74 83  1  0  0  0
 75 76  2  0  0  0
 75 84  1  0  0  0
 76 92  1  0  0  0
 77 78  1  0  0  0
 77 88  2  0  0  0
 77155  1  0  0  0
 78 82  1  0  0  0
 78 91  2  0  0  0
 79 85  1  0  0  0
 79 89  2  0  0  0
 79 82  1  0  0  0
 80 81  1  0  0  0
 80 82  1  0  0  0
 80156  1  0  0  0
 80157  1  0  0  0
 81 88  1  0  0  0
 81158  1  0  0  0
 81159  1  0  0  0
 82160  1  0  0  0
 83 89  1  0  0  0
 83161  1  0  0  0
 83162  1  0  0  0
 84 90  1  0  0  0
 84163  1  0  0  0
 84164  1  0  0  0
 85 86  1  0  0  0
 85165  1  0  0  0
 85166  1  0  0  0
 86 87  1  0  0  0
 86167  1  0  0  0
 86168  1  0  0  0
 87169  1  0  0  0
 87170  1  0  0  0
 90171  1  0  0  0
M  ISO  4   1 100  68 101  87 101  90 100
M  END
> <chiral flag>
0

> <version>
0

> <s_m_source_file>
/data/baiqing/PycharmProjects/Reinvent-master-3.2/result/LINK_invent/BTK/process_docking_weight1_custom_product_contain_oxygen_bond_distance_aromatic_linkinvent_7_9_3/rearranged_h_0047.sdf

> <i_m_source_file_index>
47

> <r_mmod_Potential_Energy-OPLS-2005>
-72.6121139526367

> <r_mmod_Stretch_Energy-OPLS-2005>
39.3054656982422

> <r_mmod_Bend_Energy-OPLS-2005>
116.96607208252

> <r_mmod_Torsional_Energy-OPLS-2005>
201.056182861328

> <r_mmod_Improper_Torsional_Energy-OPLS-2005>
2.11188983917236

> <r_mmod_Van_der_Waal_Energy-OPLS-2005>
170.133117675781

> <r_mmod_Electrostatic_Energy-OPLS-2005>
-381.475128173828

> <r_mmod_Solvation_Energy-OPLS-2005>
-229.945297241211

> <b_mmod_Minimization_Converged-OPLS-2005>
0

> <r_mmod_RMS_Derivative-OPLS-2005>
1.53996157646179

$$$$
47
                    3D
 Structure written by MMmdl.
157165  0  0  1  0            999 V2000
  -30.6958  -14.4721   20.5097 C   0  0  0  0  0  0
  -30.4228  -12.2855   19.4386 C   0  0  0  0  0  0
  -29.5033  -12.4898   18.2141 C   0  0  0  0  0  0
  -28.0221  -12.3573   18.6207 C   0  0  0  0  0  0
  -27.6625  -13.2034   19.8717 C   0  0  2  0  0  0
  -28.7048  -13.0053   21.0000 C   0  0  0  0  0  0
  -25.2583  -13.8152   20.5656 C   0  0  0  0  0  0
  -24.1826  -13.0440   20.9153 C   0  0  0  0  0  0
  -24.6393  -11.6904   20.8725 C   0  0  0  0  0  0
  -23.9067  -10.4290   21.0404 C   0  0  0  0  0  0
  -24.3628   -9.4207   21.9186 C   0  0  0  0  0  0
  -23.6285   -8.2251   22.0768 C   0  0  0  0  0  0
  -22.4260   -8.0303   21.3566 C   0  0  0  0  0  0
  -21.9900   -9.0275   20.4669 C   0  0  0  0  0  0
  -22.7242  -10.2144   20.3061 C   0  0  0  0  0  0
  -21.6847   -6.0747   22.5287 C   0  0  0  0  0  0
  -21.4022   -6.5641   23.8219 C   0  0  0  0  0  0
  -21.3653   -5.6789   24.9174 C   0  0  0  0  0  0
  -21.6036   -4.3052   24.7215 C   0  0  0  0  0  0
  -21.8816   -3.8152   23.4329 C   0  0  0  0  0  0
  -21.9185   -4.6974   22.3394 C   0  0  0  0  0  0
  -22.7853  -13.5251   21.1799 C   0  0  0  0  0  0
  -22.1656   -4.2177   21.0966 F   0  0  0  0  0  0
  -21.5618   -3.4532   25.7722 F   0  0  0  0  0  0
  -30.0417  -13.2828   20.4488 N   0  0  0  0  0  0
  -26.3030  -12.9323   20.3330 N   0  0  0  0  0  0
  -25.9314  -11.6489   20.5763 N   0  0  0  0  0  0
  -22.0488  -12.8274   22.0382 N   0  0  0  0  0  0
  -25.4287  -15.1876   20.4068 N   0  0  0  0  0  0
  -31.8478  -14.6297   20.0968 O   0  0  0  0  0  0
  -21.6636   -6.8899   21.4248 O   0  0  0  0  0  0
  -22.3544  -14.5550   20.6626 O   0  0  0  0  0  0
  -24.6146  -31.8669   23.2088 C   0  0  0  0  0  0
  -25.9049  -32.4814   23.8380 C   0  0  1  0  0  0
  -27.2320  -27.4331   20.1064 C   0  0  0  0  0  0
  -25.5903  -33.8611   24.2311 N   0  0  0  0  0  0
  -23.4024  -30.4917   21.5487 C   0  0  2  0  0  0
  -24.8501  -28.9564   20.1124 C   0  0  0  0  0  0
  -22.7412  -29.4659   22.4974 C   0  0  0  0  0  0
  -18.0281  -28.1381   22.8486 C   0  0  0  0  0  0
  -24.1485  -36.7315   23.2632 C   0  0  0  0  0  0
  -25.9307  -30.8353   21.3599 C   0  0  0  0  0  0
  -26.0101  -29.4695   20.7075 C   0  0  0  0  0  0
  -27.2077  -28.7170   20.6972 C   0  0  0  0  0  0
  -26.0597  -26.9358   19.4977 C   0  0  0  0  0  0
  -24.8698  -27.6895   19.5025 C   0  0  0  0  0  0
  -23.6112  -29.8241   20.1628 C   0  0  0  0  0  0
  -25.4100  -36.3103   24.0333 C   0  0  1  0  0  0
  -20.5870  -28.3664   23.1310 C   0  0  2  0  0  0
  -20.6768  -26.9399   22.5422 C   0  0  0  0  0  0
  -19.5751  -26.6380   21.5214 C   0  0  0  0  0  0
  -18.1926  -26.7934   22.1616 C   0  0  0  0  0  0
  -19.1534  -28.8840   23.2900 C   0  0  0  0  0  0
  -18.9465  -30.1444   23.8913 C   0  0  0  0  0  0
  -17.6467  -30.6571   24.0573 C   0  0  0  0  0  0
  -25.9036  -34.9469   23.5119 C   0  0  0  0  0  0
  -16.5362  -29.9078   23.6331 C   0  0  0  0  0  0
  -16.7267  -28.6504   23.0337 C   0  0  0  0  0  0
  -26.4475  -31.6592   25.0706 C   0  0  0  0  0  0
  -25.3746  -31.3732   26.1466 C   0  0  0  0  0  0
  -27.0284  -30.3023   24.6076 C   0  0  0  0  0  0
  -27.6055  -32.4309   25.7463 C   0  0  0  0  0  0
  -27.5590  -37.1790   24.8451 C   0  0  0  0  0  0
  -21.4142  -29.3029   22.3708 N   0  0  0  0  0  0
  -26.4279  -37.3795   23.9431 N   0  0  0  0  0  0
  -24.6674  -31.0787   22.0980 N   0  0  0  0  0  0
  -23.4187  -28.8208   23.3020 O   0  0  0  0  0  0
  -28.3773  -26.6677   20.1239 O   0  0  0  0  0  0
  -26.5600  -34.8930   22.4682 O   0  0  0  0  0  0
  -23.5347  -32.1418   23.7490 O   0  0  0  0  0  0
  -29.6098  -19.2650   19.9960 C   0  0  0  0  0  0
  -30.6315  -18.2101   21.9383 C   0  0  0  0  0  0
  -30.3098  -20.6388   21.8752 C   0  0  0  0  0  0
  -30.0583  -18.0946   20.6560 C   0  0  0  0  0  0
  -29.7132  -20.5429   20.5970 C   0  0  0  0  0  0
  -30.7567  -19.4785   22.5433 C   0  0  0  0  0  0
  -28.8516  -24.2202   20.0691 C   0  0  0  0  0  0
  -27.8559  -22.6804   21.7292 C   0  0  0  0  0  0
  -29.9555  -16.7517   19.9323 C   0  0  0  0  0  0
  -29.2248  -21.7777   19.8152 C   0  0  0  0  0  0
  -28.2572  -25.4212   20.8507 C   0  0  0  0  0  0
  -29.9046  -15.5300   20.7511 N   0  0  0  0  0  0
  -28.7062  -22.9546   20.5614 N   0  0  0  0  0  0
  -29.4509  -24.4462   19.0121 O   0  0  0  0  0  0
  -31.4714  -19.6118   24.1070 Cl  0  0  0  0  0  0
  -31.4717  -12.3624   19.1477 H   0  0  0  0  0  0
  -30.3018  -11.2814   19.8469 H   0  0  0  0  0  0
  -29.7439  -11.7619   17.4366 H   0  0  0  0  0  0
  -29.6792  -13.4711   17.7727 H   0  0  0  0  0  0
  -27.8278  -11.3030   18.8196 H   0  0  0  0  0  0
  -27.3770  -12.6317   17.7852 H   0  0  0  0  0  0
  -27.6996  -14.2456   19.5581 H   0  0  0  0  0  0
  -28.6692  -11.9818   21.3740 H   0  0  0  0  0  0
  -28.4781  -13.6433   21.8548 H   0  0  0  0  0  0
  -25.2789   -9.5648   22.4744 H   0  0  0  0  0  0
  -23.9996   -7.4619   22.7454 H   0  0  0  0  0  0
  -21.0849   -8.8792   19.8962 H   0  0  0  0  0  0
  -22.3726  -10.9678   19.6154 H   0  0  0  0  0  0
  -21.2049   -7.6156   23.9722 H   0  0  0  0  0  0
  -21.1470   -6.0526   25.9076 H   0  0  0  0  0  0
  -22.0601   -2.7615   23.2814 H   0  0  0  0  0  0
  -22.4101  -11.9995   22.4875 H   0  0  0  0  0  0
  -21.1095  -13.1320   22.2532 H   0  0  0  0  0  0
  -24.6570  -15.8371   20.5137 H   0  0  0  0  0  0
  -26.2779  -15.6312   20.0825 H   0  0  0  0  0  0
  -26.7120  -32.5529   23.1151 H   0  0  0  0  0  0
  -25.0069  -33.9762   25.0467 H   0  0  0  0  0  0
  -22.6909  -31.3086   21.4103 H   0  0  0  0  0  0
  -23.3743  -35.9649   23.3269 H   0  0  0  0  0  0
  -24.3603  -36.8957   22.2056 H   0  0  0  0  0  0
  -23.7229  -37.6508   23.6665 H   0  0  0  0  0  0
  -26.0412  -31.5999   20.5897 H   0  0  0  0  0  0
  -26.8195  -30.8910   21.9766 H   0  0  0  0  0  0
  -28.1039  -29.1075   21.1601 H   0  0  0  0  0  0
  -26.0651  -25.9629   19.0253 H   0  0  0  0  0  0
  -23.9792  -27.2891   19.0375 H   0  0  0  0  0  0
  -23.7217  -30.6001   19.4049 H   0  0  0  0  0  0
  -22.7339  -29.2472   19.8657 H   0  0  0  0  0  0
  -25.1265  -36.1956   25.0820 H   0  0  0  0  0  0
  -20.9967  -28.3247   24.1429 H   0  0  0  0  0  0
  -20.5670  -26.2274   23.3613 H   0  0  0  0  0  0
  -21.6640  -26.7455   22.1212 H   0  0  0  0  0  0
  -19.6914  -25.6290   21.1240 H   0  0  0  0  0  0
  -19.6688  -27.3199   20.6752 H   0  0  0  0  0  0
  -17.4195  -26.6686   21.4018 H   0  0  0  0  0  0
  -18.0336  -26.0077   22.9014 H   0  0  0  0  0  0
  -19.7930  -30.7278   24.2286 H   0  0  0  0  0  0
  -17.5011  -31.6250   24.5169 H   0  0  0  0  0  0
  -15.5364  -30.2993   23.7639 H   0  0  0  0  0  0
  -15.8663  -28.0841   22.7035 H   0  0  0  0  0  0
  -24.5894  -30.7097   25.7830 H   0  0  0  0  0  0
  -24.8971  -32.2906   26.4915 H   0  0  0  0  0  0
  -25.8099  -30.8904   27.0220 H   0  0  0  0  0  0
  -26.2810  -29.6798   24.1136 H   0  0  0  0  0  0
  -27.4059  -29.7255   25.4531 H   0  0  0  0  0  0
  -27.8654  -30.4332   23.9213 H   0  0  0  0  0  0
  -27.2664  -33.3586   26.2088 H   0  0  0  0  0  0
  -28.3836  -32.6901   25.0271 H   0  0  0  0  0  0
  -28.0751  -31.8404   26.5340 H   0  0  0  0  0  0
  -28.2563  -38.0131   24.7561 H   0  0  0  0  0  0
  -28.1126  -36.2670   24.6170 H   0  0  0  0  0  0
  -27.2337  -37.1316   25.8858 H   0  0  0  0  0  0
  -20.9302  -29.8746   21.6928 H   0  0  0  0  0  0
  -26.0162  -38.2860   24.1477 H   0  0  0  0  0  0
  -29.1851  -19.1794   19.0049 H   0  0  0  0  0  0
  -30.9940  -17.3338   22.4572 H   0  0  0  0  0  0
  -30.4273  -21.5994   22.3561 H   0  0  0  0  0  0
  -26.8347  -23.0244   21.5645 H   0  0  0  0  0  0
  -28.2497  -23.1737   22.6193 H   0  0  0  0  0  0
  -27.7766  -21.6201   21.9607 H   0  0  0  0  0  0
  -30.7676  -16.7114   19.2036 H   0  0  0  0  0  0
  -29.0406  -16.7550   19.3375 H   0  0  0  0  0  0
  -28.4395  -21.4630   19.1265 H   0  0  0  0  0  0
  -30.0647  -22.0674   19.1824 H   0  0  0  0  0  0
  -28.8066  -25.5197   21.7868 H   0  0  0  0  0  0
  -27.2230  -25.2072   21.1218 H   0  0  0  0  0  0
  -29.0031  -15.3067   21.1438 H   0  0  0  0  0  0
  1 25  1  0  0  0
  1 30  2  0  0  0
  1 82  1  0  0  0
  2  3  1  0  0  0
  2 25  1  0  0  0
  2 86  1  0  0  0
  2 87  1  0  0  0
  3  4  1  0  0  0
  3 88  1  0  0  0
  3 89  1  0  0  0
  4  5  1  0  0  0
  4 90  1  0  0  0
  4 91  1  0  0  0
  5  6  1  0  0  0
  5 26  1  0  0  0
  5 92  1  0  0  0
  6 25  1  0  0  0
  6 93  1  0  0  0
  6 94  1  0  0  0
  7  8  2  0  0  0
  7 26  1  0  0  0
  7 29  1  0  0  0
  8  9  1  0  0  0
  8 22  1  0  0  0
  9 10  1  0  0  0
  9 27  2  0  0  0
 10 11  2  0  0  0
 10 15  1  0  0  0
 11 12  1  0  0  0
 11 95  1  0  0  0
 12 13  2  0  0  0
 12 96  1  0  0  0
 13 14  1  0  0  0
 13 31  1  0  0  0
 14 15  2  0  0  0
 14 97  1  0  0  0
 15 98  1  0  0  0
 16 17  2  0  0  0
 16 21  1  0  0  0
 16 31  1  0  0  0
 17 18  1  0  0  0
 17 99  1  0  0  0
 18 19  2  0  0  0
 18100  1  0  0  0
 19 20  1  0  0  0
 19 24  1  0  0  0
 20 21  2  0  0  0
 20101  1  0  0  0
 21 23  1  0  0  0
 22 28  1  0  0  0
 22 32  2  0  0  0
 26 27  1  0  0  0
 28102  1  0  0  0
 28103  1  0  0  0
 29104  1  0  0  0
 29105  1  0  0  0
 33 34  1  0  0  0
 33 66  1  0  0  0
 33 70  2  0  0  0
 34 36  1  0  0  0
 34 59  1  0  0  0
 34106  1  0  0  0
 35 44  2  0  0  0
 35 45  1  0  0  0
 35 68  1  0  0  0
 36 56  1  0  0  0
 36107  1  0  0  0
 37 39  1  0  0  0
 37 47  1  0  0  0
 37 66  1  0  0  0
 37108  1  0  0  0
 38 43  2  0  0  0
 38 46  1  0  0  0
 38 47  1  0  0  0
 39 64  1  0  0  0
 39 67  2  0  0  0
 40 52  1  0  0  0
 40 53  2  0  0  0
 40 58  1  0  0  0
 41109  1  0  0  0
 41110  1  0  0  0
 41111  1  0  0  0
 41 48  1  0  0  0
 42 43  1  0  0  0
 42 66  1  0  0  0
 42112  1  0  0  0
 42113  1  0  0  0
 43 44  1  0  0  0
 44114  1  0  0  0
 45 46  2  0  0  0
 45115  1  0  0  0
 46116  1  0  0  0
 47117  1  0  0  0
 47118  1  0  0  0
 48 56  1  0  0  0
 48 65  1  0  0  0
 48119  1  0  0  0
 49 50  1  0  0  0
 49 53  1  0  0  0
 49 64  1  0  0  0
 49120  1  0  0  0
 50 51  1  0  0  0
 50121  1  0  0  0
 50122  1  0  0  0
 51 52  1  0  0  0
 51123  1  0  0  0
 51124  1  0  0  0
 52125  1  0  0  0
 52126  1  0  0  0
 53 54  1  0  0  0
 54 55  2  0  0  0
 54127  1  0  0  0
 55 57  1  0  0  0
 55128  1  0  0  0
 56 69  2  0  0  0
 57 58  2  0  0  0
 57129  1  0  0  0
 58130  1  0  0  0
 59 60  1  0  0  0
 59 61  1  0  0  0
 59 62  1  0  0  0
 60131  1  0  0  0
 60132  1  0  0  0
 60133  1  0  0  0
 61134  1  0  0  0
 61135  1  0  0  0
 61136  1  0  0  0
 62137  1  0  0  0
 62138  1  0  0  0
 62139  1  0  0  0
 63 65  1  0  0  0
 63140  1  0  0  0
 63141  1  0  0  0
 63142  1  0  0  0
 64143  1  0  0  0
 65144  1  0  0  0
 68 81  1  0  0  0
 71 74  2  0  0  0
 71 75  1  0  0  0
 71145  1  0  0  0
 72 74  1  0  0  0
 72 76  2  0  0  0
 72146  1  0  0  0
 73 75  2  0  0  0
 73 76  1  0  0  0
 73147  1  0  0  0
 74 79  1  0  0  0
 75 80  1  0  0  0
 76 85  1  0  0  0
 77 81  1  0  0  0
 77 83  1  0  0  0
 77 84  2  0  0  0
 78 83  1  0  0  0
 78148  1  0  0  0
 78149  1  0  0  0
 78150  1  0  0  0
 79 82  1  0  0  0
 79151  1  0  0  0
 79152  1  0  0  0
 80 83  1  0  0  0
 80153  1  0  0  0
 80154  1  0  0  0
 81155  1  0  0  0
 81156  1  0  0  0
 82157  1  0  0  0
M  ISO  4   1 100  68 101  81 101  82 100
M  END
> <chiral flag>
0

> <version>
0

> <s_m_source_file>
/data/baiqing/PycharmProjects/Reinvent-master-3.2/result/LINK_invent/BTK/process_docking_weight1_custom_product_contain_oxygen_bond_distance_aromatic_linkinvent_7_9_3/rearranged_h_0047.sdf

> <i_m_source_file_index>
48

> <r_mmod_Potential_Energy-OPLS-2005>
-56.2373847961426

> <r_mmod_Stretch_Energy-OPLS-2005>
41.8028144836426

> <r_mmod_Bend_Energy-OPLS-2005>
95.8620681762695

> <r_mmod_Torsional_Energy-OPLS-2005>
247.610122680664

> <r_mmod_Improper_Torsional_Energy-OPLS-2005>
10.5691871643066

> <r_mmod_Van_der_Waal_Energy-OPLS-2005>
160.923568725586

> <r_mmod_Electrostatic_Energy-OPLS-2005>
-385.920623779297

> <r_mmod_Solvation_Energy-OPLS-2005>
-242.474502563477

> <b_mmod_Minimization_Converged-OPLS-2005>
0

> <r_mmod_RMS_Derivative-OPLS-2005>
2.42267489433289

$$$$
48
                    3D
 Structure written by MMmdl.
156164  0  0  1  0            999 V2000
  -30.5935  -14.6804   20.4992 C   0  0  0  0  0  0
  -30.4432  -12.4178   19.4606 C   0  0  0  0  0  0
  -29.5125  -12.5161   18.2296 C   0  0  0  0  0  0
  -28.0355  -12.3478   18.6396 C   0  0  0  0  0  0
  -27.6525  -13.2183   19.8655 C   0  0  2  0  0  0
  -28.6958  -13.0778   20.9968 C   0  0  0  0  0  0
  -25.2555  -13.8179   20.5699 C   0  0  0  0  0  0
  -24.1822  -13.0446   20.9201 C   0  0  0  0  0  0
  -24.6389  -11.6915   20.8743 C   0  0  0  0  0  0
  -23.9061  -10.4295   21.0414 C   0  0  0  0  0  0
  -24.3617   -9.4209   21.9186 C   0  0  0  0  0  0
  -23.6290   -8.2248   22.0758 C   0  0  0  0  0  0
  -22.4269   -8.0288   21.3553 C   0  0  0  0  0  0
  -21.9902   -9.0260   20.4656 C   0  0  0  0  0  0
  -22.7234  -10.2138   20.3062 C   0  0  0  0  0  0
  -21.6847   -6.0741   22.5284 C   0  0  0  0  0  0
  -21.4014   -6.5644   23.8219 C   0  0  0  0  0  0
  -21.3656   -5.6794   24.9178 C   0  0  0  0  0  0
  -21.6042   -4.3056   24.7224 C   0  0  0  0  0  0
  -21.8815   -3.8151   23.4342 C   0  0  0  0  0  0
  -21.9192   -4.6972   22.3402 C   0  0  0  0  0  0
  -22.7844  -13.5245   21.1850 C   0  0  0  0  0  0
  -22.1659   -4.2165   21.0977 F   0  0  0  0  0  0
  -21.5623   -3.4535   25.7733 F   0  0  0  0  0  0
  -30.0088  -13.4384   20.4387 N   0  0  0  0  0  0
  -26.2978  -12.9357   20.3320 N   0  0  0  0  0  0
  -25.9320  -11.6513   20.5756 N   0  0  0  0  0  0
  -22.0468  -12.8255   22.0407 N   0  0  0  0  0  0
  -25.4267  -15.1901   20.4128 N   0  0  0  0  0  0
  -31.7424  -14.8622   20.0826 O   0  0  0  0  0  0
  -21.6633   -6.8885   21.4247 O   0  0  0  0  0  0
  -22.3539  -14.5547   20.6680 O   0  0  0  0  0  0
  -24.6259  -31.8575   23.1987 C   0  0  0  0  0  0
  -25.9107  -32.4760   23.8324 C   0  0  1  0  0  0
  -27.2313  -27.3042   20.1215 C   0  0  0  0  0  0
  -25.5921  -33.8563   24.2257 N   0  0  0  0  0  0
  -23.4206  -30.4779   21.5399 C   0  0  2  0  0  0
  -24.8677  -28.9223   20.1097 C   0  0  0  0  0  0
  -22.7472  -29.4613   22.4920 C   0  0  0  0  0  0
  -18.0290  -28.1386   22.8485 C   0  0  0  0  0  0
  -24.1486  -36.7278   23.2642 C   0  0  0  0  0  0
  -25.9600  -30.7822   21.3720 C   0  0  0  0  0  0
  -26.0332  -29.4070   20.7156 C   0  0  0  0  0  0
  -27.2123  -28.6069   20.7126 C   0  0  0  0  0  0
  -26.0429  -26.8647   19.4993 C   0  0  0  0  0  0
  -24.8756  -27.6582   19.4947 C   0  0  0  0  0  0
  -23.6360  -29.8048   20.1568 C   0  0  0  0  0  0
  -25.4116  -36.3074   24.0331 C   0  0  1  0  0  0
  -20.5889  -28.3689   23.1282 C   0  0  2  0  0  0
  -20.6775  -26.9407   22.5416 C   0  0  0  0  0  0
  -19.5753  -26.6382   21.5212 C   0  0  0  0  0  0
  -18.1933  -26.7931   22.1619 C   0  0  0  0  0  0
  -19.1543  -28.8853   23.2879 C   0  0  0  0  0  0
  -18.9465  -30.1451   23.8900 C   0  0  0  0  0  0
  -17.6467  -30.6587   24.0560 C   0  0  0  0  0  0
  -25.9053  -34.9446   23.5100 C   0  0  0  0  0  0
  -16.5358  -29.9085   23.6327 C   0  0  0  0  0  0
  -16.7278  -28.6501   23.0355 C   0  0  0  0  0  0
  -26.4494  -31.6591   25.0707 C   0  0  0  0  0  0
  -25.3729  -31.3751   26.1439 C   0  0  0  0  0  0
  -27.0346  -30.3015   24.6180 C   0  0  0  0  0  0
  -27.6041  -32.4349   25.7481 C   0  0  0  0  0  0
  -27.5582  -37.1798   24.8468 C   0  0  0  0  0  0
  -21.4185  -29.3042   22.3670 N   0  0  0  0  0  0
  -26.4294  -37.3768   23.9408 N   0  0  0  0  0  0
  -24.6873  -31.0573   22.0935 N   0  0  0  0  0  0
  -23.4192  -28.8170   23.3016 O   0  0  0  0  0  0
  -28.3809  -26.5016   20.1915 O   0  0  0  0  0  0
  -26.5615  -34.8919   22.4665 O   0  0  0  0  0  0
  -23.5422  -32.1386   23.7309 O   0  0  0  0  0  0
  -30.1427  -18.1722   21.4867 C   0  0  0  0  0  0
  -29.0432  -17.5899   19.4493 C   0  0  0  0  0  0
  -29.1470  -20.0232   20.1031 C   0  0  0  0  0  0
  -29.8777  -19.5702   21.2561 C   0  0  0  0  0  0
  -29.7369  -17.1377   20.5970 C   0  0  0  0  0  0
  -28.7595  -18.9682   19.2095 C   0  0  0  0  0  0
  -28.7692  -21.4897   19.7783 C   0  0  0  0  0  0
  -30.3834  -20.5535   22.3037 C   0  0  0  0  0  0
  -27.9025  -23.8945   20.5959 C   0  0  0  0  0  0
  -28.4711  -25.0963   19.7148 C   0  0  0  0  0  0
  -28.5499  -21.8330   18.5115 N   0  0  0  0  0  0
  -29.7963  -15.7091   20.9440 N   0  0  0  0  0  0
  -28.6030  -22.5255   20.6675 N   0  3  0  0  0  0
  -28.0789  -19.2569   18.0716 F   0  0  0  0  0  0
  -31.4834  -12.5531   19.1589 H   0  0  0  0  0  0
  -30.3882  -11.4228   19.9046 H   0  0  0  0  0  0
  -29.7835  -11.7618   17.4896 H   0  0  0  0  0  0
  -29.6495  -13.4828   17.7428 H   0  0  0  0  0  0
  -27.8760  -11.2941   18.8719 H   0  0  0  0  0  0
  -27.3812  -12.5759   17.7972 H   0  0  0  0  0  0
  -27.6692  -14.2528   19.5239 H   0  0  0  0  0  0
  -28.7169  -12.0531   21.3711 H   0  0  0  0  0  0
  -28.4305  -13.6982   21.8540 H   0  0  0  0  0  0
  -25.2768   -9.5677   22.4756 H   0  0  0  0  0  0
  -24.0002   -7.4629   22.7468 H   0  0  0  0  0  0
  -21.0834   -8.8778   19.8958 H   0  0  0  0  0  0
  -22.3696  -10.9678   19.6166 H   0  0  0  0  0  0
  -21.2009   -7.6152   23.9727 H   0  0  0  0  0  0
  -21.1479   -6.0521   25.9082 H   0  0  0  0  0  0
  -22.0597   -2.7614   23.2835 H   0  0  0  0  0  0
  -22.4062  -11.9929   22.4837 H   0  0  0  0  0  0
  -21.1087  -13.1293   22.2587 H   0  0  0  0  0  0
  -24.6554  -15.8401   20.5198 H   0  0  0  0  0  0
  -26.2692  -15.6314   20.0697 H   0  0  0  0  0  0
  -26.7172  -32.5416   23.1065 H   0  0  0  0  0  0
  -25.0095  -33.9699   25.0422 H   0  0  0  0  0  0
  -22.7158  -31.2988   21.3922 H   0  0  0  0  0  0
  -23.3755  -35.9604   23.3308 H   0  0  0  0  0  0
  -24.3575  -36.8892   22.2055 H   0  0  0  0  0  0
  -23.7234  -37.6481   23.6660 H   0  0  0  0  0  0
  -26.0972  -31.5462   20.6053 H   0  0  0  0  0  0
  -26.8379  -30.8280   22.0055 H   0  0  0  0  0  0
  -28.1076  -28.9735   21.1953 H   0  0  0  0  0  0
  -25.9915  -25.8945   19.0287 H   0  0  0  0  0  0
  -23.9799  -27.2805   19.0208 H   0  0  0  0  0  0
  -23.7556  -30.5769   19.3957 H   0  0  0  0  0  0
  -22.7553  -29.2338   19.8558 H   0  0  0  0  0  0
  -25.1299  -36.1925   25.0825 H   0  0  0  0  0  0
  -20.9984  -28.3270   24.1400 H   0  0  0  0  0  0
  -20.5672  -26.2294   23.3617 H   0  0  0  0  0  0
  -21.6644  -26.7431   22.1211 H   0  0  0  0  0  0
  -19.6909  -25.6292   21.1243 H   0  0  0  0  0  0
  -19.6697  -27.3186   20.6737 H   0  0  0  0  0  0
  -17.4204  -26.6682   21.4022 H   0  0  0  0  0  0
  -18.0325  -26.0078   22.9018 H   0  0  0  0  0  0
  -19.7946  -30.7263   24.2274 H   0  0  0  0  0  0
  -17.5027  -31.6271   24.5153 H   0  0  0  0  0  0
  -15.5358  -30.2987   23.7657 H   0  0  0  0  0  0
  -15.8677  -28.0816   22.7075 H   0  0  0  0  0  0
  -24.5881  -30.7121   25.7780 H   0  0  0  0  0  0
  -24.8948  -32.2929   26.4876 H   0  0  0  0  0  0
  -25.8053  -30.8924   27.0210 H   0  0  0  0  0  0
  -26.2925  -29.6763   24.1197 H   0  0  0  0  0  0
  -27.4036  -29.7281   25.4695 H   0  0  0  0  0  0
  -27.8798  -30.4308   23.9413 H   0  0  0  0  0  0
  -27.2627  -33.3644   26.2058 H   0  0  0  0  0  0
  -28.3845  -32.6932   25.0308 H   0  0  0  0  0  0
  -28.0717  -31.8485   26.5404 H   0  0  0  0  0  0
  -28.2605  -38.0090   24.7508 H   0  0  0  0  0  0
  -28.1073  -36.2621   24.6302 H   0  0  0  0  0  0
  -27.2299  -37.1456   25.8872 H   0  0  0  0  0  0
  -20.9363  -29.8754   21.6873 H   0  0  0  0  0  0
  -26.0177  -38.2848   24.1404 H   0  0  0  0  0  0
  -30.6477  -17.8802   22.3973 H   0  0  0  0  0  0
  -28.6738  -16.8665   18.7378 H   0  0  0  0  0  0
  -31.0530  -20.0682   23.0156 H   0  0  0  0  0  0
  -29.5524  -20.9699   22.8742 H   0  0  0  0  0  0
  -30.9435  -21.3686   21.8434 H   0  0  0  0  0  0
  -26.8557  -23.7347   20.3326 H   0  0  0  0  0  0
  -27.8755  -24.2547   21.6250 H   0  0  0  0  0  0
  -28.0397  -25.0387   18.7157 H   0  0  0  0  0  0
  -29.5341  -24.9070   19.5599 H   0  0  0  0  0  0
  -28.5402  -21.0899   17.8229 H   0  0  0  0  0  0
  -28.3312  -22.7674   18.2176 H   0  0  0  0  0  0
  -28.9423  -15.3618   21.3522 H   0  0  0  0  0  0
  -28.8564  -22.2748   21.6142 H   0  0  0  0  0  0
  1 25  1  0  0  0
  1 30  2  0  0  0
  1 82  1  0  0  0
  2  3  1  0  0  0
  2 25  1  0  0  0
  2 85  1  0  0  0
  2 86  1  0  0  0
  3  4  1  0  0  0
  3 87  1  0  0  0
  3 88  1  0  0  0
  4  5  1  0  0  0
  4 89  1  0  0  0
  4 90  1  0  0  0
  5  6  1  0  0  0
  5 26  1  0  0  0
  5 91  1  0  0  0
  6 25  1  0  0  0
  6 92  1  0  0  0
  6 93  1  0  0  0
  7  8  2  0  0  0
  7 26  1  0  0  0
  7 29  1  0  0  0
  8  9  1  0  0  0
  8 22  1  0  0  0
  9 10  1  0  0  0
  9 27  2  0  0  0
 10 11  2  0  0  0
 10 15  1  0  0  0
 11 12  1  0  0  0
 11 94  1  0  0  0
 12 13  2  0  0  0
 12 95  1  0  0  0
 13 14  1  0  0  0
 13 31  1  0  0  0
 14 15  2  0  0  0
 14 96  1  0  0  0
 15 97  1  0  0  0
 16 17  2  0  0  0
 16 21  1  0  0  0
 16 31  1  0  0  0
 17 18  1  0  0  0
 17 98  1  0  0  0
 18 19  2  0  0  0
 18 99  1  0  0  0
 19 20  1  0  0  0
 19 24  1  0  0  0
 20 21  2  0  0  0
 20100  1  0  0  0
 21 23  1  0  0  0
 22 28  1  0  0  0
 22 32  2  0  0  0
 26 27  1  0  0  0
 28101  1  0  0  0
 28102  1  0  0  0
 29103  1  0  0  0
 29104  1  0  0  0
 33 34  1  0  0  0
 33 66  1  0  0  0
 33 70  2  0  0  0
 34 36  1  0  0  0
 34 59  1  0  0  0
 34105  1  0  0  0
 35 44  2  0  0  0
 35 45  1  0  0  0
 35 68  1  0  0  0
 36 56  1  0  0  0
 36106  1  0  0  0
 37 39  1  0  0  0
 37 47  1  0  0  0
 37 66  1  0  0  0
 37107  1  0  0  0
 38 43  2  0  0  0
 38 46  1  0  0  0
 38 47  1  0  0  0
 39 64  1  0  0  0
 39 67  2  0  0  0
 40 52  1  0  0  0
 40 53  2  0  0  0
 40 58  1  0  0  0
 41108  1  0  0  0
 41109  1  0  0  0
 41110  1  0  0  0
 41 48  1  0  0  0
 42 43  1  0  0  0
 42 66  1  0  0  0
 42111  1  0  0  0
 42112  1  0  0  0
 43 44  1  0  0  0
 44113  1  0  0  0
 45 46  2  0  0  0
 45114  1  0  0  0
 46115  1  0  0  0
 47116  1  0  0  0
 47117  1  0  0  0
 48 56  1  0  0  0
 48 65  1  0  0  0
 48118  1  0  0  0
 49 50  1  0  0  0
 49 53  1  0  0  0
 49 64  1  0  0  0
 49119  1  0  0  0
 50 51  1  0  0  0
 50120  1  0  0  0
 50121  1  0  0  0
 51 52  1  0  0  0
 51122  1  0  0  0
 51123  1  0  0  0
 52124  1  0  0  0
 52125  1  0  0  0
 53 54  1  0  0  0
 54 55  2  0  0  0
 54126  1  0  0  0
 55 57  1  0  0  0
 55127  1  0  0  0
 56 69  2  0  0  0
 57 58  2  0  0  0
 57128  1  0  0  0
 58129  1  0  0  0
 59 60  1  0  0  0
 59 61  1  0  0  0
 59 62  1  0  0  0
 60130  1  0  0  0
 60131  1  0  0  0
 60132  1  0  0  0
 61133  1  0  0  0
 61134  1  0  0  0
 61135  1  0  0  0
 62136  1  0  0  0
 62137  1  0  0  0
 62138  1  0  0  0
 63 65  1  0  0  0
 63139  1  0  0  0
 63140  1  0  0  0
 63141  1  0  0  0
 64142  1  0  0  0
 65143  1  0  0  0
 68 80  1  0  0  0
 71 74  2  0  0  0
 71 75  1  0  0  0
 71144  1  0  0  0
 72 75  2  0  0  0
 72 76  1  0  0  0
 72145  1  0  0  0
 73 74  1  0  0  0
 73 76  2  0  0  0
 73 77  1  0  0  0
 74 78  1  0  0  0
 75 82  1  0  0  0
 76 84  1  0  0  0
 77 81  1  0  0  0
 77 83  2  0  0  0
 78146  1  0  0  0
 78147  1  0  0  0
 78148  1  0  0  0
 79 80  1  0  0  0
 79 83  1  0  0  0
 79149  1  0  0  0
 79150  1  0  0  0
 80151  1  0  0  0
 80152  1  0  0  0
 81153  1  0  0  0
 81154  1  0  0  0
 82155  1  0  0  0
 83156  1  0  0  0
M  CHG  1  83   1
M  ISO  4   1 100  68 101  80 101  82 100
M  END
> <chiral flag>
0

> <version>
0

> <s_m_source_file>
/data/baiqing/PycharmProjects/Reinvent-master-3.2/result/LINK_invent/BTK/process_docking_weight1_custom_product_contain_oxygen_bond_distance_aromatic_linkinvent_7_9_3/rearranged_h_0047.sdf

> <i_m_source_file_index>
49

> <r_mmod_Potential_Energy-OPLS-2005>
-3.66916728019714

> <r_mmod_Stretch_Energy-OPLS-2005>
97.53955078125

> <r_mmod_Bend_Energy-OPLS-2005>
174.409606933594

> <r_mmod_Torsional_Energy-OPLS-2005>
241.199798583984

> <r_mmod_Improper_Torsional_Energy-OPLS-2005>
5.7155933380127

> <r_mmod_Van_der_Waal_Energy-OPLS-2005>
142.298187255859

> <r_mmod_Electrostatic_Energy-OPLS-2005>
-304.804901123047

> <r_mmod_Solvation_Energy-OPLS-2005>
-416.923034667969

> <b_mmod_Minimization_Converged-OPLS-2005>
0

> <r_mmod_RMS_Derivative-OPLS-2005>
1.32364678382874

$$$$
49
                    3D
 Structure written by MMmdl.
161169  0  0  1  0            999 V2000
  -30.7113  -14.6277   20.4129 C   0  0  0  0  0  0
  -30.4422  -12.3653   19.4624 C   0  0  0  0  0  0
  -29.5047  -12.3408   18.2374 C   0  0  0  0  0  0
  -28.0274  -12.2717   18.6569 C   0  0  0  0  0  0
  -27.6521  -13.2137   19.8333 C   0  0  2  0  0  0
  -28.7020  -13.1628   20.9630 C   0  0  0  0  0  0
  -25.2612  -13.8171   20.5611 C   0  0  0  0  0  0
  -24.1865  -13.0442   20.9137 C   0  0  0  0  0  0
  -24.6431  -11.6913   20.8733 C   0  0  0  0  0  0
  -23.9104  -10.4282   21.0388 C   0  0  0  0  0  0
  -24.3629   -9.4187   21.9164 C   0  0  0  0  0  0
  -23.6277   -8.2244   22.0772 C   0  0  0  0  0  0
  -22.4242   -8.0310   21.3562 C   0  0  0  0  0  0
  -21.9885   -9.0305   20.4677 C   0  0  0  0  0  0
  -22.7264  -10.2147   20.3052 C   0  0  0  0  0  0
  -21.6871   -6.0705   22.5253 C   0  0  0  0  0  0
  -21.4033   -6.5613   23.8176 C   0  0  0  0  0  0
  -21.3654   -5.6781   24.9149 C   0  0  0  0  0  0
  -21.6038   -4.3044   24.7204 C   0  0  0  0  0  0
  -21.8835   -3.8129   23.4334 C   0  0  0  0  0  0
  -21.9196   -4.6940   22.3382 C   0  0  0  0  0  0
  -22.7886  -13.5252   21.1787 C   0  0  0  0  0  0
  -22.1670   -4.2133   21.0953 F   0  0  0  0  0  0
  -21.5617   -3.4523   25.7708 F   0  0  0  0  0  0
  -30.0090  -13.4551   20.3619 N   0  0  0  0  0  0
  -26.3026  -12.9355   20.3244 N   0  0  0  0  0  0
  -25.9364  -11.6522   20.5788 N   0  0  0  0  0  0
  -22.0505  -12.8286   22.0350 N   0  0  0  0  0  0
  -25.4373  -15.1887   20.3969 N   0  0  0  0  0  0
  -31.9287  -14.6353   20.2292 O   0  0  0  0  0  0
  -21.6664   -6.8870   21.4218 O   0  0  0  0  0  0
  -22.3588  -14.5557   20.6644 O   0  0  0  0  0  0
  -24.6251  -31.8626   23.2066 C   0  0  0  0  0  0
  -25.9110  -32.4784   23.8381 C   0  0  1  0  0  0
  -27.2186  -27.3415   20.1158 C   0  0  0  0  0  0
  -25.5930  -33.8585   24.2313 N   0  0  0  0  0  0
  -23.4186  -30.4916   21.5432 C   0  0  2  0  0  0
  -24.8650  -28.9617   20.1043 C   0  0  0  0  0  0
  -22.7468  -29.4652   22.4872 C   0  0  0  0  0  0
  -18.0301  -28.1393   22.8467 C   0  0  0  0  0  0
  -24.1482  -36.7292   23.2632 C   0  0  0  0  0  0
  -25.9596  -30.7997   21.3812 C   0  0  0  0  0  0
  -26.0299  -29.4314   20.7224 C   0  0  0  0  0  0
  -27.2054  -28.6286   20.7311 C   0  0  0  0  0  0
  -26.0421  -26.9475   19.4294 C   0  0  0  0  0  0
  -24.8730  -27.7238   19.4493 C   0  0  0  0  0  0
  -23.6328  -29.8366   20.1556 C   0  0  0  0  0  0
  -25.4103  -36.3086   24.0340 C   0  0  1  0  0  0
  -20.5898  -28.3703   23.1249 C   0  0  2  0  0  0
  -20.6785  -26.9415   22.5410 C   0  0  0  0  0  0
  -19.5770  -26.6383   21.5196 C   0  0  0  0  0  0
  -18.1942  -26.7939   22.1600 C   0  0  0  0  0  0
  -19.1552  -28.8861   23.2870 C   0  0  0  0  0  0
  -18.9469  -30.1451   23.8917 C   0  0  0  0  0  0
  -17.6472  -30.6587   24.0570 C   0  0  0  0  0  0
  -25.9041  -34.9454   23.5125 C   0  0  0  0  0  0
  -16.5363  -29.9092   23.6313 C   0  0  0  0  0  0
  -16.7288  -28.6503   23.0337 C   0  0  0  0  0  0
  -26.4498  -31.6581   25.0736 C   0  0  0  0  0  0
  -25.3733  -31.3710   26.1461 C   0  0  0  0  0  0
  -27.0327  -30.3005   24.6180 C   0  0  0  0  0  0
  -27.6083  -32.4288   25.7492 C   0  0  0  0  0  0
  -27.5591  -37.1794   24.8447 C   0  0  0  0  0  0
  -21.4184  -29.3064   22.3625 N   0  0  0  0  0  0
  -26.4278  -37.3788   23.9424 N   0  0  0  0  0  0
  -24.6855  -31.0678   22.1001 N   0  0  0  0  0  0
  -23.4202  -28.8165   23.2926 O   0  0  0  0  0  0
  -28.3333  -26.4970   20.2182 O   0  0  0  0  0  0
  -26.5603  -34.8925   22.4681 O   0  0  0  0  0  0
  -23.5418  -32.1401   23.7400 O   0  0  0  0  0  0
  -31.7833  -17.7425   17.6145 C   0  0  0  0  0  0
  -32.2257  -18.8747   18.3006 C   0  0  0  0  0  0
  -30.9704  -16.8007   18.2653 C   0  0  0  0  0  0
  -30.7123  -18.3255   20.1568 C   0  0  0  0  0  0
  -30.5428  -16.9863   19.6191 C   0  0  0  0  0  0
  -31.7000  -19.1637   19.5652 C   0  0  0  0  0  0
  -28.7639  -22.6545   20.3798 C   0  0  0  0  0  0
  -28.8324  -23.9843   20.7058 C   0  0  0  0  0  0
  -29.2961  -21.5331   21.1951 C   0  0  0  0  0  0
  -30.5669  -15.5974   17.4419 C   0  0  0  0  0  0
  -28.2400  -19.9520   19.5629 C   0  0  0  0  0  0
  -29.8060  -19.0061   21.2163 C   0  0  0  0  0  0
  -28.1925  -25.0854   19.8261 C   0  0  0  0  0  0
  -30.0253  -15.8195   20.3451 N   0  0  0  0  0  0
  -29.1259  -20.2522   20.6970 N   0  0  0  0  0  0
  -29.8925  -21.7276   22.2561 O   0  0  0  0  0  0
  -32.3144  -20.5726   20.3578 Cl  0  0  0  0  0  0
  -31.4725  -12.4809   19.1181 H   0  0  0  0  0  0
  -30.4180  -11.4129   19.9925 H   0  0  0  0  0  0
  -29.7486  -11.4697   17.6278 H   0  0  0  0  0  0
  -29.6760  -13.1801   17.5789 H   0  0  0  0  0  0
  -27.8447  -11.2374   18.9531 H   0  0  0  0  0  0
  -27.3794  -12.4588   17.7989 H   0  0  0  0  0  0
  -27.6505  -14.2247   19.4255 H   0  0  0  0  0  0
  -28.7159  -12.1794   21.4340 H   0  0  0  0  0  0
  -28.4629  -13.8824   21.7471 H   0  0  0  0  0  0
  -25.2789   -9.5659   22.4706 H   0  0  0  0  0  0
  -23.9988   -7.4627   22.7491 H   0  0  0  0  0  0
  -21.0800   -8.8868   19.8974 H   0  0  0  0  0  0
  -22.3766  -10.9687   19.6143 H   0  0  0  0  0  0
  -21.2066   -7.6127   23.9688 H   0  0  0  0  0  0
  -21.1446   -6.0498   25.9046 H   0  0  0  0  0  0
  -22.0621   -2.7593   23.2851 H   0  0  0  0  0  0
  -22.4121  -11.9941   22.4747 H   0  0  0  0  0  0
  -21.1131  -13.1343   22.2521 H   0  0  0  0  0  0
  -24.6841  -15.8549   20.5219 H   0  0  0  0  0  0
  -26.2974  -15.6222   20.0880 H   0  0  0  0  0  0
  -26.7170  -32.5475   23.1124 H   0  0  0  0  0  0
  -25.0098  -33.9710   25.0473 H   0  0  0  0  0  0
  -22.7134  -31.3139   21.4027 H   0  0  0  0  0  0
  -23.3760  -35.9603   23.3263 H   0  0  0  0  0  0
  -24.3601  -36.8940   22.2054 H   0  0  0  0  0  0
  -23.7214  -37.6478   23.6670 H   0  0  0  0  0  0
  -26.0998  -31.5660   20.6177 H   0  0  0  0  0  0
  -26.8381  -30.8415   22.0139 H   0  0  0  0  0  0
  -28.0924  -28.9779   21.2404 H   0  0  0  0  0  0
  -25.9787  -26.0355   18.8566 H   0  0  0  0  0  0
  -23.9888  -27.3716   18.9362 H   0  0  0  0  0  0
  -23.7522  -30.6149   19.3998 H   0  0  0  0  0  0
  -22.7554  -29.2618   19.8504 H   0  0  0  0  0  0
  -25.1269  -36.1948   25.0833 H   0  0  0  0  0  0
  -21.0015  -28.3319   24.1362 H   0  0  0  0  0  0
  -20.5662  -26.2319   23.3617 H   0  0  0  0  0  0
  -21.6669  -26.7420   22.1234 H   0  0  0  0  0  0
  -19.6932  -25.6292   21.1243 H   0  0  0  0  0  0
  -19.6723  -27.3184   20.6725 H   0  0  0  0  0  0
  -17.4210  -26.6685   21.3996 H   0  0  0  0  0  0
  -18.0339  -26.0095   22.9002 H   0  0  0  0  0  0
  -19.7950  -30.7252   24.2313 H   0  0  0  0  0  0
  -17.5030  -31.6274   24.5165 H   0  0  0  0  0  0
  -15.5366  -30.2999   23.7629 H   0  0  0  0  0  0
  -15.8691  -28.0836   22.7043 H   0  0  0  0  0  0
  -24.5926  -30.7029   25.7796 H   0  0  0  0  0  0
  -24.8889  -32.2861   26.4876 H   0  0  0  0  0  0
  -25.8068  -30.8905   27.0238 H   0  0  0  0  0  0
  -26.2886  -29.6767   24.1210 H   0  0  0  0  0  0
  -27.4027  -29.7261   25.4682 H   0  0  0  0  0  0
  -27.8766  -30.4289   23.9401 H   0  0  0  0  0  0
  -27.2743  -33.3605   26.2069 H   0  0  0  0  0  0
  -28.3892  -32.6806   25.0303 H   0  0  0  0  0  0
  -28.0742  -31.8397   26.5397 H   0  0  0  0  0  0
  -28.2555  -38.0138   24.7570 H   0  0  0  0  0  0
  -28.1135  -36.2685   24.6154 H   0  0  0  0  0  0
  -27.2341  -37.1318   25.8851 H   0  0  0  0  0  0
  -20.9337  -29.8789   21.6856 H   0  0  0  0  0  0
  -26.0163  -38.2854   24.1465 H   0  0  0  0  0  0
  -32.1142  -17.5766   16.5986 H   0  0  0  0  0  0
  -32.9265  -19.5521   17.8359 H   0  0  0  0  0  0
  -28.2730  -22.4378   19.4458 H   0  0  0  0  0  0
  -29.3212  -24.3040   21.6157 H   0  0  0  0  0  0
  -31.2934  -14.7924   17.5656 H   0  0  0  0  0  0
  -30.5047  -15.8376   16.3785 H   0  0  0  0  0  0
  -29.5767  -15.2707   17.7545 H   0  0  0  0  0  0
  -27.2623  -20.4234   19.6822 H   0  0  0  0  0  0
  -28.0524  -18.8825   19.4621 H   0  0  0  0  0  0
  -28.6885  -20.2861   18.6254 H   0  0  0  0  0  0
  -30.4029  -19.2304   22.1018 H   0  0  0  0  0  0
  -29.0364  -18.3081   21.5479 H   0  0  0  0  0  0
  -27.1588  -24.7513   19.8297 H   0  0  0  0  0  0
  -28.5606  -24.9731   18.8055 H   0  0  0  0  0  0
  -29.0528  -15.8197   20.6104 H   0  0  0  0  0  0
  1 25  1  0  0  0
  1 30  2  0  0  0
  1 84  1  0  0  0
  2  3  1  0  0  0
  2 25  1  0  0  0
  2 88  1  0  0  0
  2 89  1  0  0  0
  3  4  1  0  0  0
  3 90  1  0  0  0
  3 91  1  0  0  0
  4  5  1  0  0  0
  4 92  1  0  0  0
  4 93  1  0  0  0
  5  6  1  0  0  0
  5 26  1  0  0  0
  5 94  1  0  0  0
  6 25  1  0  0  0
  6 95  1  0  0  0
  6 96  1  0  0  0
  7  8  2  0  0  0
  7 26  1  0  0  0
  7 29  1  0  0  0
  8  9  1  0  0  0
  8 22  1  0  0  0
  9 10  1  0  0  0
  9 27  2  0  0  0
 10 11  2  0  0  0
 10 15  1  0  0  0
 11 12  1  0  0  0
 11 97  1  0  0  0
 12 13  2  0  0  0
 12 98  1  0  0  0
 13 14  1  0  0  0
 13 31  1  0  0  0
 14 15  2  0  0  0
 14 99  1  0  0  0
 15100  1  0  0  0
 16 17  2  0  0  0
 16 21  1  0  0  0
 16 31  1  0  0  0
 17 18  1  0  0  0
 17101  1  0  0  0
 18 19  2  0  0  0
 18102  1  0  0  0
 19 20  1  0  0  0
 19 24  1  0  0  0
 20 21  2  0  0  0
 20103  1  0  0  0
 21 23  1  0  0  0
 22 28  1  0  0  0
 22 32  2  0  0  0
 26 27  1  0  0  0
 28104  1  0  0  0
 28105  1  0  0  0
 29106  1  0  0  0
 29107  1  0  0  0
 33 34  1  0  0  0
 33 66  1  0  0  0
 33 70  2  0  0  0
 34 36  1  0  0  0
 34 59  1  0  0  0
 34108  1  0  0  0
 35 44  2  0  0  0
 35 45  1  0  0  0
 35 68  1  0  0  0
 36 56  1  0  0  0
 36109  1  0  0  0
 37 39  1  0  0  0
 37 47  1  0  0  0
 37 66  1  0  0  0
 37110  1  0  0  0
 38 43  2  0  0  0
 38 46  1  0  0  0
 38 47  1  0  0  0
 39 64  1  0  0  0
 39 67  2  0  0  0
 40 52  1  0  0  0
 40 53  2  0  0  0
 40 58  1  0  0  0
 41111  1  0  0  0
 41112  1  0  0  0
 41113  1  0  0  0
 41 48  1  0  0  0
 42 43  1  0  0  0
 42 66  1  0  0  0
 42114  1  0  0  0
 42115  1  0  0  0
 43 44  1  0  0  0
 44116  1  0  0  0
 45 46  2  0  0  0
 45117  1  0  0  0
 46118  1  0  0  0
 47119  1  0  0  0
 47120  1  0  0  0
 48 56  1  0  0  0
 48 65  1  0  0  0
 48121  1  0  0  0
 49 50  1  0  0  0
 49 53  1  0  0  0
 49 64  1  0  0  0
 49122  1  0  0  0
 50 51  1  0  0  0
 50123  1  0  0  0
 50124  1  0  0  0
 51 52  1  0  0  0
 51125  1  0  0  0
 51126  1  0  0  0
 52127  1  0  0  0
 52128  1  0  0  0
 53 54  1  0  0  0
 54 55  2  0  0  0
 54129  1  0  0  0
 55 57  1  0  0  0
 55130  1  0  0  0
 56 69  2  0  0  0
 57 58  2  0  0  0
 57131  1  0  0  0
 58132  1  0  0  0
 59 60  1  0  0  0
 59 61  1  0  0  0
 59 62  1  0  0  0
 60133  1  0  0  0
 60134  1  0  0  0
 60135  1  0  0  0
 61136  1  0  0  0
 61137  1  0  0  0
 61138  1  0  0  0
 62139  1  0  0  0
 62140  1  0  0  0
 62141  1  0  0  0
 63 65  1  0  0  0
 63142  1  0  0  0
 63143  1  0  0  0
 63144  1  0  0  0
 64145  1  0  0  0
 65146  1  0  0  0
 68 83  1  0  0  0
 71 72  2  0  0  0
 71 73  1  0  0  0
 71147  1  0  0  0
 72 76  1  0  0  0
 72148  1  0  0  0
 73 75  2  0  0  0
 73 80  1  0  0  0
 74 75  1  0  0  0
 74 76  2  0  0  0
 74 82  1  0  0  0
 75 84  1  0  0  0
 76 87  1  0  0  0
 77 78  2  0  0  0
 77 79  1  0  0  0
 77149  1  0  0  0
 78 83  1  0  0  0
 78150  1  0  0  0
 79 85  1  0  0  0
 79 86  2  0  0  0
 80151  1  0  0  0
 80152  1  0  0  0
 80153  1  0  0  0
 81 85  1  0  0  0
 81154  1  0  0  0
 81155  1  0  0  0
 81156  1  0  0  0
 82 85  1  0  0  0
 82157  1  0  0  0
 82158  1  0  0  0
 83159  1  0  0  0
 83160  1  0  0  0
 84161  1  0  0  0
M  ISO  4   1 100  68 101  83 101  84 100
M  END
> <chiral flag>
0

> <version>
0

> <s_m_source_file>
/data/baiqing/PycharmProjects/Reinvent-master-3.2/result/LINK_invent/BTK/process_docking_weight1_custom_product_contain_oxygen_bond_distance_aromatic_linkinvent_7_9_3/rearranged_h_0047.sdf

> <i_m_source_file_index>
50

> <r_mmod_Potential_Energy-OPLS-2005>
159.737640380859

> <r_mmod_Stretch_Energy-OPLS-2005>
79.8974380493164

> <r_mmod_Bend_Energy-OPLS-2005>
137.428649902344

> <r_mmod_Torsional_Energy-OPLS-2005>
324.339813232422

> <r_mmod_Improper_Torsional_Energy-OPLS-2005>
9.04923820495605

> <r_mmod_Van_der_Waal_Energy-OPLS-2005>
174.887100219727

> <r_mmod_Electrostatic_Energy-OPLS-2005>
-389.705169677734

> <r_mmod_Solvation_Energy-OPLS-2005>
-239.541549682617

> <b_mmod_Minimization_Converged-OPLS-2005>
0

> <r_mmod_RMS_Derivative-OPLS-2005>
4.16845560073853

$$$$
50
                    3D
 Structure written by MMmdl.
164173  0  0  1  0            999 V2000
  -30.6131  -14.6509   20.4069 C   0  0  0  0  0  0
  -30.4498  -12.3624   19.4699 C   0  0  0  0  0  0
  -29.5328  -12.4066   18.2266 C   0  0  0  0  0  0
  -28.0368  -12.3345   18.6121 C   0  0  0  0  0  0
  -27.6574  -13.2170   19.8364 C   0  0  2  0  0  0
  -28.6981  -13.0948   20.9698 C   0  0  0  0  0  0
  -25.2605  -13.8239   20.5615 C   0  0  0  0  0  0
  -24.1868  -13.0500   20.9135 C   0  0  0  0  0  0
  -24.6436  -11.6976   20.8684 C   0  0  0  0  0  0
  -23.9103  -10.4353   21.0378 C   0  0  0  0  0  0
  -24.3673   -9.4276   21.9164 C   0  0  0  0  0  0
  -23.6373   -8.2284   22.0712 C   0  0  0  0  0  0
  -22.4355   -8.0326   21.3500 C   0  0  0  0  0  0
  -21.9981   -9.0310   20.4608 C   0  0  0  0  0  0
  -22.7269  -10.2200   20.3036 C   0  0  0  0  0  0
  -21.6868   -6.0786   22.5291 C   0  0  0  0  0  0
  -21.4026   -6.5688   23.8232 C   0  0  0  0  0  0
  -21.3650   -5.6797   24.9168 C   0  0  0  0  0  0
  -21.6035   -4.3065   24.7194 C   0  0  0  0  0  0
  -21.8818   -3.8180   23.4309 C   0  0  0  0  0  0
  -21.9202   -4.7016   22.3383 C   0  0  0  0  0  0
  -22.7862  -13.5274   21.1805 C   0  0  0  0  0  0
  -22.1646   -4.2228   21.0949 F   0  0  0  0  0  0
  -21.5652   -3.4525   25.7689 F   0  0  0  0  0  0
  -30.0137  -13.4196   20.4020 N   0  0  0  0  0  0
  -26.3026  -12.9401   20.3142 N   0  0  0  0  0  0
  -25.9365  -11.6575   20.5671 N   0  0  0  0  0  0
  -22.0451  -12.8292   22.0342 N   0  0  0  0  0  0
  -25.4300  -15.1957   20.4038 N   0  0  0  0  0  0
  -31.7963  -14.7893   20.0863 O   0  0  0  0  0  0
  -21.6658   -6.8953   21.4261 O   0  0  0  0  0  0
  -22.3544  -14.5541   20.6568 O   0  0  0  0  0  0
  -24.6240  -31.8663   23.2107 C   0  0  0  0  0  0
  -25.9105  -32.4808   23.8424 C   0  0  1  0  0  0
  -27.2196  -27.3606   20.0984 C   0  0  0  0  0  0
  -25.5943  -33.8608   24.2369 N   0  0  0  0  0  0
  -23.4141  -30.4986   21.5485 C   0  0  2  0  0  0
  -24.8563  -28.9555   20.1142 C   0  0  0  0  0  0
  -22.7455  -29.4686   22.4907 C   0  0  0  0  0  0
  -18.0291  -28.1427   22.8459 C   0  0  0  0  0  0
  -24.1487  -36.7338   23.2639 C   0  0  0  0  0  0
  -25.9505  -30.8128   21.3684 C   0  0  0  0  0  0
  -26.0238  -29.4401   20.7148 C   0  0  0  0  0  0
  -27.2102  -28.6529   20.6978 C   0  0  0  0  0  0
  -26.0244  -26.9066   19.5036 C   0  0  0  0  0  0
  -24.8542  -27.6907   19.5052 C   0  0  0  0  0  0
  -23.6302  -29.8461   20.1579 C   0  0  0  0  0  0
  -25.4102  -36.3119   24.0351 C   0  0  1  0  0  0
  -20.5885  -28.3734   23.1272 C   0  0  2  0  0  0
  -20.6783  -26.9457   22.5421 C   0  0  0  0  0  0
  -19.5763  -26.6405   21.5218 C   0  0  0  0  0  0
  -18.1933  -26.7970   22.1598 C   0  0  0  0  0  0
  -19.1537  -28.8887   23.2869 C   0  0  0  0  0  0
  -18.9467  -30.1478   23.8907 C   0  0  0  0  0  0
  -17.6475  -30.6608   24.0588 C   0  0  0  0  0  0
  -25.9038  -34.9479   23.5148 C   0  0  0  0  0  0
  -16.5372  -29.9134   23.6310 C   0  0  0  0  0  0
  -16.7287  -28.6566   23.0304 C   0  0  0  0  0  0
  -26.4523  -31.6587   25.0734 C   0  0  0  0  0  0
  -25.3798  -31.3672   26.1484 C   0  0  0  0  0  0
  -27.0334  -30.3030   24.6075 C   0  0  0  0  0  0
  -27.6116  -32.4275   25.7502 C   0  0  0  0  0  0
  -27.5592  -37.1825   24.8467 C   0  0  0  0  0  0
  -21.4172  -29.3098   22.3662 N   0  0  0  0  0  0
  -26.4288  -37.3811   23.9424 N   0  0  0  0  0  0
  -24.6825  -31.0736   22.1018 N   0  0  0  0  0  0
  -23.4219  -28.8191   23.2934 O   0  0  0  0  0  0
  -28.3819  -26.5913   20.0570 O   0  0  0  0  0  0
  -26.5571  -34.8938   22.4687 O   0  0  0  0  0  0
  -23.5409  -32.1431   23.7459 O   0  0  0  0  0  0
  -29.5451  -19.6676   18.7936 C   0  0  0  0  0  0
  -29.7253  -18.5202   18.0046 C   0  0  0  0  0  0
  -29.4300  -19.5673   20.1956 C   0  0  0  0  0  0
  -29.8252  -17.2365   18.5815 C   0  0  0  0  0  0
  -29.5339  -18.2473   20.7842 C   0  0  0  0  0  0
  -29.7820  -17.0644   19.9972 C   0  0  0  0  0  0
  -28.0972  -22.6884   19.6387 C   0  0  0  0  0  0
  -28.1270  -24.1645   19.1532 C   0  0  0  0  0  0
  -29.6973  -24.7567   20.9456 C   0  0  0  0  0  0
  -30.0559  -23.2278   21.0148 C   0  0  0  0  0  0
  -28.3340  -25.1489   20.3365 C   0  0  1  0  0  0
  -29.8745  -16.0589   17.6326 C   0  0  0  0  0  0
  -29.3194  -18.0556   22.2789 C   0  0  0  0  0  0
  -29.1622  -20.8602   21.0473 C   0  0  0  0  0  0
  -29.0940  -22.2466   20.4480 N   0  0  0  0  0  0
  -29.7834  -15.7242   20.6035 N   0  0  0  0  0  0
  -27.1682  -21.9597   19.2716 O   0  0  0  0  0  0
  -31.4959  -12.4806   19.1749 H   0  0  0  0  0  0
  -30.3843  -11.3859   19.9498 H   0  0  0  0  0  0
  -29.7867  -11.5705   17.5718 H   0  0  0  0  0  0
  -29.7377  -13.2937   17.6360 H   0  0  0  0  0  0
  -27.8151  -11.2900   18.8262 H   0  0  0  0  0  0
  -27.4181  -12.5961   17.7513 H   0  0  0  0  0  0
  -27.6696  -14.2440   19.4784 H   0  0  0  0  0  0
  -28.6988  -12.0845   21.3798 H   0  0  0  0  0  0
  -28.4489  -13.7677   21.7914 H   0  0  0  0  0  0
  -25.2857   -9.5799   22.4706 H   0  0  0  0  0  0
  -24.0125   -7.4693   22.7465 H   0  0  0  0  0  0
  -21.0896   -8.8852   19.8952 H   0  0  0  0  0  0
  -22.3753  -10.9740   19.6138 H   0  0  0  0  0  0
  -21.2006   -7.6192   23.9776 H   0  0  0  0  0  0
  -21.1457   -6.0488   25.9081 H   0  0  0  0  0  0
  -22.0593   -2.7658   23.2749 H   0  0  0  0  0  0
  -22.4069  -12.0039   22.4893 H   0  0  0  0  0  0
  -21.1008  -13.1307   22.2395 H   0  0  0  0  0  0
  -24.6584  -15.8469   20.5227 H   0  0  0  0  0  0
  -26.2817  -15.6414   20.0875 H   0  0  0  0  0  0
  -26.7162  -32.5517   23.1182 H   0  0  0  0  0  0
  -25.0148  -33.9783   25.0545 H   0  0  0  0  0  0
  -22.7083  -31.3204   21.4148 H   0  0  0  0  0  0
  -23.3752  -35.9669   23.3280 H   0  0  0  0  0  0
  -24.3619  -36.8967   22.2068 H   0  0  0  0  0  0
  -23.7245  -37.6536   23.6664 H   0  0  0  0  0  0
  -26.0613  -31.5709   20.5914 H   0  0  0  0  0  0
  -26.8429  -30.8769   21.9813 H   0  0  0  0  0  0
  -28.1129  -29.0307   21.1587 H   0  0  0  0  0  0
  -25.9696  -25.9506   19.0124 H   0  0  0  0  0  0
  -23.9574  -27.3175   19.0313 H   0  0  0  0  0  0
  -23.7780  -30.6372   19.4213 H   0  0  0  0  0  0
  -22.7424  -29.3018   19.8296 H   0  0  0  0  0  0
  -25.1271  -36.1989   25.0845 H   0  0  0  0  0  0
  -21.0004  -28.3339   24.1377 H   0  0  0  0  0  0
  -20.5683  -26.2361   23.3637 H   0  0  0  0  0  0
  -21.6661  -26.7480   22.1226 H   0  0  0  0  0  0
  -19.6936  -25.6303   21.1273 H   0  0  0  0  0  0
  -19.6731  -27.3182   20.6721 H   0  0  0  0  0  0
  -17.4229  -26.6726   21.3984 H   0  0  0  0  0  0
  -18.0313  -26.0131   22.9002 H   0  0  0  0  0  0
  -19.7953  -30.7270   24.2305 H   0  0  0  0  0  0
  -17.5048  -31.6280   24.5209 H   0  0  0  0  0  0
  -15.5377  -30.3057   23.7633 H   0  0  0  0  0  0
  -15.8681  -28.0931   22.6958 H   0  0  0  0  0  0
  -24.5991  -30.6978   25.7865 H   0  0  0  0  0  0
  -24.8938  -32.2784   26.4964 H   0  0  0  0  0  0
  -25.8160  -30.8861   27.0240 H   0  0  0  0  0  0
  -26.2831  -29.6772   24.1197 H   0  0  0  0  0  0
  -27.4220  -29.7283   25.4505 H   0  0  0  0  0  0
  -27.8646  -30.4400   23.9143 H   0  0  0  0  0  0
  -27.2789  -33.3609   26.2073 H   0  0  0  0  0  0
  -28.3937  -32.6755   25.0310 H   0  0  0  0  0  0
  -28.0756  -31.8358   26.5412 H   0  0  0  0  0  0
  -28.2589  -38.0138   24.7496 H   0  0  0  0  0  0
  -28.1082  -36.2657   24.6265 H   0  0  0  0  0  0
  -27.2317  -37.1468   25.8870 H   0  0  0  0  0  0
  -20.9328  -29.8924   21.6964 H   0  0  0  0  0  0
  -26.0170  -38.2882   24.1423 H   0  0  0  0  0  0
  -29.4533  -20.6198   18.2919 H   0  0  0  0  0  0
  -29.7477  -18.6341   16.9269 H   0  0  0  0  0  0
  -27.2168  -24.3672   18.5963 H   0  0  0  0  0  0
  -28.9358  -24.2586   18.4259 H   0  0  0  0  0  0
  -30.4723  -25.2431   20.3527 H   0  0  0  0  0  0
  -29.7823  -25.2035   21.9374 H   0  0  0  0  0  0
  -30.2491  -22.9889   22.0617 H   0  0  0  0  0  0
  -31.0052  -23.0744   20.5002 H   0  0  0  0  0  0
  -27.5558  -24.9754   21.0824 H   0  0  0  0  0  0
  -30.8600  -15.5932   17.6297 H   0  0  0  0  0  0
  -29.6394  -16.3543   16.6097 H   0  0  0  0  0  0
  -29.1182  -15.3353   17.9296 H   0  0  0  0  0  0
  -30.2199  -17.6611   22.7467 H   0  0  0  0  0  0
  -28.5128  -17.3428   22.4399 H   0  0  0  0  0  0
  -29.0446  -18.9603   22.8155 H   0  0  0  0  0  0
  -29.9471  -20.8601   21.8046 H   0  0  0  0  0  0
  -28.2306  -20.7190   21.5961 H   0  0  0  0  0  0
  -28.9225  -15.4788   21.0727 H   0  0  0  0  0  0
  1 25  1  0  0  0
  1 30  2  0  0  0
  1 86  1  0  0  0
  2  3  1  0  0  0
  2 25  1  0  0  0
  2 88  1  0  0  0
  2 89  1  0  0  0
  3  4  1  0  0  0
  3 90  1  0  0  0
  3 91  1  0  0  0
  4  5  1  0  0  0
  4 92  1  0  0  0
  4 93  1  0  0  0
  5  6  1  0  0  0
  5 26  1  0  0  0
  5 94  1  0  0  0
  6 25  1  0  0  0
  6 95  1  0  0  0
  6 96  1  0  0  0
  7  8  2  0  0  0
  7 26  1  0  0  0
  7 29  1  0  0  0
  8  9  1  0  0  0
  8 22  1  0  0  0
  9 10  1  0  0  0
  9 27  2  0  0  0
 10 11  2  0  0  0
 10 15  1  0  0  0
 11 12  1  0  0  0
 11 97  1  0  0  0
 12 13  2  0  0  0
 12 98  1  0  0  0
 13 14  1  0  0  0
 13 31  1  0  0  0
 14 15  2  0  0  0
 14 99  1  0  0  0
 15100  1  0  0  0
 16 17  2  0  0  0
 16 21  1  0  0  0
 16 31  1  0  0  0
 17 18  1  0  0  0
 17101  1  0  0  0
 18 19  2  0  0  0
 18102  1  0  0  0
 19 20  1  0  0  0
 19 24  1  0  0  0
 20 21  2  0  0  0
 20103  1  0  0  0
 21 23  1  0  0  0
 22 28  1  0  0  0
 22 32  2  0  0  0
 26 27  1  0  0  0
 28104  1  0  0  0
 28105  1  0  0  0
 29106  1  0  0  0
 29107  1  0  0  0
 33 34  1  0  0  0
 33 66  1  0  0  0
 33 70  2  0  0  0
 34 36  1  0  0  0
 34 59  1  0  0  0
 34108  1  0  0  0
 35 44  2  0  0  0
 35 45  1  0  0  0
 35 68  1  0  0  0
 36 56  1  0  0  0
 36109  1  0  0  0
 37 39  1  0  0  0
 37 47  1  0  0  0
 37 66  1  0  0  0
 37110  1  0  0  0
 38 43  2  0  0  0
 38 46  1  0  0  0
 38 47  1  0  0  0
 39 64  1  0  0  0
 39 67  2  0  0  0
 40 52  1  0  0  0
 40 53  2  0  0  0
 40 58  1  0  0  0
 41111  1  0  0  0
 41112  1  0  0  0
 41113  1  0  0  0
 41 48  1  0  0  0
 42 43  1  0  0  0
 42 66  1  0  0  0
 42114  1  0  0  0
 42115  1  0  0  0
 43 44  1  0  0  0
 44116  1  0  0  0
 45 46  2  0  0  0
 45117  1  0  0  0
 46118  1  0  0  0
 47119  1  0  0  0
 47120  1  0  0  0
 48 56  1  0  0  0
 48 65  1  0  0  0
 48121  1  0  0  0
 49 50  1  0  0  0
 49 53  1  0  0  0
 49 64  1  0  0  0
 49122  1  0  0  0
 50 51  1  0  0  0
 50123  1  0  0  0
 50124  1  0  0  0
 51 52  1  0  0  0
 51125  1  0  0  0
 51126  1  0  0  0
 52127  1  0  0  0
 52128  1  0  0  0
 53 54  1  0  0  0
 54 55  2  0  0  0
 54129  1  0  0  0
 55 57  1  0  0  0
 55130  1  0  0  0
 56 69  2  0  0  0
 57 58  2  0  0  0
 57131  1  0  0  0
 58132  1  0  0  0
 59 60  1  0  0  0
 59 61  1  0  0  0
 59 62  1  0  0  0
 60133  1  0  0  0
 60134  1  0  0  0
 60135  1  0  0  0
 61136  1  0  0  0
 61137  1  0  0  0
 61138  1  0  0  0
 62139  1  0  0  0
 62140  1  0  0  0
 62141  1  0  0  0
 63 65  1  0  0  0
 63142  1  0  0  0
 63143  1  0  0  0
 63144  1  0  0  0
 64145  1  0  0  0
 65146  1  0  0  0
 68 81  1  0  0  0
 71 72  2  0  0  0
 71 73  1  0  0  0
 71147  1  0  0  0
 72 74  1  0  0  0
 72148  1  0  0  0
 73 75  2  0  0  0
 73 84  1  0  0  0
 74 76  2  0  0  0
 74 82  1  0  0  0
 75 76  1  0  0  0
 75 83  1  0  0  0
 76 86  1  0  0  0
 77 78  1  0  0  0
 77 85  1  0  0  0
 77 87  2  0  0  0
 78 81  1  0  0  0
 78149  1  0  0  0
 78150  1  0  0  0
 79 80  1  0  0  0
 79 81  1  0  0  0
 79151  1  0  0  0
 79152  1  0  0  0
 80 85  1  0  0  0
 80153  1  0  0  0
 80154  1  0  0  0
 81155  1  0  0  0
 82156  1  0  0  0
 82157  1  0  0  0
 82158  1  0  0  0
 83159  1  0  0  0
 83160  1  0  0  0
 83161  1  0  0  0
 84 85  1  0  0  0
 84162  1  0  0  0
 84163  1  0  0  0
 86164  1  0  0  0
M  ISO  4   1 100  68 101  81 101  86 100
M  END
> <chiral flag>
0

> <version>
0

> <s_m_source_file>
/data/baiqing/PycharmProjects/Reinvent-master-3.2/result/LINK_invent/BTK/process_docking_weight1_custom_product_contain_oxygen_bond_distance_aromatic_linkinvent_7_9_3/rearranged_h_0047.sdf

> <i_m_source_file_index>
51

> <r_mmod_Potential_Energy-OPLS-2005>
50.9851455688477

> <r_mmod_Stretch_Energy-OPLS-2005>
77.8088989257812

> <r_mmod_Bend_Energy-OPLS-2005>
144.209747314453

> <r_mmod_Torsional_Energy-OPLS-2005>
279.006958007812

> <r_mmod_Improper_Torsional_Energy-OPLS-2005>
6.33334445953369

> <r_mmod_Van_der_Waal_Energy-OPLS-2005>
155.262084960938

> <r_mmod_Electrostatic_Energy-OPLS-2005>
-426.150665283203

> <r_mmod_Solvation_Energy-OPLS-2005>
-230.535461425781

> <b_mmod_Minimization_Converged-OPLS-2005>
0

> <r_mmod_RMS_Derivative-OPLS-2005>
5.96130990982056

$$$$
51
                    3D
 Structure written by MMmdl.
167176  0  0  1  0            999 V2000
  -30.6566  -14.7320   20.4310 C   0  0  0  0  0  0
  -30.4121  -12.4443   19.4759 C   0  0  0  0  0  0
  -29.5015  -12.5033   18.2321 C   0  0  0  0  0  0
  -28.0263  -12.3412   18.6433 C   0  0  0  0  0  0
  -27.6340  -13.2443   19.8456 C   0  0  2  0  0  0
  -28.6804  -13.2028   20.9801 C   0  0  0  0  0  0
  -25.2468  -13.8233   20.5715 C   0  0  0  0  0  0
  -24.1784  -13.0444   20.9229 C   0  0  0  0  0  0
  -24.6388  -11.6927   20.8755 C   0  0  0  0  0  0
  -23.9079  -10.4291   21.0400 C   0  0  0  0  0  0
  -24.3626   -9.4208   21.9179 C   0  0  0  0  0  0
  -23.6299   -8.2248   22.0751 C   0  0  0  0  0  0
  -22.4288   -8.0277   21.3538 C   0  0  0  0  0  0
  -21.9919   -9.0253   20.4642 C   0  0  0  0  0  0
  -22.7246  -10.2132   20.3050 C   0  0  0  0  0  0
  -21.6857   -6.0738   22.5278 C   0  0  0  0  0  0
  -21.4019   -6.5639   23.8210 C   0  0  0  0  0  0
  -21.3657   -5.6791   24.9168 C   0  0  0  0  0  0
  -21.6044   -4.3052   24.7226 C   0  0  0  0  0  0
  -21.8817   -3.8142   23.4342 C   0  0  0  0  0  0
  -21.9196   -4.6963   22.3398 C   0  0  0  0  0  0
  -22.7800  -13.5210   21.1886 C   0  0  0  0  0  0
  -22.1661   -4.2147   21.0981 F   0  0  0  0  0  0
  -21.5625   -3.4536   25.7741 F   0  0  0  0  0  0
  -29.9791  -13.5327   20.3850 N   0  0  0  0  0  0
  -26.2900  -12.9459   20.3284 N   0  0  0  0  0  0
  -25.9328  -11.6587   20.5765 N   0  0  0  0  0  0
  -22.0454  -12.8189   22.0425 N   0  0  0  0  0  0
  -25.4126  -15.1964   20.4141 N   0  0  0  0  0  0
  -31.8629  -14.7085   20.1930 O   0  0  0  0  0  0
  -21.6645   -6.8880   21.4240 O   0  0  0  0  0  0
  -22.3471  -14.5518   20.6725 O   0  0  0  0  0  0
  -24.6324  -31.8547   23.1990 C   0  0  0  0  0  0
  -25.9148  -32.4753   23.8328 C   0  0  1  0  0  0
  -27.2150  -27.2684   20.1180 C   0  0  0  0  0  0
  -25.5945  -33.8566   24.2259 N   0  0  0  0  0  0
  -23.4265  -30.4800   21.5433 C   0  0  2  0  0  0
  -24.8708  -28.9289   20.1111 C   0  0  0  0  0  0
  -22.7493  -29.4619   22.4923 C   0  0  0  0  0  0
  -18.0287  -28.1391   22.8478 C   0  0  0  0  0  0
  -24.1489  -36.7280   23.2637 C   0  0  0  0  0  0
  -25.9740  -30.7709   21.3765 C   0  0  0  0  0  0
  -26.0454  -29.3955   20.7155 C   0  0  0  0  0  0
  -27.2221  -28.5783   20.7039 C   0  0  0  0  0  0
  -26.0178  -26.8741   19.4784 C   0  0  0  0  0  0
  -24.8615  -27.6755   19.4842 C   0  0  0  0  0  0
  -23.6429  -29.8156   20.1599 C   0  0  0  0  0  0
  -25.4116  -36.3074   24.0326 C   0  0  1  0  0  0
  -20.5888  -28.3700   23.1272 C   0  0  2  0  0  0
  -20.6776  -26.9413   22.5429 C   0  0  0  0  0  0
  -19.5759  -26.6387   21.5222 C   0  0  0  0  0  0
  -18.1922  -26.7930   22.1615 C   0  0  0  0  0  0
  -19.1544  -28.8858   23.2869 C   0  0  0  0  0  0
  -18.9472  -30.1451   23.8895 C   0  0  0  0  0  0
  -17.6473  -30.6589   24.0558 C   0  0  0  0  0  0
  -25.9053  -34.9446   23.5090 C   0  0  0  0  0  0
  -16.5357  -29.9087   23.6343 C   0  0  0  0  0  0
  -16.7276  -28.6511   23.0355 C   0  0  0  0  0  0
  -26.4502  -31.6575   25.0733 C   0  0  0  0  0  0
  -25.3710  -31.3746   26.1444 C   0  0  0  0  0  0
  -27.0355  -30.2994   24.6227 C   0  0  0  0  0  0
  -27.6057  -32.4326   25.7504 C   0  0  0  0  0  0
  -27.5584  -37.1777   24.8449 C   0  0  0  0  0  0
  -21.4209  -29.3032   22.3658 N   0  0  0  0  0  0
  -26.4275  -37.3784   23.9423 N   0  0  0  0  0  0
  -24.6972  -31.0522   22.0956 N   0  0  0  0  0  0
  -23.4202  -28.8163   23.3006 O   0  0  0  0  0  0
  -28.3147  -26.3806   20.1578 O   0  0  0  0  0  0
  -26.5639  -34.8909   22.4666 O   0  0  0  0  0  0
  -23.5482  -32.1384   23.7295 O   0  0  0  0  0  0
  -29.5485  -18.5505   20.3235 C   0  0  0  0  0  0
  -31.6749  -17.5935   19.7048 C   0  0  0  0  0  0
  -29.9680  -19.8934   19.9086 C   0  0  0  0  0  0
  -32.1352  -18.8571   19.2883 C   0  0  0  0  0  0
  -31.2733  -19.9876   19.3385 C   0  0  0  0  0  0
  -30.3771  -17.3510   20.2091 C   0  0  0  0  0  0
  -29.3063  -23.9426   19.9687 C   0  0  0  0  0  0
  -30.3555  -24.4141   19.2713 C   0  0  0  0  0  0
  -27.4920  -23.1713   22.1307 C   0  0  0  0  0  0
  -27.5821  -24.6598   21.7615 C   0  0  0  0  0  0
  -28.8655  -22.4872   22.0214 C   0  0  0  0  0  0
  -28.0898  -24.8954   20.3259 C   0  0  1  0  0  0
  -31.7594  -21.2887   18.7102 C   0  0  0  0  0  0
  -29.0139  -21.1942   19.8827 C   0  0  0  0  0  0
  -33.5661  -18.9419   18.7318 C   0  0  0  0  0  0
  -29.9578  -15.9413   20.5332 N   0  0  0  0  0  0
  -29.3807  -22.4979   20.6317 N   0  3  1  0  0  0
  -34.3006  -17.8764   19.0526 F   0  0  0  0  0  0
  -33.5291  -19.0151   17.4011 F   0  0  0  0  0  0
  -34.2142  -20.0054   19.2095 F   0  0  0  0  0  0
  -31.4574  -12.5346   19.1737 H   0  0  0  0  0  0
  -30.3313  -11.4754   19.9715 H   0  0  0  0  0  0
  -29.7792  -11.7249   17.5195 H   0  0  0  0  0  0
  -29.6383  -13.4561   17.7186 H   0  0  0  0  0  0
  -27.8718  -11.2921   18.8979 H   0  0  0  0  0  0
  -27.3732  -12.5443   17.7927 H   0  0  0  0  0  0
  -27.6196  -14.2633   19.4585 H   0  0  0  0  0  0
  -28.7117  -12.2171   21.4465 H   0  0  0  0  0  0
  -28.4251  -13.9121   21.7697 H   0  0  0  0  0  0
  -25.2766   -9.5690   22.4757 H   0  0  0  0  0  0
  -24.0005   -7.4642   22.7471 H   0  0  0  0  0  0
  -21.0853   -8.8763   19.8953 H   0  0  0  0  0  0
  -22.3695  -10.9667   19.6159 H   0  0  0  0  0  0
  -21.2010   -7.6145   23.9714 H   0  0  0  0  0  0
  -21.1485   -6.0521   25.9075 H   0  0  0  0  0  0
  -22.0600   -2.7606   23.2848 H   0  0  0  0  0  0
  -22.4087  -11.9846   22.4802 H   0  0  0  0  0  0
  -21.1057  -13.1182   22.2637 H   0  0  0  0  0  0
  -24.6401  -15.8456   20.5208 H   0  0  0  0  0  0
  -26.2523  -15.6371   20.0602 H   0  0  0  0  0  0
  -26.7212  -32.5403   23.1068 H   0  0  0  0  0  0
  -25.0080  -33.9695   25.0389 H   0  0  0  0  0  0
  -22.7239  -31.3028   21.3971 H   0  0  0  0  0  0
  -23.3766  -35.9592   23.3274 H   0  0  0  0  0  0
  -24.3577  -36.8967   22.2058 H   0  0  0  0  0  0
  -23.7232  -37.6465   23.6688 H   0  0  0  0  0  0
  -26.1120  -31.5325   20.6090 H   0  0  0  0  0  0
  -26.8513  -30.8183   22.0102 H   0  0  0  0  0  0
  -28.1229  -28.9295   21.1866 H   0  0  0  0  0  0
  -25.9430  -25.9282   18.9649 H   0  0  0  0  0  0
  -23.9627  -27.3160   19.0010 H   0  0  0  0  0  0
  -23.7660  -30.5928   19.4044 H   0  0  0  0  0  0
  -22.7602  -29.2489   19.8574 H   0  0  0  0  0  0
  -25.1292  -36.1903   25.0821 H   0  0  0  0  0  0
  -20.9955  -28.3293   24.1401 H   0  0  0  0  0  0
  -20.5690  -26.2312   23.3647 H   0  0  0  0  0  0
  -21.6648  -26.7455   22.1200 H   0  0  0  0  0  0
  -19.6937  -25.6303   21.1251 H   0  0  0  0  0  0
  -19.6703  -27.3206   20.6754 H   0  0  0  0  0  0
  -17.4206  -26.6712   21.3994 H   0  0  0  0  0  0
  -18.0275  -26.0070   22.9003 H   0  0  0  0  0  0
  -19.7953  -30.7262   24.2272 H   0  0  0  0  0  0
  -17.5027  -31.6268   24.5167 H   0  0  0  0  0  0
  -15.5356  -30.2983   23.7671 H   0  0  0  0  0  0
  -15.8677  -28.0826   22.7070 H   0  0  0  0  0  0
  -24.5941  -30.7025   25.7793 H   0  0  0  0  0  0
  -24.8809  -32.2906   26.4757 H   0  0  0  0  0  0
  -25.8010  -30.9043   27.0296 H   0  0  0  0  0  0
  -26.2946  -29.6739   24.1243 H   0  0  0  0  0  0
  -27.4032  -29.7282   25.4759 H   0  0  0  0  0  0
  -27.8821  -30.4286   23.9486 H   0  0  0  0  0  0
  -27.2698  -33.3692   26.1967 H   0  0  0  0  0  0
  -28.3918  -32.6784   25.0350 H   0  0  0  0  0  0
  -28.0639  -31.8512   26.5519 H   0  0  0  0  0  0
  -28.2544  -38.0122   24.7552 H   0  0  0  0  0  0
  -28.1138  -36.2662   24.6187 H   0  0  0  0  0  0
  -27.2306  -37.1322   25.8847 H   0  0  0  0  0  0
  -20.9400  -29.8775   21.6882 H   0  0  0  0  0  0
  -26.0159  -38.2860   24.1463 H   0  0  0  0  0  0
  -28.5400  -18.4320   20.6965 H   0  0  0  0  0  0
  -32.3779  -16.7966   19.5730 H   0  0  0  0  0  0
  -30.3405  -25.4216   18.8817 H   0  0  0  0  0  0
  -31.2528  -23.8526   19.0853 H   0  0  0  0  0  0
  -26.7593  -22.6667   21.4994 H   0  0  0  0  0  0
  -27.1270  -23.0803   23.1537 H   0  0  0  0  0  0
  -28.2475  -25.1648   22.4616 H   0  0  0  0  0  0
  -26.6022  -25.1236   21.8837 H   0  0  0  0  0  0
  -28.8233  -21.4673   22.4065 H   0  0  0  0  0  0
  -29.5821  -23.0095   22.6567 H   0  0  0  0  0  0
  -27.3210  -24.5577   19.6337 H   0  0  0  0  0  0
  -30.9551  -21.8527   18.2468 H   0  0  0  0  0  0
  -32.4606  -21.1181   17.8960 H   0  0  0  0  0  0
  -32.2694  -21.9011   19.4525 H   0  0  0  0  0  0
  -28.0201  -20.8840   20.2054 H   0  0  0  0  0  0
  -28.8655  -21.4543   18.8344 H   0  0  0  0  0  0
  -28.9845  -15.8273   20.7710 H   0  0  0  0  0  0
  -30.3622  -22.3407   20.7940 H   0  0  0  0  0  0
  1 25  1  0  0  0
  1 30  2  0  0  0
  1 86  1  0  0  0
  2  3  1  0  0  0
  2 25  1  0  0  0
  2 91  1  0  0  0
  2 92  1  0  0  0
  3  4  1  0  0  0
  3 93  1  0  0  0
  3 94  1  0  0  0
  4  5  1  0  0  0
  4 95  1  0  0  0
  4 96  1  0  0  0
  5  6  1  0  0  0
  5 26  1  0  0  0
  5 97  1  0  0  0
  6 25  1  0  0  0
  6 98  1  0  0  0
  6 99  1  0  0  0
  7  8  2  0  0  0
  7 26  1  0  0  0
  7 29  1  0  0  0
  8  9  1  0  0  0
  8 22  1  0  0  0
  9 10  1  0  0  0
  9 27  2  0  0  0
 10 11  2  0  0  0
 10 15  1  0  0  0
 11 12  1  0  0  0
 11100  1  0  0  0
 12 13  2  0  0  0
 12101  1  0  0  0
 13 14  1  0  0  0
 13 31  1  0  0  0
 14 15  2  0  0  0
 14102  1  0  0  0
 15103  1  0  0  0
 16 17  2  0  0  0
 16 21  1  0  0  0
 16 31  1  0  0  0
 17 18  1  0  0  0
 17104  1  0  0  0
 18 19  2  0  0  0
 18105  1  0  0  0
 19 20  1  0  0  0
 19 24  1  0  0  0
 20 21  2  0  0  0
 20106  1  0  0  0
 21 23  1  0  0  0
 22 28  1  0  0  0
 22 32  2  0  0  0
 26 27  1  0  0  0
 28107  1  0  0  0
 28108  1  0  0  0
 29109  1  0  0  0
 29110  1  0  0  0
 33 34  1  0  0  0
 33 66  1  0  0  0
 33 70  2  0  0  0
 34 36  1  0  0  0
 34 59  1  0  0  0
 34111  1  0  0  0
 35 44  2  0  0  0
 35 45  1  0  0  0
 35 68  1  0  0  0
 36 56  1  0  0  0
 36112  1  0  0  0
 37 39  1  0  0  0
 37 47  1  0  0  0
 37 66  1  0  0  0
 37113  1  0  0  0
 38 43  2  0  0  0
 38 46  1  0  0  0
 38 47  1  0  0  0
 39 64  1  0  0  0
 39 67  2  0  0  0
 40 52  1  0  0  0
 40 53  2  0  0  0
 40 58  1  0  0  0
 41114  1  0  0  0
 41115  1  0  0  0
 41116  1  0  0  0
 41 48  1  0  0  0
 42 43  1  0  0  0
 42 66  1  0  0  0
 42117  1  0  0  0
 42118  1  0  0  0
 43 44  1  0  0  0
 44119  1  0  0  0
 45 46  2  0  0  0
 45120  1  0  0  0
 46121  1  0  0  0
 47122  1  0  0  0
 47123  1  0  0  0
 48 56  1  0  0  0
 48 65  1  0  0  0
 48124  1  0  0  0
 49 50  1  0  0  0
 49 53  1  0  0  0
 49 64  1  0  0  0
 49125  1  0  0  0
 50 51  1  0  0  0
 50126  1  0  0  0
 50127  1  0  0  0
 51 52  1  0  0  0
 51128  1  0  0  0
 51129  1  0  0  0
 52130  1  0  0  0
 52131  1  0  0  0
 53 54  1  0  0  0
 54 55  2  0  0  0
 54132  1  0  0  0
 55 57  1  0  0  0
 55133  1  0  0  0
 56 69  2  0  0  0
 57 58  2  0  0  0
 57134  1  0  0  0
 58135  1  0  0  0
 59 60  1  0  0  0
 59 61  1  0  0  0
 59 62  1  0  0  0
 60136  1  0  0  0
 60137  1  0  0  0
 60138  1  0  0  0
 61139  1  0  0  0
 61140  1  0  0  0
 61141  1  0  0  0
 62142  1  0  0  0
 62143  1  0  0  0
 62144  1  0  0  0
 63 65  1  0  0  0
 63145  1  0  0  0
 63146  1  0  0  0
 63147  1  0  0  0
 64148  1  0  0  0
 65149  1  0  0  0
 68 82  1  0  0  0
 71 73  2  0  0  0
 71 76  1  0  0  0
 71150  1  0  0  0
 72 74  1  0  0  0
 72 76  2  0  0  0
 72151  1  0  0  0
 73 75  1  0  0  0
 73 84  1  0  0  0
 74 75  2  0  0  0
 74 85  1  0  0  0
 75 83  1  0  0  0
 76 86  1  0  0  0
 77 78  2  0  0  0
 77 82  1  0  0  0
 77 87  1  0  0  0
 78152  1  0  0  0
 78153  1  0  0  0
 79 80  1  0  0  0
 79 81  1  0  0  0
 79154  1  0  0  0
 79155  1  0  0  0
 80 82  1  0  0  0
 80156  1  0  0  0
 80157  1  0  0  0
 81 87  1  0  0  0
 81158  1  0  0  0
 81159  1  0  0  0
 82160  1  0  0  0
 83161  1  0  0  0
 83162  1  0  0  0
 83163  1  0  0  0
 84164  1  0  0  0
 84165  1  0  0  0
 84 87  1  0  0  0
 85 88  1  0  0  0
 85 89  1  0  0  0
 85 90  1  0  0  0
 86166  1  0  0  0
 87167  1  0  0  0
M  CHG  1  87   1
M  ISO  4   1 100  68 101  82 101  86 100
M  END
> <chiral flag>
0

> <version>
0

> <s_m_source_file>
/data/baiqing/PycharmProjects/Reinvent-master-3.2/result/LINK_invent/BTK/process_docking_weight1_custom_product_contain_oxygen_bond_distance_aromatic_linkinvent_7_9_3/rearranged_h_0047.sdf

> <i_m_source_file_index>
52

> <r_mmod_Potential_Energy-OPLS-2005>
152.247650146484

> <r_mmod_Stretch_Energy-OPLS-2005>
149.440490722656

> <r_mmod_Bend_Energy-OPLS-2005>
185.469635009766

> <r_mmod_Torsional_Energy-OPLS-2005>
237.876251220703

> <r_mmod_Improper_Torsional_Energy-OPLS-2005>
5.73229694366455

> <r_mmod_Van_der_Waal_Energy-OPLS-2005>
165.1123046875

> <r_mmod_Electrostatic_Energy-OPLS-2005>
-224.38639831543

> <r_mmod_Solvation_Energy-OPLS-2005>
-450.529968261719

> <b_mmod_Minimization_Converged-OPLS-2005>
0

> <r_mmod_RMS_Derivative-OPLS-2005>
2.35687971115112

$$$$
52
                    3D
 Structure written by MMmdl.
162170  0  0  1  0            999 V2000
  -30.6759  -14.5488   20.4905 C   0  0  0  0  0  0
  -30.4198  -12.3333   19.4448 C   0  0  0  0  0  0
  -29.4992  -12.4823   18.2156 C   0  0  0  0  0  0
  -28.0201  -12.3410   18.6275 C   0  0  0  0  0  0
  -27.6497  -13.2141   19.8585 C   0  0  2  0  0  0
  -28.6941  -13.0755   20.9898 C   0  0  0  0  0  0
  -25.2542  -13.8187   20.5695 C   0  0  0  0  0  0
  -24.1799  -13.0458   20.9188 C   0  0  0  0  0  0
  -24.6360  -11.6922   20.8737 C   0  0  0  0  0  0
  -23.9036  -10.4306   21.0427 C   0  0  0  0  0  0
  -24.3601   -9.4219   21.9200 C   0  0  0  0  0  0
  -23.6289   -8.2249   22.0763 C   0  0  0  0  0  0
  -22.4269   -8.0283   21.3560 C   0  0  0  0  0  0
  -21.9899   -9.0253   20.4664 C   0  0  0  0  0  0
  -22.7212  -10.2141   20.3074 C   0  0  0  0  0  0
  -21.6854   -6.0728   22.5280 C   0  0  0  0  0  0
  -21.4013   -6.5635   23.8212 C   0  0  0  0  0  0
  -21.3659   -5.6788   24.9175 C   0  0  0  0  0  0
  -21.6045   -4.3052   24.7227 C   0  0  0  0  0  0
  -21.8819   -3.8141   23.4348 C   0  0  0  0  0  0
  -21.9192   -4.6958   22.3404 C   0  0  0  0  0  0
  -22.7820  -13.5269   21.1834 C   0  0  0  0  0  0
  -22.1658   -4.2139   21.0986 F   0  0  0  0  0  0
  -21.5632   -3.4540   25.7745 F   0  0  0  0  0  0
  -30.0129  -13.3624   20.4137 N   0  0  0  0  0  0
  -26.2958  -12.9353   20.3304 N   0  0  0  0  0  0
  -25.9281  -11.6514   20.5740 N   0  0  0  0  0  0
  -22.0465  -12.8284   22.0410 N   0  0  0  0  0  0
  -25.4283  -15.1910   20.4125 N   0  0  0  0  0  0
  -31.8628  -14.6608   20.1864 O   0  0  0  0  0  0
  -21.6641   -6.8871   21.4244 O   0  0  0  0  0  0
  -22.3502  -14.5571   20.6669 O   0  0  0  0  0  0
  -24.6192  -31.8662   23.2076 C   0  0  0  0  0  0
  -25.9081  -32.4811   23.8368 C   0  0  1  0  0  0
  -27.2221  -27.3799   20.1067 C   0  0  0  0  0  0
  -25.5936  -33.8610   24.2320 N   0  0  0  0  0  0
  -23.4080  -30.4908   21.5498 C   0  0  2  0  0  0
  -24.8517  -28.9538   20.1107 C   0  0  0  0  0  0
  -22.7439  -29.4645   22.4965 C   0  0  0  0  0  0
  -18.0279  -28.1358   22.8498 C   0  0  0  0  0  0
  -24.1490  -36.7301   23.2628 C   0  0  0  0  0  0
  -25.9411  -30.8144   21.3693 C   0  0  0  0  0  0
  -26.0143  -29.4455   20.7151 C   0  0  0  0  0  0
  -27.1994  -28.6660   20.7101 C   0  0  0  0  0  0
  -26.0428  -26.9317   19.4673 C   0  0  0  0  0  0
  -24.8645  -27.7007   19.4801 C   0  0  0  0  0  0
  -23.6178  -29.8276   20.1624 C   0  0  0  0  0  0
  -25.4109  -36.3103   24.0336 C   0  0  1  0  0  0
  -20.5874  -28.3674   23.1305 C   0  0  2  0  0  0
  -20.6778  -26.9413   22.5395 C   0  0  0  0  0  0
  -19.5757  -26.6376   21.5206 C   0  0  0  0  0  0
  -18.1950  -26.7898   22.1646 C   0  0  0  0  0  0
  -19.1526  -28.8840   23.2891 C   0  0  0  0  0  0
  -18.9441  -30.1447   23.8886 C   0  0  0  0  0  0
  -17.6442  -30.6573   24.0545 C   0  0  0  0  0  0
  -25.9041  -34.9470   23.5125 C   0  0  0  0  0  0
  -16.5338  -29.9063   23.6306 C   0  0  0  0  0  0
  -16.7266  -28.6476   23.0339 C   0  0  0  0  0  0
  -26.4495  -31.6596   25.0712 C   0  0  0  0  0  0
  -25.3735  -31.3731   26.1451 C   0  0  0  0  0  0
  -27.0319  -30.3025   24.6101 C   0  0  0  0  0  0
  -27.6063  -32.4320   25.7471 C   0  0  0  0  0  0
  -27.5580  -37.1803   24.8460 C   0  0  0  0  0  0
  -21.4163  -29.3049   22.3718 N   0  0  0  0  0  0
  -26.4290  -37.3793   23.9415 N   0  0  0  0  0  0
  -24.6748  -31.0719   22.1007 N   0  0  0  0  0  0
  -23.4205  -28.8177   23.3008 O   0  0  0  0  0  0
  -28.3769  -26.6057   20.1717 O   0  0  0  0  0  0
  -26.5581  -34.8927   22.4672 O   0  0  0  0  0  0
  -23.5378  -32.1445   23.7442 O   0  0  0  0  0  0
  -31.0777  -20.6121   21.3254 C   0  0  0  0  0  0
  -31.3212  -18.1936   21.4068 C   0  0  0  0  0  0
  -29.6770  -20.5033   21.1845 C   0  0  0  0  0  0
  -29.9292  -18.0172   21.2669 C   0  0  0  0  0  0
  -29.0979  -19.1826   21.1065 C   0  0  0  0  0  0
  -31.8912  -19.4750   21.4237 C   0  0  0  0  0  0
  -28.9347  -21.8002   21.2451 C   0  0  0  0  0  0
  -27.6068  -18.9929   20.8428 C   0  0  0  0  0  0
  -28.8550  -24.9758   18.4765 C   0  0  0  0  0  0
  -29.4048  -16.5599   21.3782 C   0  0  0  0  0  0
  -29.1501  -24.3659   20.9528 C   0  0  0  0  0  0
  -28.3263  -25.1728   19.9031 C   0  0  1  0  0  0
  -27.8433  -21.8975   21.9989 N   0  0  0  0  0  0
  -29.9013  -15.6454   20.3345 N   0  0  0  0  0  0
  -29.4001  -22.9198   20.6382 N   0  3  0  0  0  0
  -33.2303  -19.6191   21.5720 F   0  0  0  0  0  0
  -31.4655  -12.4283   19.1478 H   0  0  0  0  0  0
  -30.3210  -11.3399   19.8859 H   0  0  0  0  0  0
  -29.7521  -11.7349   17.4616 H   0  0  0  0  0  0
  -29.6588  -13.4543   17.7451 H   0  0  0  0  0  0
  -27.8439  -11.2898   18.8552 H   0  0  0  0  0  0
  -27.3708  -12.5802   17.7837 H   0  0  0  0  0  0
  -27.6675  -14.2484   19.5140 H   0  0  0  0  0  0
  -28.6783  -12.0709   21.4155 H   0  0  0  0  0  0
  -28.4662  -13.7609   21.8083 H   0  0  0  0  0  0
  -25.2751   -9.5697   22.4759 H   0  0  0  0  0  0
  -24.0013   -7.4633   22.7465 H   0  0  0  0  0  0
  -21.0836   -8.8761   19.8956 H   0  0  0  0  0  0
  -22.3681  -10.9675   19.6170 H   0  0  0  0  0  0
  -21.2006   -7.6145   23.9717 H   0  0  0  0  0  0
  -21.1481   -6.0518   25.9079 H   0  0  0  0  0  0
  -22.0599   -2.7603   23.2852 H   0  0  0  0  0  0
  -22.4092  -11.9968   22.4826 H   0  0  0  0  0  0
  -21.1067  -13.1290   22.2593 H   0  0  0  0  0  0
  -24.6646  -15.8503   20.5209 H   0  0  0  0  0  0
  -26.2840  -15.6204   20.0860 H   0  0  0  0  0  0
  -26.7154  -32.5493   23.1120 H   0  0  0  0  0  0
  -25.0144  -33.9760   25.0509 H   0  0  0  0  0  0
  -22.6975  -31.3091   21.4118 H   0  0  0  0  0  0
  -23.3751  -35.9634   23.3295 H   0  0  0  0  0  0
  -24.3567  -36.8898   22.2032 H   0  0  0  0  0  0
  -23.7240  -37.6512   23.6631 H   0  0  0  0  0  0
  -26.0524  -31.5769   20.5969 H   0  0  0  0  0  0
  -26.8300  -30.8672   21.9863 H   0  0  0  0  0  0
  -28.0918  -29.0384   21.1946 H   0  0  0  0  0  0
  -26.0004  -25.9900   18.9413 H   0  0  0  0  0  0
  -23.9777  -27.3227   18.9916 H   0  0  0  0  0  0
  -23.7314  -30.6056   19.4063 H   0  0  0  0  0  0
  -22.7407  -29.2507   19.8643 H   0  0  0  0  0  0
  -25.1281  -36.1968   25.0827 H   0  0  0  0  0  0
  -20.9972  -28.3237   24.1423 H   0  0  0  0  0  0
  -20.5713  -26.2279   23.3578 H   0  0  0  0  0  0
  -21.6656  -26.7482   22.1181 H   0  0  0  0  0  0
  -19.6931  -25.6309   21.1193 H   0  0  0  0  0  0
  -19.6681  -27.3210   20.6755 H   0  0  0  0  0  0
  -17.4205  -26.6623   21.4066 H   0  0  0  0  0  0
  -18.0386  -26.0035   22.9044 H   0  0  0  0  0  0
  -19.7914  -30.7270   24.2239 H   0  0  0  0  0  0
  -17.4985  -31.6247   24.5143 H   0  0  0  0  0  0
  -15.5335  -30.2949   23.7615 H   0  0  0  0  0  0
  -15.8665  -28.0786   22.7057 H   0  0  0  0  0  0
  -24.5931  -30.7055   25.7800 H   0  0  0  0  0  0
  -24.8903  -32.2900   26.4846 H   0  0  0  0  0  0
  -25.8069  -30.8953   27.0246 H   0  0  0  0  0  0
  -26.2874  -29.6795   24.1140 H   0  0  0  0  0  0
  -27.4060  -29.7255   25.4569 H   0  0  0  0  0  0
  -27.8726  -30.4328   23.9276 H   0  0  0  0  0  0
  -27.2700  -33.3619   26.2072 H   0  0  0  0  0  0
  -28.3871  -32.6892   25.0299 H   0  0  0  0  0  0
  -28.0754  -31.8436   26.5371 H   0  0  0  0  0  0
  -28.2617  -38.0084   24.7502 H   0  0  0  0  0  0
  -28.1059  -36.2612   24.6301 H   0  0  0  0  0  0
  -27.2284  -37.1477   25.8859 H   0  0  0  0  0  0
  -20.9321  -29.8798   21.6956 H   0  0  0  0  0  0
  -26.0177  -38.2867   24.1432 H   0  0  0  0  0  0
  -31.5499  -21.5805   21.4009 H   0  0  0  0  0  0
  -31.9665  -17.3361   21.5256 H   0  0  0  0  0  0
  -27.4440  -18.1695   20.1477 H   0  0  0  0  0  0
  -27.1514  -19.8648   20.3751 H   0  0  0  0  0  0
  -27.0705  -18.7751   21.7669 H   0  0  0  0  0  0
  -28.7731  -23.9346   18.1646 H   0  0  0  0  0  0
  -29.9021  -25.2696   18.4011 H   0  0  0  0  0  0
  -28.2915  -25.5754   17.7615 H   0  0  0  0  0  0
  -28.3174  -16.5234   21.3803 H   0  0  0  0  0  0
  -29.7001  -16.1803   22.3587 H   0  0  0  0  0  0
  -28.6833  -24.4625   21.9345 H   0  0  0  0  0  0
  -30.1286  -24.8366   21.0547 H   0  0  0  0  0  0
  -27.3163  -24.7750   19.9816 H   0  0  0  0  0  0
  -27.5519  -21.0967   22.5389 H   0  0  0  0  0  0
  -27.2599  -22.7165   22.0036 H   0  0  0  0  0  0
  -30.2450  -16.1879   19.5567 H   0  0  0  0  0  0
  -30.1315  -22.7626   19.9562 H   0  0  0  0  0  0
  1 25  1  0  0  0
  1 30  2  0  0  0
  1 84  1  0  0  0
  2  3  1  0  0  0
  2 25  1  0  0  0
  2 87  1  0  0  0
  2 88  1  0  0  0
  3  4  1  0  0  0
  3 89  1  0  0  0
  3 90  1  0  0  0
  4  5  1  0  0  0
  4 91  1  0  0  0
  4 92  1  0  0  0
  5  6  1  0  0  0
  5 26  1  0  0  0
  5 93  1  0  0  0
  6 25  1  0  0  0
  6 94  1  0  0  0
  6 95  1  0  0  0
  7  8  2  0  0  0
  7 26  1  0  0  0
  7 29  1  0  0  0
  8  9  1  0  0  0
  8 22  1  0  0  0
  9 10  1  0  0  0
  9 27  2  0  0  0
 10 11  2  0  0  0
 10 15  1  0  0  0
 11 12  1  0  0  0
 11 96  1  0  0  0
 12 13  2  0  0  0
 12 97  1  0  0  0
 13 14  1  0  0  0
 13 31  1  0  0  0
 14 15  2  0  0  0
 14 98  1  0  0  0
 15 99  1  0  0  0
 16 17  2  0  0  0
 16 21  1  0  0  0
 16 31  1  0  0  0
 17 18  1  0  0  0
 17100  1  0  0  0
 18 19  2  0  0  0
 18101  1  0  0  0
 19 20  1  0  0  0
 19 24  1  0  0  0
 20 21  2  0  0  0
 20102  1  0  0  0
 21 23  1  0  0  0
 22 28  1  0  0  0
 22 32  2  0  0  0
 26 27  1  0  0  0
 28103  1  0  0  0
 28104  1  0  0  0
 29105  1  0  0  0
 29106  1  0  0  0
 33 34  1  0  0  0
 33 66  1  0  0  0
 33 70  2  0  0  0
 34 36  1  0  0  0
 34 59  1  0  0  0
 34107  1  0  0  0
 35 44  2  0  0  0
 35 45  1  0  0  0
 35 68  1  0  0  0
 36 56  1  0  0  0
 36108  1  0  0  0
 37 39  1  0  0  0
 37 47  1  0  0  0
 37 66  1  0  0  0
 37109  1  0  0  0
 38 43  2  0  0  0
 38 46  1  0  0  0
 38 47  1  0  0  0
 39 64  1  0  0  0
 39 67  2  0  0  0
 40 52  1  0  0  0
 40 53  2  0  0  0
 40 58  1  0  0  0
 41110  1  0  0  0
 41111  1  0  0  0
 41112  1  0  0  0
 41 48  1  0  0  0
 42 43  1  0  0  0
 42 66  1  0  0  0
 42113  1  0  0  0
 42114  1  0  0  0
 43 44  1  0  0  0
 44115  1  0  0  0
 45 46  2  0  0  0
 45116  1  0  0  0
 46117  1  0  0  0
 47118  1  0  0  0
 47119  1  0  0  0
 48 56  1  0  0  0
 48 65  1  0  0  0
 48120  1  0  0  0
 49 50  1  0  0  0
 49 53  1  0  0  0
 49 64  1  0  0  0
 49121  1  0  0  0
 50 51  1  0  0  0
 50122  1  0  0  0
 50123  1  0  0  0
 51 52  1  0  0  0
 51124  1  0  0  0
 51125  1  0  0  0
 52126  1  0  0  0
 52127  1  0  0  0
 53 54  1  0  0  0
 54 55  2  0  0  0
 54128  1  0  0  0
 55 57  1  0  0  0
 55129  1  0  0  0
 56 69  2  0  0  0
 57 58  2  0  0  0
 57130  1  0  0  0
 58131  1  0  0  0
 59 60  1  0  0  0
 59 61  1  0  0  0
 59 62  1  0  0  0
 60132  1  0  0  0
 60133  1  0  0  0
 60134  1  0  0  0
 61135  1  0  0  0
 61136  1  0  0  0
 61137  1  0  0  0
 62138  1  0  0  0
 62139  1  0  0  0
 62140  1  0  0  0
 63 65  1  0  0  0
 63141  1  0  0  0
 63142  1  0  0  0
 63143  1  0  0  0
 64144  1  0  0  0
 65145  1  0  0  0
 68 82  1  0  0  0
 71 73  2  0  0  0
 71 76  1  0  0  0
 71146  1  0  0  0
 72 74  1  0  0  0
 72 76  2  0  0  0
 72147  1  0  0  0
 73 75  1  0  0  0
 73 77  1  0  0  0
 74 75  2  0  0  0
 74 80  1  0  0  0
 75 78  1  0  0  0
 76 86  1  0  0  0
 77 83  1  0  0  0
 77 85  2  0  0  0
 78148  1  0  0  0
 78149  1  0  0  0
 78150  1  0  0  0
 79151  1  0  0  0
 79152  1  0  0  0
 79153  1  0  0  0
 79 82  1  0  0  0
 80 84  1  0  0  0
 80154  1  0  0  0
 80155  1  0  0  0
 81 82  1  0  0  0
 81 85  1  0  0  0
 81156  1  0  0  0
 81157  1  0  0  0
 82158  1  0  0  0
 83159  1  0  0  0
 83160  1  0  0  0
 84161  1  0  0  0
 85162  1  0  0  0
M  CHG  1  85   1
M  ISO  4   1 100  68 101  82 101  84 100
M  END
> <chiral flag>
0

> <version>
0

> <s_m_source_file>
/data/baiqing/PycharmProjects/Reinvent-master-3.2/result/LINK_invent/BTK/process_docking_weight1_custom_product_contain_oxygen_bond_distance_aromatic_linkinvent_7_9_3/rearranged_h_0047.sdf

> <i_m_source_file_index>
53

> <r_mmod_Potential_Energy-OPLS-2005>
-222.032211303711

> <r_mmod_Stretch_Energy-OPLS-2005>
52.9821739196777

> <r_mmod_Bend_Energy-OPLS-2005>
126.61124420166

> <r_mmod_Torsional_Energy-OPLS-2005>
287.807830810547

> <r_mmod_Improper_Torsional_Energy-OPLS-2005>
24.8200416564941

> <r_mmod_Van_der_Waal_Energy-OPLS-2005>
149.322616577148

> <r_mmod_Electrostatic_Energy-OPLS-2005>
-480.246765136719

> <r_mmod_Solvation_Energy-OPLS-2005>
-413.568572998047

> <b_mmod_Minimization_Converged-OPLS-2005>
0

> <r_mmod_RMS_Derivative-OPLS-2005>
1.94924211502075

$$$$
53
                    3D
 Structure written by MMmdl.
164173  0  0  1  0            999 V2000
  -30.6310  -14.7720   20.4079 C   0  0  0  0  0  0
  -30.4226  -12.4670   19.4855 C   0  0  0  0  0  0
  -29.5089  -12.4977   18.2413 C   0  0  0  0  0  0
  -28.0361  -12.3241   18.6557 C   0  0  0  0  0  0
  -27.6356  -13.2415   19.8423 C   0  0  2  0  0  0
  -28.6795  -13.2206   20.9796 C   0  0  0  0  0  0
  -25.2484  -13.8221   20.5703 C   0  0  0  0  0  0
  -24.1789  -13.0449   20.9216 C   0  0  0  0  0  0
  -24.6395  -11.6932   20.8751 C   0  0  0  0  0  0
  -23.9079  -10.4300   21.0406 C   0  0  0  0  0  0
  -24.3627   -9.4212   21.9181 C   0  0  0  0  0  0
  -23.6301   -8.2247   22.0750 C   0  0  0  0  0  0
  -22.4282   -8.0285   21.3544 C   0  0  0  0  0  0
  -21.9921   -9.0258   20.4644 C   0  0  0  0  0  0
  -22.7251  -10.2137   20.3054 C   0  0  0  0  0  0
  -21.6856   -6.0738   22.5277 C   0  0  0  0  0  0
  -21.4016   -6.5640   23.8210 C   0  0  0  0  0  0
  -21.3660   -5.6793   24.9172 C   0  0  0  0  0  0
  -21.6045   -4.3056   24.7223 C   0  0  0  0  0  0
  -21.8819   -3.8148   23.4344 C   0  0  0  0  0  0
  -21.9194   -4.6965   22.3401 C   0  0  0  0  0  0
  -22.7809  -13.5218   21.1875 C   0  0  0  0  0  0
  -22.1662   -4.2150   21.0980 F   0  0  0  0  0  0
  -21.5629   -3.4539   25.7736 F   0  0  0  0  0  0
  -29.9769  -13.5580   20.3866 N   0  0  0  0  0  0
  -26.2911  -12.9446   20.3262 N   0  0  0  0  0  0
  -25.9327  -11.6579   20.5754 N   0  0  0  0  0  0
  -22.0463  -12.8199   22.0430 N   0  0  0  0  0  0
  -25.4167  -15.1947   20.4122 N   0  0  0  0  0  0
  -31.8467  -14.7912   20.1955 O   0  0  0  0  0  0
  -21.6644   -6.8882   21.4240 O   0  0  0  0  0  0
  -22.3485  -14.5520   20.6720 O   0  0  0  0  0  0
  -24.6346  -31.8539   23.1980 C   0  0  0  0  0  0
  -25.9162  -32.4747   23.8327 C   0  0  1  0  0  0
  -27.2076  -27.2299   20.1323 C   0  0  0  0  0  0
  -25.5947  -33.8549   24.2246 N   0  0  0  0  0  0
  -23.4317  -30.4791   21.5426 C   0  0  2  0  0  0
  -24.8765  -28.9254   20.1120 C   0  0  0  0  0  0
  -22.7517  -29.4602   22.4901 C   0  0  0  0  0  0
  -18.0295  -28.1394   22.8484 C   0  0  0  0  0  0
  -24.1487  -36.7273   23.2640 C   0  0  0  0  0  0
  -25.9821  -30.7571   21.3838 C   0  0  0  0  0  0
  -26.0521  -29.3781   20.7243 C   0  0  0  0  0  0
  -27.2218  -28.5446   20.7212 C   0  0  0  0  0  0
  -26.0088  -26.8639   19.4782 C   0  0  0  0  0  0
  -24.8624  -27.6780   19.4764 C   0  0  0  0  0  0
  -23.6510  -29.8171   20.1584 C   0  0  0  0  0  0
  -25.4117  -36.3063   24.0323 C   0  0  1  0  0  0
  -20.5902  -28.3709   23.1260 C   0  0  2  0  0  0
  -20.6783  -26.9424   22.5406 C   0  0  0  0  0  0
  -19.5756  -26.6389   21.5212 C   0  0  0  0  0  0
  -18.1937  -26.7936   22.1626 C   0  0  0  0  0  0
  -19.1550  -28.8868   23.2868 C   0  0  0  0  0  0
  -18.9470  -30.1466   23.8890 C   0  0  0  0  0  0
  -17.6469  -30.6593   24.0563 C   0  0  0  0  0  0
  -25.9062  -34.9435   23.5087 C   0  0  0  0  0  0
  -16.5359  -29.9089   23.6336 C   0  0  0  0  0  0
  -16.7281  -28.6507   23.0359 C   0  0  0  0  0  0
  -26.4514  -31.6582   25.0728 C   0  0  0  0  0  0
  -25.3722  -31.3749   26.1438 C   0  0  0  0  0  0
  -27.0365  -30.2990   24.6247 C   0  0  0  0  0  0
  -27.6058  -32.4332   25.7509 C   0  0  0  0  0  0
  -27.5576  -37.1795   24.8465 C   0  0  0  0  0  0
  -21.4223  -29.3051   22.3644 N   0  0  0  0  0  0
  -26.4287  -37.3767   23.9409 N   0  0  0  0  0  0
  -24.7021  -31.0483   22.0972 N   0  0  0  0  0  0
  -23.4206  -28.8139   23.3007 O   0  0  0  0  0  0
  -28.2842  -26.3015   20.1785 O   0  0  0  0  0  0
  -26.5634  -34.8915   22.4656 O   0  0  0  0  0  0
  -23.5490  -32.1374   23.7260 O   0  0  0  0  0  0
  -30.6196  -18.7952   17.1181 C   0  0  0  0  0  0
  -30.1118  -19.3306   18.3056 C   0  0  0  0  0  0
  -30.5973  -16.6131   18.1459 C   0  0  0  0  0  0
  -30.8549  -17.4244   17.0327 C   0  0  0  0  0  0
  -29.8305  -18.5591   19.4657 C   0  0  0  0  0  0
  -30.1121  -17.0930   19.4008 C   0  0  0  0  0  0
  -28.6077  -22.0633   20.2583 C   0  0  0  0  0  0
  -31.3085  -22.7391   21.0023 C   0  0  0  0  0  0
  -30.2325  -23.8135   21.2178 C   0  0  0  0  0  0
  -30.7637  -21.3166   21.2452 C   0  0  0  0  0  0
  -29.0761  -23.6166   20.2299 C   0  0  2  0  0  0
  -31.3722  -16.8096   15.7470 C   0  0  0  0  0  0
  -29.2054  -19.4811   20.6010 C   0  0  0  0  0  0
  -27.9743  -24.8177   20.3239 C   0  0  0  0  0  0
  -29.4716  -21.0142   20.6044 N   0  0  0  0  0  0
  -29.9110  -15.9766   20.3785 N   0  0  0  0  0  0
  -27.4520  -21.8143   19.9075 O   0  0  0  0  0  0
  -31.4659  -12.5735   19.1835 H   0  0  0  0  0  0
  -30.3563  -11.5028   19.9919 H   0  0  0  0  0  0
  -29.7956  -11.7117   17.5415 H   0  0  0  0  0  0
  -29.6338  -13.4418   17.7097 H   0  0  0  0  0  0
  -27.8986  -11.2791   18.9356 H   0  0  0  0  0  0
  -27.3789  -12.4984   17.8031 H   0  0  0  0  0  0
  -27.6178  -14.2544   19.4391 H   0  0  0  0  0  0
  -28.7181  -12.2417   21.4597 H   0  0  0  0  0  0
  -28.4158  -13.9391   21.7572 H   0  0  0  0  0  0
  -25.2772   -9.5687   22.4756 H   0  0  0  0  0  0
  -24.0009   -7.4638   22.7469 H   0  0  0  0  0  0
  -21.0852   -8.8780   19.8949 H   0  0  0  0  0  0
  -22.3710  -10.9675   19.6163 H   0  0  0  0  0  0
  -21.2009   -7.6148   23.9713 H   0  0  0  0  0  0
  -21.1482   -6.0523   25.9075 H   0  0  0  0  0  0
  -22.0598   -2.7611   23.2844 H   0  0  0  0  0  0
  -22.4092  -11.9866   22.4819 H   0  0  0  0  0  0
  -21.1076  -13.1208   22.2638 H   0  0  0  0  0  0
  -24.6482  -15.8479   20.5197 H   0  0  0  0  0  0
  -26.2625  -15.6333   20.0712 H   0  0  0  0  0  0
  -26.7226  -32.5384   23.1063 H   0  0  0  0  0  0
  -25.0090  -33.9679   25.0390 H   0  0  0  0  0  0
  -22.7295  -31.3027   21.3976 H   0  0  0  0  0  0
  -23.3755  -35.9600   23.3300 H   0  0  0  0  0  0
  -24.3577  -36.8901   22.2056 H   0  0  0  0  0  0
  -23.7235  -37.6470   23.6669 H   0  0  0  0  0  0
  -26.1277  -31.5172   20.6150 H   0  0  0  0  0  0
  -26.8572  -30.8030   22.0203 H   0  0  0  0  0  0
  -28.1202  -28.8858   21.2162 H   0  0  0  0  0  0
  -25.9147  -25.9285   18.9519 H   0  0  0  0  0  0
  -23.9662  -27.3307   18.9805 H   0  0  0  0  0  0
  -23.7811  -30.5947   19.4048 H   0  0  0  0  0  0
  -22.7674  -29.2555   19.8499 H   0  0  0  0  0  0
  -25.1302  -36.1905   25.0816 H   0  0  0  0  0  0
  -20.9997  -28.3291   24.1380 H   0  0  0  0  0  0
  -20.5685  -26.2321   23.3615 H   0  0  0  0  0  0
  -21.6651  -26.7445   22.1199 H   0  0  0  0  0  0
  -19.6916  -25.6298   21.1250 H   0  0  0  0  0  0
  -19.6692  -27.3193   20.6737 H   0  0  0  0  0  0
  -17.4207  -26.6684   21.4028 H   0  0  0  0  0  0
  -18.0335  -26.0080   22.9025 H   0  0  0  0  0  0
  -19.7944  -30.7284   24.2259 H   0  0  0  0  0  0
  -17.5023  -31.6273   24.5166 H   0  0  0  0  0  0
  -15.5360  -30.2990   23.7665 H   0  0  0  0  0  0
  -15.8681  -28.0821   22.7083 H   0  0  0  0  0  0
  -24.5903  -30.7091   25.7767 H   0  0  0  0  0  0
  -24.8906  -32.2924   26.4828 H   0  0  0  0  0  0
  -25.8025  -30.8951   27.0237 H   0  0  0  0  0  0
  -26.2961  -29.6732   24.1249 H   0  0  0  0  0  0
  -27.4004  -29.7263   25.4788 H   0  0  0  0  0  0
  -27.8860  -30.4248   23.9529 H   0  0  0  0  0  0
  -27.2659  -33.3644   26.2052 H   0  0  0  0  0  0
  -28.3890  -32.6872   25.0353 H   0  0  0  0  0  0
  -28.0700  -31.8477   26.5456 H   0  0  0  0  0  0
  -28.2595  -38.0091   24.7513 H   0  0  0  0  0  0
  -28.1072  -36.2623   24.6292 H   0  0  0  0  0  0
  -27.2294  -37.1445   25.8868 H   0  0  0  0  0  0
  -20.9411  -29.8775   21.6848 H   0  0  0  0  0  0
  -26.0162  -38.2838   24.1416 H   0  0  0  0  0  0
  -30.8048  -19.4427   16.2714 H   0  0  0  0  0  0
  -29.9194  -20.3915   18.2813 H   0  0  0  0  0  0
  -30.7819  -15.5621   17.9815 H   0  0  0  0  0  0
  -32.1558  -22.9231   21.6644 H   0  0  0  0  0  0
  -31.7002  -22.8119   19.9863 H   0  0  0  0  0  0
  -30.6708  -24.8021   21.0754 H   0  0  0  0  0  0
  -29.8624  -23.7830   22.2437 H   0  0  0  0  0  0
  -30.6396  -21.1659   22.3186 H   0  0  0  0  0  0
  -31.5114  -20.5906   20.9218 H   0  0  0  0  0  0
  -29.5071  -23.7231   19.2339 H   0  0  0  0  0  0
  -31.4260  -17.5451   14.9436 H   0  0  0  0  0  0
  -30.7162  -16.0024   15.4193 H   0  0  0  0  0  0
  -32.3709  -16.3987   15.8969 H   0  0  0  0  0  0
  -29.5212  -19.0724   21.5615 H   0  0  0  0  0  0
  -28.1265  -19.3260   20.5737 H   0  0  0  0  0  0
  -27.4578  -24.7096   21.2783 H   0  0  0  0  0  0
  -27.2416  -24.5359   19.5739 H   0  0  0  0  0  0
  -28.9991  -15.9444   20.8093 H   0  0  0  0  0  0
  1 25  1  0  0  0
  1 30  2  0  0  0
  1 86  1  0  0  0
  2  3  1  0  0  0
  2 25  1  0  0  0
  2 88  1  0  0  0
  2 89  1  0  0  0
  3  4  1  0  0  0
  3 90  1  0  0  0
  3 91  1  0  0  0
  4  5  1  0  0  0
  4 92  1  0  0  0
  4 93  1  0  0  0
  5  6  1  0  0  0
  5 26  1  0  0  0
  5 94  1  0  0  0
  6 25  1  0  0  0
  6 95  1  0  0  0
  6 96  1  0  0  0
  7  8  2  0  0  0
  7 26  1  0  0  0
  7 29  1  0  0  0
  8  9  1  0  0  0
  8 22  1  0  0  0
  9 10  1  0  0  0
  9 27  2  0  0  0
 10 11  2  0  0  0
 10 15  1  0  0  0
 11 12  1  0  0  0
 11 97  1  0  0  0
 12 13  2  0  0  0
 12 98  1  0  0  0
 13 14  1  0  0  0
 13 31  1  0  0  0
 14 15  2  0  0  0
 14 99  1  0  0  0
 15100  1  0  0  0
 16 17  2  0  0  0
 16 21  1  0  0  0
 16 31  1  0  0  0
 17 18  1  0  0  0
 17101  1  0  0  0
 18 19  2  0  0  0
 18102  1  0  0  0
 19 20  1  0  0  0
 19 24  1  0  0  0
 20 21  2  0  0  0
 20103  1  0  0  0
 21 23  1  0  0  0
 22 28  1  0  0  0
 22 32  2  0  0  0
 26 27  1  0  0  0
 28104  1  0  0  0
 28105  1  0  0  0
 29106  1  0  0  0
 29107  1  0  0  0
 33 34  1  0  0  0
 33 66  1  0  0  0
 33 70  2  0  0  0
 34 36  1  0  0  0
 34 59  1  0  0  0
 34108  1  0  0  0
 35 44  2  0  0  0
 35 45  1  0  0  0
 35 68  1  0  0  0
 36 56  1  0  0  0
 36109  1  0  0  0
 37 39  1  0  0  0
 37 47  1  0  0  0
 37 66  1  0  0  0
 37110  1  0  0  0
 38 43  2  0  0  0
 38 46  1  0  0  0
 38 47  1  0  0  0
 39 64  1  0  0  0
 39 67  2  0  0  0
 40 52  1  0  0  0
 40 53  2  0  0  0
 40 58  1  0  0  0
 41111  1  0  0  0
 41112  1  0  0  0
 41113  1  0  0  0
 41 48  1  0  0  0
 42 43  1  0  0  0
 42 66  1  0  0  0
 42114  1  0  0  0
 42115  1  0  0  0
 43 44  1  0  0  0
 44116  1  0  0  0
 45 46  2  0  0  0
 45117  1  0  0  0
 46118  1  0  0  0
 47119  1  0  0  0
 47120  1  0  0  0
 48 56  1  0  0  0
 48 65  1  0  0  0
 48121  1  0  0  0
 49 50  1  0  0  0
 49 53  1  0  0  0
 49 64  1  0  0  0
 49122  1  0  0  0
 50 51  1  0  0  0
 50123  1  0  0  0
 50124  1  0  0  0
 51 52  1  0  0  0
 51125  1  0  0  0
 51126  1  0  0  0
 52127  1  0  0  0
 52128  1  0  0  0
 53 54  1  0  0  0
 54 55  2  0  0  0
 54129  1  0  0  0
 55 57  1  0  0  0
 55130  1  0  0  0
 56 69  2  0  0  0
 57 58  2  0  0  0
 57131  1  0  0  0
 58132  1  0  0  0
 59 60  1  0  0  0
 59 61  1  0  0  0
 59 62  1  0  0  0
 60133  1  0  0  0
 60134  1  0  0  0
 60135  1  0  0  0
 61136  1  0  0  0
 61137  1  0  0  0
 61138  1  0  0  0
 62139  1  0  0  0
 62140  1  0  0  0
 62141  1  0  0  0
 63 65  1  0  0  0
 63142  1  0  0  0
 63143  1  0  0  0
 63144  1  0  0  0
 64145  1  0  0  0
 65146  1  0  0  0
 68 84  1  0  0  0
 71 72  2  0  0  0
 71 74  1  0  0  0
 71147  1  0  0  0
 72 75  1  0  0  0
 72148  1  0  0  0
 73 74  2  0  0  0
 73 76  1  0  0  0
 73149  1  0  0  0
 74 82  1  0  0  0
 75 76  2  0  0  0
 75 83  1  0  0  0
 76 86  1  0  0  0
 77 81  1  0  0  0
 77 85  1  0  0  0
 77 87  2  0  0  0
 78 79  1  0  0  0
 78 80  1  0  0  0
 78150  1  0  0  0
 78151  1  0  0  0
 79 81  1  0  0  0
 79152  1  0  0  0
 79153  1  0  0  0
 80 85  1  0  0  0
 80154  1  0  0  0
 80155  1  0  0  0
 81 84  1  0  0  0
 81156  1  0  0  0
 82157  1  0  0  0
 82158  1  0  0  0
 82159  1  0  0  0
 83 85  1  0  0  0
 83160  1  0  0  0
 83161  1  0  0  0
 84162  1  0  0  0
 84163  1  0  0  0
 86164  1  0  0  0
M  ISO  4   1 100  68 101  84 101  86 100
M  END
> <chiral flag>
0

> <version>
0

> <s_m_source_file>
/data/baiqing/PycharmProjects/Reinvent-master-3.2/result/LINK_invent/BTK/process_docking_weight1_custom_product_contain_oxygen_bond_distance_aromatic_linkinvent_7_9_3/rearranged_h_0047.sdf

> <i_m_source_file_index>
54

> <r_mmod_Potential_Energy-OPLS-2005>
339.091461181641

> <r_mmod_Stretch_Energy-OPLS-2005>
166.755935668945

> <r_mmod_Bend_Energy-OPLS-2005>
212.552947998047

> <r_mmod_Torsional_Energy-OPLS-2005>
271.901031494141

> <r_mmod_Improper_Torsional_Energy-OPLS-2005>
8.70270729064941

> <r_mmod_Van_der_Waal_Energy-OPLS-2005>
157.631530761719

> <r_mmod_Electrostatic_Energy-OPLS-2005>
-358.900634765625

> <r_mmod_Solvation_Energy-OPLS-2005>
-225.898132324219

> <b_mmod_Minimization_Converged-OPLS-2005>
0

> <r_mmod_RMS_Derivative-OPLS-2005>
0.340719163417816

$$$$
54
                    3D
 Structure written by MMmdl.
154162  0  0  1  0            999 V2000
  -30.7224  -14.5230   20.5959 C   0  0  0  0  0  0
  -30.4190  -12.3451   19.4290 C   0  0  0  0  0  0
  -29.4903  -12.5114   18.2105 C   0  0  0  0  0  0
  -28.0147  -12.3631   18.6299 C   0  0  0  0  0  0
  -27.6587  -13.2155   19.8749 C   0  0  2  0  0  0
  -28.7054  -13.0327   20.9972 C   0  0  0  0  0  0
  -25.2535  -13.8171   20.5662 C   0  0  0  0  0  0
  -24.1817  -13.0449   20.9219 C   0  0  0  0  0  0
  -24.6381  -11.6915   20.8789 C   0  0  0  0  0  0
  -23.9061  -10.4294   21.0435 C   0  0  0  0  0  0
  -24.3617   -9.4196   21.9187 C   0  0  0  0  0  0
  -23.6285   -8.2238   22.0758 C   0  0  0  0  0  0
  -22.4266   -8.0283   21.3555 C   0  0  0  0  0  0
  -21.9914   -9.0261   20.4658 C   0  0  0  0  0  0
  -22.7256  -10.2130   20.3067 C   0  0  0  0  0  0
  -21.6850   -6.0722   22.5276 C   0  0  0  0  0  0
  -21.4007   -6.5638   23.8201 C   0  0  0  0  0  0
  -21.3658   -5.6797   24.9169 C   0  0  0  0  0  0
  -21.6032   -4.3056   24.7224 C   0  0  0  0  0  0
  -21.8822   -3.8142   23.4355 C   0  0  0  0  0  0
  -21.9183   -4.6947   22.3406 C   0  0  0  0  0  0
  -22.7840  -13.5248   21.1847 C   0  0  0  0  0  0
  -22.1659   -4.2145   21.0979 F   0  0  0  0  0  0
  -21.5627   -3.4537   25.7734 F   0  0  0  0  0  0
  -30.0306  -13.3509   20.4420 N   0  0  0  0  0  0
  -26.3013  -12.9379   20.3386 N   0  0  0  0  0  0
  -25.9322  -11.6535   20.5841 N   0  0  0  0  0  0
  -22.0472  -12.8244   22.0394 N   0  0  0  0  0  0
  -25.4192  -15.1892   20.3953 N   0  0  0  0  0  0
  -31.8434  -14.6789   20.1052 O   0  0  0  0  0  0
  -21.6641   -6.8879   21.4248 O   0  0  0  0  0  0
  -22.3537  -14.5547   20.6666 O   0  0  0  0  0  0
  -24.6153  -31.8640   23.2087 C   0  0  0  0  0  0
  -25.9056  -32.4819   23.8367 C   0  0  1  0  0  0
  -27.2554  -27.4168   20.1068 C   0  0  0  0  0  0
  -25.5888  -33.8609   24.2271 N   0  0  0  0  0  0
  -23.4045  -30.4879   21.5482 C   0  0  2  0  0  0
  -24.8570  -28.9518   20.1137 C   0  0  0  0  0  0
  -22.7426  -29.4673   22.4972 C   0  0  0  0  0  0
  -18.0300  -28.1457   22.8412 C   0  0  0  0  0  0
  -24.1493  -36.7309   23.2635 C   0  0  0  0  0  0
  -25.9324  -30.8288   21.3640 C   0  0  0  0  0  0
  -26.0166  -29.4622   20.7086 C   0  0  0  0  0  0
  -27.2149  -28.7030   20.7002 C   0  0  0  0  0  0
  -26.0745  -26.9400   19.4861 C   0  0  0  0  0  0
  -24.8857  -27.6922   19.4908 C   0  0  0  0  0  0
  -23.6143  -29.8139   20.1656 C   0  0  0  0  0  0
  -25.4119  -36.3093   24.0320 C   0  0  1  0  0  0
  -20.5861  -28.3736   23.1330 C   0  0  2  0  0  0
  -20.6770  -26.9426   22.5546 C   0  0  0  0  0  0
  -19.5838  -26.6416   21.5248 C   0  0  0  0  0  0
  -18.1997  -26.7976   22.1578 C   0  0  0  0  0  0
  -19.1532  -28.8906   23.2851 C   0  0  0  0  0  0
  -18.9471  -30.1503   23.8862 C   0  0  0  0  0  0
  -17.6502  -30.6625   24.0529 C   0  0  0  0  0  0
  -25.9036  -34.9476   23.5096 C   0  0  0  0  0  0
  -16.5403  -29.9119   23.6306 C   0  0  0  0  0  0
  -16.7297  -28.6555   23.0324 C   0  0  0  0  0  0
  -26.4485  -31.6606   25.0685 C   0  0  0  0  0  0
  -25.3693  -31.3722   26.1377 C   0  0  0  0  0  0
  -27.0316  -30.3046   24.6071 C   0  0  0  0  0  0
  -27.6069  -32.4312   25.7440 C   0  0  0  0  0  0
  -27.5577  -37.1807   24.8464 C   0  0  0  0  0  0
  -21.4147  -29.3017   22.3653 N   0  0  0  0  0  0
  -26.4300  -37.3780   23.9395 N   0  0  0  0  0  0
  -24.6689  -31.0760   22.0980 N   0  0  0  0  0  0
  -23.4158  -28.8256   23.3083 O   0  0  0  0  0  0
  -28.4318  -26.6777   20.1576 O   0  0  0  0  0  0
  -26.5612  -34.8922   22.4660 O   0  0  0  0  0  0
  -23.5365  -32.1397   23.7487 O   0  0  0  0  0  0
  -30.3871  -19.4659   21.2563 C   0  0  0  0  0  0
  -28.1948  -20.5163   21.1516 C   0  0  0  0  0  0
  -28.3894  -18.0715   21.2218 C   0  0  0  0  0  0
  -29.6001  -20.6557   21.1623 C   0  0  0  0  0  0
  -29.7940  -18.1637   21.2917 C   0  0  0  0  0  0
  -27.6015  -19.2391   21.1718 C   0  0  0  0  0  0
  -29.5385  -24.4466   20.4597 C   0  0  0  0  0  0
  -30.2345  -22.0672   21.1105 C   0  0  0  0  0  0
  -30.6774  -16.9055   21.4561 C   0  0  0  0  0  0
  -28.3868  -25.2712   19.8137 C   0  0  0  0  0  0
  -29.3610  -23.1065   20.5236 N   0  0  0  0  0  0
  -30.0949  -15.5507   21.2252 N   0  0  0  0  0  0
  -30.5548  -25.0033   20.8883 O   0  0  0  0  0  0
  -25.8829  -19.1102   21.1378 Cl  0  0  0  0  0  0
  -31.4598  -12.4330   19.1205 H   0  0  0  0  0  0
  -30.3207  -11.3381   19.8345 H   0  0  0  0  0  0
  -29.7373  -11.7757   17.4430 H   0  0  0  0  0  0
  -29.6462  -13.4951   17.7612 H   0  0  0  0  0  0
  -27.8394  -11.3053   18.8386 H   0  0  0  0  0  0
  -27.3612  -12.6226   17.7972 H   0  0  0  0  0  0
  -27.6938  -14.2637   19.5709 H   0  0  0  0  0  0
  -28.6919  -12.0003   21.3525 H   0  0  0  0  0  0
  -28.4575  -13.6537   21.8557 H   0  0  0  0  0  0
  -25.2780   -9.5644   22.4733 H   0  0  0  0  0  0
  -23.9991   -7.4635   22.7481 H   0  0  0  0  0  0
  -21.0842   -8.8795   19.8967 H   0  0  0  0  0  0
  -22.3749  -10.9660   19.6151 H   0  0  0  0  0  0
  -21.2013   -7.6145   23.9722 H   0  0  0  0  0  0
  -21.1476   -6.0510   25.9074 H   0  0  0  0  0  0
  -22.0603   -2.7608   23.2848 H   0  0  0  0  0  0
  -22.4119  -11.9970   22.4865 H   0  0  0  0  0  0
  -21.1076  -13.1215   22.2576 H   0  0  0  0  0  0
  -24.6365  -15.8274   20.4758 H   0  0  0  0  0  0
  -26.2385  -15.6220   19.9861 H   0  0  0  0  0  0
  -26.7101  -32.5554   23.1117 H   0  0  0  0  0  0
  -25.0019  -33.9756   25.0401 H   0  0  0  0  0  0
  -22.6954  -31.3056   21.4089 H   0  0  0  0  0  0
  -23.3746  -35.9653   23.3317 H   0  0  0  0  0  0
  -24.3568  -36.8907   22.2041 H   0  0  0  0  0  0
  -23.7279  -37.6521   23.6647 H   0  0  0  0  0  0
  -26.0474  -31.5969   20.5975 H   0  0  0  0  0  0
  -26.8187  -30.8808   21.9853 H   0  0  0  0  0  0
  -28.1057  -29.1009   21.1685 H   0  0  0  0  0  0
  -26.0448  -25.9831   18.9845 H   0  0  0  0  0  0
  -24.0028  -27.2939   19.0091 H   0  0  0  0  0  0
  -23.7087  -30.5829   19.3992 H   0  0  0  0  0  0
  -22.7429  -29.2220   19.8817 H   0  0  0  0  0  0
  -25.1330  -36.1932   25.0819 H   0  0  0  0  0  0
  -20.9860  -28.3484   24.1486 H   0  0  0  0  0  0
  -20.5534  -26.2438   23.3819 H   0  0  0  0  0  0
  -21.6685  -26.7366   22.1495 H   0  0  0  0  0  0
  -19.6838  -27.3254   20.6808 H   0  0  0  0  0  0
  -19.7000  -25.6348   21.1237 H   0  0  0  0  0  0
  -17.4314  -26.6686   21.3950 H   0  0  0  0  0  0
  -18.0417  -26.0164   22.9024 H   0  0  0  0  0  0
  -19.7980  -30.7297   24.2225 H   0  0  0  0  0  0
  -17.5036  -31.6269   24.5212 H   0  0  0  0  0  0
  -15.5408  -30.3010   23.7680 H   0  0  0  0  0  0
  -15.8641  -28.0918   22.7108 H   0  0  0  0  0  0
  -24.5908  -30.7054   25.7650 H   0  0  0  0  0  0
  -24.8836  -32.2867   26.4764 H   0  0  0  0  0  0
  -25.7955  -30.8896   27.0174 H   0  0  0  0  0  0
  -26.2867  -29.6766   24.1150 H   0  0  0  0  0  0
  -27.4099  -29.7345   25.4565 H   0  0  0  0  0  0
  -27.8692  -30.4365   23.9219 H   0  0  0  0  0  0
  -27.2739  -33.3635   26.2029 H   0  0  0  0  0  0
  -28.3876  -32.6818   25.0236 H   0  0  0  0  0  0
  -28.0725  -31.8393   26.5329 H   0  0  0  0  0  0
  -28.2631  -38.0065   24.7488 H   0  0  0  0  0  0
  -28.1038  -36.2603   24.6351 H   0  0  0  0  0  0
  -27.2272  -37.1533   25.8856 H   0  0  0  0  0  0
  -20.9365  -29.8492   21.6641 H   0  0  0  0  0  0
  -26.0186  -38.2865   24.1338 H   0  0  0  0  0  0
  -31.4641  -19.5521   21.3107 H   0  0  0  0  0  0
  -27.5516  -21.3869   21.1318 H   0  0  0  0  0  0
  -27.8964  -17.1066   21.2254 H   0  0  0  0  0  0
  -31.1737  -22.0218   20.5562 H   0  0  0  0  0  0
  -30.4832  -22.3733   22.1277 H   0  0  0  0  0  0
  -31.5511  -17.0572   20.8238 H   0  0  0  0  0  0
  -31.0480  -16.9310   22.4828 H   0  0  0  0  0  0
  -27.4555  -24.8100   20.1506 H   0  0  0  0  0  0
  -28.4438  -25.1776   18.7257 H   0  0  0  0  0  0
  -28.4861  -22.7660   20.1563 H   0  0  0  0  0  0
  -29.1848  -15.3578   21.6155 H   0  0  0  0  0  0
  1 25  1  0  0  0
  1 30  2  0  0  0
  1 82  1  0  0  0
  2  3  1  0  0  0
  2 25  1  0  0  0
  2 85  1  0  0  0
  2 86  1  0  0  0
  3  4  1  0  0  0
  3 87  1  0  0  0
  3 88  1  0  0  0
  4  5  1  0  0  0
  4 89  1  0  0  0
  4 90  1  0  0  0
  5  6  1  0  0  0
  5 26  1  0  0  0
  5 91  1  0  0  0
  6 25  1  0  0  0
  6 92  1  0  0  0
  6 93  1  0  0  0
  7  8  2  0  0  0
  7 26  1  0  0  0
  7 29  1  0  0  0
  8  9  1  0  0  0
  8 22  1  0  0  0
  9 10  1  0  0  0
  9 27  2  0  0  0
 10 11  2  0  0  0
 10 15  1  0  0  0
 11 12  1  0  0  0
 11 94  1  0  0  0
 12 13  2  0  0  0
 12 95  1  0  0  0
 13 14  1  0  0  0
 13 31  1  0  0  0
 14 15  2  0  0  0
 14 96  1  0  0  0
 15 97  1  0  0  0
 16 17  2  0  0  0
 16 21  1  0  0  0
 16 31  1  0  0  0
 17 18  1  0  0  0
 17 98  1  0  0  0
 18 19  2  0  0  0
 18 99  1  0  0  0
 19 20  1  0  0  0
 19 24  1  0  0  0
 20 21  2  0  0  0
 20100  1  0  0  0
 21 23  1  0  0  0
 22 28  1  0  0  0
 22 32  2  0  0  0
 26 27  1  0  0  0
 28101  1  0  0  0
 28102  1  0  0  0
 29103  1  0  0  0
 29104  1  0  0  0
 33 34  1  0  0  0
 33 66  1  0  0  0
 33 70  2  0  0  0
 34 36  1  0  0  0
 34 59  1  0  0  0
 34105  1  0  0  0
 35 44  2  0  0  0
 35 45  1  0  0  0
 35 68  1  0  0  0
 36 56  1  0  0  0
 36106  1  0  0  0
 37 39  1  0  0  0
 37 47  1  0  0  0
 37 66  1  0  0  0
 37107  1  0  0  0
 38 43  2  0  0  0
 38 46  1  0  0  0
 38 47  1  0  0  0
 39 64  1  0  0  0
 39 67  2  0  0  0
 40 52  1  0  0  0
 40 53  2  0  0  0
 40 58  1  0  0  0
 41108  1  0  0  0
 41109  1  0  0  0
 41110  1  0  0  0
 41 48  1  0  0  0
 42 43  1  0  0  0
 42 66  1  0  0  0
 42111  1  0  0  0
 42112  1  0  0  0
 43 44  1  0  0  0
 44113  1  0  0  0
 45 46  2  0  0  0
 45114  1  0  0  0
 46115  1  0  0  0
 47116  1  0  0  0
 47117  1  0  0  0
 48 56  1  0  0  0
 48 65  1  0  0  0
 48118  1  0  0  0
 49 50  1  0  0  0
 49 53  1  0  0  0
 49 64  1  0  0  0
 49119  1  0  0  0
 50 51  1  0  0  0
 50120  1  0  0  0
 50121  1  0  0  0
 51 52  1  0  0  0
 51122  1  0  0  0
 51123  1  0  0  0
 52124  1  0  0  0
 52125  1  0  0  0
 53 54  1  0  0  0
 54 55  2  0  0  0
 54126  1  0  0  0
 55 57  1  0  0  0
 55127  1  0  0  0
 56 69  2  0  0  0
 57 58  2  0  0  0
 57128  1  0  0  0
 58129  1  0  0  0
 59 60  1  0  0  0
 59 61  1  0  0  0
 59 62  1  0  0  0
 60130  1  0  0  0
 60131  1  0  0  0
 60132  1  0  0  0
 61133  1  0  0  0
 61134  1  0  0  0
 61135  1  0  0  0
 62136  1  0  0  0
 62137  1  0  0  0
 62138  1  0  0  0
 63 65  1  0  0  0
 63139  1  0  0  0
 63140  1  0  0  0
 63141  1  0  0  0
 64142  1  0  0  0
 65143  1  0  0  0
 68 80  1  0  0  0
 71 74  2  0  0  0
 71 75  1  0  0  0
 71144  1  0  0  0
 72 74  1  0  0  0
 72 76  2  0  0  0
 72145  1  0  0  0
 73 75  2  0  0  0
 73 76  1  0  0  0
 73146  1  0  0  0
 74 78  1  0  0  0
 75 79  1  0  0  0
 76 84  1  0  0  0
 77 80  1  0  0  0
 77 81  1  0  0  0
 77 83  2  0  0  0
 78 81  1  0  0  0
 78147  1  0  0  0
 78148  1  0  0  0
 79 82  1  0  0  0
 79149  1  0  0  0
 79150  1  0  0  0
 80151  1  0  0  0
 80152  1  0  0  0
 81153  1  0  0  0
 82154  1  0  0  0
M  ISO  4   1 100  68 101  80 101  82 100
M  END
> <chiral flag>
0

> <version>
0

> <s_m_source_file>
/data/baiqing/PycharmProjects/Reinvent-master-3.2/result/LINK_invent/BTK/process_docking_weight1_custom_product_contain_oxygen_bond_distance_aromatic_linkinvent_7_9_3/rearranged_h_0047.sdf

> <i_m_source_file_index>
55

> <r_mmod_Potential_Energy-OPLS-2005>
-183.763397216797

> <r_mmod_Stretch_Energy-OPLS-2005>
49.4899978637695

> <r_mmod_Bend_Energy-OPLS-2005>
106.697380065918

> <r_mmod_Torsional_Energy-OPLS-2005>
185.523025512695

> <r_mmod_Improper_Torsional_Energy-OPLS-2005>
2.89176940917969

> <r_mmod_Van_der_Waal_Energy-OPLS-2005>
149.292236328125

> <r_mmod_Electrostatic_Energy-OPLS-2005>
-450.223693847656

> <r_mmod_Solvation_Energy-OPLS-2005>
-245.730560302734

> <b_mmod_Minimization_Converged-OPLS-2005>
0

> <r_mmod_RMS_Derivative-OPLS-2005>
6.86665439605713

$$$$
55
                    3D
 Structure written by MMmdl.
183192  0  0  1  0            999 V2000
  -30.7328  -14.3809   20.6769 C   0  0  0  0  0  0
  -30.4264  -12.2978   19.3821 C   0  0  0  0  0  0
  -29.4835  -12.5246   18.1849 C   0  0  0  0  0  0
  -28.0068  -12.3800   18.6036 C   0  0  0  0  0  0
  -27.6655  -13.1956   19.8782 C   0  0  2  0  0  0
  -28.7041  -12.9116   20.9834 C   0  0  0  0  0  0
  -25.2605  -13.8140   20.5671 C   0  0  0  0  0  0
  -24.1840  -13.0435   20.9163 C   0  0  0  0  0  0
  -24.6379  -11.6898   20.8721 C   0  0  0  0  0  0
  -23.9041  -10.4290   21.0401 C   0  0  0  0  0  0
  -24.3598   -9.4209   21.9179 C   0  0  0  0  0  0
  -23.6279   -8.2242   22.0751 C   0  0  0  0  0  0
  -22.4260   -8.0276   21.3542 C   0  0  0  0  0  0
  -21.9893   -9.0248   20.4643 C   0  0  0  0  0  0
  -22.7218  -10.2130   20.3051 C   0  0  0  0  0  0
  -21.6848   -6.0730   22.5279 C   0  0  0  0  0  0
  -21.4011   -6.5635   23.8212 C   0  0  0  0  0  0
  -21.3657   -5.6788   24.9175 C   0  0  0  0  0  0
  -21.6044   -4.3052   24.7227 C   0  0  0  0  0  0
  -21.8819   -3.8145   23.4348 C   0  0  0  0  0  0
  -21.9191   -4.6959   22.3404 C   0  0  0  0  0  0
  -22.7864  -13.5242   21.1836 C   0  0  0  0  0  0
  -22.1659   -4.2145   21.0980 F   0  0  0  0  0  0
  -21.5630   -3.4536   25.7740 F   0  0  0  0  0  0
  -30.0419  -13.2340   20.4470 N   0  0  0  0  0  0
  -26.3032  -12.9290   20.3362 N   0  0  0  0  0  0
  -25.9296  -11.6461   20.5742 N   0  0  0  0  0  0
  -22.0498  -12.8240   22.0391 N   0  0  0  0  0  0
  -25.4361  -15.1859   20.4088 N   0  0  0  0  0  0
  -31.7822  -14.6688   20.0906 O   0  0  0  0  0  0
  -21.6631   -6.8871   21.4239 O   0  0  0  0  0  0
  -22.3555  -14.5554   20.6689 O   0  0  0  0  0  0
  -24.6099  -31.8700   23.2116 C   0  0  0  0  0  0
  -25.9002  -32.4836   23.8408 C   0  0  1  0  0  0
  -27.2343  -27.4682   20.0879 C   0  0  0  0  0  0
  -25.5874  -33.8632   24.2345 N   0  0  0  0  0  0
  -23.3973  -30.4917   21.5533 C   0  0  2  0  0  0
  -24.8431  -28.9607   20.1141 C   0  0  0  0  0  0
  -22.7392  -29.4655   22.5023 C   0  0  0  0  0  0
  -18.0265  -28.1378   22.8493 C   0  0  0  0  0  0
  -24.1488  -36.7326   23.2638 C   0  0  0  0  0  0
  -25.9203  -30.8481   21.3573 C   0  0  0  0  0  0
  -26.0007  -29.4844   20.7035 C   0  0  0  0  0  0
  -27.2023  -28.7468   20.6831 C   0  0  0  0  0  0
  -26.0635  -26.9480   19.4965 C   0  0  0  0  0  0
  -24.8680  -27.6916   19.5074 C   0  0  0  0  0  0
  -23.6024  -29.8227   20.1677 C   0  0  0  0  0  0
  -25.4105  -36.3116   24.0338 C   0  0  1  0  0  0
  -20.5849  -28.3652   23.1342 C   0  0  2  0  0  0
  -20.6764  -26.9401   22.5429 C   0  0  0  0  0  0
  -19.5745  -26.6389   21.5221 C   0  0  0  0  0  0
  -18.1910  -26.7922   22.1620 C   0  0  0  0  0  0
  -19.1512  -28.8828   23.2911 C   0  0  0  0  0  0
  -18.9450  -30.1439   23.8921 C   0  0  0  0  0  0
  -17.6456  -30.6586   24.0565 C   0  0  0  0  0  0
  -25.9028  -34.9482   23.5141 C   0  0  0  0  0  0
  -16.5341  -29.9089   23.6329 C   0  0  0  0  0  0
  -16.7253  -28.6509   23.0343 C   0  0  0  0  0  0
  -26.4457  -31.6596   25.0715 C   0  0  0  0  0  0
  -25.3730  -31.3688   26.1470 C   0  0  0  0  0  0
  -27.0285  -30.3047   24.6049 C   0  0  0  0  0  0
  -27.6044  -32.4313   25.7473 C   0  0  0  0  0  0
  -27.5583  -37.1814   24.8460 C   0  0  0  0  0  0
  -21.4125  -29.3019   22.3759 N   0  0  0  0  0  0
  -26.4300  -37.3791   23.9398 N   0  0  0  0  0  0
  -24.6610  -31.0825   22.1002 N   0  0  0  0  0  0
  -23.4171  -28.8199   23.3061 O   0  0  0  0  0  0
  -28.4066  -26.7520   20.0995 O   0  0  0  0  0  0
  -26.5597  -34.8928   22.4714 O   0  0  0  0  0  0
  -23.5307  -32.1438   23.7533 O   0  0  0  0  0  0
  -27.8213  -21.7588   24.9972 C   0  0  0  0  0  0
  -28.4606  -21.0221   26.0086 C   0  0  0  0  0  0
  -32.0722  -18.2881   22.4850 C   0  0  0  0  0  0
  -31.5388  -17.2375   21.7114 C   0  0  0  0  0  0
  -30.9123  -17.4270   24.4445 C   0  0  0  0  0  0
  -29.9042  -21.8165   23.7426 C   0  0  0  0  0  0
  -31.7825  -18.3704   23.8630 C   0  0  0  0  0  0
  -28.5554  -22.2032   23.8807 C   0  0  0  0  0  0
  -29.8375  -20.7252   25.9285 C   0  0  0  0  0  0
  -30.3614  -16.3844   23.6756 C   0  0  0  0  0  0
  -30.7037  -16.2639   22.3085 C   0  0  0  0  0  0
  -30.5714  -21.0873   24.7609 C   0  0  0  0  0  0
  -35.1631  -22.3350   23.8692 C   0  0  0  0  0  0
  -34.0862  -21.5415   23.7267 C   0  0  0  0  0  0
  -32.8292  -21.8557   24.3946 C   0  0  0  0  0  0
  -30.4818  -20.1095   27.1597 C   0  0  0  0  0  0
  -29.4294  -15.3865   24.3446 C   0  0  0  0  0  0
  -28.1439  -25.0226   24.5480 C   0  0  0  0  0  0
  -32.4582  -19.4134   24.7435 C   0  0  0  0  0  0
  -27.9282  -23.1793   22.8883 C   0  0  0  0  0  0
  -27.8277  -25.5843   22.1876 C   0  0  0  0  0  0
  -28.3553  -25.4683   20.7360 C   0  0  0  0  0  0
  -30.1495  -15.1817   21.5813 N   0  0  0  0  0  0
  -31.9733  -20.8072   24.5818 N   0  0  0  0  0  0
  -28.3718  -24.5809   23.1458 N   0  3  1  0  0  0
  -32.5383  -23.0109   24.7339 O   0  0  0  0  0  0
  -31.4655  -12.4222   19.0723 H   0  0  0  0  0  0
  -30.3481  -11.2712   19.7435 H   0  0  0  0  0  0
  -29.7156  -11.8204   17.3846 H   0  0  0  0  0  0
  -29.6506  -13.5209   17.7720 H   0  0  0  0  0  0
  -27.8123  -11.3210   18.7802 H   0  0  0  0  0  0
  -27.3530  -12.6749   17.7819 H   0  0  0  0  0  0
  -27.7297  -14.2521   19.6161 H   0  0  0  0  0  0
  -28.6757  -11.8552   21.2570 H   0  0  0  0  0  0
  -28.4449  -13.4411   21.8998 H   0  0  0  0  0  0
  -25.2743   -9.5688   22.4751 H   0  0  0  0  0  0
  -23.9990   -7.4634   22.7474 H   0  0  0  0  0  0
  -21.0824   -8.8762   19.8951 H   0  0  0  0  0  0
  -22.3674  -10.9663   19.6157 H   0  0  0  0  0  0
  -21.2001   -7.6144   23.9715 H   0  0  0  0  0  0
  -21.1477   -6.0518   25.9077 H   0  0  0  0  0  0
  -22.0601   -2.7606   23.2851 H   0  0  0  0  0  0
  -22.4096  -11.9892   22.4777 H   0  0  0  0  0  0
  -21.1115  -13.1273   22.2588 H   0  0  0  0  0  0
  -24.6761  -15.8480   20.5226 H   0  0  0  0  0  0
  -26.2988  -15.6219   20.1069 H   0  0  0  0  0  0
  -26.7074  -32.5573   23.1184 H   0  0  0  0  0  0
  -24.9980  -33.9805   25.0457 H   0  0  0  0  0  0
  -22.6832  -31.3061   21.4148 H   0  0  0  0  0  0
  -23.3743  -35.9672   23.3314 H   0  0  0  0  0  0
  -24.3567  -36.8932   22.2050 H   0  0  0  0  0  0
  -23.7257  -37.6538   23.6653 H   0  0  0  0  0  0
  -26.0213  -31.6184   20.5914 H   0  0  0  0  0  0
  -26.8107  -30.9040   21.9720 H   0  0  0  0  0  0
  -28.0983  -29.1456   21.1384 H   0  0  0  0  0  0
  -26.0747  -25.9782   19.0198 H   0  0  0  0  0  0
  -23.9783  -27.2859   19.0456 H   0  0  0  0  0  0
  -23.7045  -30.5958   19.4050 H   0  0  0  0  0  0
  -22.7280  -29.2365   19.8779 H   0  0  0  0  0  0
  -25.1286  -36.1991   25.0832 H   0  0  0  0  0  0
  -20.9931  -28.3226   24.1466 H   0  0  0  0  0  0
  -20.5691  -26.2262   23.3606 H   0  0  0  0  0  0
  -21.6635  -26.7476   22.1206 H   0  0  0  0  0  0
  -19.6926  -25.6310   21.1228 H   0  0  0  0  0  0
  -19.6694  -27.3223   20.6757 H   0  0  0  0  0  0
  -17.4196  -26.6673   21.4007 H   0  0  0  0  0  0
  -18.0307  -26.0062   22.9014 H   0  0  0  0  0  0
  -19.7933  -30.7229   24.2308 H   0  0  0  0  0  0
  -17.5022  -31.6270   24.5157 H   0  0  0  0  0  0
  -15.5344  -30.2995   23.7651 H   0  0  0  0  0  0
  -15.8657  -28.0836   22.7046 H   0  0  0  0  0  0
  -24.5895  -30.7058   25.7788 H   0  0  0  0  0  0
  -24.8933  -32.2840   26.4948 H   0  0  0  0  0  0
  -25.8080  -30.8822   27.0204 H   0  0  0  0  0  0
  -26.2818  -29.6805   24.1125 H   0  0  0  0  0  0
  -27.4098  -29.7278   25.4479 H   0  0  0  0  0  0
  -27.8631  -30.4385   23.9161 H   0  0  0  0  0  0
  -27.2672  -33.3600   26.2090 H   0  0  0  0  0  0
  -28.3828  -32.6888   25.0279 H   0  0  0  0  0  0
  -28.0740  -31.8411   26.5353 H   0  0  0  0  0  0
  -28.2598  -38.0111   24.7496 H   0  0  0  0  0  0
  -28.1080  -36.2639   24.6302 H   0  0  0  0  0  0
  -27.2290  -37.1471   25.8859 H   0  0  0  0  0  0
  -20.9286  -29.8738   21.6983 H   0  0  0  0  0  0
  -26.0197  -38.2877   24.1394 H   0  0  0  0  0  0
  -26.7814  -22.0324   25.1147 H   0  0  0  0  0  0
  -27.8943  -20.7371   26.8846 H   0  0  0  0  0  0
  -32.7294  -19.0095   22.0208 H   0  0  0  0  0  0
  -31.7857  -17.1845   20.6610 H   0  0  0  0  0  0
  -30.6816  -17.4836   25.4973 H   0  0  0  0  0  0
  -30.4547  -22.1416   22.8698 H   0  0  0  0  0  0
  -36.0874  -22.1048   23.3588 H   0  0  0  0  0  0
  -35.1437  -23.2198   24.4913 H   0  0  0  0  0  0
  -34.1621  -20.6773   23.0840 H   0  0  0  0  0  0
  -29.9163  -20.3573   28.0583 H   0  0  0  0  0  0
  -31.4905  -20.4923   27.3141 H   0  0  0  0  0  0
  -30.5129  -19.0241   27.0911 H   0  0  0  0  0  0
  -29.3603  -15.5618   25.4180 H   0  0  0  0  0  0
  -29.7844  -14.3659   24.2012 H   0  0  0  0  0  0
  -28.4246  -15.4667   23.9299 H   0  0  0  0  0  0
  -28.7137  -24.4292   25.2628 H   0  0  0  0  0  0
  -27.0884  -24.9570   24.8142 H   0  0  0  0  0  0
  -28.4616  -26.0544   24.6980 H   0  0  0  0  0  0
  -33.5291  -19.2950   24.5889 H   0  0  0  0  0  0
  -32.3648  -19.1076   25.7802 H   0  0  0  0  0  0
  -26.8398  -23.1193   22.9521 H   0  0  0  0  0  0
  -28.1951  -22.8719   21.8756 H   0  0  0  0  0  0
  -26.7365  -25.5725   22.1997 H   0  0  0  0  0  0
  -28.1209  -26.5688   22.5543 H   0  0  0  0  0  0
  -27.7685  -24.7573   20.1527 H   0  0  0  0  0  0
  -29.3780  -25.0895   20.7429 H   0  0  0  0  0  0
  -29.3040  -14.7924   21.9660 H   0  0  0  0  0  0
  -29.3754  -24.5803   23.0339 H   0  0  0  0  0  0
  1 25  1  0  0  0
  1 30  2  0  0  0
  1 93  1  0  0  0
  2  3  1  0  0  0
  2 25  1  0  0  0
  2 97  1  0  0  0
  2 98  1  0  0  0
  3  4  1  0  0  0
  3 99  1  0  0  0
  3100  1  0  0  0
  4  5  1  0  0  0
  4101  1  0  0  0
  4102  1  0  0  0
  5  6  1  0  0  0
  5 26  1  0  0  0
  5103  1  0  0  0
  6 25  1  0  0  0
  6104  1  0  0  0
  6105  1  0  0  0
  7  8  2  0  0  0
  7 26  1  0  0  0
  7 29  1  0  0  0
  8  9  1  0  0  0
  8 22  1  0  0  0
  9 10  1  0  0  0
  9 27  2  0  0  0
 10 11  2  0  0  0
 10 15  1  0  0  0
 11 12  1  0  0  0
 11106  1  0  0  0
 12 13  2  0  0  0
 12107  1  0  0  0
 13 14  1  0  0  0
 13 31  1  0  0  0
 14 15  2  0  0  0
 14108  1  0  0  0
 15109  1  0  0  0
 16 17  2  0  0  0
 16 21  1  0  0  0
 16 31  1  0  0  0
 17 18  1  0  0  0
 17110  1  0  0  0
 18 19  2  0  0  0
 18111  1  0  0  0
 19 20  1  0  0  0
 19 24  1  0  0  0
 20 21  2  0  0  0
 20112  1  0  0  0
 21 23  1  0  0  0
 22 28  1  0  0  0
 22 32  2  0  0  0
 26 27  1  0  0  0
 28113  1  0  0  0
 28114  1  0  0  0
 29115  1  0  0  0
 29116  1  0  0  0
 33 34  1  0  0  0
 33 66  1  0  0  0
 33 70  2  0  0  0
 34 36  1  0  0  0
 34 59  1  0  0  0
 34117  1  0  0  0
 35 44  2  0  0  0
 35 45  1  0  0  0
 35 68  1  0  0  0
 36 56  1  0  0  0
 36118  1  0  0  0
 37 39  1  0  0  0
 37 47  1  0  0  0
 37 66  1  0  0  0
 37119  1  0  0  0
 38 43  2  0  0  0
 38 46  1  0  0  0
 38 47  1  0  0  0
 39 64  1  0  0  0
 39 67  2  0  0  0
 40 52  1  0  0  0
 40 53  2  0  0  0
 40 58  1  0  0  0
 41120  1  0  0  0
 41121  1  0  0  0
 41122  1  0  0  0
 41 48  1  0  0  0
 42 43  1  0  0  0
 42 66  1  0  0  0
 42123  1  0  0  0
 42124  1  0  0  0
 43 44  1  0  0  0
 44125  1  0  0  0
 45 46  2  0  0  0
 45126  1  0  0  0
 46127  1  0  0  0
 47128  1  0  0  0
 47129  1  0  0  0
 48 56  1  0  0  0
 48 65  1  0  0  0
 48130  1  0  0  0
 49 50  1  0  0  0
 49 53  1  0  0  0
 49 64  1  0  0  0
 49131  1  0  0  0
 50 51  1  0  0  0
 50132  1  0  0  0
 50133  1  0  0  0
 51 52  1  0  0  0
 51134  1  0  0  0
 51135  1  0  0  0
 52136  1  0  0  0
 52137  1  0  0  0
 53 54  1  0  0  0
 54 55  2  0  0  0
 54138  1  0  0  0
 55 57  1  0  0  0
 55139  1  0  0  0
 56 69  2  0  0  0
 57 58  2  0  0  0
 57140  1  0  0  0
 58141  1  0  0  0
 59 60  1  0  0  0
 59 61  1  0  0  0
 59 62  1  0  0  0
 60142  1  0  0  0
 60143  1  0  0  0
 60144  1  0  0  0
 61145  1  0  0  0
 61146  1  0  0  0
 61147  1  0  0  0
 62148  1  0  0  0
 62149  1  0  0  0
 62150  1  0  0  0
 63 65  1  0  0  0
 63151  1  0  0  0
 63152  1  0  0  0
 63153  1  0  0  0
 64154  1  0  0  0
 65155  1  0  0  0
 68 92  1  0  0  0
 71 72  2  0  0  0
 71 78  1  0  0  0
 71156  1  0  0  0
 72 79  1  0  0  0
 72157  1  0  0  0
 73 74  2  0  0  0
 73 77  1  0  0  0
 73158  1  0  0  0
 74 81  1  0  0  0
 74159  1  0  0  0
 75 77  2  0  0  0
 75 80  1  0  0  0
 75160  1  0  0  0
 76 78  2  0  0  0
 76 82  1  0  0  0
 76161  1  0  0  0
 77 89  1  0  0  0
 78 90  1  0  0  0
 79 82  2  0  0  0
 79 86  1  0  0  0
 80 81  2  0  0  0
 80 87  1  0  0  0
 81 93  1  0  0  0
 82 94  1  0  0  0
 83 84  2  0  0  0
 83162  1  0  0  0
 83163  1  0  0  0
 84 85  1  0  0  0
 84164  1  0  0  0
 85 94  1  0  0  0
 85 96  2  0  0  0
 86165  1  0  0  0
 86166  1  0  0  0
 86167  1  0  0  0
 87168  1  0  0  0
 87169  1  0  0  0
 87170  1  0  0  0
 88171  1  0  0  0
 88172  1  0  0  0
 88173  1  0  0  0
 88 95  1  0  0  0
 89 94  1  0  0  0
 89174  1  0  0  0
 89175  1  0  0  0
 90 95  1  0  0  0
 90176  1  0  0  0
 90177  1  0  0  0
 91 92  1  0  0  0
 91 95  1  0  0  0
 91178  1  0  0  0
 91179  1  0  0  0
 92180  1  0  0  0
 92181  1  0  0  0
 93182  1  0  0  0
 95183  1  0  0  0
M  CHG  1  95   1
M  ISO  4   1 100  68 101  92 101  93 100
M  END
> <chiral flag>
0

> <version>
0

> <s_m_source_file>
/data/baiqing/PycharmProjects/Reinvent-master-3.2/result/LINK_invent/BTK/process_docking_weight1_custom_product_contain_oxygen_bond_distance_aromatic_linkinvent_7_9_3/rearranged_h_0047.sdf

> <i_m_source_file_index>
56

> <r_mmod_Potential_Energy-OPLS-2005>
-49.8829345703125

> <r_mmod_Stretch_Energy-OPLS-2005>
43.1197395324707

> <r_mmod_Bend_Energy-OPLS-2005>
109.121734619141

> <r_mmod_Torsional_Energy-OPLS-2005>
305.036773681641

> <r_mmod_Improper_Torsional_Energy-OPLS-2005>
3.71431708335876

> <r_mmod_Van_der_Waal_Energy-OPLS-2005>
192.620223999023

> <r_mmod_Electrostatic_Energy-OPLS-2005>
-296.929626464844

> <r_mmod_Solvation_Energy-OPLS-2005>
-414.269165039062

> <b_mmod_Minimization_Converged-OPLS-2005>
0

> <r_mmod_RMS_Derivative-OPLS-2005>
1.52825951576233

$$$$
56
                    3D
 Structure written by MMmdl.
165174  0  0  1  0            999 V2000
  -30.6264  -14.8009   20.3695 C   0  0  0  0  0  0
  -30.4245  -12.4787   19.4733 C   0  0  0  0  0  0
  -29.4910  -12.4566   18.2415 C   0  0  0  0  0  0
  -28.0239  -12.2986   18.6675 C   0  0  0  0  0  0
  -27.6319  -13.2375   19.8385 C   0  0  2  0  0  0
  -28.6852  -13.2368   20.9663 C   0  0  0  0  0  0
  -25.2485  -13.8223   20.5739 C   0  0  0  0  0  0
  -24.1783  -13.0456   20.9241 C   0  0  0  0  0  0
  -24.6383  -11.6935   20.8790 C   0  0  0  0  0  0
  -23.9072  -10.4297   21.0431 C   0  0  0  0  0  0
  -24.3623   -9.4203   21.9195 C   0  0  0  0  0  0
  -23.6292   -8.2238   22.0749 C   0  0  0  0  0  0
  -22.4275   -8.0285   21.3539 C   0  0  0  0  0  0
  -21.9923   -9.0264   20.4641 C   0  0  0  0  0  0
  -22.7251  -10.2141   20.3064 C   0  0  0  0  0  0
  -21.6848   -6.0744   22.5281 C   0  0  0  0  0  0
  -21.4015   -6.5646   23.8218 C   0  0  0  0  0  0
  -21.3661   -5.6794   24.9179 C   0  0  0  0  0  0
  -21.6046   -4.3058   24.7223 C   0  0  0  0  0  0
  -21.8817   -3.8149   23.4342 C   0  0  0  0  0  0
  -21.9187   -4.6971   22.3401 C   0  0  0  0  0  0
  -22.7801  -13.5234   21.1862 C   0  0  0  0  0  0
  -22.1653   -4.2164   21.0975 F   0  0  0  0  0  0
  -21.5631   -3.4535   25.7730 F   0  0  0  0  0  0
  -29.9749  -13.5822   20.3572 N   0  0  0  0  0  0
  -26.2908  -12.9443   20.3319 N   0  0  0  0  0  0
  -25.9320  -11.6584   20.5827 N   0  0  0  0  0  0
  -22.0434  -12.8232   22.0413 N   0  0  0  0  0  0
  -25.4165  -15.1947   20.4136 N   0  0  0  0  0  0
  -31.8496  -14.8199   20.2204 O   0  0  0  0  0  0
  -21.6629   -6.8888   21.4242 O   0  0  0  0  0  0
  -22.3491  -14.5526   20.6681 O   0  0  0  0  0  0
  -24.6335  -31.8540   23.1979 C   0  0  0  0  0  0
  -25.9153  -32.4745   23.8331 C   0  0  1  0  0  0
  -27.2108  -27.2321   20.1436 C   0  0  0  0  0  0
  -25.5938  -33.8551   24.2247 N   0  0  0  0  0  0
  -23.4324  -30.4766   21.5416 C   0  0  2  0  0  0
  -24.8802  -28.9217   20.1116 C   0  0  0  0  0  0
  -22.7519  -29.4599   22.4903 C   0  0  0  0  0  0
  -18.0297  -28.1394   22.8484 C   0  0  0  0  0  0
  -24.1491  -36.7276   23.2642 C   0  0  0  0  0  0
  -25.9819  -30.7566   21.3866 C   0  0  0  0  0  0
  -26.0532  -29.3778   20.7269 C   0  0  0  0  0  0
  -27.2239  -28.5467   20.7300 C   0  0  0  0  0  0
  -26.0219  -26.8626   19.4775 C   0  0  0  0  0  0
  -24.8718  -27.6737   19.4731 C   0  0  0  0  0  0
  -23.6527  -29.8121   20.1579 C   0  0  0  0  0  0
  -25.4121  -36.3063   24.0322 C   0  0  1  0  0  0
  -20.5903  -28.3706   23.1260 C   0  0  2  0  0  0
  -20.6785  -26.9420   22.5404 C   0  0  0  0  0  0
  -19.5757  -26.6386   21.5213 C   0  0  0  0  0  0
  -18.1940  -26.7936   22.1627 C   0  0  0  0  0  0
  -19.1553  -28.8868   23.2866 C   0  0  0  0  0  0
  -18.9469  -30.1469   23.8884 C   0  0  0  0  0  0
  -17.6467  -30.6592   24.0563 C   0  0  0  0  0  0
  -25.9061  -34.9435   23.5088 C   0  0  0  0  0  0
  -16.5358  -29.9083   23.6340 C   0  0  0  0  0  0
  -16.7282  -28.6505   23.0357 C   0  0  0  0  0  0
  -26.4499  -31.6587   25.0740 C   0  0  0  0  0  0
  -25.3698  -31.3754   26.1444 C   0  0  0  0  0  0
  -27.0362  -30.2994   24.6279 C   0  0  0  0  0  0
  -27.6042  -32.4345   25.7511 C   0  0  0  0  0  0
  -27.5580  -37.1798   24.8461 C   0  0  0  0  0  0
  -21.4224  -29.3044   22.3641 N   0  0  0  0  0  0
  -26.4295  -37.3765   23.9400 N   0  0  0  0  0  0
  -24.7015  -31.0477   22.0975 N   0  0  0  0  0  0
  -23.4206  -28.8140   23.3015 O   0  0  0  0  0  0
  -28.2783  -26.2967   20.1881 O   0  0  0  0  0  0
  -26.5640  -34.8910   22.4660 O   0  0  0  0  0  0
  -23.5477  -32.1376   23.7250 O   0  0  0  0  0  0
  -28.8316  -18.4293   16.9003 C   0  0  0  0  0  0
  -28.6407  -18.9655   18.1708 C   0  0  0  0  0  0
  -29.6783  -17.3356   16.7684 C   0  0  0  0  0  0
  -29.2389  -18.4298   19.3385 C   0  0  0  0  0  0
  -29.8402  -17.0607   19.2447 C   0  0  0  0  0  0
  -30.1854  -16.6673   17.8948 C   0  0  0  0  0  0
  -28.8859  -23.6496   20.0453 C   0  0  0  0  0  0
  -29.4253  -18.8173   22.9188 C   0  0  0  0  0  0
  -29.9337  -19.1012   21.7103 C   0  0  0  0  0  0
  -28.0407  -23.3670   22.7404 C   0  0  0  0  0  0
  -27.8466  -24.7806   22.1345 C   0  0  0  0  0  0
  -27.8533  -22.2128   21.7284 C   0  0  0  0  0  0
  -27.9703  -24.8598   20.5936 C   0  0  1  0  0  0
  -29.4927  -21.0887   20.0893 C   0  0  0  0  0  0
  -29.1188  -19.5190   20.5020 C   0  0  1  0  0  0
  -28.7460  -22.3555   20.5716 N   0  0  0  0  0  0
  -29.9025  -16.0002   20.3149 N   0  0  0  0  0  0
  -29.6848  -23.8818   19.1326 O   0  0  0  0  0  0
  -31.2469  -15.3808   17.4350 Cl  0  0  0  0  0  0
  -31.4593  -12.6068   19.1499 H   0  0  0  0  0  0
  -30.3912  -11.5252   20.0025 H   0  0  0  0  0  0
  -29.7731  -11.6468   17.5676 H   0  0  0  0  0  0
  -29.5852  -13.3734   17.6670 H   0  0  0  0  0  0
  -27.8869  -11.2576   18.9623 H   0  0  0  0  0  0
  -27.3620  -12.4614   17.8160 H   0  0  0  0  0  0
  -27.6075  -14.2436   19.4185 H   0  0  0  0  0  0
  -28.7361  -12.2622   21.4539 H   0  0  0  0  0  0
  -28.4227  -13.9601   21.7396 H   0  0  0  0  0  0
  -25.2764   -9.5669   22.4780 H   0  0  0  0  0  0
  -23.9996   -7.4622   22.7466 H   0  0  0  0  0  0
  -21.0857   -8.8793   19.8940 H   0  0  0  0  0  0
  -22.3717  -10.9691   19.6182 H   0  0  0  0  0  0
  -21.2009   -7.6152   23.9734 H   0  0  0  0  0  0
  -21.1489   -6.0517   25.9087 H   0  0  0  0  0  0
  -22.0590   -2.7613   23.2834 H   0  0  0  0  0  0
  -22.4033  -11.9909   22.4840 H   0  0  0  0  0  0
  -21.1040  -13.1256   22.2571 H   0  0  0  0  0  0
  -24.6495  -15.8484   20.5255 H   0  0  0  0  0  0
  -26.2652  -15.6336   20.0803 H   0  0  0  0  0  0
  -26.7220  -32.5378   23.1071 H   0  0  0  0  0  0
  -25.0062  -33.9687   25.0376 H   0  0  0  0  0  0
  -22.7301  -31.2999   21.3947 H   0  0  0  0  0  0
  -23.3759  -35.9602   23.3300 H   0  0  0  0  0  0
  -24.3576  -36.8907   22.2056 H   0  0  0  0  0  0
  -23.7239  -37.6472   23.6674 H   0  0  0  0  0  0
  -26.1335  -31.5192   20.6214 H   0  0  0  0  0  0
  -26.8539  -30.7977   22.0279 H   0  0  0  0  0  0
  -28.1201  -28.8891   21.2275 H   0  0  0  0  0  0
  -25.9584  -25.9209   18.9536 H   0  0  0  0  0  0
  -23.9787  -27.3258   18.9729 H   0  0  0  0  0  0
  -23.7806  -30.5892   19.4031 H   0  0  0  0  0  0
  -22.7697  -29.2482   19.8510 H   0  0  0  0  0  0
  -25.1310  -36.1909   25.0816 H   0  0  0  0  0  0
  -20.9998  -28.3285   24.1380 H   0  0  0  0  0  0
  -20.5693  -26.2313   23.3610 H   0  0  0  0  0  0
  -21.6650  -26.7444   22.1189 H   0  0  0  0  0  0
  -19.6914  -25.6294   21.1250 H   0  0  0  0  0  0
  -19.6696  -27.3192   20.6737 H   0  0  0  0  0  0
  -17.4206  -26.6688   21.4028 H   0  0  0  0  0  0
  -18.0336  -26.0082   22.9027 H   0  0  0  0  0  0
  -19.7944  -30.7296   24.2243 H   0  0  0  0  0  0
  -17.5017  -31.6271   24.5166 H   0  0  0  0  0  0
  -15.5357  -30.2976   23.7678 H   0  0  0  0  0  0
  -15.8686  -28.0819   22.7076 H   0  0  0  0  0  0
  -24.5859  -30.7134   25.7744 H   0  0  0  0  0  0
  -24.8911  -32.2937   26.4860 H   0  0  0  0  0  0
  -25.7982  -30.8911   27.0229 H   0  0  0  0  0  0
  -26.2978  -29.6732   24.1263 H   0  0  0  0  0  0
  -27.3967  -29.7271   25.4836 H   0  0  0  0  0  0
  -27.8883  -30.4244   23.9596 H   0  0  0  0  0  0
  -27.2639  -33.3644   26.2077 H   0  0  0  0  0  0
  -28.3852  -32.6917   25.0343 H   0  0  0  0  0  0
  -28.0719  -31.8493   26.5439 H   0  0  0  0  0  0
  -28.2591  -38.0100   24.7515 H   0  0  0  0  0  0
  -28.1087  -36.2633   24.6288 H   0  0  0  0  0  0
  -27.2296  -37.1437   25.8863 H   0  0  0  0  0  0
  -20.9416  -29.8750   21.6827 H   0  0  0  0  0  0
  -26.0172  -38.2839   24.1401 H   0  0  0  0  0  0
  -28.3983  -18.9023   16.0288 H   0  0  0  0  0  0
  -28.0446  -19.8659   18.2268 H   0  0  0  0  0  0
  -29.9191  -16.9766   15.7782 H   0  0  0  0  0  0
  -30.0695  -18.5279   23.7376 H   0  0  0  0  0  0
  -28.3630  -18.8673   23.1119 H   0  0  0  0  0  0
  -31.0026  -19.0369   21.5605 H   0  0  0  0  0  0
  -27.3740  -23.2314   23.5930 H   0  0  0  0  0  0
  -29.0506  -23.2983   23.1491 H   0  0  0  0  0  0
  -28.5638  -25.4602   22.5963 H   0  0  0  0  0  0
  -26.8633  -25.1564   22.4193 H   0  0  0  0  0  0
  -26.8193  -22.1781   21.3802 H   0  0  0  0  0  0
  -28.0346  -21.2730   22.2460 H   0  0  0  0  0  0
  -26.9930  -24.5807   20.2069 H   0  0  0  0  0  0
  -29.5099  -21.1921   19.0068 H   0  0  0  0  0  0
  -30.5411  -21.2451   20.3438 H   0  0  0  0  0  0
  -28.0651  -19.4953   20.7818 H   0  0  0  0  0  0
  -29.0575  -15.9633   20.8629 H   0  0  0  0  0  0
  1 25  1  0  0  0
  1 30  2  0  0  0
  1 87  1  0  0  0
  2  3  1  0  0  0
  2 25  1  0  0  0
  2 90  1  0  0  0
  2 91  1  0  0  0
  3  4  1  0  0  0
  3 92  1  0  0  0
  3 93  1  0  0  0
  4  5  1  0  0  0
  4 94  1  0  0  0
  4 95  1  0  0  0
  5  6  1  0  0  0
  5 26  1  0  0  0
  5 96  1  0  0  0
  6 25  1  0  0  0
  6 97  1  0  0  0
  6 98  1  0  0  0
  7  8  2  0  0  0
  7 26  1  0  0  0
  7 29  1  0  0  0
  8  9  1  0  0  0
  8 22  1  0  0  0
  9 10  1  0  0  0
  9 27  2  0  0  0
 10 11  2  0  0  0
 10 15  1  0  0  0
 11 12  1  0  0  0
 11 99  1  0  0  0
 12 13  2  0  0  0
 12100  1  0  0  0
 13 14  1  0  0  0
 13 31  1  0  0  0
 14 15  2  0  0  0
 14101  1  0  0  0
 15102  1  0  0  0
 16 17  2  0  0  0
 16 21  1  0  0  0
 16 31  1  0  0  0
 17 18  1  0  0  0
 17103  1  0  0  0
 18 19  2  0  0  0
 18104  1  0  0  0
 19 20  1  0  0  0
 19 24  1  0  0  0
 20 21  2  0  0  0
 20105  1  0  0  0
 21 23  1  0  0  0
 22 28  1  0  0  0
 22 32  2  0  0  0
 26 27  1  0  0  0
 28106  1  0  0  0
 28107  1  0  0  0
 29108  1  0  0  0
 29109  1  0  0  0
 33 34  1  0  0  0
 33 66  1  0  0  0
 33 70  2  0  0  0
 34 36  1  0  0  0
 34 59  1  0  0  0
 34110  1  0  0  0
 35 44  2  0  0  0
 35 45  1  0  0  0
 35 68  1  0  0  0
 36 56  1  0  0  0
 36111  1  0  0  0
 37 39  1  0  0  0
 37 47  1  0  0  0
 37 66  1  0  0  0
 37112  1  0  0  0
 38 43  2  0  0  0
 38 46  1  0  0  0
 38 47  1  0  0  0
 39 64  1  0  0  0
 39 67  2  0  0  0
 40 52  1  0  0  0
 40 53  2  0  0  0
 40 58  1  0  0  0
 41113  1  0  0  0
 41114  1  0  0  0
 41115  1  0  0  0
 41 48  1  0  0  0
 42 43  1  0  0  0
 42 66  1  0  0  0
 42116  1  0  0  0
 42117  1  0  0  0
 43 44  1  0  0  0
 44118  1  0  0  0
 45 46  2  0  0  0
 45119  1  0  0  0
 46120  1  0  0  0
 47121  1  0  0  0
 47122  1  0  0  0
 48 56  1  0  0  0
 48 65  1  0  0  0
 48123  1  0  0  0
 49 50  1  0  0  0
 49 53  1  0  0  0
 49 64  1  0  0  0
 49124  1  0  0  0
 50 51  1  0  0  0
 50125  1  0  0  0
 50126  1  0  0  0
 51 52  1  0  0  0
 51127  1  0  0  0
 51128  1  0  0  0
 52129  1  0  0  0
 52130  1  0  0  0
 53 54  1  0  0  0
 54 55  2  0  0  0
 54131  1  0  0  0
 55 57  1  0  0  0
 55132  1  0  0  0
 56 69  2  0  0  0
 57 58  2  0  0  0
 57133  1  0  0  0
 58134  1  0  0  0
 59 60  1  0  0  0
 59 61  1  0  0  0
 59 62  1  0  0  0
 60135  1  0  0  0
 60136  1  0  0  0
 60137  1  0  0  0
 61138  1  0  0  0
 61139  1  0  0  0
 61140  1  0  0  0
 62141  1  0  0  0
 62142  1  0  0  0
 62143  1  0  0  0
 63 65  1  0  0  0
 63144  1  0  0  0
 63145  1  0  0  0
 63146  1  0  0  0
 64147  1  0  0  0
 65148  1  0  0  0
 68 83  1  0  0  0
 71 72  2  0  0  0
 71 73  1  0  0  0
 71149  1  0  0  0
 72 74  1  0  0  0
 72150  1  0  0  0
 73 76  2  0  0  0
 73151  1  0  0  0
 74 75  2  0  0  0
 74 85  1  0  0  0
 75 76  1  0  0  0
 75 87  1  0  0  0
 76 89  1  0  0  0
 77 83  1  0  0  0
 77 86  1  0  0  0
 77 88  2  0  0  0
 78 79  2  0  0  0
 78152  1  0  0  0
 78153  1  0  0  0
 79 85  1  0  0  0
 79154  1  0  0  0
 80 81  1  0  0  0
 80 82  1  0  0  0
 80155  1  0  0  0
 80156  1  0  0  0
 81 83  1  0  0  0
 81157  1  0  0  0
 81158  1  0  0  0
 82 86  1  0  0  0
 82159  1  0  0  0
 82160  1  0  0  0
 83161  1  0  0  0
 84 86  1  0  0  0
 84162  1  0  0  0
 84163  1  0  0  0
 84 85  1  0  0  0
 85164  1  0  0  0
 87165  1  0  0  0
M  ISO  4   1 100  68 101  83 101  87 100
M  END
> <chiral flag>
0

> <version>
0

> <s_m_source_file>
/data/baiqing/PycharmProjects/Reinvent-master-3.2/result/LINK_invent/BTK/process_docking_weight1_custom_product_contain_oxygen_bond_distance_aromatic_linkinvent_7_9_3/rearranged_h_0047.sdf

> <i_m_source_file_index>
57

> <r_mmod_Potential_Energy-OPLS-2005>
497.527893066406

> <r_mmod_Stretch_Energy-OPLS-2005>
180.844619750977

> <r_mmod_Bend_Energy-OPLS-2005>
224.033676147461

> <r_mmod_Torsional_Energy-OPLS-2005>
386.944885253906

> <r_mmod_Improper_Torsional_Energy-OPLS-2005>
8.27690124511719

> <r_mmod_Van_der_Waal_Energy-OPLS-2005>
160.304550170898

> <r_mmod_Electrostatic_Energy-OPLS-2005>
-343.973907470703

> <r_mmod_Solvation_Energy-OPLS-2005>
-236.656036376953

> <b_mmod_Minimization_Converged-OPLS-2005>
0

> <r_mmod_RMS_Derivative-OPLS-2005>
1.13695859909058

$$$$
57
                    3D
 Structure written by MMmdl.
161169  0  0  1  0            999 V2000
  -30.6819  -14.5353   20.4743 C   0  0  0  0  0  0
  -30.4128  -12.3246   19.4332 C   0  0  0  0  0  0
  -29.4906  -12.4804   18.2073 C   0  0  0  0  0  0
  -28.0096  -12.3552   18.6192 C   0  0  0  0  0  0
  -27.6463  -13.2183   19.8583 C   0  0  2  0  0  0
  -28.6933  -13.0639   20.9822 C   0  0  0  0  0  0
  -25.2533  -13.8187   20.5708 C   0  0  0  0  0  0
  -24.1807  -13.0445   20.9212 C   0  0  0  0  0  0
  -24.6381  -11.6917   20.8758 C   0  0  0  0  0  0
  -23.9058  -10.4293   21.0409 C   0  0  0  0  0  0
  -24.3609   -9.4209   21.9180 C   0  0  0  0  0  0
  -23.6292   -8.2242   22.0746 C   0  0  0  0  0  0
  -22.4273   -8.0276   21.3539 C   0  0  0  0  0  0
  -21.9908   -9.0252   20.4643 C   0  0  0  0  0  0
  -22.7234  -10.2136   20.3058 C   0  0  0  0  0  0
  -21.6852   -6.0739   22.5281 C   0  0  0  0  0  0
  -21.4016   -6.5641   23.8217 C   0  0  0  0  0  0
  -21.3661   -5.6794   24.9179 C   0  0  0  0  0  0
  -21.6039   -4.3056   24.7223 C   0  0  0  0  0  0
  -21.8822   -3.8148   23.4342 C   0  0  0  0  0  0
  -21.9192   -4.6969   22.3401 C   0  0  0  0  0  0
  -22.7829  -13.5232   21.1854 C   0  0  0  0  0  0
  -22.1664   -4.2155   21.0979 F   0  0  0  0  0  0
  -21.5616   -3.4540   25.7737 F   0  0  0  0  0  0
  -30.0053  -13.3575   20.3987 N   0  0  0  0  0  0
  -26.2956  -12.9371   20.3329 N   0  0  0  0  0  0
  -25.9302  -11.6521   20.5744 N   0  0  0  0  0  0
  -22.0478  -12.8219   22.0409 N   0  0  0  0  0  0
  -25.4240  -15.1907   20.4124 N   0  0  0  0  0  0
  -31.8816  -14.6123   20.2139 O   0  0  0  0  0  0
  -21.6636   -6.8874   21.4239 O   0  0  0  0  0  0
  -22.3524  -14.5542   20.6700 O   0  0  0  0  0  0
  -24.6180  -31.8668   23.2074 C   0  0  0  0  0  0
  -25.9064  -32.4818   23.8386 C   0  0  1  0  0  0
  -27.2183  -27.3988   20.1116 C   0  0  0  0  0  0
  -25.5913  -33.8613   24.2324 N   0  0  0  0  0  0
  -23.4073  -30.4925   21.5465 C   0  0  2  0  0  0
  -24.8534  -28.9554   20.1112 C   0  0  0  0  0  0
  -22.7414  -29.4696   22.4959 C   0  0  0  0  0  0
  -18.0294  -28.1350   22.8485 C   0  0  0  0  0  0
  -24.1481  -36.7311   23.2640 C   0  0  0  0  0  0
  -25.9400  -30.8241   21.3639 C   0  0  0  0  0  0
  -26.0173  -29.4572   20.7096 C   0  0  0  0  0  0
  -27.2072  -28.6877   20.7011 C   0  0  0  0  0  0
  -26.0416  -26.9264   19.4921 C   0  0  0  0  0  0
  -24.8616  -27.6917   19.4976 C   0  0  0  0  0  0
  -23.6161  -29.8246   20.1625 C   0  0  0  0  0  0
  -25.4104  -36.3110   24.0341 C   0  0  1  0  0  0
  -20.5884  -28.3689   23.1295 C   0  0  2  0  0  0
  -20.6811  -26.9433   22.5365 C   0  0  0  0  0  0
  -19.5779  -26.6424   21.5172 C   0  0  0  0  0  0
  -18.1967  -26.7898   22.1612 C   0  0  0  0  0  0
  -19.1527  -28.8838   23.2889 C   0  0  0  0  0  0
  -18.9448  -30.1439   23.8921 C   0  0  0  0  0  0
  -17.6425  -30.6552   24.0602 C   0  0  0  0  0  0
  -25.9036  -34.9478   23.5135 C   0  0  0  0  0  0
  -16.5344  -29.9045   23.6350 C   0  0  0  0  0  0
  -16.7270  -28.6476   23.0333 C   0  0  0  0  0  0
  -26.4485  -31.6601   25.0717 C   0  0  0  0  0  0
  -25.3747  -31.3700   26.1456 C   0  0  0  0  0  0
  -27.0319  -30.3042   24.6109 C   0  0  0  0  0  0
  -27.6052  -32.4320   25.7493 C   0  0  0  0  0  0
  -27.5580  -37.1812   24.8471 C   0  0  0  0  0  0
  -21.4142  -29.3089   22.3733 N   0  0  0  0  0  0
  -26.4293  -37.3793   23.9416 N   0  0  0  0  0  0
  -24.6732  -31.0746   22.0980 N   0  0  0  0  0  0
  -23.4184  -28.8214   23.3003 O   0  0  0  0  0  0
  -28.3418  -26.5933   20.1399 O   0  0  0  0  0  0
  -26.5591  -34.8930   22.4688 O   0  0  0  0  0  0
  -23.5358  -32.1421   23.7459 O   0  0  0  0  0  0
  -31.0224  -17.3125   22.4892 C   0  0  0  0  0  0
  -31.8539  -18.2563   23.1131 C   0  0  0  0  0  0
  -30.5786  -20.0339   22.0711 C   0  0  0  0  0  0
  -29.9478  -17.6981   21.6549 C   0  0  0  0  0  0
  -29.6951  -19.1054   21.4690 C   0  0  0  0  0  0
  -31.6423  -19.6219   22.8887 C   0  0  0  0  0  0
  -28.5952  -22.7709   20.2072 C   0  0  0  0  0  0
  -28.7329  -24.1136   19.9948 C   0  0  0  0  0  0
  -27.8160  -22.1608   21.2943 C   0  0  0  0  0  0
  -26.9388  -20.2059   22.4470 C   0  0  0  0  0  0
  -29.1474  -16.5281   21.0425 C   0  0  0  0  0  0
  -28.5400  -19.7314   20.6590 C   0  0  0  0  0  0
  -28.1586  -25.3033   20.7844 C   0  0  0  0  0  0
  -29.9635  -15.6427   20.1892 N   0  0  0  0  0  0
  -27.7911  -20.7887   21.3983 N   0  0  0  0  0  0
  -27.1757  -22.8475   22.0973 O   0  0  0  0  0  0
  -32.6724  -20.7961   23.6212 Cl  0  0  0  0  0  0
  -31.4576  -12.4185   19.1329 H   0  0  0  0  0  0
  -30.3117  -11.3313   19.8723 H   0  0  0  0  0  0
  -29.7319  -11.7316   17.4516 H   0  0  0  0  0  0
  -29.6596  -13.4516   17.7390 H   0  0  0  0  0  0
  -27.8161  -11.3022   18.8270 H   0  0  0  0  0  0
  -27.3667  -12.6172   17.7796 H   0  0  0  0  0  0
  -27.6662  -14.2554   19.5268 H   0  0  0  0  0  0
  -28.6810  -12.0511   21.3849 H   0  0  0  0  0  0
  -28.4719  -13.7261   21.8184 H   0  0  0  0  0  0
  -25.2753   -9.5684   22.4751 H   0  0  0  0  0  0
  -24.0008   -7.4627   22.7460 H   0  0  0  0  0  0
  -21.0839   -8.8776   19.8942 H   0  0  0  0  0  0
  -22.3695  -10.9677   19.6162 H   0  0  0  0  0  0
  -21.2022   -7.6147   23.9731 H   0  0  0  0  0  0
  -21.1474   -6.0513   25.9082 H   0  0  0  0  0  0
  -22.0600   -2.7609   23.2845 H   0  0  0  0  0  0
  -22.4113  -11.9900   22.4813 H   0  0  0  0  0  0
  -21.1091  -13.1234   22.2612 H   0  0  0  0  0  0
  -24.6545  -15.8429   20.5148 H   0  0  0  0  0  0
  -26.2695  -15.6235   20.0649 H   0  0  0  0  0  0
  -26.7144  -32.5510   23.1156 H   0  0  0  0  0  0
  -25.0087  -33.9779   25.0489 H   0  0  0  0  0  0
  -22.6983  -31.3100   21.4036 H   0  0  0  0  0  0
  -23.3745  -35.9645   23.3312 H   0  0  0  0  0  0
  -24.3578  -36.8906   22.2053 H   0  0  0  0  0  0
  -23.7229  -37.6519   23.6638 H   0  0  0  0  0  0
  -26.0549  -31.5895   20.5945 H   0  0  0  0  0  0
  -26.8284  -30.8773   21.9827 H   0  0  0  0  0  0
  -28.1035  -29.0637   21.1742 H   0  0  0  0  0  0
  -26.0315  -25.9540   19.0218 H   0  0  0  0  0  0
  -23.9657  -27.3004   19.0346 H   0  0  0  0  0  0
  -23.7249  -30.5976   19.4010 H   0  0  0  0  0  0
  -22.7388  -29.2461   19.8672 H   0  0  0  0  0  0
  -25.1279  -36.1987   25.0835 H   0  0  0  0  0  0
  -20.9993  -28.3270   24.1408 H   0  0  0  0  0  0
  -20.5749  -26.2296   23.3547 H   0  0  0  0  0  0
  -21.6674  -26.7519   22.1127 H   0  0  0  0  0  0
  -19.6941  -25.6345   21.1163 H   0  0  0  0  0  0
  -19.6676  -27.3269   20.6721 H   0  0  0  0  0  0
  -17.4217  -26.6585   21.4044 H   0  0  0  0  0  0
  -18.0425  -26.0044   22.9028 H   0  0  0  0  0  0
  -19.7907  -30.7263   24.2288 H   0  0  0  0  0  0
  -17.4939  -31.6209   24.5234 H   0  0  0  0  0  0
  -15.5326  -30.2910   23.7699 H   0  0  0  0  0  0
  -15.8696  -28.0766   22.7042 H   0  0  0  0  0  0
  -24.5928  -30.7041   25.7791 H   0  0  0  0  0  0
  -24.8926  -32.2845   26.4916 H   0  0  0  0  0  0
  -25.8095  -30.8862   27.0210 H   0  0  0  0  0  0
  -26.2866  -29.6806   24.1151 H   0  0  0  0  0  0
  -27.4069  -29.7278   25.4578 H   0  0  0  0  0  0
  -27.8710  -30.4357   23.9273 H   0  0  0  0  0  0
  -27.2673  -33.3612   26.2097 H   0  0  0  0  0  0
  -28.3860  -32.6897   25.0325 H   0  0  0  0  0  0
  -28.0729  -31.8424   26.5393 H   0  0  0  0  0  0
  -28.2610  -38.0094   24.7506 H   0  0  0  0  0  0
  -28.1056  -36.2628   24.6306 H   0  0  0  0  0  0
  -27.2296  -37.1475   25.8870 H   0  0  0  0  0  0
  -20.9290  -29.8852   21.7003 H   0  0  0  0  0  0
  -26.0185  -38.2875   24.1398 H   0  0  0  0  0  0
  -31.2189  -16.2662   22.6680 H   0  0  0  0  0  0
  -32.6593  -17.9312   23.7550 H   0  0  0  0  0  0
  -30.4428  -21.0924   21.9148 H   0  0  0  0  0  0
  -29.1111  -22.1374   19.5062 H   0  0  0  0  0  0
  -29.3483  -24.4057   19.1560 H   0  0  0  0  0  0
  -26.8839  -19.1171   22.4076 H   0  0  0  0  0  0
  -25.9154  -20.5752   22.3637 H   0  0  0  0  0  0
  -27.3157  -20.4754   23.4345 H   0  0  0  0  0  0
  -28.6874  -15.9645   21.8529 H   0  0  0  0  0  0
  -28.3258  -16.8948   20.4319 H   0  0  0  0  0  0
  -27.8229  -18.9695   20.3631 H   0  0  0  0  0  0
  -28.9420  -20.0891   19.7138 H   0  0  0  0  0  0
  -28.6801  -25.3440   21.7418 H   0  0  0  0  0  0
  -27.1122  -25.1109   21.0251 H   0  0  0  0  0  0
  -30.5107  -16.2171   19.5658 H   0  0  0  0  0  0
  1 25  1  0  0  0
  1 30  2  0  0  0
  1 84  1  0  0  0
  2  3  1  0  0  0
  2 25  1  0  0  0
  2 88  1  0  0  0
  2 89  1  0  0  0
  3  4  1  0  0  0
  3 90  1  0  0  0
  3 91  1  0  0  0
  4  5  1  0  0  0
  4 92  1  0  0  0
  4 93  1  0  0  0
  5  6  1  0  0  0
  5 26  1  0  0  0
  5 94  1  0  0  0
  6 25  1  0  0  0
  6 95  1  0  0  0
  6 96  1  0  0  0
  7  8  2  0  0  0
  7 26  1  0  0  0
  7 29  1  0  0  0
  8  9  1  0  0  0
  8 22  1  0  0  0
  9 10  1  0  0  0
  9 27  2  0  0  0
 10 11  2  0  0  0
 10 15  1  0  0  0
 11 12  1  0  0  0
 11 97  1  0  0  0
 12 13  2  0  0  0
 12 98  1  0  0  0
 13 14  1  0  0  0
 13 31  1  0  0  0
 14 15  2  0  0  0
 14 99  1  0  0  0
 15100  1  0  0  0
 16 17  2  0  0  0
 16 21  1  0  0  0
 16 31  1  0  0  0
 17 18  1  0  0  0
 17101  1  0  0  0
 18 19  2  0  0  0
 18102  1  0  0  0
 19 20  1  0  0  0
 19 24  1  0  0  0
 20 21  2  0  0  0
 20103  1  0  0  0
 21 23  1  0  0  0
 22 28  1  0  0  0
 22 32  2  0  0  0
 26 27  1  0  0  0
 28104  1  0  0  0
 28105  1  0  0  0
 29106  1  0  0  0
 29107  1  0  0  0
 33 34  1  0  0  0
 33 66  1  0  0  0
 33 70  2  0  0  0
 34 36  1  0  0  0
 34 59  1  0  0  0
 34108  1  0  0  0
 35 44  2  0  0  0
 35 45  1  0  0  0
 35 68  1  0  0  0
 36 56  1  0  0  0
 36109  1  0  0  0
 37 39  1  0  0  0
 37 47  1  0  0  0
 37 66  1  0  0  0
 37110  1  0  0  0
 38 43  2  0  0  0
 38 46  1  0  0  0
 38 47  1  0  0  0
 39 64  1  0  0  0
 39 67  2  0  0  0
 40 52  1  0  0  0
 40 53  2  0  0  0
 40 58  1  0  0  0
 41111  1  0  0  0
 41112  1  0  0  0
 41113  1  0  0  0
 41 48  1  0  0  0
 42 43  1  0  0  0
 42 66  1  0  0  0
 42114  1  0  0  0
 42115  1  0  0  0
 43 44  1  0  0  0
 44116  1  0  0  0
 45 46  2  0  0  0
 45117  1  0  0  0
 46118  1  0  0  0
 47119  1  0  0  0
 47120  1  0  0  0
 48 56  1  0  0  0
 48 65  1  0  0  0
 48121  1  0  0  0
 49 50  1  0  0  0
 49 53  1  0  0  0
 49 64  1  0  0  0
 49122  1  0  0  0
 50 51  1  0  0  0
 50123  1  0  0  0
 50124  1  0  0  0
 51 52  1  0  0  0
 51125  1  0  0  0
 51126  1  0  0  0
 52127  1  0  0  0
 52128  1  0  0  0
 53 54  1  0  0  0
 54 55  2  0  0  0
 54129  1  0  0  0
 55 57  1  0  0  0
 55130  1  0  0  0
 56 69  2  0  0  0
 57 58  2  0  0  0
 57131  1  0  0  0
 58132  1  0  0  0
 59 60  1  0  0  0
 59 61  1  0  0  0
 59 62  1  0  0  0
 60133  1  0  0  0
 60134  1  0  0  0
 60135  1  0  0  0
 61136  1  0  0  0
 61137  1  0  0  0
 61138  1  0  0  0
 62139  1  0  0  0
 62140  1  0  0  0
 62141  1  0  0  0
 63 65  1  0  0  0
 63142  1  0  0  0
 63143  1  0  0  0
 63144  1  0  0  0
 64145  1  0  0  0
 65146  1  0  0  0
 68 83  1  0  0  0
 71 72  2  0  0  0
 71 74  1  0  0  0
 71147  1  0  0  0
 72 76  1  0  0  0
 72148  1  0  0  0
 73 75  1  0  0  0
 73 76  2  0  0  0
 73149  1  0  0  0
 74 75  2  0  0  0
 74 81  1  0  0  0
 75 82  1  0  0  0
 76 87  1  0  0  0
 77 78  2  0  0  0
 77 79  1  0  0  0
 77150  1  0  0  0
 78 83  1  0  0  0
 78151  1  0  0  0
 79 85  1  0  0  0
 79 86  2  0  0  0
 80 85  1  0  0  0
 80152  1  0  0  0
 80153  1  0  0  0
 80154  1  0  0  0
 81 84  1  0  0  0
 81155  1  0  0  0
 81156  1  0  0  0
 82 85  1  0  0  0
 82157  1  0  0  0
 82158  1  0  0  0
 83159  1  0  0  0
 83160  1  0  0  0
 84161  1  0  0  0
M  ISO  4   1 100  68 101  83 101  84 100
M  END
> <chiral flag>
0

> <version>
0

> <s_m_source_file>
/data/baiqing/PycharmProjects/Reinvent-master-3.2/result/LINK_invent/BTK/process_docking_weight1_custom_product_contain_oxygen_bond_distance_aromatic_linkinvent_7_9_3/rearranged_h_0047.sdf

> <i_m_source_file_index>
58

> <r_mmod_Potential_Energy-OPLS-2005>
30.2715301513672

> <r_mmod_Stretch_Energy-OPLS-2005>
52.1801414489746

> <r_mmod_Bend_Energy-OPLS-2005>
147.438095092773

> <r_mmod_Torsional_Energy-OPLS-2005>
294.784851074219

> <r_mmod_Improper_Torsional_Energy-OPLS-2005>
27.0988922119141

> <r_mmod_Van_der_Waal_Energy-OPLS-2005>
155.208648681641

> <r_mmod_Electrostatic_Energy-OPLS-2005>
-444.629547119141

> <r_mmod_Solvation_Energy-OPLS-2005>
-231.11637878418

> <b_mmod_Minimization_Converged-OPLS-2005>
0

> <r_mmod_RMS_Derivative-OPLS-2005>
2.85337281227112

$$$$
58
                    3D
 Structure written by MMmdl.
179188  0  0  1  0            999 V2000
  -30.5381  -14.6762   20.4142 C   0  0  0  0  0  0
  -30.4364  -12.3972   19.4106 C   0  0  0  0  0  0
  -29.4989  -12.4803   18.1871 C   0  0  0  0  0  0
  -28.0250  -12.3150   18.6179 C   0  0  0  0  0  0
  -27.6454  -13.1931   19.8370 C   0  0  2  0  0  0
  -28.6931  -13.0605   20.9565 C   0  0  0  0  0  0
  -25.2614  -13.8091   20.5649 C   0  0  0  0  0  0
  -24.1865  -13.0425   20.9250 C   0  0  0  0  0  0
  -24.6370  -11.6866   20.8800 C   0  0  0  0  0  0
  -23.8986  -10.4290   21.0437 C   0  0  0  0  0  0
  -24.3540   -9.4199   21.9205 C   0  0  0  0  0  0
  -23.6239   -8.2225   22.0784 C   0  0  0  0  0  0
  -22.4248   -8.0239   21.3554 C   0  0  0  0  0  0
  -21.9835   -9.0206   20.4673 C   0  0  0  0  0  0
  -22.7138  -10.2116   20.3078 C   0  0  0  0  0  0
  -21.6839   -6.0703   22.5269 C   0  0  0  0  0  0
  -21.3982   -6.5625   23.8187 C   0  0  0  0  0  0
  -21.3668   -5.6812   24.9160 C   0  0  0  0  0  0
  -21.6043   -4.3067   24.7238 C   0  0  0  0  0  0
  -21.8815   -3.8129   23.4362 C   0  0  0  0  0  0
  -21.9184   -4.6927   22.3403 C   0  0  0  0  0  0
  -22.7873  -13.5242   21.1881 C   0  0  0  0  0  0
  -22.1662   -4.2111   21.0986 F   0  0  0  0  0  0
  -21.5636   -3.4545   25.7757 F   0  0  0  0  0  0
  -29.9891  -13.4241   20.3705 N   0  0  0  0  0  0
  -26.2958  -12.9200   20.3163 N   0  0  0  0  0  0
  -25.9278  -11.6406   20.5718 N   0  0  0  0  0  0
  -22.0458  -12.8353   22.0476 N   0  0  0  0  0  0
  -25.4459  -15.1798   20.4032 N   0  0  0  0  0  0
  -31.7295  -14.8678   20.1418 O   0  0  0  0  0  0
  -21.6635   -6.8833   21.4234 O   0  0  0  0  0  0
  -22.3484  -14.5414   20.6556 O   0  0  0  0  0  0
  -24.6331  -31.8570   23.1993 C   0  0  0  0  0  0
  -25.9163  -32.4738   23.8349 C   0  0  1  0  0  0
  -27.1894  -27.2484   20.0966 C   0  0  0  0  0  0
  -25.5950  -33.8543   24.2238 N   0  0  0  0  0  0
  -23.4309  -30.4896   21.5421 C   0  0  2  0  0  0
  -24.8669  -28.9473   20.1014 C   0  0  0  0  0  0
  -22.7484  -29.4732   22.4893 C   0  0  0  0  0  0
  -18.0427  -28.1260   22.8328 C   0  0  0  0  0  0
  -24.1484  -36.7286   23.2642 C   0  0  0  0  0  0
  -25.9759  -30.7580   21.3901 C   0  0  0  0  0  0
  -26.0337  -29.3817   20.7372 C   0  0  0  0  0  0
  -27.1917  -28.5336   20.7444 C   0  0  0  0  0  0
  -26.0301  -26.9539   19.3457 C   0  0  0  0  0  0
  -24.8696  -27.7403   19.3991 C   0  0  0  0  0  0
  -23.6467  -29.8382   20.1536 C   0  0  0  0  0  0
  -25.4127  -36.3059   24.0299 C   0  0  1  0  0  0
  -20.5980  -28.3760   23.1134 C   0  0  2  0  0  0
  -20.6965  -26.9484   22.5194 C   0  0  0  0  0  0
  -19.5945  -26.6247   21.5064 C   0  0  0  0  0  0
  -18.2148  -26.7765   22.1457 C   0  0  0  0  0  0
  -19.1611  -28.8839   23.2742 C   0  0  0  0  0  0
  -18.9337  -30.1475   23.8738 C   0  0  0  0  0  0
  -17.6215  -30.6413   24.0311 C   0  0  0  0  0  0
  -25.9073  -34.9420   23.5087 C   0  0  0  0  0  0
  -16.5180  -29.8806   23.6008 C   0  0  0  0  0  0
  -16.7364  -28.6227   23.0087 C   0  0  0  0  0  0
  -26.4486  -31.6556   25.0731 C   0  0  0  0  0  0
  -25.3711  -31.3791   26.1476 C   0  0  0  0  0  0
  -27.0390  -30.2990   24.6236 C   0  0  0  0  0  0
  -27.6014  -32.4310   25.7499 C   0  0  0  0  0  0
  -27.5563  -37.1815   24.8466 C   0  0  0  0  0  0
  -21.4268  -29.2977   22.3357 N   0  0  0  0  0  0
  -26.4276  -37.3782   23.9404 N   0  0  0  0  0  0
  -24.7014  -31.0552   22.0998 N   0  0  0  0  0  0
  -23.4104  -28.8453   23.3184 O   0  0  0  0  0  0
  -28.2861  -26.3524   20.1517 O   0  0  0  0  0  0
  -26.5651  -34.8906   22.4654 O   0  0  0  0  0  0
  -23.5485  -32.1363   23.7302 O   0  0  0  0  0  0
  -25.5027  -22.3100   19.1637 C   0  0  0  0  0  0
  -27.1861  -17.3484   23.2874 C   0  0  0  0  0  0
  -28.3768  -17.2565   22.5628 C   0  0  0  0  0  0
  -26.1115  -18.0355   22.7100 C   0  0  0  0  0  0
  -28.5645  -17.9256   21.3321 C   0  0  0  0  0  0
  -27.6109  -18.9768   20.9531 C   0  0  0  0  0  0
  -26.2984  -18.7672   21.5159 C   0  0  0  0  0  0
  -26.7612  -22.5601   19.4389 C   0  0  0  0  0  0
  -22.4945  -20.4413   21.1848 C   0  0  0  0  0  0
  -23.8121  -20.2974   21.4112 C   0  0  0  0  0  0
  -24.2173  -22.4878   18.9145 C   0  0  0  0  0  0
  -27.0932  -24.0853   19.2839 C   0  0  0  0  0  0
  -28.5642  -23.9694   21.2333 C   0  0  0  0  0  0
  -28.8203  -22.4504   20.8642 C   0  0  0  0  0  0
  -28.2605  -24.8346   19.9841 C   0  0  2  0  0  0
  -23.4770  -21.8135   17.7768 C   0  0  0  0  0  0
  -23.4188  -23.4858   19.7395 C   0  0  0  0  0  0
  -29.6635  -17.2167   20.4620 C   0  0  0  0  0  0
  -27.8934  -20.2147   19.9704 C   0  0  0  0  0  0
  -23.8392  -17.7216   20.7664 N   0  0  0  0  0  0
  -29.6222  -15.6951   20.5466 N   0  0  0  0  0  0
  -27.6125  -21.6886   20.3972 N   0  3  1  0  0  0
  -25.0676  -19.4251   19.2143 O   0  0  0  0  0  0
  -24.7472  -18.9874   20.5820 S   0  0  2  0  0  0
  -31.4687  -12.5559   19.0943 H   0  0  0  0  0  0
  -30.4016  -11.3995   19.8505 H   0  0  0  0  0  0
  -29.7582  -11.7036   17.4674 H   0  0  0  0  0  0
  -29.6403  -13.4214   17.6606 H   0  0  0  0  0  0
  -27.8866  -11.2666   18.8754 H   0  0  0  0  0  0
  -27.3538  -12.5039   17.7779 H   0  0  0  0  0  0
  -27.6608  -14.2206   19.4822 H   0  0  0  0  0  0
  -28.7142  -12.0432   21.3395 H   0  0  0  0  0  0
  -28.4431  -13.6903   21.8118 H   0  0  0  0  0  0
  -25.2638   -9.5729   22.4825 H   0  0  0  0  0  0
  -23.9917   -7.4662   22.7552 H   0  0  0  0  0  0
  -21.0726   -8.8666   19.9053 H   0  0  0  0  0  0
  -22.3457  -10.9638   19.6224 H   0  0  0  0  0  0
  -21.1940   -7.6126   23.9649 H   0  0  0  0  0  0
  -21.1529   -6.0559   25.9059 H   0  0  0  0  0  0
  -22.0593   -2.7583   23.2862 H   0  0  0  0  0  0
  -22.3877  -11.9970   22.5023 H   0  0  0  0  0  0
  -21.1085  -13.1505   22.2514 H   0  0  0  0  0  0
  -24.7145  -15.8693   20.6010 H   0  0  0  0  0  0
  -26.2515  -15.5942   19.9601 H   0  0  0  0  0  0
  -26.7168  -32.5336   23.1041 H   0  0  0  0  0  0
  -25.0022  -33.9679   25.0319 H   0  0  0  0  0  0
  -22.7385  -31.3193   21.3908 H   0  0  0  0  0  0
  -23.3732  -35.9626   23.3308 H   0  0  0  0  0  0
  -24.3551  -36.8921   22.2050 H   0  0  0  0  0  0
  -23.7231  -37.6488   23.6664 H   0  0  0  0  0  0
  -26.1334  -31.5202   20.6241 H   0  0  0  0  0  0
  -26.8546  -30.7937   22.0188 H   0  0  0  0  0  0
  -28.0790  -28.8492   21.2743 H   0  0  0  0  0  0
  -25.9756  -26.1483   18.6344 H   0  0  0  0  0  0
  -24.0019  -27.4376   18.8317 H   0  0  0  0  0  0
  -23.7633  -30.6144   19.3949 H   0  0  0  0  0  0
  -22.7700  -29.2638   19.8523 H   0  0  0  0  0  0
  -25.1309  -36.1889   25.0777 H   0  0  0  0  0  0
  -21.0058  -28.3461   24.1288 H   0  0  0  0  0  0
  -20.6396  -26.2193   23.3283 H   0  0  0  0  0  0
  -21.6735  -26.7930   22.0585 H   0  0  0  0  0  0
  -19.7218  -25.6123   21.1212 H   0  0  0  0  0  0
  -19.6946  -27.2894   20.6501 H   0  0  0  0  0  0
  -17.4468  -26.6377   21.3835 H   0  0  0  0  0  0
  -18.0741  -25.9840   22.8878 H   0  0  0  0  0  0
  -19.7760  -30.7441   24.2040 H   0  0  0  0  0  0
  -17.4500  -31.6003   24.5006 H   0  0  0  0  0  0
  -15.4996  -30.2436   23.7208 H   0  0  0  0  0  0
  -15.9005  -28.0217   22.6720 H   0  0  0  0  0  0
  -24.5849  -30.7146   25.7913 H   0  0  0  0  0  0
  -24.8937  -32.2995   26.4832 H   0  0  0  0  0  0
  -25.8011  -30.9062   27.0314 H   0  0  0  0  0  0
  -26.3050  -29.6685   24.1217 H   0  0  0  0  0  0
  -27.4101  -29.7277   25.4757 H   0  0  0  0  0  0
  -27.8877  -30.4336   23.9535 H   0  0  0  0  0  0
  -27.2607  -33.3623   26.2053 H   0  0  0  0  0  0
  -28.3840  -32.6842   25.0335 H   0  0  0  0  0  0
  -28.0632  -31.8439   26.5442 H   0  0  0  0  0  0
  -28.2608  -38.0104   24.7524 H   0  0  0  0  0  0
  -28.1046  -36.2629   24.6285 H   0  0  0  0  0  0
  -27.2303  -37.1482   25.8889 H   0  0  0  0  0  0
  -20.9666  -29.8039   21.5870 H   0  0  0  0  0  0
  -26.0139  -38.2841   24.1460 H   0  0  0  0  0  0
  -27.0577  -16.7501   24.1782 H   0  0  0  0  0  0
  -29.1143  -16.5508   22.9223 H   0  0  0  0  0  0
  -25.1170  -17.9455   23.1408 H   0  0  0  0  0  0
  -21.9102  -21.2066   21.6769 H   0  0  0  0  0  0
  -21.9726  -19.7975   20.4905 H   0  0  0  0  0  0
  -24.3673  -20.9280   22.0879 H   0  0  0  0  0  0
  -26.2178  -24.5154   19.7571 H   0  0  0  0  0  0
  -27.0789  -24.3477   18.2202 H   0  0  0  0  0  0
  -29.4446  -24.3768   21.7292 H   0  0  0  0  0  0
  -27.7500  -24.0496   21.9581 H   0  0  0  0  0  0
  -29.2561  -21.9174   21.7114 H   0  0  0  0  0  0
  -29.5599  -22.4116   20.0706 H   0  0  0  0  0  0
  -29.1023  -24.6739   19.3098 H   0  0  0  0  0  0
  -24.0623  -21.0105   17.3331 H   0  0  0  0  0  0
  -23.2505  -22.5342   16.9910 H   0  0  0  0  0  0
  -22.5394  -21.3859   18.1376 H   0  0  0  0  0  0
  -23.9981  -23.8964   20.5699 H   0  0  0  0  0  0
  -22.5111  -23.0453   20.1510 H   0  0  0  0  0  0
  -23.1131  -24.3253   19.1113 H   0  0  0  0  0  0
  -29.5238  -17.5264   19.4252 H   0  0  0  0  0  0
  -30.6460  -17.5618   20.7935 H   0  0  0  0  0  0
  -27.4145  -20.0361   19.0076 H   0  0  0  0  0  0
  -28.9515  -20.1495   19.7357 H   0  0  0  0  0  0
  -22.9370  -17.8210   20.2842 H   0  0  0  0  0  0
  -28.6899  -15.3348   20.6871 H   0  0  0  0  0  0
  -27.0778  -21.5845   21.2402 H   0  0  0  0  0  0
  1 25  1  0  0  0
  1 30  2  0  0  0
  1 91  1  0  0  0
  2  3  1  0  0  0
  2 25  1  0  0  0
  2 95  1  0  0  0
  2 96  1  0  0  0
  3  4  1  0  0  0
  3 97  1  0  0  0
  3 98  1  0  0  0
  4  5  1  0  0  0
  4 99  1  0  0  0
  4100  1  0  0  0
  5  6  1  0  0  0
  5 26  1  0  0  0
  5101  1  0  0  0
  6 25  1  0  0  0
  6102  1  0  0  0
  6103  1  0  0  0
  7  8  2  0  0  0
  7 26  1  0  0  0
  7 29  1  0  0  0
  8  9  1  0  0  0
  8 22  1  0  0  0
  9 10  1  0  0  0
  9 27  2  0  0  0
 10 11  2  0  0  0
 10 15  1  0  0  0
 11 12  1  0  0  0
 11104  1  0  0  0
 12 13  2  0  0  0
 12105  1  0  0  0
 13 14  1  0  0  0
 13 31  1  0  0  0
 14 15  2  0  0  0
 14106  1  0  0  0
 15107  1  0  0  0
 16 17  2  0  0  0
 16 21  1  0  0  0
 16 31  1  0  0  0
 17 18  1  0  0  0
 17108  1  0  0  0
 18 19  2  0  0  0
 18109  1  0  0  0
 19 20  1  0  0  0
 19 24  1  0  0  0
 20 21  2  0  0  0
 20110  1  0  0  0
 21 23  1  0  0  0
 22 28  1  0  0  0
 22 32  2  0  0  0
 26 27  1  0  0  0
 28111  1  0  0  0
 28112  1  0  0  0
 29113  1  0  0  0
 29114  1  0  0  0
 33 34  1  0  0  0
 33 66  1  0  0  0
 33 70  2  0  0  0
 34 36  1  0  0  0
 34 59  1  0  0  0
 34115  1  0  0  0
 35 44  2  0  0  0
 35 45  1  0  0  0
 35 68  1  0  0  0
 36 56  1  0  0  0
 36116  1  0  0  0
 37 39  1  0  0  0
 37 47  1  0  0  0
 37 66  1  0  0  0
 37117  1  0  0  0
 38 43  2  0  0  0
 38 46  1  0  0  0
 38 47  1  0  0  0
 39 64  1  0  0  0
 39 67  2  0  0  0
 40 52  1  0  0  0
 40 53  2  0  0  0
 40 58  1  0  0  0
 41118  1  0  0  0
 41119  1  0  0  0
 41120  1  0  0  0
 41 48  1  0  0  0
 42 43  1  0  0  0
 42 66  1  0  0  0
 42121  1  0  0  0
 42122  1  0  0  0
 43 44  1  0  0  0
 44123  1  0  0  0
 45 46  2  0  0  0
 45124  1  0  0  0
 46125  1  0  0  0
 47126  1  0  0  0
 47127  1  0  0  0
 48 56  1  0  0  0
 48 65  1  0  0  0
 48128  1  0  0  0
 49 50  1  0  0  0
 49 53  1  0  0  0
 49 64  1  0  0  0
 49129  1  0  0  0
 50 51  1  0  0  0
 50130  1  0  0  0
 50131  1  0  0  0
 51 52  1  0  0  0
 51132  1  0  0  0
 51133  1  0  0  0
 52134  1  0  0  0
 52135  1  0  0  0
 53 54  1  0  0  0
 54 55  2  0  0  0
 54136  1  0  0  0
 55 57  1  0  0  0
 55137  1  0  0  0
 56 69  2  0  0  0
 57 58  2  0  0  0
 57138  1  0  0  0
 58139  1  0  0  0
 59 60  1  0  0  0
 59 61  1  0  0  0
 59 62  1  0  0  0
 60140  1  0  0  0
 60141  1  0  0  0
 60142  1  0  0  0
 61143  1  0  0  0
 61144  1  0  0  0
 61145  1  0  0  0
 62146  1  0  0  0
 62147  1  0  0  0
 62148  1  0  0  0
 63 65  1  0  0  0
 63149  1  0  0  0
 63150  1  0  0  0
 63151  1  0  0  0
 64152  1  0  0  0
 65153  1  0  0  0
 68 85  1  0  0  0
 71 78  2  0  0  0
 71 81  2  0  0  0
 72 73  2  0  0  0
 72 74  1  0  0  0
 72154  1  0  0  0
 73 75  1  0  0  0
 73155  1  0  0  0
 74 77  2  0  0  0
 74156  1  0  0  0
 75 76  2  0  0  0
 75 88  1  0  0  0
 76 77  1  0  0  0
 76 89  1  0  0  0
 77 94  1  0  0  0
 78 82  1  0  0  0
 78 92  1  0  0  0
 79 80  2  0  0  0
 79157  1  0  0  0
 79158  1  0  0  0
 80159  1  0  0  0
 80 94  1  0  0  0
 81 86  1  0  0  0
 81 87  1  0  0  0
 82 85  1  0  0  0
 82160  1  0  0  0
 82161  1  0  0  0
 83 84  1  0  0  0
 83 85  1  0  0  0
 83162  1  0  0  0
 83163  1  0  0  0
 84 92  1  0  0  0
 84164  1  0  0  0
 84165  1  0  0  0
 85166  1  0  0  0
 86167  1  0  0  0
 86168  1  0  0  0
 86169  1  0  0  0
 87170  1  0  0  0
 87171  1  0  0  0
 87172  1  0  0  0
 88 91  1  0  0  0
 88173  1  0  0  0
 88174  1  0  0  0
 89175  1  0  0  0
 89176  1  0  0  0
 89 92  1  0  0  0
 90 94  2  0  0  0
 90177  1  0  0  0
 91178  1  0  0  0
 92179  1  0  0  0
 93 94  2  0  0  0
M  CHG  1  92   1
M  ISO  4   1 100  68 101  85 101  91 100
M  END
> <chiral flag>
0

> <version>
0

> <s_m_source_file>
/data/baiqing/PycharmProjects/Reinvent-master-3.2/result/LINK_invent/BTK/process_docking_weight1_custom_product_contain_oxygen_bond_distance_aromatic_linkinvent_7_9_3/rearranged_h_0047.sdf

> <i_m_source_file_index>
59

> <r_mmod_Potential_Energy-OPLS-2005>
21.293420791626

> <r_mmod_Stretch_Energy-OPLS-2005>
134.806137084961

> <r_mmod_Bend_Energy-OPLS-2005>
279.242126464844

> <r_mmod_Torsional_Energy-OPLS-2005>
255.887954711914

> <r_mmod_Improper_Torsional_Energy-OPLS-2005>
12.9062767028809

> <r_mmod_Van_der_Waal_Energy-OPLS-2005>
143.175033569336

> <r_mmod_Electrostatic_Energy-OPLS-2005>
-419.958801269531

> <r_mmod_Solvation_Energy-OPLS-2005>
-469.806121826172

> <b_mmod_Minimization_Converged-OPLS-2005>
0

> <r_mmod_RMS_Derivative-OPLS-2005>
12.5005550384521

$$$$
59
                    3D
 Structure written by MMmdl.
157165  0  0  1  0            999 V2000
  -30.7215  -14.4902   20.6538 C   0  0  0  0  0  0
  -30.4302  -12.3486   19.4228 C   0  0  0  0  0  0
  -29.4935  -12.5408   18.2077 C   0  0  0  0  0  0
  -28.0128  -12.3957   18.6196 C   0  0  0  0  0  0
  -27.6609  -13.2226   19.8837 C   0  0  2  0  0  0
  -28.7030  -12.9917   21.0017 C   0  0  0  0  0  0
  -25.2552  -13.8205   20.5719 C   0  0  0  0  0  0
  -24.1803  -13.0473   20.9171 C   0  0  0  0  0  0
  -24.6364  -11.6926   20.8674 C   0  0  0  0  0  0
  -23.9020  -10.4322   21.0374 C   0  0  0  0  0  0
  -24.3582   -9.4246   21.9147 C   0  0  0  0  0  0
  -23.6267   -8.2284   22.0730 C   0  0  0  0  0  0
  -22.4246   -8.0301   21.3535 C   0  0  0  0  0  0
  -21.9869   -9.0259   20.4627 C   0  0  0  0  0  0
  -22.7175  -10.2157   20.3034 C   0  0  0  0  0  0
  -21.6878   -6.0712   22.5267 C   0  0  0  0  0  0
  -21.4031   -6.5601   23.8203 C   0  0  0  0  0  0
  -21.3670   -5.6732   24.9143 C   0  0  0  0  0  0
  -21.6072   -4.3003   24.7194 C   0  0  0  0  0  0
  -21.8820   -3.8113   23.4307 C   0  0  0  0  0  0
  -21.9204   -4.6940   22.3371 C   0  0  0  0  0  0
  -22.7816  -13.5303   21.1805 C   0  0  0  0  0  0
  -22.1673   -4.2149   21.0948 F   0  0  0  0  0  0
  -21.5648   -3.4485   25.7707 F   0  0  0  0  0  0
  -30.0366  -13.3185   20.4639 N   0  0  0  0  0  0
  -26.3016  -12.9410   20.3409 N   0  0  0  0  0  0
  -25.9295  -11.6543   20.5678 N   0  0  0  0  0  0
  -22.0375  -12.8350   22.0369 N   0  0  0  0  0  0
  -25.4252  -15.1930   20.4210 N   0  0  0  0  0  0
  -31.8107  -14.7094   20.1153 O   0  0  0  0  0  0
  -21.6639   -6.8876   21.4240 O   0  0  0  0  0  0
  -22.3521  -14.5576   20.6559 O   0  0  0  0  0  0
  -24.6148  -31.8700   23.2131 C   0  0  0  0  0  0
  -25.9042  -32.4839   23.8414 C   0  0  1  0  0  0
  -27.2280  -27.4022   20.1140 C   0  0  0  0  0  0
  -25.5901  -33.8645   24.2357 N   0  0  0  0  0  0
  -23.4034  -30.4928   21.5533 C   0  0  2  0  0  0
  -24.8509  -28.9643   20.1114 C   0  0  0  0  0  0
  -22.7444  -29.4657   22.4991 C   0  0  0  0  0  0
  -18.0288  -28.1382   22.8518 C   0  0  0  0  0  0
  -24.1473  -36.7319   23.2640 C   0  0  0  0  0  0
  -25.9362  -30.8247   21.3718 C   0  0  0  0  0  0
  -26.0141  -29.4581   20.7179 C   0  0  0  0  0  0
  -27.2037  -28.6851   20.7187 C   0  0  0  0  0  0
  -26.0524  -26.9571   19.4628 C   0  0  0  0  0  0
  -24.8727  -27.7149   19.4728 C   0  0  0  0  0  0
  -23.6139  -29.8315   20.1660 C   0  0  0  0  0  0
  -25.4101  -36.3135   24.0359 C   0  0  1  0  0  0
  -20.5865  -28.3678   23.1334 C   0  0  2  0  0  0
  -20.6762  -26.9401   22.5440 C   0  0  0  0  0  0
  -19.5730  -26.6381   21.5232 C   0  0  0  0  0  0
  -18.1934  -26.7920   22.1658 C   0  0  0  0  0  0
  -19.1537  -28.8854   23.2924 C   0  0  0  0  0  0
  -18.9472  -30.1456   23.8917 C   0  0  0  0  0  0
  -17.6476  -30.6594   24.0600 C   0  0  0  0  0  0
  -25.9033  -34.9490   23.5155 C   0  0  0  0  0  0
  -16.5355  -29.9096   23.6315 C   0  0  0  0  0  0
  -16.7293  -28.6523   23.0348 C   0  0  0  0  0  0
  -26.4450  -31.6619   25.0726 C   0  0  0  0  0  0
  -25.3731  -31.3727   26.1482 C   0  0  0  0  0  0
  -27.0276  -30.3075   24.6056 C   0  0  0  0  0  0
  -27.6035  -32.4328   25.7496 C   0  0  0  0  0  0
  -27.5588  -37.1817   24.8469 C   0  0  0  0  0  0
  -21.4166  -29.3059   22.3775 N   0  0  0  0  0  0
  -26.4296  -37.3820   23.9422 N   0  0  0  0  0  0
  -24.6698  -31.0763   22.1037 N   0  0  0  0  0  0
  -23.4211  -28.8205   23.3041 O   0  0  0  0  0  0
  -28.3568  -26.5925   20.1711 O   0  0  0  0  0  0
  -26.5561  -34.8930   22.4674 O   0  0  0  0  0  0
  -23.5340  -32.1448   23.7518 O   0  0  0  0  0  0
  -31.9485  -18.3056   22.9645 C   0  0  0  0  0  0
  -31.5993  -16.9937   22.5884 C   0  0  0  0  0  0
  -29.8202  -17.8924   21.2076 C   0  0  0  0  0  0
  -30.1395  -19.2343   21.5832 C   0  0  0  0  0  0
  -31.2327  -19.4286   22.4838 C   0  0  0  0  0  0
  -30.5349  -16.7663   21.6920 C   0  0  0  0  0  0
  -29.2020  -20.3493   21.1209 C   0  0  0  0  0  0
  -31.6640  -20.8015   22.9915 C   0  0  0  0  0  0
  -29.2650  -24.1995   20.6183 C   0  0  0  0  0  0
  -28.7143  -22.7345   20.6154 C   0  0  0  0  0  0
  -28.0831  -25.2206   20.5761 C   0  0  0  0  0  0
  -30.0954  -15.4322   21.3985 N   0  0  0  0  0  0
  -29.6343  -21.6274   20.9647 N   0  0  0  0  0  0
  -28.0282  -20.0554   20.8673 O   0  0  0  0  0  0
  -31.4730  -12.4662   19.1208 H   0  0  0  0  0  0
  -30.3539  -11.3307   19.8139 H   0  0  0  0  0  0
  -29.7279  -11.8259   17.4185 H   0  0  0  0  0  0
  -29.6582  -13.5307   17.7771 H   0  0  0  0  0  0
  -27.8150  -11.3382   18.7903 H   0  0  0  0  0  0
  -27.3669  -12.6849   17.7885 H   0  0  0  0  0  0
  -27.7082  -14.2712   19.5939 H   0  0  0  0  0  0
  -28.6875  -11.9460   21.3173 H   0  0  0  0  0  0
  -28.4496  -13.5657   21.8954 H   0  0  0  0  0  0
  -25.2708   -9.5772   22.4692 H   0  0  0  0  0  0
  -23.9998   -7.4698   22.7429 H   0  0  0  0  0  0
  -21.0813   -8.8720   19.8934 H   0  0  0  0  0  0
  -22.3575  -10.9654   19.6132 H   0  0  0  0  0  0
  -21.2013   -7.6099   23.9713 H   0  0  0  0  0  0
  -21.1502   -6.0444   25.9062 H   0  0  0  0  0  0
  -22.0594   -2.7576   23.2767 H   0  0  0  0  0  0
  -22.3925  -12.0083   22.4912 H   0  0  0  0  0  0
  -21.0982  -13.1419   22.2434 H   0  0  0  0  0  0
  -24.6567  -15.8447   20.5404 H   0  0  0  0  0  0
  -26.2887  -15.6389   20.1317 H   0  0  0  0  0  0
  -26.7117  -32.5544   23.1186 H   0  0  0  0  0  0
  -25.0144  -33.9852   25.0550 H   0  0  0  0  0  0
  -22.6891  -31.3077   21.4183 H   0  0  0  0  0  0
  -23.3749  -35.9634   23.3303 H   0  0  0  0  0  0
  -24.3556  -36.8904   22.2050 H   0  0  0  0  0  0
  -23.7206  -37.6516   23.6616 H   0  0  0  0  0  0
  -26.0394  -31.5874   20.5981 H   0  0  0  0  0  0
  -26.8276  -30.8829   21.9821 H   0  0  0  0  0  0
  -28.0914  -29.0556   21.2100 H   0  0  0  0  0  0
  -26.0330  -26.0205   18.9244 H   0  0  0  0  0  0
  -23.9902  -27.3393   18.9760 H   0  0  0  0  0  0
  -23.7259  -30.6077   19.4083 H   0  0  0  0  0  0
  -22.7356  -29.2534   19.8676 H   0  0  0  0  0  0
  -25.1278  -36.2016   25.0860 H   0  0  0  0  0  0
  -20.9998  -28.3207   24.1451 H   0  0  0  0  0  0
  -20.5641  -26.2275   23.3626 H   0  0  0  0  0  0
  -21.6632  -26.7417   22.1232 H   0  0  0  0  0  0
  -19.6877  -25.6307   21.1239 H   0  0  0  0  0  0
  -19.6657  -27.3201   20.6746 H   0  0  0  0  0  0
  -17.4193  -26.6718   21.4075 H   0  0  0  0  0  0
  -18.0319  -26.0046   22.9033 H   0  0  0  0  0  0
  -19.7958  -30.7276   24.2258 H   0  0  0  0  0  0
  -17.5042  -31.6264   24.5228 H   0  0  0  0  0  0
  -15.5363  -30.3023   23.7647 H   0  0  0  0  0  0
  -15.8674  -28.0885   22.6999 H   0  0  0  0  0  0
  -24.5908  -30.7063   25.7848 H   0  0  0  0  0  0
  -24.8928  -32.2890   26.4939 H   0  0  0  0  0  0
  -25.8125  -30.8919   27.0247 H   0  0  0  0  0  0
  -26.2815  -29.6863   24.1095 H   0  0  0  0  0  0
  -27.4049  -29.7270   25.4494 H   0  0  0  0  0  0
  -27.8651  -30.4422   23.9203 H   0  0  0  0  0  0
  -27.2653  -33.3632   26.2078 H   0  0  0  0  0  0
  -28.3835  -32.6889   25.0316 H   0  0  0  0  0  0
  -28.0669  -31.8436   26.5403 H   0  0  0  0  0  0
  -28.2631  -38.0105   24.7523 H   0  0  0  0  0  0
  -28.1072  -36.2628   24.6287 H   0  0  0  0  0  0
  -27.2300  -37.1465   25.8878 H   0  0  0  0  0  0
  -20.9248  -29.8821   21.7082 H   0  0  0  0  0  0
  -26.0187  -38.2905   24.1396 H   0  0  0  0  0  0
  -32.7611  -18.4432   23.6681 H   0  0  0  0  0  0
  -32.1359  -16.1637   23.0258 H   0  0  0  0  0  0
  -28.9759  -17.7188   20.5506 H   0  0  0  0  0  0
  -32.3956  -20.7345   23.8007 H   0  0  0  0  0  0
  -30.8165  -21.3595   23.3930 H   0  0  0  0  0  0
  -32.1209  -21.3829   22.1892 H   0  0  0  0  0  0
  -29.9107  -24.3462   19.7508 H   0  0  0  0  0  0
  -29.8786  -24.3838   21.5045 H   0  0  0  0  0  0
  -28.2915  -22.5242   19.6321 H   0  0  0  0  0  0
  -27.8746  -22.6916   21.3126 H   0  0  0  0  0  0
  -27.6347  -25.2581   21.5729 H   0  0  0  0  0  0
  -27.3267  -24.7725   19.9363 H   0  0  0  0  0  0
  -29.1799  -15.1741   21.7399 H   0  0  0  0  0  0
  -30.6069  -21.8359   21.1457 H   0  0  0  0  0  0
  1 25  1  0  0  0
  1 30  2  0  0  0
  1 82  1  0  0  0
  2  3  1  0  0  0
  2 25  1  0  0  0
  2 85  1  0  0  0
  2 86  1  0  0  0
  3  4  1  0  0  0
  3 87  1  0  0  0
  3 88  1  0  0  0
  4  5  1  0  0  0
  4 89  1  0  0  0
  4 90  1  0  0  0
  5  6  1  0  0  0
  5 26  1  0  0  0
  5 91  1  0  0  0
  6 25  1  0  0  0
  6 92  1  0  0  0
  6 93  1  0  0  0
  7  8  2  0  0  0
  7 26  1  0  0  0
  7 29  1  0  0  0
  8  9  1  0  0  0
  8 22  1  0  0  0
  9 10  1  0  0  0
  9 27  2  0  0  0
 10 11  2  0  0  0
 10 15  1  0  0  0
 11 12  1  0  0  0
 11 94  1  0  0  0
 12 13  2  0  0  0
 12 95  1  0  0  0
 13 14  1  0  0  0
 13 31  1  0  0  0
 14 15  2  0  0  0
 14 96  1  0  0  0
 15 97  1  0  0  0
 16 17  2  0  0  0
 16 21  1  0  0  0
 16 31  1  0  0  0
 17 18  1  0  0  0
 17 98  1  0  0  0
 18 19  2  0  0  0
 18 99  1  0  0  0
 19 20  1  0  0  0
 19 24  1  0  0  0
 20 21  2  0  0  0
 20100  1  0  0  0
 21 23  1  0  0  0
 22 28  1  0  0  0
 22 32  2  0  0  0
 26 27  1  0  0  0
 28101  1  0  0  0
 28102  1  0  0  0
 29103  1  0  0  0
 29104  1  0  0  0
 33 34  1  0  0  0
 33 66  1  0  0  0
 33 70  2  0  0  0
 34 36  1  0  0  0
 34 59  1  0  0  0
 34105  1  0  0  0
 35 44  2  0  0  0
 35 45  1  0  0  0
 35 68  1  0  0  0
 36 56  1  0  0  0
 36106  1  0  0  0
 37 39  1  0  0  0
 37 47  1  0  0  0
 37 66  1  0  0  0
 37107  1  0  0  0
 38 43  2  0  0  0
 38 46  1  0  0  0
 38 47  1  0  0  0
 39 64  1  0  0  0
 39 67  2  0  0  0
 40 52  1  0  0  0
 40 53  2  0  0  0
 40 58  1  0  0  0
 41108  1  0  0  0
 41109  1  0  0  0
 41110  1  0  0  0
 41 48  1  0  0  0
 42 43  1  0  0  0
 42 66  1  0  0  0
 42111  1  0  0  0
 42112  1  0  0  0
 43 44  1  0  0  0
 44113  1  0  0  0
 45 46  2  0  0  0
 45114  1  0  0  0
 46115  1  0  0  0
 47116  1  0  0  0
 47117  1  0  0  0
 48 56  1  0  0  0
 48 65  1  0  0  0
 48118  1  0  0  0
 49 50  1  0  0  0
 49 53  1  0  0  0
 49 64  1  0  0  0
 49119  1  0  0  0
 50 51  1  0  0  0
 50120  1  0  0  0
 50121  1  0  0  0
 51 52  1  0  0  0
 51122  1  0  0  0
 51123  1  0  0  0
 52124  1  0  0  0
 52125  1  0  0  0
 53 54  1  0  0  0
 54 55  2  0  0  0
 54126  1  0  0  0
 55 57  1  0  0  0
 55127  1  0  0  0
 56 69  2  0  0  0
 57 58  2  0  0  0
 57128  1  0  0  0
 58129  1  0  0  0
 59 60  1  0  0  0
 59 61  1  0  0  0
 59 62  1  0  0  0
 60130  1  0  0  0
 60131  1  0  0  0
 60132  1  0  0  0
 61133  1  0  0  0
 61134  1  0  0  0
 61135  1  0  0  0
 62136  1  0  0  0
 62137  1  0  0  0
 62138  1  0  0  0
 63 65  1  0  0  0
 63139  1  0  0  0
 63140  1  0  0  0
 63141  1  0  0  0
 64142  1  0  0  0
 65143  1  0  0  0
 68 81  1  0  0  0
 71 72  2  0  0  0
 71 75  1  0  0  0
 71144  1  0  0  0
 72 76  1  0  0  0
 72145  1  0  0  0
 73 74  1  0  0  0
 73 76  2  0  0  0
 73146  1  0  0  0
 74 75  2  0  0  0
 74 77  1  0  0  0
 75 78  1  0  0  0
 76 82  1  0  0  0
 77 83  1  0  0  0
 77 84  2  0  0  0
 78147  1  0  0  0
 78148  1  0  0  0
 78149  1  0  0  0
 79 80  1  0  0  0
 79 81  1  0  0  0
 79150  1  0  0  0
 79151  1  0  0  0
 80 83  1  0  0  0
 80152  1  0  0  0
 80153  1  0  0  0
 81154  1  0  0  0
 81155  1  0  0  0
 82156  1  0  0  0
 83157  1  0  0  0
M  ISO  4   1 100  68 101  81 101  82 100
M  END
> <chiral flag>
0

> <version>
0

> <s_m_source_file>
/data/baiqing/PycharmProjects/Reinvent-master-3.2/result/LINK_invent/BTK/process_docking_weight1_custom_product_contain_oxygen_bond_distance_aromatic_linkinvent_7_9_3/rearranged_h_0047.sdf

> <i_m_source_file_index>
60

> <r_mmod_Potential_Energy-OPLS-2005>
-41.2665481567383

> <r_mmod_Stretch_Energy-OPLS-2005>
51.6355667114258

> <r_mmod_Bend_Energy-OPLS-2005>
112.97119140625

> <r_mmod_Torsional_Energy-OPLS-2005>
253.194671630859

> <r_mmod_Improper_Torsional_Energy-OPLS-2005>
3.22162890434265

> <r_mmod_Van_der_Waal_Energy-OPLS-2005>
160.599075317383

> <r_mmod_Electrostatic_Energy-OPLS-2005>
-412.870422363281

> <r_mmod_Solvation_Energy-OPLS-2005>
-228.604461669922

> <b_mmod_Minimization_Converged-OPLS-2005>
0

> <r_mmod_RMS_Derivative-OPLS-2005>
6.44988965988159

$$$$
60
                    3D
 Structure written by MMmdl.
156164  0  0  1  0            999 V2000
  -30.6216  -14.6361   20.4998 C   0  0  0  0  0  0
  -30.4399  -12.3882   19.4525 C   0  0  0  0  0  0
  -29.5092  -12.5049   18.2241 C   0  0  0  0  0  0
  -28.0317  -12.3431   18.6352 C   0  0  0  0  0  0
  -27.6547  -13.2135   19.8632 C   0  0  2  0  0  0
  -28.6992  -13.0650   20.9932 C   0  0  0  0  0  0
  -25.2576  -13.8164   20.5678 C   0  0  0  0  0  0
  -24.1840  -13.0436   20.9188 C   0  0  0  0  0  0
  -24.6401  -11.6904   20.8737 C   0  0  0  0  0  0
  -23.9067  -10.4291   21.0408 C   0  0  0  0  0  0
  -24.3619   -9.4207   21.9185 C   0  0  0  0  0  0
  -23.6294   -8.2243   22.0756 C   0  0  0  0  0  0
  -22.4274   -8.0283   21.3547 C   0  0  0  0  0  0
  -21.9912   -9.0256   20.4647 C   0  0  0  0  0  0
  -22.7241  -10.2134   20.3057 C   0  0  0  0  0  0
  -21.6853   -6.0739   22.5281 C   0  0  0  0  0  0
  -21.4014   -6.5643   23.8214 C   0  0  0  0  0  0
  -21.3657   -5.6795   24.9176 C   0  0  0  0  0  0
  -21.6043   -4.3058   24.7226 C   0  0  0  0  0  0
  -21.8820   -3.8150   23.4346 C   0  0  0  0  0  0
  -21.9192   -4.6967   22.3403 C   0  0  0  0  0  0
  -22.7860  -13.5235   21.1845 C   0  0  0  0  0  0
  -22.1662   -4.2154   21.0981 F   0  0  0  0  0  0
  -21.5626   -3.4541   25.7737 F   0  0  0  0  0  0
  -30.0164  -13.4077   20.4328 N   0  0  0  0  0  0
  -26.2998  -12.9337   20.3310 N   0  0  0  0  0  0
  -25.9329  -11.6496   20.5752 N   0  0  0  0  0  0
  -22.0497  -12.8231   22.0400 N   0  0  0  0  0  0
  -25.4289  -15.1884   20.4080 N   0  0  0  0  0  0
  -31.7800  -14.8009   20.1049 O   0  0  0  0  0  0
  -21.6637   -6.8881   21.4242 O   0  0  0  0  0  0
  -22.3551  -14.5542   20.6690 O   0  0  0  0  0  0
  -24.6257  -31.8606   23.2027 C   0  0  0  0  0  0
  -25.9108  -32.4780   23.8352 C   0  0  1  0  0  0
  -27.2254  -27.3268   20.1135 C   0  0  0  0  0  0
  -25.5932  -33.8580   24.2281 N   0  0  0  0  0  0
  -23.4185  -30.4850   21.5454 C   0  0  2  0  0  0
  -24.8646  -28.9410   20.1112 C   0  0  0  0  0  0
  -22.7468  -29.4632   22.4935 C   0  0  0  0  0  0
  -18.0285  -28.1383   22.8479 C   0  0  0  0  0  0
  -24.1495  -36.7293   23.2640 C   0  0  0  0  0  0
  -25.9596  -30.7938   21.3723 C   0  0  0  0  0  0
  -26.0337  -29.4222   20.7135 C   0  0  0  0  0  0
  -27.2174  -28.6274   20.7034 C   0  0  0  0  0  0
  -26.0309  -26.8950   19.4913 C   0  0  0  0  0  0
  -24.8648  -27.6823   19.4920 C   0  0  0  0  0  0
  -23.6326  -29.8207   20.1602 C   0  0  0  0  0  0
  -25.4118  -36.3082   24.0333 C   0  0  1  0  0  0
  -20.5885  -28.3685   23.1285 C   0  0  2  0  0  0
  -20.6779  -26.9410   22.5410 C   0  0  0  0  0  0
  -19.5755  -26.6382   21.5209 C   0  0  0  0  0  0
  -18.1931  -26.7925   22.1618 C   0  0  0  0  0  0
  -19.1538  -28.8849   23.2876 C   0  0  0  0  0  0
  -18.9466  -30.1449   23.8891 C   0  0  0  0  0  0
  -17.6468  -30.6584   24.0560 C   0  0  0  0  0  0
  -25.9054  -34.9453   23.5104 C   0  0  0  0  0  0
  -16.5355  -29.9083   23.6331 C   0  0  0  0  0  0
  -16.7273  -28.6507   23.0342 C   0  0  0  0  0  0
  -26.4494  -31.6587   25.0720 C   0  0  0  0  0  0
  -25.3734  -31.3723   26.1450 C   0  0  0  0  0  0
  -27.0340  -30.3017   24.6163 C   0  0  0  0  0  0
  -27.6053  -32.4321   25.7490 C   0  0  0  0  0  0
  -27.5580  -37.1800   24.8464 C   0  0  0  0  0  0
  -21.4184  -29.3041   22.3680 N   0  0  0  0  0  0
  -26.4293  -37.3777   23.9411 N   0  0  0  0  0  0
  -24.6867  -31.0627   22.0972 N   0  0  0  0  0  0
  -23.4194  -28.8168   23.3010 O   0  0  0  0  0  0
  -28.3509  -26.4902   20.1596 O   0  0  0  0  0  0
  -26.5617  -34.8919   22.4665 O   0  0  0  0  0  0
  -23.5424  -32.1408   23.7363 O   0  0  0  0  0  0
  -30.9211  -19.2542   19.9603 C   0  0  0  0  0  0
  -30.9228  -17.8297   20.0475 C   0  0  0  0  0  0
  -28.8697  -17.9403   21.2863 C   0  0  0  0  0  0
  -29.9147  -20.0762   20.5505 C   0  0  0  0  0  0
  -28.8633  -19.3716   21.2126 C   0  0  0  0  0  0
  -29.8987  -17.1274   20.7331 C   0  0  0  0  0  0
  -30.1022  -21.5889   20.5456 C   0  0  0  0  0  0
  -27.7262  -20.1151   21.8985 C   0  0  0  0  0  0
  -29.3695  -24.0797   20.3932 C   0  0  0  0  0  0
  -28.1498  -25.0285   20.0374 C   0  0  0  0  0  0
  -31.3380  -22.0222   20.7893 N   0  0  0  0  0  0
  -29.8133  -15.6728   20.8831 N   0  0  0  0  0  0
  -29.1614  -22.5672   20.3353 N   0  3  0  0  0  0
  -31.4814  -12.5125   19.1507 H   0  0  0  0  0  0
  -30.3739  -11.3914   19.8918 H   0  0  0  0  0  0
  -29.7731  -11.7532   17.4790 H   0  0  0  0  0  0
  -29.6521  -13.4739   17.7434 H   0  0  0  0  0  0
  -27.8683  -11.2898   18.8663 H   0  0  0  0  0  0
  -27.3778  -12.5735   17.7933 H   0  0  0  0  0  0
  -27.6741  -14.2488   19.5225 H   0  0  0  0  0  0
  -28.7093  -12.0420   21.3728 H   0  0  0  0  0  0
  -28.4426  -13.6931   21.8477 H   0  0  0  0  0  0
  -25.2768   -9.5681   22.4758 H   0  0  0  0  0  0
  -24.0003   -7.4635   22.7478 H   0  0  0  0  0  0
  -21.0843   -8.8775   19.8953 H   0  0  0  0  0  0
  -22.3702  -10.9673   19.6164 H   0  0  0  0  0  0
  -21.2009   -7.6152   23.9720 H   0  0  0  0  0  0
  -21.1476   -6.0525   25.9079 H   0  0  0  0  0  0
  -22.0600   -2.7614   23.2845 H   0  0  0  0  0  0
  -22.4110  -11.9895   22.4793 H   0  0  0  0  0  0
  -21.1113  -13.1256   22.2591 H   0  0  0  0  0  0
  -24.6543  -15.8366   20.5012 H   0  0  0  0  0  0
  -26.2645  -15.6234   20.0392 H   0  0  0  0  0  0
  -26.7174  -32.5453   23.1101 H   0  0  0  0  0  0
  -25.0083  -33.9724   25.0429 H   0  0  0  0  0  0
  -22.7119  -31.3053   21.4026 H   0  0  0  0  0  0
  -23.3753  -35.9628   23.3306 H   0  0  0  0  0  0
  -24.3586  -36.8912   22.2053 H   0  0  0  0  0  0
  -23.7252  -37.6500   23.6659 H   0  0  0  0  0  0
  -26.0900  -31.5592   20.6057 H   0  0  0  0  0  0
  -26.8403  -30.8414   22.0014 H   0  0  0  0  0  0
  -28.1146  -28.9934   21.1827 H   0  0  0  0  0  0
  -25.9682  -25.9340   19.0035 H   0  0  0  0  0  0
  -23.9686  -27.3070   19.0171 H   0  0  0  0  0  0
  -23.7521  -30.5983   19.4048 H   0  0  0  0  0  0
  -22.7523  -29.2511   19.8568 H   0  0  0  0  0  0
  -25.1295  -36.1934   25.0827 H   0  0  0  0  0  0
  -20.9972  -28.3262   24.1408 H   0  0  0  0  0  0
  -20.5688  -26.2289   23.3607 H   0  0  0  0  0  0
  -21.6648  -26.7446   22.1198 H   0  0  0  0  0  0
  -19.6928  -25.6296   21.1235 H   0  0  0  0  0  0
  -19.6702  -27.3198   20.6746 H   0  0  0  0  0  0
  -17.4205  -26.6669   21.4017 H   0  0  0  0  0  0
  -18.0332  -26.0069   22.9017 H   0  0  0  0  0  0
  -19.7945  -30.7265   24.2254 H   0  0  0  0  0  0
  -17.5026  -31.6264   24.5162 H   0  0  0  0  0  0
  -15.5356  -30.2982   23.7666 H   0  0  0  0  0  0
  -15.8673  -28.0831   22.7046 H   0  0  0  0  0  0
  -24.5907  -30.7072   25.7781 H   0  0  0  0  0  0
  -24.8925  -32.2892   26.4872 H   0  0  0  0  0  0
  -25.8064  -30.8903   27.0224 H   0  0  0  0  0  0
  -26.2913  -29.6761   24.1202 H   0  0  0  0  0  0
  -27.4065  -29.7274   25.4655 H   0  0  0  0  0  0
  -27.8768  -30.4309   23.9369 H   0  0  0  0  0  0
  -27.2661  -33.3620   26.2063 H   0  0  0  0  0  0
  -28.3865  -32.6882   25.0321 H   0  0  0  0  0  0
  -28.0720  -31.8450   26.5411 H   0  0  0  0  0  0
  -28.2589  -38.0103   24.7504 H   0  0  0  0  0  0
  -28.1078  -36.2630   24.6292 H   0  0  0  0  0  0
  -27.2293  -37.1450   25.8864 H   0  0  0  0  0  0
  -20.9357  -29.8768   21.6899 H   0  0  0  0  0  0
  -26.0175  -38.2851   24.1411 H   0  0  0  0  0  0
  -31.7430  -19.7254   19.4382 H   0  0  0  0  0  0
  -31.7332  -17.2882   19.5813 H   0  0  0  0  0  0
  -28.0588  -17.4506   21.8083 H   0  0  0  0  0  0
  -27.1209  -19.4443   22.5090 H   0  0  0  0  0  0
  -27.0660  -20.5711   21.1604 H   0  0  0  0  0  0
  -28.1048  -20.8970   22.5574 H   0  0  0  0  0  0
  -29.7062  -24.3300   21.4006 H   0  0  0  0  0  0
  -30.1957  -24.3375   19.7287 H   0  0  0  0  0  0
  -27.3095  -24.7409   20.6716 H   0  0  0  0  0  0
  -27.8588  -24.8081   19.0103 H   0  0  0  0  0  0
  -32.0560  -21.3462   21.0035 H   0  0  0  0  0  0
  -31.5851  -22.9963   20.8027 H   0  0  0  0  0  0
  -28.9357  -15.3476   21.2563 H   0  0  0  0  0  0
  -28.2308  -22.2489   20.0950 H   0  0  0  0  0  0
  1 25  1  0  0  0
  1 30  2  0  0  0
  1 82  1  0  0  0
  2  3  1  0  0  0
  2 25  1  0  0  0
  2 84  1  0  0  0
  2 85  1  0  0  0
  3  4  1  0  0  0
  3 86  1  0  0  0
  3 87  1  0  0  0
  4  5  1  0  0  0
  4 88  1  0  0  0
  4 89  1  0  0  0
  5  6  1  0  0  0
  5 26  1  0  0  0
  5 90  1  0  0  0
  6 25  1  0  0  0
  6 91  1  0  0  0
  6 92  1  0  0  0
  7  8  2  0  0  0
  7 26  1  0  0  0
  7 29  1  0  0  0
  8  9  1  0  0  0
  8 22  1  0  0  0
  9 10  1  0  0  0
  9 27  2  0  0  0
 10 11  2  0  0  0
 10 15  1  0  0  0
 11 12  1  0  0  0
 11 93  1  0  0  0
 12 13  2  0  0  0
 12 94  1  0  0  0
 13 14  1  0  0  0
 13 31  1  0  0  0
 14 15  2  0  0  0
 14 95  1  0  0  0
 15 96  1  0  0  0
 16 17  2  0  0  0
 16 21  1  0  0  0
 16 31  1  0  0  0
 17 18  1  0  0  0
 17 97  1  0  0  0
 18 19  2  0  0  0
 18 98  1  0  0  0
 19 20  1  0  0  0
 19 24  1  0  0  0
 20 21  2  0  0  0
 20 99  1  0  0  0
 21 23  1  0  0  0
 22 28  1  0  0  0
 22 32  2  0  0  0
 26 27  1  0  0  0
 28100  1  0  0  0
 28101  1  0  0  0
 29102  1  0  0  0
 29103  1  0  0  0
 33 34  1  0  0  0
 33 66  1  0  0  0
 33 70  2  0  0  0
 34 36  1  0  0  0
 34 59  1  0  0  0
 34104  1  0  0  0
 35 44  2  0  0  0
 35 45  1  0  0  0
 35 68  1  0  0  0
 36 56  1  0  0  0
 36105  1  0  0  0
 37 39  1  0  0  0
 37 47  1  0  0  0
 37 66  1  0  0  0
 37106  1  0  0  0
 38 43  2  0  0  0
 38 46  1  0  0  0
 38 47  1  0  0  0
 39 64  1  0  0  0
 39 67  2  0  0  0
 40 52  1  0  0  0
 40 53  2  0  0  0
 40 58  1  0  0  0
 41107  1  0  0  0
 41108  1  0  0  0
 41109  1  0  0  0
 41 48  1  0  0  0
 42 43  1  0  0  0
 42 66  1  0  0  0
 42110  1  0  0  0
 42111  1  0  0  0
 43 44  1  0  0  0
 44112  1  0  0  0
 45 46  2  0  0  0
 45113  1  0  0  0
 46114  1  0  0  0
 47115  1  0  0  0
 47116  1  0  0  0
 48 56  1  0  0  0
 48 65  1  0  0  0
 48117  1  0  0  0
 49 50  1  0  0  0
 49 53  1  0  0  0
 49 64  1  0  0  0
 49118  1  0  0  0
 50 51  1  0  0  0
 50119  1  0  0  0
 50120  1  0  0  0
 51 52  1  0  0  0
 51121  1  0  0  0
 51122  1  0  0  0
 52123  1  0  0  0
 52124  1  0  0  0
 53 54  1  0  0  0
 54 55  2  0  0  0
 54125  1  0  0  0
 55 57  1  0  0  0
 55126  1  0  0  0
 56 69  2  0  0  0
 57 58  2  0  0  0
 57127  1  0  0  0
 58128  1  0  0  0
 59 60  1  0  0  0
 59 61  1  0  0  0
 59 62  1  0  0  0
 60129  1  0  0  0
 60130  1  0  0  0
 60131  1  0  0  0
 61132  1  0  0  0
 61133  1  0  0  0
 61134  1  0  0  0
 62135  1  0  0  0
 62136  1  0  0  0
 62137  1  0  0  0
 63 65  1  0  0  0
 63138  1  0  0  0
 63139  1  0  0  0
 63140  1  0  0  0
 64141  1  0  0  0
 65142  1  0  0  0
 68 80  1  0  0  0
 71 72  2  0  0  0
 71 74  1  0  0  0
 71143  1  0  0  0
 72 76  1  0  0  0
 72144  1  0  0  0
 73 75  1  0  0  0
 73 76  2  0  0  0
 73145  1  0  0  0
 74 75  2  0  0  0
 74 77  1  0  0  0
 75 78  1  0  0  0
 76 82  1  0  0  0
 77 81  1  0  0  0
 77 83  2  0  0  0
 78146  1  0  0  0
 78147  1  0  0  0
 78148  1  0  0  0
 79 80  1  0  0  0
 79 83  1  0  0  0
 79149  1  0  0  0
 79150  1  0  0  0
 80151  1  0  0  0
 80152  1  0  0  0
 81153  1  0  0  0
 81154  1  0  0  0
 82155  1  0  0  0
 83156  1  0  0  0
M  CHG  1  83   1
M  ISO  4   1 100  68 101  80 101  82 100
M  END
> <chiral flag>
0

> <version>
0

> <s_m_source_file>
/data/baiqing/PycharmProjects/Reinvent-master-3.2/result/LINK_invent/BTK/process_docking_weight1_custom_product_contain_oxygen_bond_distance_aromatic_linkinvent_7_9_3/rearranged_h_0047.sdf

> <i_m_source_file_index>
61

> <r_mmod_Potential_Energy-OPLS-2005>
-152.507537841797

> <r_mmod_Stretch_Energy-OPLS-2005>
79.5089340209961

> <r_mmod_Bend_Energy-OPLS-2005>
137.41130065918

> <r_mmod_Torsional_Energy-OPLS-2005>
209.438125610352

> <r_mmod_Improper_Torsional_Energy-OPLS-2005>
4.291175365448

> <r_mmod_Van_der_Waal_Energy-OPLS-2005>
151.498825073242

> <r_mmod_Electrostatic_Energy-OPLS-2005>
-368.951171875

> <r_mmod_Solvation_Energy-OPLS-2005>
-411.448089599609

> <b_mmod_Minimization_Converged-OPLS-2005>
0

> <r_mmod_RMS_Derivative-OPLS-2005>
0.721498847007751

$$$$
61
                    3D
 Structure written by MMmdl.
158166  0  0  1  0            999 V2000
  -30.7337  -14.3778   20.6500 C   0  0  0  0  0  0
  -30.4277  -12.2958   19.3607 C   0  0  0  0  0  0
  -29.4666  -12.5341   18.1819 C   0  0  0  0  0  0
  -27.9810  -12.4404   18.5964 C   0  0  0  0  0  0
  -27.6636  -13.1917   19.9171 C   0  0  2  0  0  0
  -28.7228  -12.8185   20.9817 C   0  0  0  0  0  0
  -25.2483  -13.7925   20.5724 C   0  0  0  0  0  0
  -24.1615  -13.0116   20.9135 C   0  0  0  0  0  0
  -24.6274  -11.6697   20.8792 C   0  0  0  0  0  0
  -23.8858  -10.4145   21.0600 C   0  0  0  0  0  0
  -24.3425   -9.4076   21.9351 C   0  0  0  0  0  0
  -23.6201   -8.2002   22.0689 C   0  0  0  0  0  0
  -22.4208   -8.0049   21.3448 C   0  0  0  0  0  0
  -21.9864   -9.0010   20.4589 C   0  0  0  0  0  0
  -22.7078  -10.2001   20.3168 C   0  0  0  0  0  0
  -21.6821   -6.0613   22.5338 C   0  0  0  0  0  0
  -21.3999   -6.5514   23.8242 C   0  0  0  0  0  0
  -21.3650   -5.6711   24.9261 C   0  0  0  0  0  0
  -21.6051   -4.2958   24.7418 C   0  0  0  0  0  0
  -21.8754   -3.7999   23.4553 C   0  0  0  0  0  0
  -21.9153   -4.6820   22.3570 C   0  0  0  0  0  0
  -22.7710  -13.5075   21.1803 C   0  0  0  0  0  0
  -22.1593   -4.1941   21.1172 F   0  0  0  0  0  0
  -21.5634   -3.4443   25.7940 F   0  0  0  0  0  0
  -30.0385  -13.2083   20.4500 N   0  0  0  0  0  0
  -26.2973  -12.9108   20.3625 N   0  0  0  0  0  0
  -25.9201  -11.6241   20.5867 N   0  0  0  0  0  0
  -22.0236  -12.8158   22.0590 N   0  0  0  0  0  0
  -25.4044  -15.1582   20.4181 N   0  0  0  0  0  0
  -31.7980  -14.6179   20.0937 O   0  0  0  0  0  0
  -21.6448   -6.8760   21.4274 O   0  0  0  0  0  0
  -22.3536  -14.5431   20.6871 O   0  0  0  0  0  0
  -24.6147  -31.8790   23.2071 C   0  0  0  0  0  0
  -25.9084  -32.4859   23.8456 C   0  0  1  0  0  0
  -27.2699  -27.5101   20.1937 C   0  0  0  0  0  0
  -25.6016  -33.8648   24.2481 N   0  0  0  0  0  0
  -23.3999  -30.5132   21.5267 C   0  0  2  0  0  0
  -24.8553  -28.9969   20.1001 C   0  0  0  0  0  0
  -22.7260  -29.4778   22.4725 C   0  0  0  0  0  0
  -18.0004  -28.1073   22.7834 C   0  0  0  0  0  0
  -24.1457  -36.7350   23.2648 C   0  0  0  0  0  0
  -25.9260  -30.8746   21.3501 C   0  0  0  0  0  0
  -25.9983  -29.5107   20.7206 C   0  0  0  0  0  0
  -27.1946  -28.7829   20.7601 C   0  0  0  0  0  0
  -26.0956  -26.9762   19.5826 C   0  0  0  0  0  0
  -24.9038  -27.7255   19.4935 C   0  0  0  0  0  0
  -23.6141  -29.8546   20.1283 C   0  0  0  0  0  0
  -25.4053  -36.3177   24.0438 C   0  0  1  0  0  0
  -20.5649  -28.3595   23.0677 C   0  0  2  0  0  0
  -20.6631  -26.9292   22.4972 C   0  0  0  0  0  0
  -19.5486  -26.6021   21.4919 C   0  0  0  0  0  0
  -18.1581  -26.7613   22.1178 C   0  0  0  0  0  0
  -19.1225  -28.8558   23.2313 C   0  0  0  0  0  0
  -18.9063  -30.1088   23.8431 C   0  0  0  0  0  0
  -17.5949  -30.5833   24.0552 C   0  0  0  0  0  0
  -25.9037  -34.9502   23.5230 C   0  0  0  0  0  0
  -16.4958  -29.8541   23.5837 C   0  0  0  0  0  0
  -16.6945  -28.6286   22.9345 C   0  0  0  0  0  0
  -26.4464  -31.6627   25.0809 C   0  0  0  0  0  0
  -25.3619  -31.3815   26.1522 C   0  0  0  0  0  0
  -27.0348  -30.3126   24.6087 C   0  0  0  0  0  0
  -27.6088  -32.4333   25.7549 C   0  0  0  0  0  0
  -27.5569  -37.1887   24.8517 C   0  0  0  0  0  0
  -21.4003  -29.3018   22.3224 N   0  0  0  0  0  0
  -26.4248  -37.3864   23.9503 N   0  0  0  0  0  0
  -24.6653  -31.1098   22.0860 N   0  0  0  0  0  0
  -23.3881  -28.8359   23.2903 O   0  0  0  0  0  0
  -28.4806  -26.8776   20.4008 O   0  0  0  0  0  0
  -26.5511  -34.8938   22.4764 O   0  0  0  0  0  0
  -23.5335  -32.1425   23.7497 O   0  0  0  0  0  0
  -29.5249  -17.4289   24.1608 C   0  0  0  0  0  0
  -29.3363  -18.7967   24.4767 C   0  0  0  0  0  0
  -28.6524  -17.8325   21.9262 C   0  0  0  0  0  0
  -29.1852  -16.9511   22.8751 C   0  0  0  0  0  0
  -28.3666  -19.1620   22.2674 C   0  0  0  0  0  0
  -28.7337  -19.6606   23.5380 C   0  0  0  0  0  0
  -28.1188  -23.6356   20.2657 C   0  0  0  0  0  0
  -29.1318  -24.5077   20.1006 C   0  0  0  0  0  0
  -28.4518  -22.2388   20.4348 C   0  0  0  0  0  0
  -29.3517  -15.5035   22.4642 C   0  0  0  0  0  0
  -27.7403  -19.9978   21.1748 C   0  0  0  0  0  0
  -28.8374  -25.8566   19.4928 C   0  0  0  0  0  0
  -27.8163  -21.4744   21.3555 N   0  0  0  0  0  0
  -30.0829  -15.4076   21.2013 N   0  0  0  0  0  0
  -29.2247  -21.7374   19.6178 O   0  0  0  0  0  0
  -28.5286  -20.9577   23.8743 F   0  0  0  0  0  0
  -31.4620  -12.4036   19.0309 H   0  0  0  0  0  0
  -30.3908  -11.2616   19.6814 H   0  0  0  0  0  0
  -29.6600  -11.8156   17.3791 H   0  0  0  0  0  0
  -29.6708  -13.5278   17.7794 H   0  0  0  0  0  0
  -27.7553  -11.3837   18.7219 H   0  0  0  0  0  0
  -27.3232  -12.8005   17.7982 H   0  0  0  0  0  0
  -27.7351  -14.2600   19.7133 H   0  0  0  0  0  0
  -28.6943  -11.7372   21.1262 H   0  0  0  0  0  0
  -28.5080  -13.1575   21.9868 H   0  0  0  0  0  0
  -25.2507   -9.5393   22.5096 H   0  0  0  0  0  0
  -23.9846   -7.4332   22.7385 H   0  0  0  0  0  0
  -21.0792   -8.8494   19.8958 H   0  0  0  0  0  0
  -22.3484  -10.9552   19.6310 H   0  0  0  0  0  0
  -21.1912   -7.5989   23.9708 H   0  0  0  0  0  0
  -21.1614   -6.0497   25.9177 H   0  0  0  0  0  0
  -22.0612   -2.7428   23.3181 H   0  0  0  0  0  0
  -22.3702  -11.9908   22.5235 H   0  0  0  0  0  0
  -21.0800  -13.1196   22.2575 H   0  0  0  0  0  0
  -24.5865  -15.7597   20.4361 H   0  0  0  0  0  0
  -26.2375  -15.6174   20.0687 H   0  0  0  0  0  0
  -26.7229  -32.5641   23.1313 H   0  0  0  0  0  0
  -25.0385  -33.9833   25.0758 H   0  0  0  0  0  0
  -22.7024  -31.3423   21.3733 H   0  0  0  0  0  0
  -23.3726  -35.9684   23.3337 H   0  0  0  0  0  0
  -24.3557  -36.8909   22.2047 H   0  0  0  0  0  0
  -23.7135  -37.6561   23.6555 H   0  0  0  0  0  0
  -26.0233  -31.6008   20.5431 H   0  0  0  0  0  0
  -26.8273  -30.9602   21.9424 H   0  0  0  0  0  0
  -28.0417  -29.1637   21.3052 H   0  0  0  0  0  0
  -26.0454  -25.9495   19.2694 H   0  0  0  0  0  0
  -24.0492  -27.3204   18.9696 H   0  0  0  0  0  0
  -23.7190  -30.6372   19.3769 H   0  0  0  0  0  0
  -22.7479  -29.2637   19.8153 H   0  0  0  0  0  0
  -25.1146  -36.2108   25.0920 H   0  0  0  0  0  0
  -20.9693  -28.3183   24.0883 H   0  0  0  0  0  0
  -20.5495  -26.2199   23.3208 H   0  0  0  0  0  0
  -21.6485  -26.7576   22.0554 H   0  0  0  0  0  0
  -19.6492  -25.5748   21.1547 H   0  0  0  0  0  0
  -19.6213  -27.2102   20.5852 H   0  0  0  0  0  0
  -17.4023  -26.6231   21.3405 H   0  0  0  0  0  0
  -17.9571  -25.9755   22.8509 H   0  0  0  0  0  0
  -19.7514  -30.6928   24.1801 H   0  0  0  0  0  0
  -17.4235  -31.5100   24.5751 H   0  0  0  0  0  0
  -15.4844  -30.2179   23.7162 H   0  0  0  0  0  0
  -15.8419  -28.1025   22.5176 H   0  0  0  0  0  0
  -24.5734  -30.7274   25.7828 H   0  0  0  0  0  0
  -24.8800  -32.2976   26.4896 H   0  0  0  0  0  0
  -25.7800  -30.8972   27.0337 H   0  0  0  0  0  0
  -26.2932  -29.6917   24.1046 H   0  0  0  0  0  0
  -27.4168  -29.7333   25.4505 H   0  0  0  0  0  0
  -27.8682  -30.4693   23.9247 H   0  0  0  0  0  0
  -27.2797  -33.3691   26.2100 H   0  0  0  0  0  0
  -28.3808  -32.6835   25.0270 H   0  0  0  0  0  0
  -28.0777  -31.8438   26.5417 H   0  0  0  0  0  0
  -28.2643  -38.0134   24.7496 H   0  0  0  0  0  0
  -28.1012  -36.2675   24.6363 H   0  0  0  0  0  0
  -27.2379  -37.1596   25.8957 H   0  0  0  0  0  0
  -20.9348  -29.8748   21.6381 H   0  0  0  0  0  0
  -26.0176  -38.2987   24.1437 H   0  0  0  0  0  0
  -29.9387  -16.7469   24.8957 H   0  0  0  0  0  0
  -29.6331  -19.1996   25.4283 H   0  0  0  0  0  0
  -28.4715  -17.4813   20.9212 H   0  0  0  0  0  0
  -27.1019  -23.9247   19.9870 H   0  0  0  0  0  0
  -30.1716  -24.1968   20.2734 H   0  0  0  0  0  0
  -28.3155  -15.1873   22.3152 H   0  0  0  0  0  0
  -29.8161  -14.9012   23.2493 H   0  0  0  0  0  0
  -26.7205  -19.6336   20.9774 H   0  0  0  0  0  0
  -28.3506  -19.6338   20.3453 H   0  0  0  0  0  0
  -28.0319  -25.6679   18.8146 H   0  0  0  0  0  0
  -29.5723  -26.1646   18.7693 H   0  0  0  0  0  0
  -27.3823  -21.8835   22.1821 H   0  0  0  0  0  0
  -30.5230  -16.2713   20.9131 H   0  0  0  0  0  0
  1 25  1  0  0  0
  1 30  2  0  0  0
  1 84  1  0  0  0
  2  3  1  0  0  0
  2 25  1  0  0  0
  2 87  1  0  0  0
  2 88  1  0  0  0
  3  4  1  0  0  0
  3 89  1  0  0  0
  3 90  1  0  0  0
  4  5  1  0  0  0
  4 91  1  0  0  0
  4 92  1  0  0  0
  5  6  1  0  0  0
  5 26  1  0  0  0
  5 93  1  0  0  0
  6 25  1  0  0  0
  6 94  1  0  0  0
  6 95  1  0  0  0
  7  8  2  0  0  0
  7 26  1  0  0  0
  7 29  1  0  0  0
  8  9  1  0  0  0
  8 22  1  0  0  0
  9 10  1  0  0  0
  9 27  2  0  0  0
 10 11  2  0  0  0
 10 15  1  0  0  0
 11 12  1  0  0  0
 11 96  1  0  0  0
 12 13  2  0  0  0
 12 97  1  0  0  0
 13 14  1  0  0  0
 13 31  1  0  0  0
 14 15  2  0  0  0
 14 98  1  0  0  0
 15 99  1  0  0  0
 16 17  2  0  0  0
 16 21  1  0  0  0
 16 31  1  0  0  0
 17 18  1  0  0  0
 17100  1  0  0  0
 18 19  2  0  0  0
 18101  1  0  0  0
 19 20  1  0  0  0
 19 24  1  0  0  0
 20 21  2  0  0  0
 20102  1  0  0  0
 21 23  1  0  0  0
 22 28  1  0  0  0
 22 32  2  0  0  0
 26 27  1  0  0  0
 28103  1  0  0  0
 28104  1  0  0  0
 29105  1  0  0  0
 29106  1  0  0  0
 33 34  1  0  0  0
 33 66  1  0  0  0
 33 70  2  0  0  0
 34 36  1  0  0  0
 34 59  1  0  0  0
 34107  1  0  0  0
 35 44  2  0  0  0
 35 45  1  0  0  0
 35 68  1  0  0  0
 36 56  1  0  0  0
 36108  1  0  0  0
 37 39  1  0  0  0
 37 47  1  0  0  0
 37 66  1  0  0  0
 37109  1  0  0  0
 38 43  2  0  0  0
 38 46  1  0  0  0
 38 47  1  0  0  0
 39 64  1  0  0  0
 39 67  2  0  0  0
 40 52  1  0  0  0
 40 53  2  0  0  0
 40 58  1  0  0  0
 41110  1  0  0  0
 41111  1  0  0  0
 41112  1  0  0  0
 41 48  1  0  0  0
 42 43  1  0  0  0
 42 66  1  0  0  0
 42113  1  0  0  0
 42114  1  0  0  0
 43 44  1  0  0  0
 44115  1  0  0  0
 45 46  2  0  0  0
 45116  1  0  0  0
 46117  1  0  0  0
 47118  1  0  0  0
 47119  1  0  0  0
 48 56  1  0  0  0
 48 65  1  0  0  0
 48120  1  0  0  0
 49 50  1  0  0  0
 49 53  1  0  0  0
 49 64  1  0  0  0
 49121  1  0  0  0
 50 51  1  0  0  0
 50122  1  0  0  0
 50123  1  0  0  0
 51 52  1  0  0  0
 51124  1  0  0  0
 51125  1  0  0  0
 52126  1  0  0  0
 52127  1  0  0  0
 53 54  1  0  0  0
 54 55  2  0  0  0
 54128  1  0  0  0
 55 57  1  0  0  0
 55129  1  0  0  0
 56 69  2  0  0  0
 57 58  2  0  0  0
 57130  1  0  0  0
 58131  1  0  0  0
 59 60  1  0  0  0
 59 61  1  0  0  0
 59 62  1  0  0  0
 60132  1  0  0  0
 60133  1  0  0  0
 60134  1  0  0  0
 61135  1  0  0  0
 61136  1  0  0  0
 61137  1  0  0  0
 62138  1  0  0  0
 62139  1  0  0  0
 62140  1  0  0  0
 63 65  1  0  0  0
 63141  1  0  0  0
 63142  1  0  0  0
 63143  1  0  0  0
 64144  1  0  0  0
 65145  1  0  0  0
 68 82  1  0  0  0
 71 72  2  0  0  0
 71 74  1  0  0  0
 71146  1  0  0  0
 72 76  1  0  0  0
 72147  1  0  0  0
 73 74  2  0  0  0
 73 75  1  0  0  0
 73148  1  0  0  0
 74 80  1  0  0  0
 75 76  2  0  0  0
 75 81  1  0  0  0
 76 86  1  0  0  0
 77 78  2  0  0  0
 77 79  1  0  0  0
 77149  1  0  0  0
 78 82  1  0  0  0
 78150  1  0  0  0
 79 83  1  0  0  0
 79 85  2  0  0  0
 80 84  1  0  0  0
 80151  1  0  0  0
 80152  1  0  0  0
 81 83  1  0  0  0
 81153  1  0  0  0
 81154  1  0  0  0
 82155  1  0  0  0
 82156  1  0  0  0
 83157  1  0  0  0
 84158  1  0  0  0
M  ISO  4   1 100  68 101  82 101  84 100
M  END
> <chiral flag>
0

> <version>
0

> <s_m_source_file>
/data/baiqing/PycharmProjects/Reinvent-master-3.2/result/LINK_invent/BTK/process_docking_weight1_custom_product_contain_oxygen_bond_distance_aromatic_linkinvent_7_9_3/rearranged_h_0047.sdf

> <i_m_source_file_index>
62

> <r_mmod_Potential_Energy-OPLS-2005>
3.69130706787109

> <r_mmod_Stretch_Energy-OPLS-2005>
44.1154823303223

> <r_mmod_Bend_Energy-OPLS-2005>
166.580871582031

> <r_mmod_Torsional_Energy-OPLS-2005>
283.908050537109

> <r_mmod_Improper_Torsional_Energy-OPLS-2005>
28.1505527496338

> <r_mmod_Van_der_Waal_Energy-OPLS-2005>
176.499603271484

> <r_mmod_Electrostatic_Energy-OPLS-2005>
-507.797454833984

> <r_mmod_Solvation_Energy-OPLS-2005>
-224.315704345703

> <b_mmod_Minimization_Converged-OPLS-2005>
0

> <r_mmod_RMS_Derivative-OPLS-2005>
32.0062789916992

$$$$
62
                    3D
 Structure written by MMmdl.
174183  0  0  1  0            999 V2000
  -30.5926  -14.6436   20.5003 C   0  0  0  0  0  0
  -30.4400  -12.3897   19.4651 C   0  0  0  0  0  0
  -29.5157  -12.5164   18.2314 C   0  0  0  0  0  0
  -28.0365  -12.3496   18.6358 C   0  0  0  0  0  0
  -27.6565  -13.2151   19.8674 C   0  0  2  0  0  0
  -28.6939  -13.0542   21.0017 C   0  0  0  0  0  0
  -25.2578  -13.8179   20.5654 C   0  0  0  0  0  0
  -24.1835  -13.0450   20.9145 C   0  0  0  0  0  0
  -24.6395  -11.6916   20.8698 C   0  0  0  0  0  0
  -23.9057  -10.4304   21.0374 C   0  0  0  0  0  0
  -24.3609   -9.4240   21.9167 C   0  0  0  0  0  0
  -23.6293   -8.2275   22.0748 C   0  0  0  0  0  0
  -22.4275   -8.0302   21.3540 C   0  0  0  0  0  0
  -21.9892   -9.0268   20.4645 C   0  0  0  0  0  0
  -22.7215  -10.2143   20.3042 C   0  0  0  0  0  0
  -21.6867   -6.0739   22.5275 C   0  0  0  0  0  0
  -21.4033   -6.5636   23.8211 C   0  0  0  0  0  0
  -21.3657   -5.6787   24.9168 C   0  0  0  0  0  0
  -21.6034   -4.3048   24.7220 C   0  0  0  0  0  0
  -21.8816   -3.8152   23.4338 C   0  0  0  0  0  0
  -21.9201   -4.6965   22.3394 C   0  0  0  0  0  0
  -22.7865  -13.5252   21.1832 C   0  0  0  0  0  0
  -22.1667   -4.2156   21.0963 F   0  0  0  0  0  0
  -21.5615   -3.4531   25.7737 F   0  0  0  0  0  0
  -30.0129  -13.4031   20.4503 N   0  0  0  0  0  0
  -26.3002  -12.9344   20.3305 N   0  0  0  0  0  0
  -25.9324  -11.6501   20.5713 N   0  0  0  0  0  0
  -22.0497  -12.8268   22.0393 N   0  0  0  0  0  0
  -25.4309  -15.1896   20.4080 N   0  0  0  0  0  0
  -31.7391  -14.8317   20.0811 O   0  0  0  0  0  0
  -21.6655   -6.8890   21.4238 O   0  0  0  0  0  0
  -22.3558  -14.5562   20.6686 O   0  0  0  0  0  0
  -24.6259  -31.8579   23.2003 C   0  0  0  0  0  0
  -25.9113  -32.4764   23.8338 C   0  0  1  0  0  0
  -27.2309  -27.3241   20.1252 C   0  0  0  0  0  0
  -25.5926  -33.8561   24.2268 N   0  0  0  0  0  0
  -23.4199  -30.4780   21.5426 C   0  0  2  0  0  0
  -24.8661  -28.9192   20.1237 C   0  0  0  0  0  0
  -22.7472  -29.4606   22.4935 C   0  0  0  0  0  0
  -18.0293  -28.1374   22.8479 C   0  0  0  0  0  0
  -24.1481  -36.7294   23.2641 C   0  0  0  0  0  0
  -25.9586  -30.7914   21.3676 C   0  0  0  0  0  0
  -26.0332  -29.4133   20.7203 C   0  0  0  0  0  0
  -27.2216  -28.6295   20.7034 C   0  0  0  0  0  0
  -26.0426  -26.8640   19.5260 C   0  0  0  0  0  0
  -24.8703  -27.6483   19.5209 C   0  0  0  0  0  0
  -23.6366  -29.8045   20.1610 C   0  0  0  0  0  0
  -25.4099  -36.3066   24.0328 C   0  0  1  0  0  0
  -20.5893  -28.3663   23.1295 C   0  0  2  0  0  0
  -20.6771  -26.9379   22.5424 C   0  0  0  0  0  0
  -19.5752  -26.6370   21.5211 C   0  0  0  0  0  0
  -18.1929  -26.7918   22.1613 C   0  0  0  0  0  0
  -19.1546  -28.8834   23.2885 C   0  0  0  0  0  0
  -18.9470  -30.1431   23.8908 C   0  0  0  0  0  0
  -17.6468  -30.6561   24.0575 C   0  0  0  0  0  0
  -25.9039  -34.9440   23.5098 C   0  0  0  0  0  0
  -16.5358  -29.9069   23.6316 C   0  0  0  0  0  0
  -16.7283  -28.6494   23.0324 C   0  0  0  0  0  0
  -26.4493  -31.6579   25.0711 C   0  0  0  0  0  0
  -25.3743  -31.3764   26.1463 C   0  0  0  0  0  0
  -27.0316  -30.2992   24.6174 C   0  0  0  0  0  0
  -27.6069  -32.4292   25.7475 C   0  0  0  0  0  0
  -27.5569  -37.1787   24.8448 C   0  0  0  0  0  0
  -21.4187  -29.3022   22.3690 N   0  0  0  0  0  0
  -26.4269  -37.3763   23.9409 N   0  0  0  0  0  0
  -24.6867  -31.0597   22.0948 N   0  0  0  0  0  0
  -23.4204  -28.8145   23.3011 O   0  0  0  0  0  0
  -28.3921  -26.5599   20.0200 O   0  0  0  0  0  0
  -26.5614  -34.8915   22.4662 O   0  0  0  0  0  0
  -23.5430  -32.1375   23.7346 O   0  0  0  0  0  0
  -28.7843  -19.3089   21.3919 C   0  0  0  0  0  0
  -29.1514  -17.9515   21.6329 C   0  0  0  0  0  0
  -29.4090  -19.0463   19.0946 C   0  0  0  0  0  0
  -28.8750  -19.8965   20.1044 C   0  0  0  0  0  0
  -29.7709  -17.6781   19.3223 C   0  0  0  0  0  0
  -29.6420  -17.0842   20.6161 C   0  0  0  0  0  0
  -30.8887  -23.0131   21.4443 C   0  0  0  0  0  0
  -30.6571  -24.2432   21.9483 C   0  0  0  0  0  0
  -30.3666  -22.6283   20.1566 C   0  0  0  0  0  0
  -31.1212  -22.3934   19.0505 C   0  0  0  0  0  0
  -30.0195  -25.3755   21.1328 C   0  0  0  0  0  0
  -28.2869  -23.9374   19.7194 C   0  0  0  0  0  0
  -28.5499  -25.2265   20.6417 C   0  0  2  0  0  0
  -30.2095  -16.8649   18.1164 C   0  0  0  0  0  0
  -31.1365  -24.6302   23.3346 C   0  0  0  0  0  0
  -30.5839  -22.1604   17.6438 C   0  0  0  0  0  0
  -32.6406  -22.3725   19.0822 C   0  0  0  0  0  0
  -28.2334  -21.3031   19.7518 C   0  0  0  0  0  0
  -29.7827  -15.6594   20.9430 N   0  0  0  0  0  0
  -28.8865  -22.6093   20.1868 N   0  3  1  0  0  0
  -31.4860  -12.5066   19.1753 H   0  0  0  0  0  0
  -30.3583  -11.3930   19.9005 H   0  0  0  0  0  0
  -29.7824  -11.7726   17.4793 H   0  0  0  0  0  0
  -29.6627  -13.4910   17.7640 H   0  0  0  0  0  0
  -27.8780  -11.2947   18.8601 H   0  0  0  0  0  0
  -27.3865  -12.5870   17.7913 H   0  0  0  0  0  0
  -27.6803  -14.2521   19.5349 H   0  0  0  0  0  0
  -28.7028  -12.0256   21.3646 H   0  0  0  0  0  0
  -28.4279  -13.6710   21.8617 H   0  0  0  0  0  0
  -25.2738   -9.5737   22.4752 H   0  0  0  0  0  0
  -24.0010   -7.4663   22.7455 H   0  0  0  0  0  0
  -21.0819   -8.8784   19.8941 H   0  0  0  0  0  0
  -22.3661  -10.9689   19.6169 H   0  0  0  0  0  0
  -21.2037   -7.6146   23.9727 H   0  0  0  0  0  0
  -21.1470   -6.0507   25.9069 H   0  0  0  0  0  0
  -22.0591   -2.7617   23.2846 H   0  0  0  0  0  0
  -22.4083  -11.9916   22.4786 H   0  0  0  0  0  0
  -21.1121  -13.1326   22.2597 H   0  0  0  0  0  0
  -24.6580  -15.8407   20.4863 H   0  0  0  0  0  0
  -26.2892  -15.6319   20.0997 H   0  0  0  0  0  0
  -26.7189  -32.5436   23.1091 H   0  0  0  0  0  0
  -25.0057  -33.9681   25.0405 H   0  0  0  0  0  0
  -22.7143  -31.2976   21.3941 H   0  0  0  0  0  0
  -23.3720  -35.9648   23.3299 H   0  0  0  0  0  0
  -24.3593  -36.8914   22.2061 H   0  0  0  0  0  0
  -23.7262  -37.6506   23.6669 H   0  0  0  0  0  0
  -26.0874  -31.5520   20.5962 H   0  0  0  0  0  0
  -26.8416  -30.8447   21.9936 H   0  0  0  0  0  0
  -28.1302  -29.0206   21.1405 H   0  0  0  0  0  0
  -26.0271  -25.8995   19.0396 H   0  0  0  0  0  0
  -23.9763  -27.2643   19.0481 H   0  0  0  0  0  0
  -23.7678  -30.5770   19.4025 H   0  0  0  0  0  0
  -22.7550  -29.2384   19.8540 H   0  0  0  0  0  0
  -25.1272  -36.1907   25.0822 H   0  0  0  0  0  0
  -20.9994  -28.3235   24.1407 H   0  0  0  0  0  0
  -20.5629  -26.2265   23.3617 H   0  0  0  0  0  0
  -21.6650  -26.7369   22.1246 H   0  0  0  0  0  0
  -19.6903  -25.6285   21.1225 H   0  0  0  0  0  0
  -19.6685  -27.3182   20.6747 H   0  0  0  0  0  0
  -17.4195  -26.6663   21.4022 H   0  0  0  0  0  0
  -18.0310  -26.0054   22.9003 H   0  0  0  0  0  0
  -19.7947  -30.7251   24.2277 H   0  0  0  0  0  0
  -17.5017  -31.6229   24.5184 H   0  0  0  0  0  0
  -15.5359  -30.2970   23.7627 H   0  0  0  0  0  0
  -15.8685  -28.0823   22.7011 H   0  0  0  0  0  0
  -24.5873  -30.7137   25.7837 H   0  0  0  0  0  0
  -24.8993  -32.2961   26.4894 H   0  0  0  0  0  0
  -25.8081  -30.8951   27.0236 H   0  0  0  0  0  0
  -26.2881  -29.6739   24.1218 H   0  0  0  0  0  0
  -27.4020  -29.7251   25.4677 H   0  0  0  0  0  0
  -27.8750  -30.4250   23.9379 H   0  0  0  0  0  0
  -27.2693  -33.3578   26.2084 H   0  0  0  0  0  0
  -28.3879  -32.6863   25.0308 H   0  0  0  0  0  0
  -28.0739  -31.8397   26.5372 H   0  0  0  0  0  0
  -28.2582  -38.0088   24.7489 H   0  0  0  0  0  0
  -28.1069  -36.2623   24.6249 H   0  0  0  0  0  0
  -27.2310  -37.1424   25.8859 H   0  0  0  0  0  0
  -20.9346  -29.8772   21.6937 H   0  0  0  0  0  0
  -26.0143  -38.2828   24.1426 H   0  0  0  0  0  0
  -28.3659  -19.8811   22.2093 H   0  0  0  0  0  0
  -29.0037  -17.5551   22.6276 H   0  0  0  0  0  0
  -29.4739  -19.4304   18.0869 H   0  0  0  0  0  0
  -31.3927  -22.2670   22.0448 H   0  0  0  0  0  0
  -30.6656  -25.5695   20.2748 H   0  0  0  0  0  0
  -30.0728  -26.2842   21.7362 H   0  0  0  0  0  0
  -28.6537  -24.1476   18.7157 H   0  0  0  0  0  0
  -27.2081  -23.8174   19.6150 H   0  0  0  0  0  0
  -27.9042  -25.1682   21.5198 H   0  0  0  0  0  0
  -29.8596  -17.3149   17.1872 H   0  0  0  0  0  0
  -29.7984  -15.8572   18.1414 H   0  0  0  0  0  0
  -31.2978  -16.8024   18.0751 H   0  0  0  0  0  0
  -31.5769  -23.7814   23.8603 H   0  0  0  0  0  0
  -30.3060  -25.0037   23.9351 H   0  0  0  0  0  0
  -31.8891  -25.4167   23.2719 H   0  0  0  0  0  0
  -29.5195  -22.3390   17.5296 H   0  0  0  0  0  0
  -30.8064  -21.1469   17.3113 H   0  0  0  0  0  0
  -31.0721  -22.8449   16.9493 H   0  0  0  0  0  0
  -33.0540  -22.4400   20.0880 H   0  0  0  0  0  0
  -33.0485  -23.1929   18.4912 H   0  0  0  0  0  0
  -33.0000  -21.4405   18.6445 H   0  0  0  0  0  0
  -27.2279  -21.3006   20.1717 H   0  0  0  0  0  0
  -28.0568  -21.3258   18.6788 H   0  0  0  0  0  0
  -29.0255  -15.3018   21.5060 H   0  0  0  0  0  0
  -28.6539  -22.5938   21.1687 H   0  0  0  0  0  0
  1 25  1  0  0  0
  1 30  2  0  0  0
  1 89  1  0  0  0
  2  3  1  0  0  0
  2 25  1  0  0  0
  2 91  1  0  0  0
  2 92  1  0  0  0
  3  4  1  0  0  0
  3 93  1  0  0  0
  3 94  1  0  0  0
  4  5  1  0  0  0
  4 95  1  0  0  0
  4 96  1  0  0  0
  5  6  1  0  0  0
  5 26  1  0  0  0
  5 97  1  0  0  0
  6 25  1  0  0  0
  6 98  1  0  0  0
  6 99  1  0  0  0
  7  8  2  0  0  0
  7 26  1  0  0  0
  7 29  1  0  0  0
  8  9  1  0  0  0
  8 22  1  0  0  0
  9 10  1  0  0  0
  9 27  2  0  0  0
 10 11  2  0  0  0
 10 15  1  0  0  0
 11 12  1  0  0  0
 11100  1  0  0  0
 12 13  2  0  0  0
 12101  1  0  0  0
 13 14  1  0  0  0
 13 31  1  0  0  0
 14 15  2  0  0  0
 14102  1  0  0  0
 15103  1  0  0  0
 16 17  2  0  0  0
 16 21  1  0  0  0
 16 31  1  0  0  0
 17 18  1  0  0  0
 17104  1  0  0  0
 18 19  2  0  0  0
 18105  1  0  0  0
 19 20  1  0  0  0
 19 24  1  0  0  0
 20 21  2  0  0  0
 20106  1  0  0  0
 21 23  1  0  0  0
 22 28  1  0  0  0
 22 32  2  0  0  0
 26 27  1  0  0  0
 28107  1  0  0  0
 28108  1  0  0  0
 29109  1  0  0  0
 29110  1  0  0  0
 33 34  1  0  0  0
 33 66  1  0  0  0
 33 70  2  0  0  0
 34 36  1  0  0  0
 34 59  1  0  0  0
 34111  1  0  0  0
 35 44  2  0  0  0
 35 45  1  0  0  0
 35 68  1  0  0  0
 36 56  1  0  0  0
 36112  1  0  0  0
 37 39  1  0  0  0
 37 47  1  0  0  0
 37 66  1  0  0  0
 37113  1  0  0  0
 38 43  2  0  0  0
 38 46  1  0  0  0
 38 47  1  0  0  0
 39 64  1  0  0  0
 39 67  2  0  0  0
 40 52  1  0  0  0
 40 53  2  0  0  0
 40 58  1  0  0  0
 41114  1  0  0  0
 41115  1  0  0  0
 41116  1  0  0  0
 41 48  1  0  0  0
 42 43  1  0  0  0
 42 66  1  0  0  0
 42117  1  0  0  0
 42118  1  0  0  0
 43 44  1  0  0  0
 44119  1  0  0  0
 45 46  2  0  0  0
 45120  1  0  0  0
 46121  1  0  0  0
 47122  1  0  0  0
 47123  1  0  0  0
 48 56  1  0  0  0
 48 65  1  0  0  0
 48124  1  0  0  0
 49 50  1  0  0  0
 49 53  1  0  0  0
 49 64  1  0  0  0
 49125  1  0  0  0
 50 51  1  0  0  0
 50126  1  0  0  0
 50127  1  0  0  0
 51 52  1  0  0  0
 51128  1  0  0  0
 51129  1  0  0  0
 52130  1  0  0  0
 52131  1  0  0  0
 53 54  1  0  0  0
 54 55  2  0  0  0
 54132  1  0  0  0
 55 57  1  0  0  0
 55133  1  0  0  0
 56 69  2  0  0  0
 57 58  2  0  0  0
 57134  1  0  0  0
 58135  1  0  0  0
 59 60  1  0  0  0
 59 61  1  0  0  0
 59 62  1  0  0  0
 60136  1  0  0  0
 60137  1  0  0  0
 60138  1  0  0  0
 61139  1  0  0  0
 61140  1  0  0  0
 61141  1  0  0  0
 62142  1  0  0  0
 62143  1  0  0  0
 62144  1  0  0  0
 63 65  1  0  0  0
 63145  1  0  0  0
 63146  1  0  0  0
 63147  1  0  0  0
 64148  1  0  0  0
 65149  1  0  0  0
 68 83  1  0  0  0
 71 72  2  0  0  0
 71 74  1  0  0  0
 71150  1  0  0  0
 72 76  1  0  0  0
 72151  1  0  0  0
 73 74  2  0  0  0
 73 75  1  0  0  0
 73152  1  0  0  0
 74 88  1  0  0  0
 75 76  2  0  0  0
 75 84  1  0  0  0
 76 89  1  0  0  0
 77 78  2  0  0  0
 77 79  1  0  0  0
 77153  1  0  0  0
 78 81  1  0  0  0
 78 85  1  0  0  0
 79 80  2  0  0  0
 79 90  1  0  0  0
 80 86  1  0  0  0
 80 87  1  0  0  0
 81 83  1  0  0  0
 81154  1  0  0  0
 81155  1  0  0  0
 82 83  1  0  0  0
 82 90  1  0  0  0
 82156  1  0  0  0
 82157  1  0  0  0
 83158  1  0  0  0
 84159  1  0  0  0
 84160  1  0  0  0
 84161  1  0  0  0
 85162  1  0  0  0
 85163  1  0  0  0
 85164  1  0  0  0
 86165  1  0  0  0
 86166  1  0  0  0
 86167  1  0  0  0
 87168  1  0  0  0
 87169  1  0  0  0
 87170  1  0  0  0
 88171  1  0  0  0
 88172  1  0  0  0
 88 90  1  0  0  0
 89173  1  0  0  0
 90174  1  0  0  0
M  CHG  1  90   1
M  ISO  4   1 100  68 101  83 101  89 100
M  END
> <chiral flag>
0

> <version>
0

> <s_m_source_file>
/data/baiqing/PycharmProjects/Reinvent-master-3.2/result/LINK_invent/BTK/process_docking_weight1_custom_product_contain_oxygen_bond_distance_aromatic_linkinvent_7_9_3/rearranged_h_0047.sdf

> <i_m_source_file_index>
63

> <r_mmod_Potential_Energy-OPLS-2005>
58.286075592041

> <r_mmod_Stretch_Energy-OPLS-2005>
86.9540100097656

> <r_mmod_Bend_Energy-OPLS-2005>
192.119430541992

> <r_mmod_Torsional_Energy-OPLS-2005>
307.05126953125

> <r_mmod_Improper_Torsional_Energy-OPLS-2005>
5.96639776229858

> <r_mmod_Van_der_Waal_Energy-OPLS-2005>
134.454177856445

> <r_mmod_Electrostatic_Energy-OPLS-2005>
-300.751068115234

> <r_mmod_Solvation_Energy-OPLS-2005>
-410.869506835938

> <b_mmod_Minimization_Converged-OPLS-2005>
0

> <r_mmod_RMS_Derivative-OPLS-2005>
3.0559184551239

$$$$
63
                    3D
 Structure written by MMmdl.
157165  0  0  1  0            999 V2000
  -30.6585  -14.5428   20.5011 C   0  0  0  0  0  0
  -30.4296  -12.3242   19.4561 C   0  0  0  0  0  0
  -29.5110  -12.4882   18.2238 C   0  0  0  0  0  0
  -28.0286  -12.3519   18.6248 C   0  0  0  0  0  0
  -27.6586  -13.2080   19.8665 C   0  0  2  0  0  0
  -28.6979  -13.0348   21.0003 C   0  0  0  0  0  0
  -25.2590  -13.8162   20.5694 C   0  0  0  0  0  0
  -24.1845  -13.0446   20.9205 C   0  0  0  0  0  0
  -24.6382  -11.6907   20.8728 C   0  0  0  0  0  0
  -23.9044  -10.4306   21.0405 C   0  0  0  0  0  0
  -24.3601   -9.4232   21.9181 C   0  0  0  0  0  0
  -23.6304   -8.2250   22.0738 C   0  0  0  0  0  0
  -22.4281   -8.0281   21.3546 C   0  0  0  0  0  0
  -21.9909   -9.0250   20.4644 C   0  0  0  0  0  0
  -22.7216  -10.2145   20.3059 C   0  0  0  0  0  0
  -21.6861   -6.0742   22.5293 C   0  0  0  0  0  0
  -21.4001   -6.5642   23.8227 C   0  0  0  0  0  0
  -21.3657   -5.6795   24.9187 C   0  0  0  0  0  0
  -21.6044   -4.3055   24.7236 C   0  0  0  0  0  0
  -21.8816   -3.8154   23.4356 C   0  0  0  0  0  0
  -21.9193   -4.6972   22.3413 C   0  0  0  0  0  0
  -22.7884  -13.5271   21.1885 C   0  0  0  0  0  0
  -22.1676   -4.2154   21.0996 F   0  0  0  0  0  0
  -21.5629   -3.4537   25.7752 F   0  0  0  0  0  0
  -30.0291  -13.3347   20.4497 N   0  0  0  0  0  0
  -26.3011  -12.9318   20.3316 N   0  0  0  0  0  0
  -25.9302  -11.6482   20.5728 N   0  0  0  0  0  0
  -22.0489  -12.8262   22.0416 N   0  0  0  0  0  0
  -25.4313  -15.1885   20.4119 N   0  0  0  0  0  0
  -31.8069  -14.7100   20.0816 O   0  0  0  0  0  0
  -21.6642   -6.8885   21.4255 O   0  0  0  0  0  0
  -22.3590  -14.5588   20.6736 O   0  0  0  0  0  0
  -24.6137  -31.8659   23.2070 C   0  0  0  0  0  0
  -25.9040  -32.4816   23.8371 C   0  0  1  0  0  0
  -27.2464  -27.4199   20.0927 C   0  0  0  0  0  0
  -25.5917  -33.8619   24.2310 N   0  0  0  0  0  0
  -23.4003  -30.4879   21.5467 C   0  0  2  0  0  0
  -24.8481  -28.9439   20.1144 C   0  0  0  0  0  0
  -22.7392  -29.4650   22.4979 C   0  0  0  0  0  0
  -18.0272  -28.1363   22.8505 C   0  0  0  0  0  0
  -24.1481  -36.7301   23.2633 C   0  0  0  0  0  0
  -25.9272  -30.8298   21.3547 C   0  0  0  0  0  0
  -26.0064  -29.4589   20.7089 C   0  0  0  0  0  0
  -27.2018  -28.7026   20.6953 C   0  0  0  0  0  0
  -26.0652  -26.9188   19.5007 C   0  0  0  0  0  0
  -24.8739  -27.6740   19.5105 C   0  0  0  0  0  0
  -23.6076  -29.8114   20.1642 C   0  0  0  0  0  0
  -25.4105  -36.3105   24.0338 C   0  0  1  0  0  0
  -20.5860  -28.3654   23.1325 C   0  0  2  0  0  0
  -20.6754  -26.9397   22.5407 C   0  0  0  0  0  0
  -19.5726  -26.6391   21.5203 C   0  0  0  0  0  0
  -18.1912  -26.7911   22.1624 C   0  0  0  0  0  0
  -19.1520  -28.8826   23.2916 C   0  0  0  0  0  0
  -18.9448  -30.1445   23.8913 C   0  0  0  0  0  0
  -17.6447  -30.6567   24.0571 C   0  0  0  0  0  0
  -25.9041  -34.9476   23.5110 C   0  0  0  0  0  0
  -16.5342  -29.9065   23.6337 C   0  0  0  0  0  0
  -16.7268  -28.6481   23.0347 C   0  0  0  0  0  0
  -26.4483  -31.6606   25.0697 C   0  0  0  0  0  0
  -25.3775  -31.3731   26.1472 C   0  0  0  0  0  0
  -27.0300  -30.3052   24.6049 C   0  0  0  0  0  0
  -27.6048  -32.4329   25.7459 C   0  0  0  0  0  0
  -27.5575  -37.1787   24.8455 C   0  0  0  0  0  0
  -21.4117  -29.3034   22.3732 N   0  0  0  0  0  0
  -26.4272  -37.3809   23.9432 N   0  0  0  0  0  0
  -24.6658  -31.0752   22.0968 N   0  0  0  0  0  0
  -23.4158  -28.8216   23.3033 O   0  0  0  0  0  0
  -28.4509  -26.7348   20.1026 O   0  0  0  0  0  0
  -26.5579  -34.8931   22.4660 O   0  0  0  0  0  0
  -23.5338  -32.1420   23.7477 O   0  0  0  0  0  0
  -30.4100  -19.5154   22.7382 C   0  0  0  0  0  0
  -29.7821  -20.6543   22.2027 C   0  0  0  0  0  0
  -30.4088  -18.3034   22.0257 C   0  0  0  0  0  0
  -29.1597  -20.6236   20.9322 C   0  0  0  0  0  0
  -29.8066  -18.2162   20.7524 C   0  0  0  0  0  0
  -29.2137  -19.3956   20.1836 C   0  0  0  0  0  0
  -28.3735  -21.8550   20.4912 C   0  0  0  0  0  0
  -28.6497  -19.3464   18.7629 C   0  0  0  0  0  0
  -29.8522  -16.8645   19.9973 C   0  0  0  0  0  0
  -28.1873  -24.3519   20.8172 C   0  0  0  0  0  0
  -28.5649  -25.3549   19.6956 C   0  0  0  0  0  0
  -28.9080  -23.0611   20.7684 N   0  0  0  0  0  0
  -29.8559  -15.5979   20.7719 N   0  0  0  0  0  0
  -27.2688  -21.7440   19.9554 O   0  0  0  0  0  0
  -31.4778  -12.4172   19.1660 H   0  0  0  0  0  0
  -30.3305  -11.3247   19.8814 H   0  0  0  0  0  0
  -29.7633  -11.7391   17.4711 H   0  0  0  0  0  0
  -29.6790  -13.4600   17.7559 H   0  0  0  0  0  0
  -27.8460  -11.2990   18.8374 H   0  0  0  0  0  0
  -27.3859  -12.6072   17.7816 H   0  0  0  0  0  0
  -27.6847  -14.2475   19.5396 H   0  0  0  0  0  0
  -28.6782  -12.0155   21.3871 H   0  0  0  0  0  0
  -28.4553  -13.6777   21.8487 H   0  0  0  0  0  0
  -25.2744   -9.5726   22.4754 H   0  0  0  0  0  0
  -24.0032   -7.4642   22.7440 H   0  0  0  0  0  0
  -21.0845   -8.8766   19.8950 H   0  0  0  0  0  0
  -22.3668  -10.9683   19.6169 H   0  0  0  0  0  0
  -21.1970   -7.6146   23.9732 H   0  0  0  0  0  0
  -21.1491   -6.0522   25.9093 H   0  0  0  0  0  0
  -22.0585   -2.7617   23.2858 H   0  0  0  0  0  0
  -22.4091  -11.9948   22.4870 H   0  0  0  0  0  0
  -21.1085  -13.1288   22.2535 H   0  0  0  0  0  0
  -24.6639  -15.8421   20.5176 H   0  0  0  0  0  0
  -26.2820  -15.6279   20.0827 H   0  0  0  0  0  0
  -26.7114  -32.5519   23.1138 H   0  0  0  0  0  0
  -25.0134  -33.9790   25.0499 H   0  0  0  0  0  0
  -22.6898  -31.3061   21.4062 H   0  0  0  0  0  0
  -23.3743  -35.9627   23.3268 H   0  0  0  0  0  0
  -24.3585  -36.8929   22.2049 H   0  0  0  0  0  0
  -23.7223  -37.6497   23.6664 H   0  0  0  0  0  0
  -26.0297  -31.5904   20.5786 H   0  0  0  0  0  0
  -26.8192  -30.8946   21.9665 H   0  0  0  0  0  0
  -28.0944  -29.1015   21.1556 H   0  0  0  0  0  0
  -26.0429  -25.9499   19.0262 H   0  0  0  0  0  0
  -23.9814  -27.2713   19.0507 H   0  0  0  0  0  0
  -23.7105  -30.5810   19.3980 H   0  0  0  0  0  0
  -22.7318  -29.2277   19.8736 H   0  0  0  0  0  0
  -25.1275  -36.1953   25.0832 H   0  0  0  0  0  0
  -20.9998  -28.3214   24.1425 H   0  0  0  0  0  0
  -20.5651  -26.2265   23.3578 H   0  0  0  0  0  0
  -21.6626  -26.7424   22.1214 H   0  0  0  0  0  0
  -19.6880  -25.6314   21.1192 H   0  0  0  0  0  0
  -19.6657  -27.3232   20.6754 H   0  0  0  0  0  0
  -17.4193  -26.6708   21.4002 H   0  0  0  0  0  0
  -18.0308  -26.0012   22.8978 H   0  0  0  0  0  0
  -19.7927  -30.7277   24.2254 H   0  0  0  0  0  0
  -17.4997  -31.6248   24.5179 H   0  0  0  0  0  0
  -15.5340  -30.2965   23.7659 H   0  0  0  0  0  0
  -15.8667  -28.0821   22.7032 H   0  0  0  0  0  0
  -24.5936  -30.7070   25.7853 H   0  0  0  0  0  0
  -24.8984  -32.2895   26.4929 H   0  0  0  0  0  0
  -25.8164  -30.8924   27.0223 H   0  0  0  0  0  0
  -26.2823  -29.6807   24.1140 H   0  0  0  0  0  0
  -27.4119  -29.7307   25.4495 H   0  0  0  0  0  0
  -27.8639  -30.4366   23.9148 H   0  0  0  0  0  0
  -27.2657  -33.3622   26.2054 H   0  0  0  0  0  0
  -28.3855  -32.6901   25.0289 H   0  0  0  0  0  0
  -28.0721  -31.8447   26.5364 H   0  0  0  0  0  0
  -28.2581  -38.0100   24.7551 H   0  0  0  0  0  0
  -28.1079  -36.2633   24.6208 H   0  0  0  0  0  0
  -27.2297  -37.1350   25.8857 H   0  0  0  0  0  0
  -20.9260  -29.8771   21.6979 H   0  0  0  0  0  0
  -26.0132  -38.2864   24.1497 H   0  0  0  0  0  0
  -30.8778  -19.5675   23.7130 H   0  0  0  0  0  0
  -29.7631  -21.5566   22.7993 H   0  0  0  0  0  0
  -30.8868  -17.4374   22.4623 H   0  0  0  0  0  0
  -28.7902  -20.2974   18.2470 H   0  0  0  0  0  0
  -27.5835  -19.1186   18.7787 H   0  0  0  0  0  0
  -29.1502  -18.6076   18.1383 H   0  0  0  0  0  0
  -28.9607  -16.7865   19.3748 H   0  0  0  0  0  0
  -30.6931  -16.8996   19.3022 H   0  0  0  0  0  0
  -27.1063  -24.2087   20.8393 H   0  0  0  0  0  0
  -28.4418  -24.7989   21.7785 H   0  0  0  0  0  0
  -28.0403  -25.1431   18.7649 H   0  0  0  0  0  0
  -29.6199  -25.2137   19.4586 H   0  0  0  0  0  0
  -29.8442  -23.0509   21.1489 H   0  0  0  0  0  0
  -28.9712  -15.3569   21.1927 H   0  0  0  0  0  0
  1 25  1  0  0  0
  1 30  2  0  0  0
  1 83  1  0  0  0
  2  3  1  0  0  0
  2 25  1  0  0  0
  2 85  1  0  0  0
  2 86  1  0  0  0
  3  4  1  0  0  0
  3 87  1  0  0  0
  3 88  1  0  0  0
  4  5  1  0  0  0
  4 89  1  0  0  0
  4 90  1  0  0  0
  5  6  1  0  0  0
  5 26  1  0  0  0
  5 91  1  0  0  0
  6 25  1  0  0  0
  6 92  1  0  0  0
  6 93  1  0  0  0
  7  8  2  0  0  0
  7 26  1  0  0  0
  7 29  1  0  0  0
  8  9  1  0  0  0
  8 22  1  0  0  0
  9 10  1  0  0  0
  9 27  2  0  0  0
 10 11  2  0  0  0
 10 15  1  0  0  0
 11 12  1  0  0  0
 11 94  1  0  0  0
 12 13  2  0  0  0
 12 95  1  0  0  0
 13 14  1  0  0  0
 13 31  1  0  0  0
 14 15  2  0  0  0
 14 96  1  0  0  0
 15 97  1  0  0  0
 16 17  2  0  0  0
 16 21  1  0  0  0
 16 31  1  0  0  0
 17 18  1  0  0  0
 17 98  1  0  0  0
 18 19  2  0  0  0
 18 99  1  0  0  0
 19 20  1  0  0  0
 19 24  1  0  0  0
 20 21  2  0  0  0
 20100  1  0  0  0
 21 23  1  0  0  0
 22 28  1  0  0  0
 22 32  2  0  0  0
 26 27  1  0  0  0
 28101  1  0  0  0
 28102  1  0  0  0
 29103  1  0  0  0
 29104  1  0  0  0
 33 34  1  0  0  0
 33 66  1  0  0  0
 33 70  2  0  0  0
 34 36  1  0  0  0
 34 59  1  0  0  0
 34105  1  0  0  0
 35 44  2  0  0  0
 35 45  1  0  0  0
 35 68  1  0  0  0
 36 56  1  0  0  0
 36106  1  0  0  0
 37 39  1  0  0  0
 37 47  1  0  0  0
 37 66  1  0  0  0
 37107  1  0  0  0
 38 43  2  0  0  0
 38 46  1  0  0  0
 38 47  1  0  0  0
 39 64  1  0  0  0
 39 67  2  0  0  0
 40 52  1  0  0  0
 40 53  2  0  0  0
 40 58  1  0  0  0
 41108  1  0  0  0
 41109  1  0  0  0
 41110  1  0  0  0
 41 48  1  0  0  0
 42 43  1  0  0  0
 42 66  1  0  0  0
 42111  1  0  0  0
 42112  1  0  0  0
 43 44  1  0  0  0
 44113  1  0  0  0
 45 46  2  0  0  0
 45114  1  0  0  0
 46115  1  0  0  0
 47116  1  0  0  0
 47117  1  0  0  0
 48 56  1  0  0  0
 48 65  1  0  0  0
 48118  1  0  0  0
 49 50  1  0  0  0
 49 53  1  0  0  0
 49 64  1  0  0  0
 49119  1  0  0  0
 50 51  1  0  0  0
 50120  1  0  0  0
 50121  1  0  0  0
 51 52  1  0  0  0
 51122  1  0  0  0
 51123  1  0  0  0
 52124  1  0  0  0
 52125  1  0  0  0
 53 54  1  0  0  0
 54 55  2  0  0  0
 54126  1  0  0  0
 55 57  1  0  0  0
 55127  1  0  0  0
 56 69  2  0  0  0
 57 58  2  0  0  0
 57128  1  0  0  0
 58129  1  0  0  0
 59 60  1  0  0  0
 59 61  1  0  0  0
 59 62  1  0  0  0
 60130  1  0  0  0
 60131  1  0  0  0
 60132  1  0  0  0
 61133  1  0  0  0
 61134  1  0  0  0
 61135  1  0  0  0
 62136  1  0  0  0
 62137  1  0  0  0
 62138  1  0  0  0
 63 65  1  0  0  0
 63139  1  0  0  0
 63140  1  0  0  0
 63141  1  0  0  0
 64142  1  0  0  0
 65143  1  0  0  0
 68 81  1  0  0  0
 71 72  2  0  0  0
 71 73  1  0  0  0
 71144  1  0  0  0
 72 74  1  0  0  0
 72145  1  0  0  0
 73 75  2  0  0  0
 73146  1  0  0  0
 74 76  2  0  0  0
 74 77  1  0  0  0
 75 76  1  0  0  0
 75 79  1  0  0  0
 76 78  1  0  0  0
 77 82  1  0  0  0
 77 84  2  0  0  0
 78147  1  0  0  0
 78148  1  0  0  0
 78149  1  0  0  0
 79 83  1  0  0  0
 79150  1  0  0  0
 79151  1  0  0  0
 80 81  1  0  0  0
 80 82  1  0  0  0
 80152  1  0  0  0
 80153  1  0  0  0
 81154  1  0  0  0
 81155  1  0  0  0
 82156  1  0  0  0
 83157  1  0  0  0
M  ISO  4   1 100  68 101  81 101  83 100
M  END
> <chiral flag>
0

> <version>
0

> <s_m_source_file>
/data/baiqing/PycharmProjects/Reinvent-master-3.2/result/LINK_invent/BTK/process_docking_weight1_custom_product_contain_oxygen_bond_distance_aromatic_linkinvent_7_9_3/rearranged_h_0047.sdf

> <i_m_source_file_index>
64

> <r_mmod_Potential_Energy-OPLS-2005>
-114.477516174316

> <r_mmod_Stretch_Energy-OPLS-2005>
48.8262786865234

> <r_mmod_Bend_Energy-OPLS-2005>
114.32836151123

> <r_mmod_Torsional_Energy-OPLS-2005>
228.095718383789

> <r_mmod_Improper_Torsional_Energy-OPLS-2005>
9.90103435516357

> <r_mmod_Van_der_Waal_Energy-OPLS-2005>
154.089462280273

> <r_mmod_Electrostatic_Energy-OPLS-2005>
-457.748077392578

> <r_mmod_Solvation_Energy-OPLS-2005>
-232.168395996094

> <b_mmod_Minimization_Converged-OPLS-2005>
0

> <r_mmod_RMS_Derivative-OPLS-2005>
2.72219920158386

$$$$
64
                    3D
 Structure written by MMmdl.
178187  0  0  1  0            999 V2000
  -30.6501  -14.5116   20.5620 C   0  0  0  0  0  0
  -30.4371  -12.3276   19.4215 C   0  0  0  0  0  0
  -29.5004  -12.5147   18.2077 C   0  0  0  0  0  0
  -28.0204  -12.3691   18.6180 C   0  0  0  0  0  0
  -27.6630  -13.2014   19.8779 C   0  0  2  0  0  0
  -28.7055  -12.9615   20.9938 C   0  0  0  0  0  0
  -25.2591  -13.8140   20.5643 C   0  0  0  0  0  0
  -24.1843  -13.0431   20.9174 C   0  0  0  0  0  0
  -24.6392  -11.6897   20.8742 C   0  0  0  0  0  0
  -23.9053  -10.4289   21.0409 C   0  0  0  0  0  0
  -24.3610   -9.4204   21.9186 C   0  0  0  0  0  0
  -23.6289   -8.2239   22.0757 C   0  0  0  0  0  0
  -22.4270   -8.0283   21.3549 C   0  0  0  0  0  0
  -21.9910   -9.0252   20.4639 C   0  0  0  0  0  0
  -22.7237  -10.2130   20.3046 C   0  0  0  0  0  0
  -21.6844   -6.0737   22.5285 C   0  0  0  0  0  0
  -21.4007   -6.5639   23.8222 C   0  0  0  0  0  0
  -21.3652   -5.6790   24.9180 C   0  0  0  0  0  0
  -21.6046   -4.3055   24.7225 C   0  0  0  0  0  0
  -21.8822   -3.8146   23.4347 C   0  0  0  0  0  0
  -21.9193   -4.6965   22.3403 C   0  0  0  0  0  0
  -22.7867  -13.5237   21.1837 C   0  0  0  0  0  0
  -22.1660   -4.2158   21.0978 F   0  0  0  0  0  0
  -21.5633   -3.4533   25.7735 F   0  0  0  0  0  0
  -30.0343  -13.2996   20.4499 N   0  0  0  0  0  0
  -26.3029  -12.9300   20.3356 N   0  0  0  0  0  0
  -25.9320  -11.6470   20.5766 N   0  0  0  0  0  0
  -22.0488  -12.8244   22.0389 N   0  0  0  0  0  0
  -25.4285  -15.1845   20.3981 N   0  0  0  0  0  0
  -31.7755  -14.7284   20.1010 O   0  0  0  0  0  0
  -21.6632   -6.8882   21.4248 O   0  0  0  0  0  0
  -22.3567  -14.5546   20.6686 O   0  0  0  0  0  0
  -24.6155  -31.8660   23.2055 C   0  0  0  0  0  0
  -25.9042  -32.4811   23.8361 C   0  0  1  0  0  0
  -27.2393  -27.4086   20.0948 C   0  0  0  0  0  0
  -25.5890  -33.8610   24.2297 N   0  0  0  0  0  0
  -23.4027  -30.4856   21.5491 C   0  0  2  0  0  0
  -24.8459  -28.9361   20.1252 C   0  0  0  0  0  0
  -22.7402  -29.4647   22.5011 C   0  0  0  0  0  0
  -18.0267  -28.1379   22.8500 C   0  0  0  0  0  0
  -24.1480  -36.7297   23.2642 C   0  0  0  0  0  0
  -25.9318  -30.8223   21.3594 C   0  0  0  0  0  0
  -26.0058  -29.4497   20.7159 C   0  0  0  0  0  0
  -27.2007  -28.6937   20.6919 C   0  0  0  0  0  0
  -26.0489  -26.8973   19.5317 C   0  0  0  0  0  0
  -24.8627  -27.6592   19.5356 C   0  0  0  0  0  0
  -23.6103  -29.8077   20.1678 C   0  0  0  0  0  0
  -25.4112  -36.3105   24.0333 C   0  0  1  0  0  0
  -20.5854  -28.3660   23.1334 C   0  0  2  0  0  0
  -20.6759  -26.9398   22.5426 C   0  0  0  0  0  0
  -19.5739  -26.6385   21.5221 C   0  0  0  0  0  0
  -18.1911  -26.7928   22.1625 C   0  0  0  0  0  0
  -19.1516  -28.8840   23.2907 C   0  0  0  0  0  0
  -18.9447  -30.1449   23.8913 C   0  0  0  0  0  0
  -17.6451  -30.6589   24.0570 C   0  0  0  0  0  0
  -25.9042  -34.9471   23.5116 C   0  0  0  0  0  0
  -16.5342  -29.9090   23.6333 C   0  0  0  0  0  0
  -16.7257  -28.6508   23.0353 C   0  0  0  0  0  0
  -26.4467  -31.6600   25.0702 C   0  0  0  0  0  0
  -25.3724  -31.3693   26.1438 C   0  0  0  0  0  0
  -27.0309  -30.3048   24.6076 C   0  0  0  0  0  0
  -27.6031  -32.4328   25.7480 C   0  0  0  0  0  0
  -27.5579  -37.1803   24.8471 C   0  0  0  0  0  0
  -21.4132  -29.3021   22.3747 N   0  0  0  0  0  0
  -26.4295  -37.3794   23.9414 N   0  0  0  0  0  0
  -24.6686  -31.0734   22.0967 N   0  0  0  0  0  0
  -23.4163  -28.8205   23.3072 O   0  0  0  0  0  0
  -28.4688  -26.7772   20.0142 O   0  0  0  0  0  0
  -26.5614  -34.8928   22.4684 O   0  0  0  0  0  0
  -23.5347  -32.1425   23.7449 O   0  0  0  0  0  0
  -30.8643  -19.0677   20.4336 C   0  0  0  0  0  0
  -30.8502  -17.6570   20.3672 C   0  0  0  0  0  0
  -29.9400  -19.7864   21.2300 C   0  0  0  0  0  0
  -28.9269  -19.0471   21.9045 C   0  0  0  0  0  0
  -28.9051  -17.6189   21.8276 C   0  0  0  0  0  0
  -29.8988  -16.9066   21.0950 C   0  0  0  0  0  0
  -29.5367  -24.9151   20.9758 C   0  0  0  0  0  0
  -28.7051  -25.4117   20.0327 C   0  0  0  0  0  0
  -30.2506  -23.6810   20.6703 C   0  0  0  0  0  0
  -31.4457  -23.7871   20.0369 C   0  0  0  0  0  0
  -32.2135  -22.7413   19.3805 C   0  0  0  0  0  0
  -33.4239  -22.9658   18.8430 C   0  0  0  0  0  0
  -28.3859  -24.6238   18.7553 C   0  0  0  0  0  0
  -27.8017  -23.2031   19.0432 C   0  0  0  0  0  0
  -28.7963  -22.0745   19.4899 C   0  0  0  0  0  0
  -27.8853  -19.7576   22.7670 C   0  0  0  0  0  0
  -27.8351  -16.8367   22.5922 C   0  0  0  0  0  0
  -29.9548  -25.7632   22.1615 C   0  0  0  0  0  0
  -30.2157  -21.2895   21.5059 C   0  0  0  0  0  0
  -34.2603  -21.9142   18.1458 C   0  0  0  0  0  0
  -29.8752  -15.4664   21.1285 N   0  0  0  0  0  0
  -29.4918  -22.3885   20.7679 N   0  3  1  0  0  0
  -34.5272  -22.3088   16.4284 Cl  0  0  0  0  0  0
  -31.4782  -12.4531   19.1196 H   0  0  0  0  0  0
  -30.3623  -11.3121   19.8132 H   0  0  0  0  0  0
  -29.7433  -11.7915   17.4279 H   0  0  0  0  0  0
  -29.6639  -13.5006   17.7696 H   0  0  0  0  0  0
  -27.8342  -11.3117   18.8085 H   0  0  0  0  0  0
  -27.3702  -12.6453   17.7870 H   0  0  0  0  0  0
  -27.7099  -14.2515   19.5897 H   0  0  0  0  0  0
  -28.6919  -11.9142   21.2977 H   0  0  0  0  0  0
  -28.4588  -13.5208   21.8969 H   0  0  0  0  0  0
  -25.2751   -9.5678   22.4775 H   0  0  0  0  0  0
  -23.9988   -7.4628   22.7482 H   0  0  0  0  0  0
  -21.0842   -8.8771   19.8944 H   0  0  0  0  0  0
  -22.3704  -10.9670   19.6153 H   0  0  0  0  0  0
  -21.1995   -7.6149   23.9729 H   0  0  0  0  0  0
  -21.1468   -6.0516   25.9085 H   0  0  0  0  0  0
  -22.0606   -2.7613   23.2846 H   0  0  0  0  0  0
  -22.4079  -11.9893   22.4776 H   0  0  0  0  0  0
  -21.1103  -13.1287   22.2571 H   0  0  0  0  0  0
  -24.6543  -15.8329   20.4872 H   0  0  0  0  0  0
  -26.2683  -15.6195   20.0386 H   0  0  0  0  0  0
  -26.7110  -32.5516   23.1119 H   0  0  0  0  0  0
  -25.0035  -33.9770   25.0440 H   0  0  0  0  0  0
  -22.6916  -31.3017   21.4050 H   0  0  0  0  0  0
  -23.3751  -35.9621   23.3321 H   0  0  0  0  0  0
  -24.3560  -36.8904   22.2053 H   0  0  0  0  0  0
  -23.7218  -37.6498   23.6652 H   0  0  0  0  0  0
  -26.0409  -31.5830   20.5849 H   0  0  0  0  0  0
  -26.8215  -30.8825   21.9749 H   0  0  0  0  0  0
  -28.1065  -29.1001   21.1197 H   0  0  0  0  0  0
  -26.0136  -25.9208   19.0789 H   0  0  0  0  0  0
  -23.9669  -27.2532   19.0863 H   0  0  0  0  0  0
  -23.7169  -30.5754   19.4005 H   0  0  0  0  0  0
  -22.7345  -29.2234   19.8790 H   0  0  0  0  0  0
  -25.1290  -36.1971   25.0828 H   0  0  0  0  0  0
  -20.9935  -28.3222   24.1460 H   0  0  0  0  0  0
  -20.5681  -26.2261   23.3607 H   0  0  0  0  0  0
  -21.6628  -26.7454   22.1210 H   0  0  0  0  0  0
  -19.6895  -25.6300   21.1243 H   0  0  0  0  0  0
  -19.6682  -27.3210   20.6763 H   0  0  0  0  0  0
  -17.4185  -26.6702   21.4012 H   0  0  0  0  0  0
  -18.0289  -26.0059   22.9008 H   0  0  0  0  0  0
  -19.7922  -30.7266   24.2281 H   0  0  0  0  0  0
  -17.5005  -31.6270   24.5168 H   0  0  0  0  0  0
  -15.5345  -30.3002   23.7647 H   0  0  0  0  0  0
  -15.8654  -28.0840   22.7055 H   0  0  0  0  0  0
  -24.5893  -30.7061   25.7750 H   0  0  0  0  0  0
  -24.8919  -32.2843   26.4909 H   0  0  0  0  0  0
  -25.8063  -30.8829   27.0180 H   0  0  0  0  0  0
  -26.2852  -29.6803   24.1143 H   0  0  0  0  0  0
  -27.4102  -29.7295   25.4531 H   0  0  0  0  0  0
  -27.8670  -30.4384   23.9210 H   0  0  0  0  0  0
  -27.2642  -33.3624   26.2067 H   0  0  0  0  0  0
  -28.3839  -32.6898   25.0311 H   0  0  0  0  0  0
  -28.0692  -31.8443   26.5390 H   0  0  0  0  0  0
  -28.2604  -38.0097   24.7529 H   0  0  0  0  0  0
  -28.1069  -36.2624   24.6296 H   0  0  0  0  0  0
  -27.2284  -37.1457   25.8872 H   0  0  0  0  0  0
  -20.9301  -29.8740   21.6968 H   0  0  0  0  0  0
  -26.0182  -38.2873   24.1421 H   0  0  0  0  0  0
  -31.6546  -19.5893   19.9131 H   0  0  0  0  0  0
  -31.6081  -17.1680   19.7732 H   0  0  0  0  0  0
  -31.8383  -24.7914   19.9377 H   0  0  0  0  0  0
  -31.8117  -21.7451   19.2902 H   0  0  0  0  0  0
  -33.8611  -23.9531   18.8948 H   0  0  0  0  0  0
  -29.2957  -24.5357   18.1594 H   0  0  0  0  0  0
  -27.7124  -25.1917   18.1185 H   0  0  0  0  0  0
  -27.3202  -22.8579   18.1281 H   0  0  0  0  0  0
  -26.9917  -23.2888   19.7687 H   0  0  0  0  0  0
  -29.5254  -21.8844   18.7023 H   0  0  0  0  0  0
  -28.2311  -21.1498   19.6097 H   0  0  0  0  0  0
  -28.0103  -20.8349   22.8335 H   0  0  0  0  0  0
  -27.9128  -19.3707   23.7862 H   0  0  0  0  0  0
  -26.8839  -19.5940   22.3677 H   0  0  0  0  0  0
  -28.1661  -16.6533   23.6147 H   0  0  0  0  0  0
  -27.6071  -15.8765   22.1344 H   0  0  0  0  0  0
  -26.8831  -17.3632   22.6344 H   0  0  0  0  0  0
  -29.0844  -26.2286   22.6260 H   0  0  0  0  0  0
  -30.6328  -26.5539   21.8398 H   0  0  0  0  0  0
  -30.4613  -25.1599   22.9151 H   0  0  0  0  0  0
  -31.2898  -21.4182   21.4053 H   0  0  0  0  0  0
  -30.0776  -21.4769   22.5703 H   0  0  0  0  0  0
  -33.7881  -20.9321   18.1960 H   0  0  0  0  0  0
  -35.2355  -21.8397   18.6291 H   0  0  0  0  0  0
  -29.0473  -15.0813   21.5521 H   0  0  0  0  0  0
  -28.7198  -22.5685   21.3909 H   0  0  0  0  0  0
  1 25  1  0  0  0
  1 30  2  0  0  0
  1 91  1  0  0  0
  2  3  1  0  0  0
  2 25  1  0  0  0
  2 94  1  0  0  0
  2 95  1  0  0  0
  3  4  1  0  0  0
  3 96  1  0  0  0
  3 97  1  0  0  0
  4  5  1  0  0  0
  4 98  1  0  0  0
  4 99  1  0  0  0
  5  6  1  0  0  0
  5 26  1  0  0  0
  5100  1  0  0  0
  6 25  1  0  0  0
  6101  1  0  0  0
  6102  1  0  0  0
  7  8  2  0  0  0
  7 26  1  0  0  0
  7 29  1  0  0  0
  8  9  1  0  0  0
  8 22  1  0  0  0
  9 10  1  0  0  0
  9 27  2  0  0  0
 10 11  2  0  0  0
 10 15  1  0  0  0
 11 12  1  0  0  0
 11103  1  0  0  0
 12 13  2  0  0  0
 12104  1  0  0  0
 13 14  1  0  0  0
 13 31  1  0  0  0
 14 15  2  0  0  0
 14105  1  0  0  0
 15106  1  0  0  0
 16 17  2  0  0  0
 16 21  1  0  0  0
 16 31  1  0  0  0
 17 18  1  0  0  0
 17107  1  0  0  0
 18 19  2  0  0  0
 18108  1  0  0  0
 19 20  1  0  0  0
 19 24  1  0  0  0
 20 21  2  0  0  0
 20109  1  0  0  0
 21 23  1  0  0  0
 22 28  1  0  0  0
 22 32  2  0  0  0
 26 27  1  0  0  0
 28110  1  0  0  0
 28111  1  0  0  0
 29112  1  0  0  0
 29113  1  0  0  0
 33 34  1  0  0  0
 33 66  1  0  0  0
 33 70  2  0  0  0
 34 36  1  0  0  0
 34 59  1  0  0  0
 34114  1  0  0  0
 35 44  2  0  0  0
 35 45  1  0  0  0
 35 68  1  0  0  0
 36 56  1  0  0  0
 36115  1  0  0  0
 37 39  1  0  0  0
 37 47  1  0  0  0
 37 66  1  0  0  0
 37116  1  0  0  0
 38 43  2  0  0  0
 38 46  1  0  0  0
 38 47  1  0  0  0
 39 64  1  0  0  0
 39 67  2  0  0  0
 40 52  1  0  0  0
 40 53  2  0  0  0
 40 58  1  0  0  0
 41117  1  0  0  0
 41118  1  0  0  0
 41119  1  0  0  0
 41 48  1  0  0  0
 42 43  1  0  0  0
 42 66  1  0  0  0
 42120  1  0  0  0
 42121  1  0  0  0
 43 44  1  0  0  0
 44122  1  0  0  0
 45 46  2  0  0  0
 45123  1  0  0  0
 46124  1  0  0  0
 47125  1  0  0  0
 47126  1  0  0  0
 48 56  1  0  0  0
 48 65  1  0  0  0
 48127  1  0  0  0
 49 50  1  0  0  0
 49 53  1  0  0  0
 49 64  1  0  0  0
 49128  1  0  0  0
 50 51  1  0  0  0
 50129  1  0  0  0
 50130  1  0  0  0
 51 52  1  0  0  0
 51131  1  0  0  0
 51132  1  0  0  0
 52133  1  0  0  0
 52134  1  0  0  0
 53 54  1  0  0  0
 54 55  2  0  0  0
 54135  1  0  0  0
 55 57  1  0  0  0
 55136  1  0  0  0
 56 69  2  0  0  0
 57 58  2  0  0  0
 57137  1  0  0  0
 58138  1  0  0  0
 59 60  1  0  0  0
 59 61  1  0  0  0
 59 62  1  0  0  0
 60139  1  0  0  0
 60140  1  0  0  0
 60141  1  0  0  0
 61142  1  0  0  0
 61143  1  0  0  0
 61144  1  0  0  0
 62145  1  0  0  0
 62146  1  0  0  0
 62147  1  0  0  0
 63 65  1  0  0  0
 63148  1  0  0  0
 63149  1  0  0  0
 63150  1  0  0  0
 64151  1  0  0  0
 65152  1  0  0  0
 68 78  1  0  0  0
 71 72  2  0  0  0
 71 73  1  0  0  0
 71153  1  0  0  0
 72 76  1  0  0  0
 72154  1  0  0  0
 73 74  2  0  0  0
 73 89  1  0  0  0
 74 75  1  0  0  0
 74 86  1  0  0  0
 75 76  2  0  0  0
 75 87  1  0  0  0
 76 91  1  0  0  0
 77 78  2  0  0  0
 77 79  1  0  0  0
 77 88  1  0  0  0
 78 83  1  0  0  0
 79 80  2  0  0  0
 79 92  1  0  0  0
 80 81  1  0  0  0
 80155  1  0  0  0
 81 82  2  0  0  0
 81156  1  0  0  0
 82 90  1  0  0  0
 82157  1  0  0  0
 83 84  1  0  0  0
 83158  1  0  0  0
 83159  1  0  0  0
 84 85  1  0  0  0
 84160  1  0  0  0
 84161  1  0  0  0
 85 92  1  0  0  0
 85162  1  0  0  0
 85163  1  0  0  0
 86164  1  0  0  0
 86165  1  0  0  0
 86166  1  0  0  0
 87167  1  0  0  0
 87168  1  0  0  0
 87169  1  0  0  0
 88170  1  0  0  0
 88171  1  0  0  0
 88172  1  0  0  0
 89173  1  0  0  0
 89174  1  0  0  0
 89 92  1  0  0  0
 90 93  1  0  0  0
 90175  1  0  0  0
 90176  1  0  0  0
 91177  1  0  0  0
 92178  1  0  0  0
M  CHG  1  92   1
M  ISO  4   1 100  68 101  78 101  91 100
M  END
> <chiral flag>
0

> <version>
0

> <s_m_source_file>
/data/baiqing/PycharmProjects/Reinvent-master-3.2/result/LINK_invent/BTK/process_docking_weight1_custom_product_contain_oxygen_bond_distance_aromatic_linkinvent_7_9_3/rearranged_h_0047.sdf

> <i_m_source_file_index>
65

> <r_mmod_Potential_Energy-OPLS-2005>
-33.3115196228027

> <r_mmod_Stretch_Energy-OPLS-2005>
53.1425590515137

> <r_mmod_Bend_Energy-OPLS-2005>
167.290496826172

> <r_mmod_Torsional_Energy-OPLS-2005>
282.948944091797

> <r_mmod_Improper_Torsional_Energy-OPLS-2005>
7.0065541267395

> <r_mmod_Van_der_Waal_Energy-OPLS-2005>
160.047073364258

> <r_mmod_Electrostatic_Energy-OPLS-2005>
-295.877380371094

> <r_mmod_Solvation_Energy-OPLS-2005>
-424.241546630859

> <b_mmod_Minimization_Converged-OPLS-2005>
0

> <r_mmod_RMS_Derivative-OPLS-2005>
1.47114896774292

$$$$
65
                    3D
 Structure written by MMmdl.
158167  0  0  1  0            999 V2000
  -30.6233  -14.7452   20.4676 C   0  0  0  0  0  0
  -30.4301  -12.4552   19.4809 C   0  0  0  0  0  0
  -29.5112  -12.5030   18.2416 C   0  0  0  0  0  0
  -28.0407  -12.3142   18.6614 C   0  0  0  0  0  0
  -27.6394  -13.2287   19.8501 C   0  0  2  0  0  0
  -28.6837  -13.1796   20.9876 C   0  0  0  0  0  0
  -25.2483  -13.8194   20.5667 C   0  0  0  0  0  0
  -24.1773  -13.0442   20.9190 C   0  0  0  0  0  0
  -24.6364  -11.6921   20.8740 C   0  0  0  0  0  0
  -23.9041  -10.4304   21.0417 C   0  0  0  0  0  0
  -24.3602   -9.4215   21.9185 C   0  0  0  0  0  0
  -23.6292   -8.2238   22.0740 C   0  0  0  0  0  0
  -22.4267   -8.0271   21.3537 C   0  0  0  0  0  0
  -21.9897   -9.0242   20.4633 C   0  0  0  0  0  0
  -22.7216  -10.2133   20.3059 C   0  0  0  0  0  0
  -21.6852   -6.0720   22.5268 C   0  0  0  0  0  0
  -21.4016   -6.5625   23.8202 C   0  0  0  0  0  0
  -21.3676   -5.6779   24.9164 C   0  0  0  0  0  0
  -21.6058   -4.3045   24.7217 C   0  0  0  0  0  0
  -21.8817   -3.8130   23.4342 C   0  0  0  0  0  0
  -21.9192   -4.6945   22.3399 C   0  0  0  0  0  0
  -22.7805  -13.5225   21.1875 C   0  0  0  0  0  0
  -22.1654   -4.2123   21.0979 F   0  0  0  0  0  0
  -21.5644   -3.4535   25.7743 F   0  0  0  0  0  0
  -29.9855  -13.5254   20.4023 N   0  0  0  0  0  0
  -26.2911  -12.9398   20.3280 N   0  0  0  0  0  0
  -25.9290  -11.6549   20.5758 N   0  0  0  0  0  0
  -22.0459  -12.8210   22.0438 N   0  0  0  0  0  0
  -25.4197  -15.1910   20.4040 N   0  0  0  0  0  0
  -31.8169  -14.8192   20.1613 O   0  0  0  0  0  0
  -21.6644   -6.8860   21.4228 O   0  0  0  0  0  0
  -22.3508  -14.5540   20.6731 O   0  0  0  0  0  0
  -24.6303  -31.8552   23.1995 C   0  0  0  0  0  0
  -25.9135  -32.4753   23.8338 C   0  0  1  0  0  0
  -27.2106  -27.2639   20.1354 C   0  0  0  0  0  0
  -25.5925  -33.8554   24.2259 N   0  0  0  0  0  0
  -23.4277  -30.4796   21.5414 C   0  0  2  0  0  0
  -24.8750  -28.9282   20.1093 C   0  0  0  0  0  0
  -22.7502  -29.4602   22.4890 C   0  0  0  0  0  0
  -18.0291  -28.1390   22.8474 C   0  0  0  0  0  0
  -24.1493  -36.7291   23.2637 C   0  0  0  0  0  0
  -25.9747  -30.7698   21.3803 C   0  0  0  0  0  0
  -26.0468  -29.3924   20.7224 C   0  0  0  0  0  0
  -27.2222  -28.5733   20.7224 C   0  0  0  0  0  0
  -26.0257  -26.8751   19.4775 C   0  0  0  0  0  0
  -24.8693  -27.6768   19.4753 C   0  0  0  0  0  0
  -23.6469  -29.8154   20.1564 C   0  0  0  0  0  0
  -25.4113  -36.3065   24.0324 C   0  0  1  0  0  0
  -20.5897  -28.3704   23.1254 C   0  0  2  0  0  0
  -20.6783  -26.9422   22.5400 C   0  0  0  0  0  0
  -19.5761  -26.6389   21.5204 C   0  0  0  0  0  0
  -18.1940  -26.7930   22.1615 C   0  0  0  0  0  0
  -19.1548  -28.8860   23.2858 C   0  0  0  0  0  0
  -18.9470  -30.1460   23.8886 C   0  0  0  0  0  0
  -17.6471  -30.6588   24.0564 C   0  0  0  0  0  0
  -25.9050  -34.9435   23.5093 C   0  0  0  0  0  0
  -16.5358  -29.9095   23.6327 C   0  0  0  0  0  0
  -16.7281  -28.6510   23.0350 C   0  0  0  0  0  0
  -26.4512  -31.6574   25.0727 C   0  0  0  0  0  0
  -25.3745  -31.3723   26.1454 C   0  0  0  0  0  0
  -27.0356  -30.2982   24.6224 C   0  0  0  0  0  0
  -27.6047  -32.4335   25.7508 C   0  0  0  0  0  0
  -27.5587  -37.1782   24.8452 C   0  0  0  0  0  0
  -21.4208  -29.3055   22.3642 N   0  0  0  0  0  0
  -26.4285  -37.3771   23.9414 N   0  0  0  0  0  0
  -24.6963  -31.0532   22.0957 N   0  0  0  0  0  0
  -23.4201  -28.8147   23.2990 O   0  0  0  0  0  0
  -28.2820  -26.3441   20.1714 O   0  0  0  0  0  0
  -26.5637  -34.8911   22.4670 O   0  0  0  0  0  0
  -23.5453  -32.1373   23.7284 O   0  0  0  0  0  0
  -31.5064  -17.7099   21.1250 C   0  0  0  0  0  0
  -31.8927  -19.0647   21.2011 C   0  0  0  0  0  0
  -29.3235  -18.4359   20.3523 C   0  0  0  0  0  0
  -29.6987  -19.8454   20.4232 C   0  0  0  0  0  0
  -30.2177  -17.3319   20.6820 C   0  0  0  0  0  0
  -31.0200  -20.1131   20.8440 C   0  0  0  0  0  0
  -28.5662  -23.6712   19.9370 C   0  0  0  0  0  0
  -27.9991  -23.5210   22.7748 C   0  0  0  0  0  0
  -28.3418  -24.9025   22.1969 C   0  0  0  0  0  0
  -28.7894  -22.4006   22.0719 C   0  0  0  0  0  0
  -27.9911  -24.9620   20.7045 C   0  0  1  0  0  0
  -28.7721  -21.0591   19.9446 C   0  0  0  0  0  0
  -28.7439  -22.4495   20.5990 N   0  0  0  0  0  0
  -29.8496  -15.8900   20.6311 N   0  0  0  0  0  0
  -28.7292  -23.7593   18.7156 O   0  0  0  0  0  0
  -31.4789  -21.3857   20.8831 F   0  0  0  0  0  0
  -31.4730  -12.5702   19.1800 H   0  0  0  0  0  0
  -30.3673  -11.4837   19.9743 H   0  0  0  0  0  0
  -29.8041  -11.7298   17.5304 H   0  0  0  0  0  0
  -29.6290  -13.4587   17.7272 H   0  0  0  0  0  0
  -27.9158  -11.2696   18.9509 H   0  0  0  0  0  0
  -27.3764  -12.4760   17.8130 H   0  0  0  0  0  0
  -27.6296  -14.2465   19.4597 H   0  0  0  0  0  0
  -28.7209  -12.1884   21.4448 H   0  0  0  0  0  0
  -28.4169  -13.8739   21.7862 H   0  0  0  0  0  0
  -25.2753   -9.5686   22.4749 H   0  0  0  0  0  0
  -24.0004   -7.4633   22.7455 H   0  0  0  0  0  0
  -21.0820   -8.8757   19.8949 H   0  0  0  0  0  0
  -22.3669  -10.9667   19.6164 H   0  0  0  0  0  0
  -21.2004   -7.6133   23.9692 H   0  0  0  0  0  0
  -21.1513   -6.0514   25.9069 H   0  0  0  0  0  0
  -22.0589   -2.7583   23.2846 H   0  0  0  0  0  0
  -22.4091  -11.9891   22.4851 H   0  0  0  0  0  0
  -21.1091  -13.1248   22.2675 H   0  0  0  0  0  0
  -24.6477  -15.8432   20.4935 H   0  0  0  0  0  0
  -26.2584  -15.6215   20.0388 H   0  0  0  0  0  0
  -26.7197  -32.5411   23.1071 H   0  0  0  0  0  0
  -25.0035  -33.9696   25.0378 H   0  0  0  0  0  0
  -22.7239  -31.3007   21.3943 H   0  0  0  0  0  0
  -23.3732  -35.9651   23.3326 H   0  0  0  0  0  0
  -24.3578  -36.8885   22.2046 H   0  0  0  0  0  0
  -23.7279  -37.6516   23.6641 H   0  0  0  0  0  0
  -26.1163  -31.5320   20.6125 H   0  0  0  0  0  0
  -26.8501  -30.8151   22.0154 H   0  0  0  0  0  0
  -28.1194  -28.9210   21.2154 H   0  0  0  0  0  0
  -25.9831  -25.9201   18.9716 H   0  0  0  0  0  0
  -23.9764  -27.3190   18.9799 H   0  0  0  0  0  0
  -23.7721  -30.5924   19.4015 H   0  0  0  0  0  0
  -22.7659  -29.2483   19.8495 H   0  0  0  0  0  0
  -25.1288  -36.1904   25.0816 H   0  0  0  0  0  0
  -20.9989  -28.3292   24.1374 H   0  0  0  0  0  0
  -20.5668  -26.2326   23.3608 H   0  0  0  0  0  0
  -21.6650  -26.7442   22.1200 H   0  0  0  0  0  0
  -19.6923  -25.6298   21.1240 H   0  0  0  0  0  0
  -19.6694  -27.3192   20.6724 H   0  0  0  0  0  0
  -17.4204  -26.6661   21.4028 H   0  0  0  0  0  0
  -18.0350  -26.0083   22.9021 H   0  0  0  0  0  0
  -19.7953  -30.7269   24.2259 H   0  0  0  0  0  0
  -17.5035  -31.6270   24.5169 H   0  0  0  0  0  0
  -15.5362  -30.2996   23.7665 H   0  0  0  0  0  0
  -15.8678  -28.0831   22.7073 H   0  0  0  0  0  0
  -24.5923  -30.7062   25.7800 H   0  0  0  0  0  0
  -24.8940  -32.2891   26.4873 H   0  0  0  0  0  0
  -25.8081  -30.8919   27.0231 H   0  0  0  0  0  0
  -26.2945  -29.6729   24.1235 H   0  0  0  0  0  0
  -27.4003  -29.7244   25.4752 H   0  0  0  0  0  0
  -27.8840  -30.4237   23.9493 H   0  0  0  0  0  0
  -27.2602  -33.3580   26.2148 H   0  0  0  0  0  0
  -28.3822  -32.6992   25.0338 H   0  0  0  0  0  0
  -28.0766  -31.8446   26.5380 H   0  0  0  0  0  0
  -28.2562  -38.0121   24.7539 H   0  0  0  0  0  0
  -28.1119  -36.2647   24.6206 H   0  0  0  0  0  0
  -27.2316  -37.1350   25.8858 H   0  0  0  0  0  0
  -20.9388  -29.8782   21.6846 H   0  0  0  0  0  0
  -26.0155  -38.2833   24.1452 H   0  0  0  0  0  0
  -32.2299  -16.9630   21.4206 H   0  0  0  0  0  0
  -32.8934  -19.3089   21.5278 H   0  0  0  0  0  0
  -28.3242  -18.2010   20.0127 H   0  0  0  0  0  0
  -26.9286  -23.3355   22.6712 H   0  0  0  0  0  0
  -28.2064  -23.4989   23.8463 H   0  0  0  0  0  0
  -29.4004  -25.1218   22.3445 H   0  0  0  0  0  0
  -27.7827  -25.6695   22.7332 H   0  0  0  0  0  0
  -28.4239  -21.4353   22.4274 H   0  0  0  0  0  0
  -29.8341  -22.4609   22.3775 H   0  0  0  0  0  0
  -26.9153  -24.7956   20.6589 H   0  0  0  0  0  0
  -27.7417  -20.7011   19.9709 H   0  0  0  0  0  0
  -28.9911  -21.1927   18.8834 H   0  0  0  0  0  0
  -28.8610  -15.7002   20.6928 H   0  0  0  0  0  0
  1 25  1  0  0  0
  1 30  2  0  0  0
  1 84  1  0  0  0
  2  3  1  0  0  0
  2 25  1  0  0  0
  2 87  1  0  0  0
  2 88  1  0  0  0
  3  4  1  0  0  0
  3 89  1  0  0  0
  3 90  1  0  0  0
  4  5  1  0  0  0
  4 91  1  0  0  0
  4 92  1  0  0  0
  5  6  1  0  0  0
  5 26  1  0  0  0
  5 93  1  0  0  0
  6 25  1  0  0  0
  6 94  1  0  0  0
  6 95  1  0  0  0
  7  8  2  0  0  0
  7 26  1  0  0  0
  7 29  1  0  0  0
  8  9  1  0  0  0
  8 22  1  0  0  0
  9 10  1  0  0  0
  9 27  2  0  0  0
 10 11  2  0  0  0
 10 15  1  0  0  0
 11 12  1  0  0  0
 11 96  1  0  0  0
 12 13  2  0  0  0
 12 97  1  0  0  0
 13 14  1  0  0  0
 13 31  1  0  0  0
 14 15  2  0  0  0
 14 98  1  0  0  0
 15 99  1  0  0  0
 16 17  2  0  0  0
 16 21  1  0  0  0
 16 31  1  0  0  0
 17 18  1  0  0  0
 17100  1  0  0  0
 18 19  2  0  0  0
 18101  1  0  0  0
 19 20  1  0  0  0
 19 24  1  0  0  0
 20 21  2  0  0  0
 20102  1  0  0  0
 21 23  1  0  0  0
 22 28  1  0  0  0
 22 32  2  0  0  0
 26 27  1  0  0  0
 28103  1  0  0  0
 28104  1  0  0  0
 29105  1  0  0  0
 29106  1  0  0  0
 33 34  1  0  0  0
 33 66  1  0  0  0
 33 70  2  0  0  0
 34 36  1  0  0  0
 34 59  1  0  0  0
 34107  1  0  0  0
 35 44  2  0  0  0
 35 45  1  0  0  0
 35 68  1  0  0  0
 36 56  1  0  0  0
 36108  1  0  0  0
 37 39  1  0  0  0
 37 47  1  0  0  0
 37 66  1  0  0  0
 37109  1  0  0  0
 38 43  2  0  0  0
 38 46  1  0  0  0
 38 47  1  0  0  0
 39 64  1  0  0  0
 39 67  2  0  0  0
 40 52  1  0  0  0
 40 53  2  0  0  0
 40 58  1  0  0  0
 41110  1  0  0  0
 41111  1  0  0  0
 41112  1  0  0  0
 41 48  1  0  0  0
 42 43  1  0  0  0
 42 66  1  0  0  0
 42113  1  0  0  0
 42114  1  0  0  0
 43 44  1  0  0  0
 44115  1  0  0  0
 45 46  2  0  0  0
 45116  1  0  0  0
 46117  1  0  0  0
 47118  1  0  0  0
 47119  1  0  0  0
 48 56  1  0  0  0
 48 65  1  0  0  0
 48120  1  0  0  0
 49 50  1  0  0  0
 49 53  1  0  0  0
 49 64  1  0  0  0
 49121  1  0  0  0
 50 51  1  0  0  0
 50122  1  0  0  0
 50123  1  0  0  0
 51 52  1  0  0  0
 51124  1  0  0  0
 51125  1  0  0  0
 52126  1  0  0  0
 52127  1  0  0  0
 53 54  1  0  0  0
 54 55  2  0  0  0
 54128  1  0  0  0
 55 57  1  0  0  0
 55129  1  0  0  0
 56 69  2  0  0  0
 57 58  2  0  0  0
 57130  1  0  0  0
 58131  1  0  0  0
 59 60  1  0  0  0
 59 61  1  0  0  0
 59 62  1  0  0  0
 60132  1  0  0  0
 60133  1  0  0  0
 60134  1  0  0  0
 61135  1  0  0  0
 61136  1  0  0  0
 61137  1  0  0  0
 62138  1  0  0  0
 62139  1  0  0  0
 62140  1  0  0  0
 63 65  1  0  0  0
 63141  1  0  0  0
 63142  1  0  0  0
 63143  1  0  0  0
 64144  1  0  0  0
 65145  1  0  0  0
 68 81  1  0  0  0
 71 72  2  0  0  0
 71 75  1  0  0  0
 71146  1  0  0  0
 72 76  1  0  0  0
 72147  1  0  0  0
 73 74  1  0  0  0
 73 75  2  0  0  0
 73148  1  0  0  0
 74 76  2  0  0  0
 74 82  1  0  0  0
 75 84  1  0  0  0
 76 86  1  0  0  0
 77 81  1  0  0  0
 77 83  1  0  0  0
 77 85  2  0  0  0
 78 79  1  0  0  0
 78 80  1  0  0  0
 78149  1  0  0  0
 78150  1  0  0  0
 79 81  1  0  0  0
 79151  1  0  0  0
 79152  1  0  0  0
 80 83  1  0  0  0
 80153  1  0  0  0
 80154  1  0  0  0
 81155  1  0  0  0
 82 83  1  0  0  0
 82156  1  0  0  0
 82157  1  0  0  0
 84158  1  0  0  0
M  ISO  4   1 100  68 101  81 101  84 100
M  END
> <chiral flag>
0

> <version>
0

> <s_m_source_file>
/data/baiqing/PycharmProjects/Reinvent-master-3.2/result/LINK_invent/BTK/process_docking_weight1_custom_product_contain_oxygen_bond_distance_aromatic_linkinvent_7_9_3/rearranged_h_0047.sdf

> <i_m_source_file_index>
66

> <r_mmod_Potential_Energy-OPLS-2005>
215.68180847168

> <r_mmod_Stretch_Energy-OPLS-2005>
129.411071777344

> <r_mmod_Bend_Energy-OPLS-2005>
157.580307006836

> <r_mmod_Torsional_Energy-OPLS-2005>
256.461456298828

> <r_mmod_Improper_Torsional_Energy-OPLS-2005>
7.44673013687134

> <r_mmod_Van_der_Waal_Energy-OPLS-2005>
145.708389282227

> <r_mmod_Electrostatic_Energy-OPLS-2005>
-340.460327148438

> <r_mmod_Solvation_Energy-OPLS-2005>
-228.443511962891

> <b_mmod_Minimization_Converged-OPLS-2005>
0

> <r_mmod_RMS_Derivative-OPLS-2005>
2.43239045143127

$$$$
66
                    3D
 Structure written by MMmdl.
157165  0  0  1  0            999 V2000
  -30.6734  -14.5104   20.5975 C   0  0  0  0  0  0
  -30.4408  -12.3357   19.4349 C   0  0  0  0  0  0
  -29.5079  -12.5085   18.2177 C   0  0  0  0  0  0
  -28.0302  -12.3476   18.6251 C   0  0  0  0  0  0
  -27.6623  -13.1982   19.8687 C   0  0  2  0  0  0
  -28.6999  -12.9917   20.9959 C   0  0  0  0  0  0
  -25.2635  -13.8107   20.5765 C   0  0  0  0  0  0
  -24.1844  -13.0399   20.9144 C   0  0  0  0  0  0
  -24.6379  -11.6864   20.8708 C   0  0  0  0  0  0
  -23.9036  -10.4272   21.0404 C   0  0  0  0  0  0
  -24.3582   -9.4187   21.9188 C   0  0  0  0  0  0
  -23.6259   -8.2227   22.0744 C   0  0  0  0  0  0
  -22.4247   -8.0276   21.3533 C   0  0  0  0  0  0
  -21.9885   -9.0260   20.4633 C   0  0  0  0  0  0
  -22.7203  -10.2137   20.3054 C   0  0  0  0  0  0
  -21.6846   -6.0716   22.5284 C   0  0  0  0  0  0
  -21.3992   -6.5623   23.8217 C   0  0  0  0  0  0
  -21.3671   -5.6770   24.9180 C   0  0  0  0  0  0
  -21.6054   -4.3040   24.7229 C   0  0  0  0  0  0
  -21.8819   -3.8126   23.4361 C   0  0  0  0  0  0
  -21.9180   -4.6941   22.3405 C   0  0  0  0  0  0
  -22.7880  -13.5246   21.1827 C   0  0  0  0  0  0
  -22.1661   -4.2130   21.0995 F   0  0  0  0  0  0
  -21.5628   -3.4527   25.7744 F   0  0  0  0  0  0
  -30.0317  -13.3156   20.4539 N   0  0  0  0  0  0
  -26.3033  -12.9262   20.3326 N   0  0  0  0  0  0
  -25.9308  -11.6434   20.5708 N   0  0  0  0  0  0
  -22.0487  -12.8292   22.0408 N   0  0  0  0  0  0
  -25.4454  -15.1843   20.4491 N   0  0  0  0  0  0
  -31.7951  -14.7280   20.1338 O   0  0  0  0  0  0
  -21.6627   -6.8876   21.4246 O   0  0  0  0  0  0
  -22.3620  -14.5578   20.6678 O   0  0  0  0  0  0
  -24.6188  -31.8653   23.2065 C   0  0  0  0  0  0
  -25.9062  -32.4808   23.8366 C   0  0  1  0  0  0
  -27.2420  -27.3991   20.1053 C   0  0  0  0  0  0
  -25.5925  -33.8605   24.2336 N   0  0  0  0  0  0
  -23.4086  -30.4863   21.5491 C   0  0  2  0  0  0
  -24.8542  -28.9426   20.1192 C   0  0  0  0  0  0
  -22.7449  -29.4631   22.5010 C   0  0  0  0  0  0
  -18.0279  -28.1396   22.8482 C   0  0  0  0  0  0
  -24.1482  -36.7302   23.2633 C   0  0  0  0  0  0
  -25.9377  -30.8229   21.3592 C   0  0  0  0  0  0
  -26.0149  -29.4502   20.7151 C   0  0  0  0  0  0
  -27.2041  -28.6823   20.7067 C   0  0  0  0  0  0
  -26.0538  -26.9080   19.5129 C   0  0  0  0  0  0
  -24.8703  -27.6719   19.5198 C   0  0  0  0  0  0
  -23.6200  -29.8171   20.1639 C   0  0  0  0  0  0
  -25.4096  -36.3116   24.0362 C   0  0  1  0  0  0
  -20.5870  -28.3684   23.1332 C   0  0  2  0  0  0
  -20.6777  -26.9423   22.5431 C   0  0  0  0  0  0
  -19.5738  -26.6404   21.5237 C   0  0  0  0  0  0
  -18.1913  -26.7942   22.1636 C   0  0  0  0  0  0
  -19.1529  -28.8851   23.2896 C   0  0  0  0  0  0
  -18.9463  -30.1454   23.8910 C   0  0  0  0  0  0
  -17.6458  -30.6584   24.0569 C   0  0  0  0  0  0
  -25.9032  -34.9481   23.5148 C   0  0  0  0  0  0
  -16.5347  -29.9092   23.6319 C   0  0  0  0  0  0
  -16.7269  -28.6519   23.0330 C   0  0  0  0  0  0
  -26.4489  -31.6587   25.0690 C   0  0  0  0  0  0
  -25.3761  -31.3708   26.1460 C   0  0  0  0  0  0
  -27.0301  -30.3020   24.6033 C   0  0  0  0  0  0
  -27.6080  -32.4288   25.7450 C   0  0  0  0  0  0
  -27.5592  -37.1803   24.8465 C   0  0  0  0  0  0
  -21.4169  -29.3036   22.3743 N   0  0  0  0  0  0
  -26.4288  -37.3799   23.9448 N   0  0  0  0  0  0
  -24.6741  -31.0734   22.0976 N   0  0  0  0  0  0
  -23.4195  -28.8189   23.3076 O   0  0  0  0  0  0
  -28.4337  -26.6889   20.1409 O   0  0  0  0  0  0
  -26.5584  -34.8926   22.4691 O   0  0  0  0  0  0
  -23.5361  -32.1436   23.7438 O   0  0  0  0  0  0
  -30.3900  -19.6083   22.0779 C   0  0  0  0  0  0
  -30.7027  -17.2516   22.6385 C   0  0  0  0  0  0
  -29.8674  -19.2655   20.8096 C   0  0  0  0  0  0
  -29.7965  -17.8810   20.4524 C   0  0  0  0  0  0
  -30.2011  -16.8677   21.3772 C   0  0  0  0  0  0
  -30.8048  -18.6123   22.9832 C   0  0  0  0  0  0
  -28.9042  -22.8246   19.6530 C   0  0  0  0  0  0
  -29.2550  -17.4816   19.0828 C   0  0  0  0  0  0
  -29.3941  -20.3751   19.8405 C   0  0  0  0  0  0
  -28.5260  -24.1518   20.3610 C   0  0  0  0  0  0
  -28.6075  -25.4257   19.4585 C   0  0  0  0  0  0
  -29.9208  -15.4784   21.1662 N   0  0  0  0  0  0
  -29.1055  -21.7153   20.4005 N   0  0  0  0  0  0
  -29.0023  -22.7940   18.4228 O   0  0  0  0  0  0
  -31.4056  -19.0668   24.5380 Cl  0  0  0  0  0  0
  -31.4845  -12.4640   19.1427 H   0  0  0  0  0  0
  -30.3640  -11.3252   19.8369 H   0  0  0  0  0  0
  -29.7605  -11.7886   17.4389 H   0  0  0  0  0  0
  -29.6533  -13.4956   17.7789 H   0  0  0  0  0  0
  -27.8531  -11.2917   18.8355 H   0  0  0  0  0  0
  -27.3855  -12.6037   17.7823 H   0  0  0  0  0  0
  -27.7001  -14.2407   19.5563 H   0  0  0  0  0  0
  -28.6842  -11.9568   21.3374 H   0  0  0  0  0  0
  -28.4406  -13.5836   21.8723 H   0  0  0  0  0  0
  -25.2731   -9.5659   22.4743 H   0  0  0  0  0  0
  -23.9934   -7.4619   22.7473 H   0  0  0  0  0  0
  -21.0797   -8.8826   19.8959 H   0  0  0  0  0  0
  -22.3684  -10.9690   19.6170 H   0  0  0  0  0  0
  -21.1996   -7.6129   23.9728 H   0  0  0  0  0  0
  -21.1492   -6.0503   25.9087 H   0  0  0  0  0  0
  -22.0593   -2.7585   23.2881 H   0  0  0  0  0  0
  -22.4031  -11.9918   22.4778 H   0  0  0  0  0  0
  -21.1135  -13.1429   22.2626 H   0  0  0  0  0  0
  -24.7076  -15.8501   20.6504 H   0  0  0  0  0  0
  -26.3361  -15.6261   20.2644 H   0  0  0  0  0  0
  -26.7137  -32.5531   23.1136 H   0  0  0  0  0  0
  -25.0130  -33.9759   25.0519 H   0  0  0  0  0  0
  -22.6969  -31.3023   21.4084 H   0  0  0  0  0  0
  -23.3771  -35.9603   23.3256 H   0  0  0  0  0  0
  -24.3571  -36.8934   22.2050 H   0  0  0  0  0  0
  -23.7194  -37.6483   23.6638 H   0  0  0  0  0  0
  -26.0365  -31.5823   20.5818 H   0  0  0  0  0  0
  -26.8282  -30.8897   21.9716 H   0  0  0  0  0  0
  -28.1003  -29.0706   21.1708 H   0  0  0  0  0  0
  -26.0106  -25.9317   19.0575 H   0  0  0  0  0  0
  -23.9763  -27.2710   19.0642 H   0  0  0  0  0  0
  -23.7397  -30.5920   19.4058 H   0  0  0  0  0  0
  -22.7405  -29.2479   19.8582 H   0  0  0  0  0  0
  -25.1251  -36.1980   25.0856 H   0  0  0  0  0  0
  -20.9930  -28.3261   24.1465 H   0  0  0  0  0  0
  -20.5717  -26.2290   23.3614 H   0  0  0  0  0  0
  -21.6648  -26.7480   22.1203 H   0  0  0  0  0  0
  -19.6898  -25.6330   21.1224 H   0  0  0  0  0  0
  -19.6659  -27.3260   20.6797 H   0  0  0  0  0  0
  -17.4191  -26.6700   21.4030 H   0  0  0  0  0  0
  -18.0286  -26.0086   22.9020 H   0  0  0  0  0  0
  -19.7938  -30.7276   24.2288 H   0  0  0  0  0  0
  -17.5013  -31.6262   24.5193 H   0  0  0  0  0  0
  -15.5351  -30.3004   23.7636 H   0  0  0  0  0  0
  -15.8672  -28.0857   22.7015 H   0  0  0  0  0  0
  -24.5954  -30.7006   25.7846 H   0  0  0  0  0  0
  -24.8921  -32.2865   26.4862 H   0  0  0  0  0  0
  -25.8144  -30.8939   27.0235 H   0  0  0  0  0  0
  -26.2825  -29.6796   24.1098 H   0  0  0  0  0  0
  -27.4114  -29.7230   25.4458 H   0  0  0  0  0  0
  -27.8631  -30.4345   23.9123 H   0  0  0  0  0  0
  -27.2724  -33.3604   26.2009 H   0  0  0  0  0  0
  -28.3893  -32.6822   25.0276 H   0  0  0  0  0  0
  -28.0724  -31.8396   26.5368 H   0  0  0  0  0  0
  -28.2603  -38.0115   24.7573 H   0  0  0  0  0  0
  -28.1098  -36.2664   24.6202 H   0  0  0  0  0  0
  -27.2311  -37.1348   25.8861 H   0  0  0  0  0  0
  -20.9361  -29.8759   21.6942 H   0  0  0  0  0  0
  -26.0182  -38.2860   24.1487 H   0  0  0  0  0  0
  -30.4745  -20.6416   22.3775 H   0  0  0  0  0  0
  -30.9828  -16.5048   23.3689 H   0  0  0  0  0  0
  -29.6187  -18.1576   18.3067 H   0  0  0  0  0  0
  -28.1657  -17.5094   19.0781 H   0  0  0  0  0  0
  -29.5747  -16.4818   18.7891 H   0  0  0  0  0  0
  -28.4838  -20.0363   19.3488 H   0  0  0  0  0  0
  -30.1453  -20.4773   19.0550 H   0  0  0  0  0  0
  -29.1943  -24.2719   21.2133 H   0  0  0  0  0  0
  -27.5189  -24.0498   20.7630 H   0  0  0  0  0  0
  -27.9657  -25.3311   18.5843 H   0  0  0  0  0  0
  -29.6153  -25.4703   19.0449 H   0  0  0  0  0  0
  -29.0216  -15.1620   21.4941 H   0  0  0  0  0  0
  -28.9789  -21.7822   21.4009 H   0  0  0  0  0  0
  1 25  1  0  0  0
  1 30  2  0  0  0
  1 82  1  0  0  0
  2  3  1  0  0  0
  2 25  1  0  0  0
  2 86  1  0  0  0
  2 87  1  0  0  0
  3  4  1  0  0  0
  3 88  1  0  0  0
  3 89  1  0  0  0
  4  5  1  0  0  0
  4 90  1  0  0  0
  4 91  1  0  0  0
  5  6  1  0  0  0
  5 26  1  0  0  0
  5 92  1  0  0  0
  6 25  1  0  0  0
  6 93  1  0  0  0
  6 94  1  0  0  0
  7  8  2  0  0  0
  7 26  1  0  0  0
  7 29  1  0  0  0
  8  9  1  0  0  0
  8 22  1  0  0  0
  9 10  1  0  0  0
  9 27  2  0  0  0
 10 11  2  0  0  0
 10 15  1  0  0  0
 11 12  1  0  0  0
 11 95  1  0  0  0
 12 13  2  0  0  0
 12 96  1  0  0  0
 13 14  1  0  0  0
 13 31  1  0  0  0
 14 15  2  0  0  0
 14 97  1  0  0  0
 15 98  1  0  0  0
 16 17  2  0  0  0
 16 21  1  0  0  0
 16 31  1  0  0  0
 17 18  1  0  0  0
 17 99  1  0  0  0
 18 19  2  0  0  0
 18100  1  0  0  0
 19 20  1  0  0  0
 19 24  1  0  0  0
 20 21  2  0  0  0
 20101  1  0  0  0
 21 23  1  0  0  0
 22 28  1  0  0  0
 22 32  2  0  0  0
 26 27  1  0  0  0
 28102  1  0  0  0
 28103  1  0  0  0
 29104  1  0  0  0
 29105  1  0  0  0
 33 34  1  0  0  0
 33 66  1  0  0  0
 33 70  2  0  0  0
 34 36  1  0  0  0
 34 59  1  0  0  0
 34106  1  0  0  0
 35 44  2  0  0  0
 35 45  1  0  0  0
 35 68  1  0  0  0
 36 56  1  0  0  0
 36107  1  0  0  0
 37 39  1  0  0  0
 37 47  1  0  0  0
 37 66  1  0  0  0
 37108  1  0  0  0
 38 43  2  0  0  0
 38 46  1  0  0  0
 38 47  1  0  0  0
 39 64  1  0  0  0
 39 67  2  0  0  0
 40 52  1  0  0  0
 40 53  2  0  0  0
 40 58  1  0  0  0
 41109  1  0  0  0
 41110  1  0  0  0
 41111  1  0  0  0
 41 48  1  0  0  0
 42 43  1  0  0  0
 42 66  1  0  0  0
 42112  1  0  0  0
 42113  1  0  0  0
 43 44  1  0  0  0
 44114  1  0  0  0
 45 46  2  0  0  0
 45115  1  0  0  0
 46116  1  0  0  0
 47117  1  0  0  0
 47118  1  0  0  0
 48 56  1  0  0  0
 48 65  1  0  0  0
 48119  1  0  0  0
 49 50  1  0  0  0
 49 53  1  0  0  0
 49 64  1  0  0  0
 49120  1  0  0  0
 50 51  1  0  0  0
 50121  1  0  0  0
 50122  1  0  0  0
 51 52  1  0  0  0
 51123  1  0  0  0
 51124  1  0  0  0
 52125  1  0  0  0
 52126  1  0  0  0
 53 54  1  0  0  0
 54 55  2  0  0  0
 54127  1  0  0  0
 55 57  1  0  0  0
 55128  1  0  0  0
 56 69  2  0  0  0
 57 58  2  0  0  0
 57129  1  0  0  0
 58130  1  0  0  0
 59 60  1  0  0  0
 59 61  1  0  0  0
 59 62  1  0  0  0
 60131  1  0  0  0
 60132  1  0  0  0
 60133  1  0  0  0
 61134  1  0  0  0
 61135  1  0  0  0
 61136  1  0  0  0
 62137  1  0  0  0
 62138  1  0  0  0
 62139  1  0  0  0
 63 65  1  0  0  0
 63140  1  0  0  0
 63141  1  0  0  0
 63142  1  0  0  0
 64143  1  0  0  0
 65144  1  0  0  0
 68 81  1  0  0  0
 71 73  2  0  0  0
 71 76  1  0  0  0
 71145  1  0  0  0
 72 75  1  0  0  0
 72 76  2  0  0  0
 72146  1  0  0  0
 73 74  1  0  0  0
 73 79  1  0  0  0
 74 75  2  0  0  0
 74 78  1  0  0  0
 75 82  1  0  0  0
 76 85  1  0  0  0
 77 80  1  0  0  0
 77 83  1  0  0  0
 77 84  2  0  0  0
 78147  1  0  0  0
 78148  1  0  0  0
 78149  1  0  0  0
 79 83  1  0  0  0
 79150  1  0  0  0
 79151  1  0  0  0
 80 81  1  0  0  0
 80152  1  0  0  0
 80153  1  0  0  0
 81154  1  0  0  0
 81155  1  0  0  0
 82156  1  0  0  0
 83157  1  0  0  0
M  ISO  4   1 100  68 101  81 101  82 100
M  END
> <chiral flag>
0

> <version>
0

> <s_m_source_file>
/data/baiqing/PycharmProjects/Reinvent-master-3.2/result/LINK_invent/BTK/process_docking_weight1_custom_product_contain_oxygen_bond_distance_aromatic_linkinvent_7_9_3/rearranged_h_0047.sdf

> <i_m_source_file_index>
67

> <r_mmod_Potential_Energy-OPLS-2005>
-134.591278076172

> <r_mmod_Stretch_Energy-OPLS-2005>
46.4530410766602

> <r_mmod_Bend_Energy-OPLS-2005>
112.188911437988

> <r_mmod_Torsional_Energy-OPLS-2005>
225.667922973633

> <r_mmod_Improper_Torsional_Energy-OPLS-2005>
4.22494220733643

> <r_mmod_Van_der_Waal_Energy-OPLS-2005>
150.626541137695

> <r_mmod_Electrostatic_Energy-OPLS-2005>
-453.736755371094

> <r_mmod_Solvation_Energy-OPLS-2005>
-238.553070068359

> <b_mmod_Minimization_Converged-OPLS-2005>
0

> <r_mmod_RMS_Derivative-OPLS-2005>
4.5672550201416

$$$$
67
                    3D
 Structure written by MMmdl.
170179  0  0  1  0            999 V2000
  -30.7381  -14.4131   20.6404 C   0  0  0  0  0  0
  -30.4170  -12.3050   19.3957 C   0  0  0  0  0  0
  -29.4853  -12.5253   18.1890 C   0  0  0  0  0  0
  -28.0067  -12.3906   18.6040 C   0  0  0  0  0  0
  -27.6629  -13.2106   19.8766 C   0  0  2  0  0  0
  -28.7037  -12.9589   20.9882 C   0  0  0  0  0  0
  -25.2594  -13.8173   20.5690 C   0  0  0  0  0  0
  -24.1848  -13.0438   20.9178 C   0  0  0  0  0  0
  -24.6413  -11.6905   20.8737 C   0  0  0  0  0  0
  -23.9084  -10.4290   21.0411 C   0  0  0  0  0  0
  -24.3628   -9.4201   21.9189 C   0  0  0  0  0  0
  -23.6299   -8.2240   22.0758 C   0  0  0  0  0  0
  -22.4274   -8.0286   21.3552 C   0  0  0  0  0  0
  -21.9919   -9.0266   20.4656 C   0  0  0  0  0  0
  -22.7256  -10.2139   20.3061 C   0  0  0  0  0  0
  -21.6854   -6.0744   22.5284 C   0  0  0  0  0  0
  -21.4012   -6.5647   23.8221 C   0  0  0  0  0  0
  -21.3657   -5.6794   24.9184 C   0  0  0  0  0  0
  -21.6038   -4.3060   24.7227 C   0  0  0  0  0  0
  -21.8821   -3.8157   23.4347 C   0  0  0  0  0  0
  -21.9192   -4.6976   22.3410 C   0  0  0  0  0  0
  -22.7865  -13.5232   21.1833 C   0  0  0  0  0  0
  -22.1663   -4.2159   21.0984 F   0  0  0  0  0  0
  -21.5624   -3.4542   25.7741 F   0  0  0  0  0  0
  -30.0354  -13.2675   20.4387 N   0  0  0  0  0  0
  -26.3038  -12.9355   20.3382 N   0  0  0  0  0  0
  -25.9341  -11.6501   20.5754 N   0  0  0  0  0  0
  -22.0501  -12.8233   22.0392 N   0  0  0  0  0  0
  -25.4287  -15.1891   20.4106 N   0  0  0  0  0  0
  -31.8153  -14.6475   20.0852 O   0  0  0  0  0  0
  -21.6638   -6.8890   21.4249 O   0  0  0  0  0  0
  -22.3546  -14.5539   20.6684 O   0  0  0  0  0  0
  -24.6129  -31.8698   23.2080 C   0  0  0  0  0  0
  -25.9029  -32.4821   23.8378 C   0  0  1  0  0  0
  -27.2203  -27.4335   20.1002 C   0  0  0  0  0  0
  -25.5903  -33.8617   24.2325 N   0  0  0  0  0  0
  -23.3993  -30.4929   21.5487 C   0  0  2  0  0  0
  -24.8420  -28.9547   20.1177 C   0  0  0  0  0  0
  -22.7404  -29.4666   22.4982 C   0  0  0  0  0  0
  -18.0287  -28.1385   22.8509 C   0  0  0  0  0  0
  -24.1490  -36.7291   23.2638 C   0  0  0  0  0  0
  -25.9264  -30.8342   21.3591 C   0  0  0  0  0  0
  -26.0012  -29.4665   20.7127 C   0  0  0  0  0  0
  -27.1962  -28.7137   20.6981 C   0  0  0  0  0  0
  -26.0484  -26.9352   19.4970 C   0  0  0  0  0  0
  -24.8594  -27.6887   19.5060 C   0  0  0  0  0  0
  -23.6062  -29.8239   20.1630 C   0  0  0  0  0  0
  -25.4112  -36.3101   24.0341 C   0  0  1  0  0  0
  -20.5882  -28.3650   23.1334 C   0  0  2  0  0  0
  -20.6780  -26.9394   22.5418 C   0  0  0  0  0  0
  -19.5754  -26.6398   21.5212 C   0  0  0  0  0  0
  -18.1933  -26.7945   22.1622 C   0  0  0  0  0  0
  -19.1533  -28.8833   23.2931 C   0  0  0  0  0  0
  -18.9461  -30.1449   23.8921 C   0  0  0  0  0  0
  -17.6462  -30.6589   24.0580 C   0  0  0  0  0  0
  -25.9038  -34.9478   23.5128 C   0  0  0  0  0  0
  -16.5356  -29.9093   23.6341 C   0  0  0  0  0  0
  -16.7285  -28.6518   23.0355 C   0  0  0  0  0  0
  -26.4467  -31.6593   25.0691 C   0  0  0  0  0  0
  -25.3738  -31.3708   26.1442 C   0  0  0  0  0  0
  -27.0291  -30.3047   24.6021 C   0  0  0  0  0  0
  -27.6049  -32.4303   25.7445 C   0  0  0  0  0  0
  -27.5586  -37.1806   24.8476 C   0  0  0  0  0  0
  -21.4131  -29.3022   22.3738 N   0  0  0  0  0  0
  -26.4297  -37.3791   23.9415 N   0  0  0  0  0  0
  -24.6640  -31.0821   22.0960 N   0  0  0  0  0  0
  -23.4189  -28.8220   23.3030 O   0  0  0  0  0  0
  -28.3983  -26.7238   20.0592 O   0  0  0  0  0  0
  -26.5601  -34.8932   22.4683 O   0  0  0  0  0  0
  -23.5328  -32.1444   23.7485 O   0  0  0  0  0  0
  -31.1523  -18.8071   21.4553 C   0  0  0  0  0  0
  -30.8242  -20.1732   21.5823 C   0  0  0  0  0  0
  -30.3116  -17.8015   21.9693 C   0  0  0  0  0  0
  -29.6123  -20.5562   22.2182 C   0  0  0  0  0  0
  -28.6704  -19.5377   22.5479 C   0  0  0  0  0  0
  -29.0351  -18.1657   22.4567 C   0  0  0  0  0  0
  -27.8842  -24.0136   22.7584 C   0  0  0  0  0  0
  -27.0165  -23.6276   23.7140 C   0  0  0  0  0  0
  -27.9545  -25.4207   22.1616 C   0  0  0  0  0  0
  -27.9541  -24.1965   19.9400 C   0  0  0  0  0  0
  -28.4394  -22.8678   20.6056 C   0  0  0  0  0  0
  -28.4834  -25.4385   20.7051 C   0  0  1  0  0  0
  -31.8648  -21.1816   21.1192 C   0  0  0  0  0  0
  -27.2943  -19.8979   23.0922 C   0  0  0  0  0  0
  -30.8878  -16.3917   22.1427 C   0  0  0  0  0  0
  -29.4552  -21.9794   22.8057 C   0  0  0  0  0  0
  -30.1857  -15.2831   21.4959 N   0  0  0  0  0  0
  -28.8197  -23.0877   22.0280 N   0  3  2  0  0  0
  -27.9627  -16.9381   23.0484 Cl  0  0  0  0  0  0
  -31.4604  -12.4074   19.0914 H   0  0  0  0  0  0
  -30.3181  -11.2866   19.7741 H   0  0  0  0  0  0
  -29.7179  -11.8120   17.3973 H   0  0  0  0  0  0
  -29.6602  -13.5168   17.7673 H   0  0  0  0  0  0
  -27.8041  -11.3331   18.7769 H   0  0  0  0  0  0
  -27.3576  -12.6930   17.7807 H   0  0  0  0  0  0
  -27.7163  -14.2660   19.6043 H   0  0  0  0  0  0
  -28.6769  -11.9140   21.2998 H   0  0  0  0  0  0
  -28.4573  -13.5308   21.8828 H   0  0  0  0  0  0
  -25.2775   -9.5670   22.4763 H   0  0  0  0  0  0
  -24.0011   -7.4627   22.7473 H   0  0  0  0  0  0
  -21.0850   -8.8798   19.8961 H   0  0  0  0  0  0
  -22.3734  -10.9680   19.6169 H   0  0  0  0  0  0
  -21.2005   -7.6152   23.9730 H   0  0  0  0  0  0
  -21.1472   -6.0523   25.9084 H   0  0  0  0  0  0
  -22.0598   -2.7619   23.2848 H   0  0  0  0  0  0
  -22.4105  -11.9888   22.4776 H   0  0  0  0  0  0
  -21.1116  -13.1264   22.2582 H   0  0  0  0  0  0
  -24.6667  -15.8441   20.5431 H   0  0  0  0  0  0
  -26.2941  -15.6365   20.1354 H   0  0  0  0  0  0
  -26.7094  -32.5548   23.1144 H   0  0  0  0  0  0
  -25.0103  -33.9784   25.0503 H   0  0  0  0  0  0
  -22.6877  -31.3096   21.4114 H   0  0  0  0  0  0
  -23.3760  -35.9611   23.3307 H   0  0  0  0  0  0
  -24.3599  -36.8887   22.2051 H   0  0  0  0  0  0
  -23.7220  -37.6492   23.6640 H   0  0  0  0  0  0
  -26.0380  -31.5964   20.5862 H   0  0  0  0  0  0
  -26.8153  -30.8894   21.9751 H   0  0  0  0  0  0
  -28.0948  -29.1069   21.1536 H   0  0  0  0  0  0
  -26.0511  -25.9805   18.9944 H   0  0  0  0  0  0
  -23.9707  -27.2966   19.0319 H   0  0  0  0  0  0
  -23.7176  -30.5975   19.4020 H   0  0  0  0  0  0
  -22.7291  -29.2454   19.8683 H   0  0  0  0  0  0
  -25.1289  -36.1959   25.0833 H   0  0  0  0  0  0
  -20.9991  -28.3200   24.1452 H   0  0  0  0  0  0
  -20.5675  -26.2255   23.3593 H   0  0  0  0  0  0
  -21.6658  -26.7456   22.1206 H   0  0  0  0  0  0
  -19.6899  -25.6312   21.1230 H   0  0  0  0  0  0
  -19.6691  -27.3233   20.6765 H   0  0  0  0  0  0
  -17.4214  -26.6731   21.4013 H   0  0  0  0  0  0
  -18.0320  -26.0068   22.9001 H   0  0  0  0  0  0
  -19.7926  -30.7285   24.2272 H   0  0  0  0  0  0
  -17.5014  -31.6266   24.5187 H   0  0  0  0  0  0
  -15.5356  -30.3000   23.7636 H   0  0  0  0  0  0
  -15.8701  -28.0847   22.7027 H   0  0  0  0  0  0
  -24.5925  -30.7024   25.7808 H   0  0  0  0  0  0
  -24.8907  -32.2864   26.4862 H   0  0  0  0  0  0
  -25.8103  -30.8924   27.0214 H   0  0  0  0  0  0
  -26.2816  -29.6805   24.1095 H   0  0  0  0  0  0
  -27.4133  -29.7266   25.4436 H   0  0  0  0  0  0
  -27.8618  -30.4411   23.9111 H   0  0  0  0  0  0
  -27.2681  -33.3603   26.2034 H   0  0  0  0  0  0
  -28.3842  -32.6847   25.0255 H   0  0  0  0  0  0
  -28.0714  -31.8406   26.5348 H   0  0  0  0  0  0
  -28.2619  -38.0098   24.7530 H   0  0  0  0  0  0
  -28.1072  -36.2630   24.6289 H   0  0  0  0  0  0
  -27.2318  -37.1436   25.8888 H   0  0  0  0  0  0
  -20.9280  -29.8745   21.6973 H   0  0  0  0  0  0
  -26.0181  -38.2863   24.1425 H   0  0  0  0  0  0
  -32.1170  -18.5313   21.0499 H   0  0  0  0  0  0
  -26.3365  -24.3435   24.1518 H   0  0  0  0  0  0
  -26.9455  -22.6159   24.0817 H   0  0  0  0  0  0
  -28.5641  -26.0621   22.7981 H   0  0  0  0  0  0
  -26.9435  -25.8297   22.1980 H   0  0  0  0  0  0
  -26.8647  -24.2032   19.9542 H   0  0  0  0  0  0
  -28.2521  -24.2236   18.8918 H   0  0  0  0  0  0
  -29.3008  -22.4872   20.0576 H   0  0  0  0  0  0
  -27.6660  -22.1021   20.5337 H   0  0  0  0  0  0
  -29.5639  -25.3005   20.7665 H   0  0  0  0  0  0
  -32.4334  -20.7846   20.2765 H   0  0  0  0  0  0
  -32.5685  -21.3987   21.9238 H   0  0  0  0  0  0
  -31.4248  -22.1176   20.7839 H   0  0  0  0  0  0
  -26.9552  -20.8619   22.7205 H   0  0  0  0  0  0
  -27.3016  -19.9157   24.1821 H   0  0  0  0  0  0
  -26.5417  -19.1821   22.7623 H   0  0  0  0  0  0
  -30.8789  -16.1783   23.2133 H   0  0  0  0  0  0
  -31.9459  -16.3960   21.8745 H   0  0  0  0  0  0
  -30.4524  -22.3427   23.0571 H   0  0  0  0  0  0
  -28.9970  -21.8803   23.7868 H   0  0  0  0  0  0
  -29.2773  -15.0457   21.8659 H   0  0  0  0  0  0
  -29.6458  -23.6519   21.8999 H   0  0  0  0  0  0
  1 25  1  0  0  0
  1 30  2  0  0  0
  1 87  1  0  0  0
  2  3  1  0  0  0
  2 25  1  0  0  0
  2 90  1  0  0  0
  2 91  1  0  0  0
  3  4  1  0  0  0
  3 92  1  0  0  0
  3 93  1  0  0  0
  4  5  1  0  0  0
  4 94  1  0  0  0
  4 95  1  0  0  0
  5  6  1  0  0  0
  5 26  1  0  0  0
  5 96  1  0  0  0
  6 25  1  0  0  0
  6 97  1  0  0  0
  6 98  1  0  0  0
  7  8  2  0  0  0
  7 26  1  0  0  0
  7 29  1  0  0  0
  8  9  1  0  0  0
  8 22  1  0  0  0
  9 10  1  0  0  0
  9 27  2  0  0  0
 10 11  2  0  0  0
 10 15  1  0  0  0
 11 12  1  0  0  0
 11 99  1  0  0  0
 12 13  2  0  0  0
 12100  1  0  0  0
 13 14  1  0  0  0
 13 31  1  0  0  0
 14 15  2  0  0  0
 14101  1  0  0  0
 15102  1  0  0  0
 16 17  2  0  0  0
 16 21  1  0  0  0
 16 31  1  0  0  0
 17 18  1  0  0  0
 17103  1  0  0  0
 18 19  2  0  0  0
 18104  1  0  0  0
 19 20  1  0  0  0
 19 24  1  0  0  0
 20 21  2  0  0  0
 20105  1  0  0  0
 21 23  1  0  0  0
 22 28  1  0  0  0
 22 32  2  0  0  0
 26 27  1  0  0  0
 28106  1  0  0  0
 28107  1  0  0  0
 29108  1  0  0  0
 29109  1  0  0  0
 33 34  1  0  0  0
 33 66  1  0  0  0
 33 70  2  0  0  0
 34 36  1  0  0  0
 34 59  1  0  0  0
 34110  1  0  0  0
 35 44  2  0  0  0
 35 45  1  0  0  0
 35 68  1  0  0  0
 36 56  1  0  0  0
 36111  1  0  0  0
 37 39  1  0  0  0
 37 47  1  0  0  0
 37 66  1  0  0  0
 37112  1  0  0  0
 38 43  2  0  0  0
 38 46  1  0  0  0
 38 47  1  0  0  0
 39 64  1  0  0  0
 39 67  2  0  0  0
 40 52  1  0  0  0
 40 53  2  0  0  0
 40 58  1  0  0  0
 41113  1  0  0  0
 41114  1  0  0  0
 41115  1  0  0  0
 41 48  1  0  0  0
 42 43  1  0  0  0
 42 66  1  0  0  0
 42116  1  0  0  0
 42117  1  0  0  0
 43 44  1  0  0  0
 44118  1  0  0  0
 45 46  2  0  0  0
 45119  1  0  0  0
 46120  1  0  0  0
 47121  1  0  0  0
 47122  1  0  0  0
 48 56  1  0  0  0
 48 65  1  0  0  0
 48123  1  0  0  0
 49 50  1  0  0  0
 49 53  1  0  0  0
 49 64  1  0  0  0
 49124  1  0  0  0
 50 51  1  0  0  0
 50125  1  0  0  0
 50126  1  0  0  0
 51 52  1  0  0  0
 51127  1  0  0  0
 51128  1  0  0  0
 52129  1  0  0  0
 52130  1  0  0  0
 53 54  1  0  0  0
 54 55  2  0  0  0
 54131  1  0  0  0
 55 57  1  0  0  0
 55132  1  0  0  0
 56 69  2  0  0  0
 57 58  2  0  0  0
 57133  1  0  0  0
 58134  1  0  0  0
 59 60  1  0  0  0
 59 61  1  0  0  0
 59 62  1  0  0  0
 60135  1  0  0  0
 60136  1  0  0  0
 60137  1  0  0  0
 61138  1  0  0  0
 61139  1  0  0  0
 61140  1  0  0  0
 62141  1  0  0  0
 62142  1  0  0  0
 62143  1  0  0  0
 63 65  1  0  0  0
 63144  1  0  0  0
 63145  1  0  0  0
 63146  1  0  0  0
 64147  1  0  0  0
 65148  1  0  0  0
 68 82  1  0  0  0
 71 72  2  0  0  0
 71 73  1  0  0  0
 71149  1  0  0  0
 72 74  1  0  0  0
 72 83  1  0  0  0
 73 76  2  0  0  0
 73 85  1  0  0  0
 74 75  2  0  0  0
 74 86  1  0  0  0
 75 76  1  0  0  0
 75 84  1  0  0  0
 76 89  1  0  0  0
 77 78  2  0  0  0
 77 79  1  0  0  0
 77 88  1  0  0  0
 78150  1  0  0  0
 78151  1  0  0  0
 79 82  1  0  0  0
 79152  1  0  0  0
 79153  1  0  0  0
 80 81  1  0  0  0
 80 82  1  0  0  0
 80154  1  0  0  0
 80155  1  0  0  0
 81 88  1  0  0  0
 81156  1  0  0  0
 81157  1  0  0  0
 82158  1  0  0  0
 83159  1  0  0  0
 83160  1  0  0  0
 83161  1  0  0  0
 84162  1  0  0  0
 84163  1  0  0  0
 84164  1  0  0  0
 85 87  1  0  0  0
 85165  1  0  0  0
 85166  1  0  0  0
 86167  1  0  0  0
 86168  1  0  0  0
 86 88  1  0  0  0
 87169  1  0  0  0
 88170  1  0  0  0
M  CHG  1  88   1
M  ISO  4   1 100  68 101  82 101  87 100
M  END
> <chiral flag>
0

> <version>
0

> <s_m_source_file>
/data/baiqing/PycharmProjects/Reinvent-master-3.2/result/LINK_invent/BTK/process_docking_weight1_custom_product_contain_oxygen_bond_distance_aromatic_linkinvent_7_9_3/rearranged_h_0047.sdf

> <i_m_source_file_index>
68

> <r_mmod_Potential_Energy-OPLS-2005>
-104.72184753418

> <r_mmod_Stretch_Energy-OPLS-2005>
43.0083656311035

> <r_mmod_Bend_Energy-OPLS-2005>
145.492614746094

> <r_mmod_Torsional_Energy-OPLS-2005>
261.149291992188

> <r_mmod_Improper_Torsional_Energy-OPLS-2005>
5.30655193328857

> <r_mmod_Van_der_Waal_Energy-OPLS-2005>
164.449157714844

> <r_mmod_Electrostatic_Energy-OPLS-2005>
-302.530975341797

> <r_mmod_Solvation_Energy-OPLS-2005>
-430.323669433594

> <b_mmod_Minimization_Converged-OPLS-2005>
0

> <r_mmod_RMS_Derivative-OPLS-2005>
2.29366636276245

$$$$
68
                    3D
 Structure written by MMmdl.
157165  0  0  1  0            999 V2000
  -30.6134  -14.7594   20.4596 C   0  0  0  0  0  0
  -30.4310  -12.4663   19.4774 C   0  0  0  0  0  0
  -29.5075  -12.5105   18.2400 C   0  0  0  0  0  0
  -28.0345  -12.3327   18.6548 C   0  0  0  0  0  0
  -27.6378  -13.2365   19.8520 C   0  0  2  0  0  0
  -28.6838  -13.1826   20.9877 C   0  0  0  0  0  0
  -25.2458  -13.8196   20.5697 C   0  0  0  0  0  0
  -24.1769  -13.0430   20.9231 C   0  0  0  0  0  0
  -24.6373  -11.6904   20.8764 C   0  0  0  0  0  0
  -23.9048  -10.4278   21.0414 C   0  0  0  0  0  0
  -24.3602   -9.4199   21.9190 C   0  0  0  0  0  0
  -23.6280   -8.2235   22.0753 C   0  0  0  0  0  0
  -22.4263   -8.0271   21.3541 C   0  0  0  0  0  0
  -21.9901   -9.0237   20.4645 C   0  0  0  0  0  0
  -22.7224  -10.2119   20.3057 C   0  0  0  0  0  0
  -21.6856   -6.0714   22.5262 C   0  0  0  0  0  0
  -21.4015   -6.5626   23.8190 C   0  0  0  0  0  0
  -21.3662   -5.6788   24.9158 C   0  0  0  0  0  0
  -21.6053   -4.3049   24.7222 C   0  0  0  0  0  0
  -21.8818   -3.8130   23.4348 C   0  0  0  0  0  0
  -21.9191   -4.6944   22.3397 C   0  0  0  0  0  0
  -22.7789  -13.5209   21.1886 C   0  0  0  0  0  0
  -22.1659   -4.2122   21.0980 F   0  0  0  0  0  0
  -21.5636   -3.4536   25.7745 F   0  0  0  0  0  0
  -29.9829  -13.5351   20.4013 N   0  0  0  0  0  0
  -26.2904  -12.9414   20.3296 N   0  0  0  0  0  0
  -25.9310  -11.6548   20.5777 N   0  0  0  0  0  0
  -22.0437  -12.8187   22.0438 N   0  0  0  0  0  0
  -25.4100  -15.1902   20.4026 N   0  0  0  0  0  0
  -31.8066  -14.8264   20.1533 O   0  0  0  0  0  0
  -21.6637   -6.8857   21.4226 O   0  0  0  0  0  0
  -22.3466  -14.5513   20.6735 O   0  0  0  0  0  0
  -24.6291  -31.8542   23.1961 C   0  0  0  0  0  0
  -25.9117  -32.4753   23.8326 C   0  0  1  0  0  0
  -27.2313  -27.2697   20.1282 C   0  0  0  0  0  0
  -25.5911  -33.8551   24.2230 N   0  0  0  0  0  0
  -23.4276  -30.4741   21.5368 C   0  0  2  0  0  0
  -24.8777  -28.9206   20.1067 C   0  0  0  0  0  0
  -22.7508  -29.4584   22.4896 C   0  0  0  0  0  0
  -18.0291  -28.1376   22.8480 C   0  0  0  0  0  0
  -24.1493  -36.7284   23.2643 C   0  0  0  0  0  0
  -25.9724  -30.7719   21.3736 C   0  0  0  0  0  0
  -26.0451  -29.3946   20.7154 C   0  0  0  0  0  0
  -27.2191  -28.5796   20.7166 C   0  0  0  0  0  0
  -26.0352  -26.8498   19.5053 C   0  0  0  0  0  0
  -24.8786  -27.6573   19.4923 C   0  0  0  0  0  0
  -23.6460  -29.8030   20.1540 C   0  0  0  0  0  0
  -25.4118  -36.3059   24.0323 C   0  0  1  0  0  0
  -20.5894  -28.3679   23.1275 C   0  0  2  0  0  0
  -20.6775  -26.9387   22.5426 C   0  0  0  0  0  0
  -19.5752  -26.6363   21.5227 C   0  0  0  0  0  0
  -18.1919  -26.7921   22.1616 C   0  0  0  0  0  0
  -19.1549  -28.8845   23.2873 C   0  0  0  0  0  0
  -18.9478  -30.1438   23.8900 C   0  0  0  0  0  0
  -17.6474  -30.6583   24.0554 C   0  0  0  0  0  0
  -25.9061  -34.9437   23.5085 C   0  0  0  0  0  0
  -16.5366  -29.9081   23.6335 C   0  0  0  0  0  0
  -16.7279  -28.6498   23.0354 C   0  0  0  0  0  0
  -26.4497  -31.6586   25.0718 C   0  0  0  0  0  0
  -25.3701  -31.3756   26.1429 C   0  0  0  0  0  0
  -27.0351  -30.3001   24.6204 C   0  0  0  0  0  0
  -27.6040  -32.4355   25.7489 C   0  0  0  0  0  0
  -27.5584  -37.1773   24.8451 C   0  0  0  0  0  0
  -21.4215  -29.3020   22.3660 N   0  0  0  0  0  0
  -26.4291  -37.3757   23.9414 N   0  0  0  0  0  0
  -24.6949  -31.0509   22.0933 N   0  0  0  0  0  0
  -23.4210  -28.8128   23.3002 O   0  0  0  0  0  0
  -28.3560  -26.4223   20.2250 O   0  0  0  0  0  0
  -26.5643  -34.8916   22.4663 O   0  0  0  0  0  0
  -23.5440  -32.1376   23.7241 O   0  0  0  0  0  0
  -31.8613  -19.1578   20.6867 C   0  0  0  0  0  0
  -30.8956  -20.1792   20.5978 C   0  0  0  0  0  0
  -31.5028  -17.7948   20.6975 C   0  0  0  0  0  0
  -29.5230  -19.8766   20.5143 C   0  0  0  0  0  0
  -29.1689  -18.4522   20.5171 C   0  0  0  0  0  0
  -30.1544  -17.3687   20.6044 C   0  0  0  0  0  0
  -28.3914  -23.7366   20.4222 C   0  0  0  0  0  0
  -27.6949  -18.1003   20.4226 C   0  0  0  0  0  0
  -29.3575  -22.4115   18.5742 C   0  0  0  0  0  0
  -28.4922  -21.1062   20.5292 C   0  0  0  0  0  0
  -28.4882  -25.0876   19.5491 C   0  0  0  0  0  0
  -29.8338  -15.9040   20.6425 N   0  0  0  0  0  0
  -28.7894  -22.4891   19.9226 N   0  0  0  0  0  0
  -27.9068  -23.8293   21.5545 O   0  0  0  0  0  0
  -31.4706  -12.5904   19.1699 H   0  0  0  0  0  0
  -30.3790  -11.4926   19.9669 H   0  0  0  0  0  0
  -29.7894  -11.7321   17.5300 H   0  0  0  0  0  0
  -29.6316  -13.4627   17.7206 H   0  0  0  0  0  0
  -27.8938  -11.2854   18.9235 H   0  0  0  0  0  0
  -27.3765  -12.5212   17.8060 H   0  0  0  0  0  0
  -27.6268  -14.2562   19.4665 H   0  0  0  0  0  0
  -28.7204  -12.1896   21.4383 H   0  0  0  0  0  0
  -28.4174  -13.8737   21.7899 H   0  0  0  0  0  0
  -25.2737   -9.5682   22.4774 H   0  0  0  0  0  0
  -23.9977   -7.4634   22.7481 H   0  0  0  0  0  0
  -21.0833   -8.8765   19.8958 H   0  0  0  0  0  0
  -22.3679  -10.9663   19.6175 H   0  0  0  0  0  0
  -21.2004   -7.6133   23.9688 H   0  0  0  0  0  0
  -21.1495   -6.0522   25.9064 H   0  0  0  0  0  0
  -22.0600   -2.7590   23.2859 H   0  0  0  0  0  0
  -22.4052  -11.9842   22.4818 H   0  0  0  0  0  0
  -21.1061  -13.1206   22.2669 H   0  0  0  0  0  0
  -24.6320  -15.8351   20.4874 H   0  0  0  0  0  0
  -26.2280  -15.6122   19.9879 H   0  0  0  0  0  0
  -26.7172  -32.5392   23.1057 H   0  0  0  0  0  0
  -25.0019  -33.9706   25.0347 H   0  0  0  0  0  0
  -22.7232  -31.2940   21.3814 H   0  0  0  0  0  0
  -23.3764  -35.9600   23.3280 H   0  0  0  0  0  0
  -24.3586  -36.8959   22.2065 H   0  0  0  0  0  0
  -23.7248  -37.6473   23.6704 H   0  0  0  0  0  0
  -26.1073  -31.5305   20.6017 H   0  0  0  0  0  0
  -26.8538  -30.8233   22.0026 H   0  0  0  0  0  0
  -28.1138  -28.9379   21.2068 H   0  0  0  0  0  0
  -25.9568  -25.8730   19.0545 H   0  0  0  0  0  0
  -23.9797  -27.2877   19.0186 H   0  0  0  0  0  0
  -23.7622  -30.5768   19.3946 H   0  0  0  0  0  0
  -22.7687  -29.2274   19.8527 H   0  0  0  0  0  0
  -25.1286  -36.1909   25.0813 H   0  0  0  0  0  0
  -20.9983  -28.3267   24.1402 H   0  0  0  0  0  0
  -20.5679  -26.2274   23.3630 H   0  0  0  0  0  0
  -21.6634  -26.7399   22.1198 H   0  0  0  0  0  0
  -19.6932  -25.6281   21.1252 H   0  0  0  0  0  0
  -19.6726  -27.3170   20.6760 H   0  0  0  0  0  0
  -17.4197  -26.6697   21.4012 H   0  0  0  0  0  0
  -18.0291  -26.0056   22.9007 H   0  0  0  0  0  0
  -19.7962  -30.7235   24.2276 H   0  0  0  0  0  0
  -17.5037  -31.6265   24.5138 H   0  0  0  0  0  0
  -15.5365  -30.2972   23.7657 H   0  0  0  0  0  0
  -15.8687  -28.0812   22.7079 H   0  0  0  0  0  0
  -24.5895  -30.7088   25.7751 H   0  0  0  0  0  0
  -24.8865  -32.2930   26.4803 H   0  0  0  0  0  0
  -25.8000  -30.8978   27.0239 H   0  0  0  0  0  0
  -26.2933  -29.6741   24.1233 H   0  0  0  0  0  0
  -27.4042  -29.7286   25.4731 H   0  0  0  0  0  0
  -27.8801  -30.4280   23.9428 H   0  0  0  0  0  0
  -27.2658  -33.3692   26.1991 H   0  0  0  0  0  0
  -28.3888  -32.6881   25.0347 H   0  0  0  0  0  0
  -28.0649  -31.8533   26.5471 H   0  0  0  0  0  0
  -28.2535  -38.0121   24.7517 H   0  0  0  0  0  0
  -28.1145  -36.2650   24.6242 H   0  0  0  0  0  0
  -27.2293  -37.1355   25.8846 H   0  0  0  0  0  0
  -20.9389  -29.8752   21.6877 H   0  0  0  0  0  0
  -26.0176  -38.2831   24.1456 H   0  0  0  0  0  0
  -32.9062  -19.4248   20.7645 H   0  0  0  0  0  0
  -31.2180  -21.2113   20.6199 H   0  0  0  0  0  0
  -32.3078  -17.0834   20.7936 H   0  0  0  0  0  0
  -27.1571  -18.4575   21.3008 H   0  0  0  0  0  0
  -27.5250  -17.0304   20.3385 H   0  0  0  0  0  0
  -27.2549  -18.5637   19.5391 H   0  0  0  0  0  0
  -28.7703  -22.9789   17.8520 H   0  0  0  0  0  0
  -29.3881  -21.3881   18.2026 H   0  0  0  0  0  0
  -30.3778  -22.7939   18.5676 H   0  0  0  0  0  0
  -28.2176  -21.2498   21.5752 H   0  0  0  0  0  0
  -27.5719  -20.7774   20.0474 H   0  0  0  0  0  0
  -27.8397  -25.0113   18.6786 H   0  0  0  0  0  0
  -29.4945  -25.1007   19.1294 H   0  0  0  0  0  0
  -28.8591  -15.6920   20.7827 H   0  0  0  0  0  0
  1 25  1  0  0  0
  1 30  2  0  0  0
  1 82  1  0  0  0
  2  3  1  0  0  0
  2 25  1  0  0  0
  2 85  1  0  0  0
  2 86  1  0  0  0
  3  4  1  0  0  0
  3 87  1  0  0  0
  3 88  1  0  0  0
  4  5  1  0  0  0
  4 89  1  0  0  0
  4 90  1  0  0  0
  5  6  1  0  0  0
  5 26  1  0  0  0
  5 91  1  0  0  0
  6 25  1  0  0  0
  6 92  1  0  0  0
  6 93  1  0  0  0
  7  8  2  0  0  0
  7 26  1  0  0  0
  7 29  1  0  0  0
  8  9  1  0  0  0
  8 22  1  0  0  0
  9 10  1  0  0  0
  9 27  2  0  0  0
 10 11  2  0  0  0
 10 15  1  0  0  0
 11 12  1  0  0  0
 11 94  1  0  0  0
 12 13  2  0  0  0
 12 95  1  0  0  0
 13 14  1  0  0  0
 13 31  1  0  0  0
 14 15  2  0  0  0
 14 96  1  0  0  0
 15 97  1  0  0  0
 16 17  2  0  0  0
 16 21  1  0  0  0
 16 31  1  0  0  0
 17 18  1  0  0  0
 17 98  1  0  0  0
 18 19  2  0  0  0
 18 99  1  0  0  0
 19 20  1  0  0  0
 19 24  1  0  0  0
 20 21  2  0  0  0
 20100  1  0  0  0
 21 23  1  0  0  0
 22 28  1  0  0  0
 22 32  2  0  0  0
 26 27  1  0  0  0
 28101  1  0  0  0
 28102  1  0  0  0
 29103  1  0  0  0
 29104  1  0  0  0
 33 34  1  0  0  0
 33 66  1  0  0  0
 33 70  2  0  0  0
 34 36  1  0  0  0
 34 59  1  0  0  0
 34105  1  0  0  0
 35 44  2  0  0  0
 35 45  1  0  0  0
 35 68  1  0  0  0
 36 56  1  0  0  0
 36106  1  0  0  0
 37 39  1  0  0  0
 37 47  1  0  0  0
 37 66  1  0  0  0
 37107  1  0  0  0
 38 43  2  0  0  0
 38 46  1  0  0  0
 38 47  1  0  0  0
 39 64  1  0  0  0
 39 67  2  0  0  0
 40 52  1  0  0  0
 40 53  2  0  0  0
 40 58  1  0  0  0
 41108  1  0  0  0
 41109  1  0  0  0
 41110  1  0  0  0
 41 48  1  0  0  0
 42 43  1  0  0  0
 42 66  1  0  0  0
 42111  1  0  0  0
 42112  1  0  0  0
 43 44  1  0  0  0
 44113  1  0  0  0
 45 46  2  0  0  0
 45114  1  0  0  0
 46115  1  0  0  0
 47116  1  0  0  0
 47117  1  0  0  0
 48 56  1  0  0  0
 48 65  1  0  0  0
 48118  1  0  0  0
 49 50  1  0  0  0
 49 53  1  0  0  0
 49 64  1  0  0  0
 49119  1  0  0  0
 50 51  1  0  0  0
 50120  1  0  0  0
 50121  1  0  0  0
 51 52  1  0  0  0
 51122  1  0  0  0
 51123  1  0  0  0
 52124  1  0  0  0
 52125  1  0  0  0
 53 54  1  0  0  0
 54 55  2  0  0  0
 54126  1  0  0  0
 55 57  1  0  0  0
 55127  1  0  0  0
 56 69  2  0  0  0
 57 58  2  0  0  0
 57128  1  0  0  0
 58129  1  0  0  0
 59 60  1  0  0  0
 59 61  1  0  0  0
 59 62  1  0  0  0
 60130  1  0  0  0
 60131  1  0  0  0
 60132  1  0  0  0
 61133  1  0  0  0
 61134  1  0  0  0
 61135  1  0  0  0
 62136  1  0  0  0
 62137  1  0  0  0
 62138  1  0  0  0
 63 65  1  0  0  0
 63139  1  0  0  0
 63140  1  0  0  0
 63141  1  0  0  0
 64142  1  0  0  0
 65143  1  0  0  0
 68 81  1  0  0  0
 71 72  2  0  0  0
 71 73  1  0  0  0
 71144  1  0  0  0
 72 74  1  0  0  0
 72145  1  0  0  0
 73 76  2  0  0  0
 73146  1  0  0  0
 74 75  2  0  0  0
 74 80  1  0  0  0
 75 76  1  0  0  0
 75 78  1  0  0  0
 76 82  1  0  0  0
 77 81  1  0  0  0
 77 83  1  0  0  0
 77 84  2  0  0  0
 78147  1  0  0  0
 78148  1  0  0  0
 78149  1  0  0  0
 79 83  1  0  0  0
 79150  1  0  0  0
 79151  1  0  0  0
 79152  1  0  0  0
 80 83  1  0  0  0
 80153  1  0  0  0
 80154  1  0  0  0
 81155  1  0  0  0
 81156  1  0  0  0
 82157  1  0  0  0
M  ISO  4   1 100  68 101  81 101  82 100
M  END
> <chiral flag>
0

> <version>
0

> <s_m_source_file>
/data/baiqing/PycharmProjects/Reinvent-master-3.2/result/LINK_invent/BTK/process_docking_weight1_custom_product_contain_oxygen_bond_distance_aromatic_linkinvent_7_9_3/rearranged_h_0047.sdf

> <i_m_source_file_index>
69

> <r_mmod_Potential_Energy-OPLS-2005>
166.229125976562

> <r_mmod_Stretch_Energy-OPLS-2005>
137.783172607422

> <r_mmod_Bend_Energy-OPLS-2005>
173.685760498047

> <r_mmod_Torsional_Energy-OPLS-2005>
218.779922485352

> <r_mmod_Improper_Torsional_Energy-OPLS-2005>
6.16112995147705

> <r_mmod_Van_der_Waal_Energy-OPLS-2005>
143.210311889648

> <r_mmod_Electrostatic_Energy-OPLS-2005>
-358.742309570312

> <r_mmod_Solvation_Energy-OPLS-2005>
-240.029907226562

> <b_mmod_Minimization_Converged-OPLS-2005>
0

> <r_mmod_RMS_Derivative-OPLS-2005>
2.69757056236267

$$$$
69
                    3D
 Structure written by MMmdl.
163171  0  0  1  0            999 V2000
  -30.7023  -14.5206   20.5090 C   0  0  0  0  0  0
  -30.4151  -12.3213   19.4547 C   0  0  0  0  0  0
  -29.5072  -12.5010   18.2204 C   0  0  0  0  0  0
  -28.0212  -12.3670   18.6166 C   0  0  0  0  0  0
  -27.6502  -13.2239   19.8584 C   0  0  2  0  0  0
  -28.6881  -13.0615   20.9953 C   0  0  0  0  0  0
  -25.2482  -13.8224   20.5589 C   0  0  0  0  0  0
  -24.1777  -13.0458   20.9135 C   0  0  0  0  0  0
  -24.6367  -11.6919   20.8654 C   0  0  0  0  0  0
  -23.9032  -10.4289   21.0338 C   0  0  0  0  0  0
  -24.3599   -9.4224   21.9125 C   0  0  0  0  0  0
  -23.6298   -8.2244   22.0711 C   0  0  0  0  0  0
  -22.4276   -8.0248   21.3519 C   0  0  0  0  0  0
  -21.9895   -9.0224   20.4614 C   0  0  0  0  0  0
  -22.7202  -10.2112   20.3012 C   0  0  0  0  0  0
  -21.6885   -6.0688   22.5283 C   0  0  0  0  0  0
  -21.4015   -6.5599   23.8187 C   0  0  0  0  0  0
  -21.3660   -5.6744   24.9167 C   0  0  0  0  0  0
  -21.6075   -4.3022   24.7183 C   0  0  0  0  0  0
  -21.8817   -3.8101   23.4313 C   0  0  0  0  0  0
  -21.9178   -4.6926   22.3373 C   0  0  0  0  0  0
  -22.7793  -13.5214   21.1823 C   0  0  0  0  0  0
  -22.1661   -4.2111   21.0959 F   0  0  0  0  0  0
  -21.5657   -3.4505   25.7699 F   0  0  0  0  0  0
  -30.0156  -13.3497   20.4320 N   0  0  0  0  0  0
  -26.2938  -12.9426   20.3253 N   0  0  0  0  0  0
  -25.9290  -11.6561   20.5634 N   0  0  0  0  0  0
  -22.0432  -12.8236   22.0425 N   0  0  0  0  0  0
  -25.4168  -15.1937   20.4001 N   0  0  0  0  0  0
  -31.8809  -14.5858   20.1511 O   0  0  0  0  0  0
  -21.6660   -6.8852   21.4235 O   0  0  0  0  0  0
  -22.3471  -14.5506   20.6664 O   0  0  0  0  0  0
  -24.6236  -31.8580   23.2067 C   0  0  0  0  0  0
  -25.9055  -32.4786   23.8416 C   0  0  1  0  0  0
  -27.1980  -27.3337   20.1199 C   0  0  0  0  0  0
  -25.5872  -33.8586   24.2322 N   0  0  0  0  0  0
  -23.4196  -30.4816   21.5506 C   0  0  2  0  0  0
  -24.8529  -28.9339   20.1363 C   0  0  0  0  0  0
  -22.7497  -29.4569   22.4967 C   0  0  0  0  0  0
  -18.0271  -28.1349   22.8486 C   0  0  0  0  0  0
  -24.1472  -36.7312   23.2655 C   0  0  0  0  0  0
  -25.9584  -30.7917   21.3787 C   0  0  0  0  0  0
  -26.0239  -29.4167   20.7325 C   0  0  0  0  0  0
  -27.2021  -28.6218   20.7211 C   0  0  0  0  0  0
  -26.0024  -26.8939   19.5124 C   0  0  0  0  0  0
  -24.8342  -27.6697   19.5338 C   0  0  0  0  0  0
  -23.6312  -29.8143   20.1681 C   0  0  0  0  0  0
  -25.4098  -36.3122   24.0366 C   0  0  1  0  0  0
  -20.5876  -28.3646   23.1304 C   0  0  2  0  0  0
  -20.6749  -26.9370   22.5415 C   0  0  0  0  0  0
  -19.5725  -26.6359   21.5198 C   0  0  0  0  0  0
  -18.1904  -26.7910   22.1604 C   0  0  0  0  0  0
  -19.1517  -28.8821   23.2884 C   0  0  0  0  0  0
  -18.9438  -30.1427   23.8896 C   0  0  0  0  0  0
  -17.6431  -30.6558   24.0543 C   0  0  0  0  0  0
  -25.9035  -34.9464   23.5151 C   0  0  0  0  0  0
  -16.5324  -29.9052   23.6302 C   0  0  0  0  0  0
  -16.7261  -28.6455   23.0356 C   0  0  0  0  0  0
  -26.4438  -31.6635   25.0801 C   0  0  0  0  0  0
  -25.3695  -31.3729   26.1563 C   0  0  0  0  0  0
  -27.0284  -30.3087   24.6226 C   0  0  0  0  0  0
  -27.6024  -32.4386   25.7505 C   0  0  0  0  0  0
  -27.5582  -37.1805   24.8444 C   0  0  0  0  0  0
  -21.4211  -29.2996   22.3720 N   0  0  0  0  0  0
  -26.4278  -37.3821   23.9416 N   0  0  0  0  0  0
  -24.6866  -31.0630   22.1006 N   0  0  0  0  0  0
  -23.4245  -28.8071   23.2994 O   0  0  0  0  0  0
  -28.3506  -26.5619   20.0366 O   0  0  0  0  0  0
  -26.5617  -34.8918   22.4723 O   0  0  0  0  0  0
  -23.5391  -32.1325   23.7413 O   0  0  0  0  0  0
  -29.3263  -17.9940   20.2355 C   0  0  0  0  0  0
  -31.6799  -17.4646   20.4572 C   0  0  0  0  0  0
  -29.6392  -19.3328   19.8525 C   0  0  0  0  0  0
  -32.0240  -18.7842   20.0833 C   0  0  0  0  0  0
  -31.0067  -19.7136   19.7467 C   0  0  0  0  0  0
  -30.3361  -17.0213   20.4999 C   0  0  0  0  0  0
  -28.3343  -22.8013   19.5105 C   0  0  0  0  0  0
  -31.3923  -21.1095   19.2513 C   0  0  0  0  0  0
  -28.0523  -21.4656   21.5919 C   0  0  0  0  0  0
  -28.4922  -20.2974   19.4560 C   0  0  0  0  0  0
  -33.4940  -19.1939   20.0218 C   0  0  0  0  0  0
  -27.5657  -24.0296   20.0692 C   0  0  0  0  0  0
  -28.3956  -25.2322   20.6434 C   0  0  0  0  0  0
  -29.9804  -15.6410   20.7819 N   0  0  0  0  0  0
  -28.3550  -21.6018   20.1649 N   0  0  0  0  0  0
  -28.8048  -22.9260   18.3780 O   0  0  0  0  0  0
  -34.3541  -18.2221   20.3384 F   0  0  0  0  0  0
  -31.4626  -12.4003   19.1621 H   0  0  0  0  0  0
  -30.3120  -11.3225   19.8812 H   0  0  0  0  0  0
  -29.7693  -11.7692   17.4558 H   0  0  0  0  0  0
  -29.6816  -13.4859   17.7799 H   0  0  0  0  0  0
  -27.8278  -11.3140   18.8231 H   0  0  0  0  0  0
  -27.3863  -12.6337   17.7688 H   0  0  0  0  0  0
  -27.6742  -14.2651   19.5328 H   0  0  0  0  0  0
  -28.6578  -12.0469   21.3997 H   0  0  0  0  0  0
  -28.4483  -13.7263   21.8270 H   0  0  0  0  0  0
  -25.2743   -9.5764   22.4692 H   0  0  0  0  0  0
  -24.0036   -7.4642   22.7456 H   0  0  0  0  0  0
  -21.0810   -8.8726   19.8917 H   0  0  0  0  0  0
  -22.3643  -10.9632   19.6098 H   0  0  0  0  0  0
  -21.2036   -7.6105   23.9705 H   0  0  0  0  0  0
  -21.1504   -6.0463   25.9072 H   0  0  0  0  0  0
  -22.0609   -2.7565   23.2802 H   0  0  0  0  0  0
  -22.4025  -11.9934   22.4926 H   0  0  0  0  0  0
  -21.1016  -13.1268   22.2510 H   0  0  0  0  0  0
  -24.6436  -15.8444   20.4882 H   0  0  0  0  0  0
  -26.2716  -15.6289   20.0749 H   0  0  0  0  0  0
  -26.7141  -32.5461   23.1180 H   0  0  0  0  0  0
  -24.9970  -33.9734   25.0436 H   0  0  0  0  0  0
  -22.7151  -31.3006   21.4019 H   0  0  0  0  0  0
  -23.3767  -35.9617   23.3298 H   0  0  0  0  0  0
  -24.3557  -36.8942   22.2074 H   0  0  0  0  0  0
  -23.7169  -37.6497   23.6664 H   0  0  0  0  0  0
  -26.0906  -31.5437   20.6019 H   0  0  0  0  0  0
  -26.8424  -30.8363   22.0016 H   0  0  0  0  0  0
  -28.1116  -28.9811   21.1842 H   0  0  0  0  0  0
  -25.9184  -25.9601   18.9924 H   0  0  0  0  0  0
  -23.9270  -27.2882   19.0838 H   0  0  0  0  0  0
  -23.7716  -30.5764   19.4008 H   0  0  0  0  0  0
  -22.7522  -29.2430   19.8647 H   0  0  0  0  0  0
  -25.1260  -36.2012   25.0868 H   0  0  0  0  0  0
  -20.9959  -28.3166   24.1424 H   0  0  0  0  0  0
  -20.5578  -26.2244   23.3600 H   0  0  0  0  0  0
  -21.6621  -26.7337   22.1236 H   0  0  0  0  0  0
  -19.6889  -25.6262   21.1219 H   0  0  0  0  0  0
  -19.6693  -27.3178   20.6733 H   0  0  0  0  0  0
  -17.4196  -26.6678   21.3990 H   0  0  0  0  0  0
  -18.0289  -26.0040   22.8964 H   0  0  0  0  0  0
  -19.7904  -30.7236   24.2311 H   0  0  0  0  0  0
  -17.4964  -31.6249   24.5119 H   0  0  0  0  0  0
  -15.5314  -30.2936   23.7634 H   0  0  0  0  0  0
  -15.8666  -28.0766   22.7093 H   0  0  0  0  0  0
  -24.5827  -30.7124   25.7888 H   0  0  0  0  0  0
  -24.8918  -32.2872   26.5109 H   0  0  0  0  0  0
  -25.8036  -30.8812   27.0283 H   0  0  0  0  0  0
  -26.2852  -29.6876   24.1216 H   0  0  0  0  0  0
  -27.3973  -29.7297   25.4700 H   0  0  0  0  0  0
  -27.8724  -30.4426   23.9453 H   0  0  0  0  0  0
  -27.2658  -33.3670   26.2124 H   0  0  0  0  0  0
  -28.3752  -32.6997   25.0263 H   0  0  0  0  0  0
  -28.0808  -31.8528   26.5362 H   0  0  0  0  0  0
  -28.2600  -38.0121   24.7566 H   0  0  0  0  0  0
  -28.1089  -36.2648   24.6172 H   0  0  0  0  0  0
  -27.2308  -37.1358   25.8857 H   0  0  0  0  0  0
  -20.9428  -29.8769   21.6941 H   0  0  0  0  0  0
  -26.0181  -38.2903   24.1471 H   0  0  0  0  0  0
  -28.2860  -17.7032   20.2837 H   0  0  0  0  0  0
  -32.4841  -16.7857   20.6920 H   0  0  0  0  0  0
  -30.7937  -21.4016   18.3936 H   0  0  0  0  0  0
  -32.4186  -21.1952   18.8979 H   0  0  0  0  0  0
  -31.2617  -21.8398   20.0469 H   0  0  0  0  0  0
  -27.0346  -21.7737   21.8341 H   0  0  0  0  0  0
  -28.7611  -22.0334   22.1983 H   0  0  0  0  0  0
  -28.1270  -20.4255   21.9049 H   0  0  0  0  0  0
  -27.5448  -19.7793   19.6142 H   0  0  0  0  0  0
  -28.5357  -20.4325   18.3746 H   0  0  0  0  0  0
  -33.6702  -20.0244   20.7096 H   0  0  0  0  0  0
  -33.7490  -19.5034   19.0070 H   0  0  0  0  0  0
  -26.7932  -23.7203   20.7732 H   0  0  0  0  0  0
  -27.0171  -24.3493   19.1913 H   0  0  0  0  0  0
  -29.4420  -24.9400   20.5918 H   0  0  0  0  0  0
  -28.2057  -25.3229   21.7142 H   0  0  0  0  0  0
  -29.0133  -15.4605   21.0110 H   0  0  0  0  0  0
  1 25  1  0  0  0
  1 30  2  0  0  0
  1 84  1  0  0  0
  2  3  1  0  0  0
  2 25  1  0  0  0
  2 88  1  0  0  0
  2 89  1  0  0  0
  3  4  1  0  0  0
  3 90  1  0  0  0
  3 91  1  0  0  0
  4  5  1  0  0  0
  4 92  1  0  0  0
  4 93  1  0  0  0
  5  6  1  0  0  0
  5 26  1  0  0  0
  5 94  1  0  0  0
  6 25  1  0  0  0
  6 95  1  0  0  0
  6 96  1  0  0  0
  7  8  2  0  0  0
  7 26  1  0  0  0
  7 29  1  0  0  0
  8  9  1  0  0  0
  8 22  1  0  0  0
  9 10  1  0  0  0
  9 27  2  0  0  0
 10 11  2  0  0  0
 10 15  1  0  0  0
 11 12  1  0  0  0
 11 97  1  0  0  0
 12 13  2  0  0  0
 12 98  1  0  0  0
 13 14  1  0  0  0
 13 31  1  0  0  0
 14 15  2  0  0  0
 14 99  1  0  0  0
 15100  1  0  0  0
 16 17  2  0  0  0
 16 21  1  0  0  0
 16 31  1  0  0  0
 17 18  1  0  0  0
 17101  1  0  0  0
 18 19  2  0  0  0
 18102  1  0  0  0
 19 20  1  0  0  0
 19 24  1  0  0  0
 20 21  2  0  0  0
 20103  1  0  0  0
 21 23  1  0  0  0
 22 28  1  0  0  0
 22 32  2  0  0  0
 26 27  1  0  0  0
 28104  1  0  0  0
 28105  1  0  0  0
 29106  1  0  0  0
 29107  1  0  0  0
 33 34  1  0  0  0
 33 66  1  0  0  0
 33 70  2  0  0  0
 34 36  1  0  0  0
 34 59  1  0  0  0
 34108  1  0  0  0
 35 44  2  0  0  0
 35 45  1  0  0  0
 35 68  1  0  0  0
 36 56  1  0  0  0
 36109  1  0  0  0
 37 39  1  0  0  0
 37 47  1  0  0  0
 37 66  1  0  0  0
 37110  1  0  0  0
 38 43  2  0  0  0
 38 46  1  0  0  0
 38 47  1  0  0  0
 39 64  1  0  0  0
 39 67  2  0  0  0
 40 52  1  0  0  0
 40 53  2  0  0  0
 40 58  1  0  0  0
 41111  1  0  0  0
 41112  1  0  0  0
 41113  1  0  0  0
 41 48  1  0  0  0
 42 43  1  0  0  0
 42 66  1  0  0  0
 42114  1  0  0  0
 42115  1  0  0  0
 43 44  1  0  0  0
 44116  1  0  0  0
 45 46  2  0  0  0
 45117  1  0  0  0
 46118  1  0  0  0
 47119  1  0  0  0
 47120  1  0  0  0
 48 56  1  0  0  0
 48 65  1  0  0  0
 48121  1  0  0  0
 49 50  1  0  0  0
 49 53  1  0  0  0
 49 64  1  0  0  0
 49122  1  0  0  0
 50 51  1  0  0  0
 50123  1  0  0  0
 50124  1  0  0  0
 51 52  1  0  0  0
 51125  1  0  0  0
 51126  1  0  0  0
 52127  1  0  0  0
 52128  1  0  0  0
 53 54  1  0  0  0
 54 55  2  0  0  0
 54129  1  0  0  0
 55 57  1  0  0  0
 55130  1  0  0  0
 56 69  2  0  0  0
 57 58  2  0  0  0
 57131  1  0  0  0
 58132  1  0  0  0
 59 60  1  0  0  0
 59 61  1  0  0  0
 59 62  1  0  0  0
 60133  1  0  0  0
 60134  1  0  0  0
 60135  1  0  0  0
 61136  1  0  0  0
 61137  1  0  0  0
 61138  1  0  0  0
 62139  1  0  0  0
 62140  1  0  0  0
 62141  1  0  0  0
 63 65  1  0  0  0
 63142  1  0  0  0
 63143  1  0  0  0
 63144  1  0  0  0
 64145  1  0  0  0
 65146  1  0  0  0
 68 83  1  0  0  0
 71 73  2  0  0  0
 71 76  1  0  0  0
 71147  1  0  0  0
 72 74  1  0  0  0
 72 76  2  0  0  0
 72148  1  0  0  0
 73 75  1  0  0  0
 73 80  1  0  0  0
 74 75  2  0  0  0
 74 81  1  0  0  0
 75 78  1  0  0  0
 76 84  1  0  0  0
 77 82  1  0  0  0
 77 85  1  0  0  0
 77 86  2  0  0  0
 78149  1  0  0  0
 78150  1  0  0  0
 78151  1  0  0  0
 79 85  1  0  0  0
 79152  1  0  0  0
 79153  1  0  0  0
 79154  1  0  0  0
 80 85  1  0  0  0
 80155  1  0  0  0
 80156  1  0  0  0
 81 87  1  0  0  0
 81157  1  0  0  0
 81158  1  0  0  0
 82 83  1  0  0  0
 82159  1  0  0  0
 82160  1  0  0  0
 83161  1  0  0  0
 83162  1  0  0  0
 84163  1  0  0  0
M  ISO  4   1 100  68 101  83 101  84 100
M  END
> <chiral flag>
0

> <version>
0

> <s_m_source_file>
/data/baiqing/PycharmProjects/Reinvent-master-3.2/result/LINK_invent/BTK/process_docking_weight1_custom_product_contain_oxygen_bond_distance_aromatic_linkinvent_7_9_3/rearranged_h_0047.sdf

> <i_m_source_file_index>
70

> <r_mmod_Potential_Energy-OPLS-2005>
44.0271263122559

> <r_mmod_Stretch_Energy-OPLS-2005>
57.799976348877

> <r_mmod_Bend_Energy-OPLS-2005>
137.509765625

> <r_mmod_Torsional_Energy-OPLS-2005>
260.798370361328

> <r_mmod_Improper_Torsional_Energy-OPLS-2005>
7.80429124832153

> <r_mmod_Van_der_Waal_Energy-OPLS-2005>
168.457183837891

> <r_mmod_Electrostatic_Energy-OPLS-2005>
-388.593597412109

> <r_mmod_Solvation_Energy-OPLS-2005>
-231.126831054688

> <b_mmod_Minimization_Converged-OPLS-2005>
0

> <r_mmod_RMS_Derivative-OPLS-2005>
6.9167914390564

$$$$
70
                    3D
 Structure written by MMmdl.
161169  0  0  1  0            999 V2000
  -30.6890  -14.4313   20.6379 C   0  0  0  0  0  0
  -30.4393  -12.3064   19.3956 C   0  0  0  0  0  0
  -29.4942  -12.5228   18.1951 C   0  0  0  0  0  0
  -28.0151  -12.3782   18.6094 C   0  0  0  0  0  0
  -27.6705  -13.1930   19.8840 C   0  0  2  0  0  0
  -28.7108  -12.9080   20.9894 C   0  0  0  0  0  0
  -25.2637  -13.8149   20.5687 C   0  0  0  0  0  0
  -24.1850  -13.0448   20.9150 C   0  0  0  0  0  0
  -24.6383  -11.6902   20.8717 C   0  0  0  0  0  0
  -23.9039  -10.4302   21.0399 C   0  0  0  0  0  0
  -24.3588   -9.4217   21.9187 C   0  0  0  0  0  0
  -23.6269   -8.2250   22.0762 C   0  0  0  0  0  0
  -22.4259   -8.0284   21.3550 C   0  0  0  0  0  0
  -21.9883   -9.0260   20.4651 C   0  0  0  0  0  0
  -22.7205  -10.2145   20.3056 C   0  0  0  0  0  0
  -21.6853   -6.0718   22.5271 C   0  0  0  0  0  0
  -21.4014   -6.5626   23.8202 C   0  0  0  0  0  0
  -21.3664   -5.6783   24.9164 C   0  0  0  0  0  0
  -21.6044   -4.3047   24.7219 C   0  0  0  0  0  0
  -21.8823   -3.8134   23.4345 C   0  0  0  0  0  0
  -21.9195   -4.6943   22.3396 C   0  0  0  0  0  0
  -22.7883  -13.5269   21.1825 C   0  0  0  0  0  0
  -22.1673   -4.2130   21.0975 F   0  0  0  0  0  0
  -21.5619   -3.4536   25.7736 F   0  0  0  0  0  0
  -30.0481  -13.2451   20.4558 N   0  0  0  0  0  0
  -26.3059  -12.9286   20.3392 N   0  0  0  0  0  0
  -25.9303  -11.6460   20.5753 N   0  0  0  0  0  0
  -22.0512  -12.8279   22.0388 N   0  0  0  0  0  0
  -25.4394  -15.1861   20.4129 N   0  0  0  0  0  0
  -31.7609  -14.7272   20.1018 O   0  0  0  0  0  0
  -21.6644   -6.8866   21.4235 O   0  0  0  0  0  0
  -22.3574  -14.5585   20.6685 O   0  0  0  0  0  0
  -24.6151  -31.8699   23.2131 C   0  0  0  0  0  0
  -25.9041  -32.4840   23.8418 C   0  0  1  0  0  0
  -27.2282  -27.4313   20.0926 C   0  0  0  0  0  0
  -25.5908  -33.8633   24.2347 N   0  0  0  0  0  0
  -23.4017  -30.4957   21.5540 C   0  0  2  0  0  0
  -24.8473  -28.9714   20.1117 C   0  0  0  0  0  0
  -22.7415  -29.4660   22.4994 C   0  0  0  0  0  0
  -18.0278  -28.1363   22.8481 C   0  0  0  0  0  0
  -24.1487  -36.7314   23.2631 C   0  0  0  0  0  0
  -25.9317  -30.8365   21.3667 C   0  0  0  0  0  0
  -26.0095  -29.4725   20.7103 C   0  0  0  0  0  0
  -27.2023  -28.7113   20.6963 C   0  0  0  0  0  0
  -26.0430  -26.9570   19.4766 C   0  0  0  0  0  0
  -24.8600  -27.7137   19.4906 C   0  0  0  0  0  0
  -23.6096  -29.8366   20.1661 C   0  0  0  0  0  0
  -25.4109  -36.3114   24.0337 C   0  0  1  0  0  0
  -20.5867  -28.3662   23.1320 C   0  0  2  0  0  0
  -20.6784  -26.9412   22.5384 C   0  0  0  0  0  0
  -19.5752  -26.6374   21.5201 C   0  0  0  0  0  0
  -18.1928  -26.7922   22.1600 C   0  0  0  0  0  0
  -19.1526  -28.8823   23.2910 C   0  0  0  0  0  0
  -18.9450  -30.1426   23.8927 C   0  0  0  0  0  0
  -17.6453  -30.6570   24.0569 C   0  0  0  0  0  0
  -25.9029  -34.9480   23.5132 C   0  0  0  0  0  0
  -16.5344  -29.9075   23.6316 C   0  0  0  0  0  0
  -16.7265  -28.6491   23.0333 C   0  0  0  0  0  0
  -26.4467  -31.6613   25.0731 C   0  0  0  0  0  0
  -25.3736  -31.3723   26.1477 C   0  0  0  0  0  0
  -27.0300  -30.3065   24.6092 C   0  0  0  0  0  0
  -27.6059  -32.4314   25.7496 C   0  0  0  0  0  0
  -27.5586  -37.1816   24.8466 C   0  0  0  0  0  0
  -21.4138  -29.3048   22.3755 N   0  0  0  0  0  0
  -26.4303  -37.3796   23.9407 N   0  0  0  0  0  0
  -24.6683  -31.0803   22.1035 N   0  0  0  0  0  0
  -23.4195  -28.8173   23.3010 O   0  0  0  0  0  0
  -28.3876  -26.6745   20.1310 O   0  0  0  0  0  0
  -26.5576  -34.8925   22.4683 O   0  0  0  0  0  0
  -23.5340  -32.1444   23.7520 O   0  0  0  0  0  0
  -28.0411  -16.4750   22.9982 C   0  0  0  0  0  0
  -26.3584  -18.1905   23.2724 C   0  0  0  0  0  0
  -28.3991  -18.6786   21.9743 C   0  0  0  0  0  0
  -26.8131  -16.8912   23.5345 C   0  0  0  0  0  0
  -28.8300  -17.3298   22.1845 C   0  0  0  0  0  0
  -27.1329  -19.0764   22.5034 C   0  0  0  0  0  0
  -29.2320  -19.6663   21.2363 C   0  0  0  0  0  0
  -29.4346  -20.9401   21.6402 C   0  0  0  0  0  0
  -29.4219  -24.4228   20.4218 C   0  0  0  0  0  0
  -25.9796  -15.9339   24.3634 C   0  0  0  0  0  0
  -30.1103  -16.7432   21.5592 C   0  0  0  0  0  0
  -30.1520  -22.0416   20.8748 C   0  0  0  0  0  0
  -28.2070  -25.2541   19.9736 C   0  0  0  0  0  0
  -29.1983  -23.1038   20.5473 N   0  0  0  0  0  0
  -29.9861  -15.2942   21.3810 N   0  0  0  0  0  0
  -30.5218  -24.9431   20.6296 O   0  0  0  0  0  0
  -26.4246  -20.6257   22.1823 Cl  0  0  0  0  0  0
  -31.4792  -12.4376   19.0882 H   0  0  0  0  0  0
  -30.3646  -11.2813   19.7608 H   0  0  0  0  0  0
  -29.7277  -11.8160   17.3976 H   0  0  0  0  0  0
  -29.6596  -13.5158   17.7745 H   0  0  0  0  0  0
  -27.8202  -11.3187   18.7827 H   0  0  0  0  0  0
  -27.3635  -12.6756   17.7871 H   0  0  0  0  0  0
  -27.7361  -14.2495   19.6244 H   0  0  0  0  0  0
  -28.6852  -11.8509   21.2599 H   0  0  0  0  0  0
  -28.4538  -13.4324   21.9105 H   0  0  0  0  0  0
  -25.2739   -9.5702   22.4744 H   0  0  0  0  0  0
  -23.9977   -7.4649   22.7485 H   0  0  0  0  0  0
  -21.0808   -8.8770   19.8972 H   0  0  0  0  0  0
  -22.3654  -10.9673   19.6155 H   0  0  0  0  0  0
  -21.2016   -7.6138   23.9706 H   0  0  0  0  0  0
  -21.1482   -6.0510   25.9068 H   0  0  0  0  0  0
  -22.0600   -2.7594   23.2853 H   0  0  0  0  0  0
  -22.4103  -11.9949   22.4809 H   0  0  0  0  0  0
  -21.1141  -13.1336   22.2577 H   0  0  0  0  0  0
  -24.6864  -15.8484   20.5590 H   0  0  0  0  0  0
  -26.3112  -15.6325   20.1581 H   0  0  0  0  0  0
  -26.7099  -32.5557   23.1176 H   0  0  0  0  0  0
  -25.0116  -33.9811   25.0529 H   0  0  0  0  0  0
  -22.6892  -31.3124   21.4200 H   0  0  0  0  0  0
  -23.3753  -35.9647   23.3310 H   0  0  0  0  0  0
  -24.3573  -36.8907   22.2041 H   0  0  0  0  0  0
  -23.7239  -37.6526   23.6632 H   0  0  0  0  0  0
  -26.0382  -31.6051   20.5996 H   0  0  0  0  0  0
  -26.8205  -30.8894   21.9837 H   0  0  0  0  0  0
  -28.0982  -29.0933   21.1662 H   0  0  0  0  0  0
  -26.0006  -26.0013   18.9746 H   0  0  0  0  0  0
  -23.9688  -27.3258   19.0163 H   0  0  0  0  0  0
  -23.7173  -30.6149   19.4097 H   0  0  0  0  0  0
  -22.7332  -29.2579   19.8684 H   0  0  0  0  0  0
  -25.1284  -36.1988   25.0834 H   0  0  0  0  0  0
  -20.9956  -28.3192   24.1437 H   0  0  0  0  0  0
  -20.5743  -26.2244   23.3548 H   0  0  0  0  0  0
  -21.6655  -26.7503   22.1135 H   0  0  0  0  0  0
  -19.6928  -25.6281   21.1245 H   0  0  0  0  0  0
  -19.6702  -27.3158   20.6716 H   0  0  0  0  0  0
  -17.4210  -26.6689   21.3993 H   0  0  0  0  0  0
  -18.0309  -26.0045   22.8971 H   0  0  0  0  0  0
  -19.7923  -30.7234   24.2320 H   0  0  0  0  0  0
  -17.5003  -31.6247   24.5170 H   0  0  0  0  0  0
  -15.5345  -30.2979   23.7614 H   0  0  0  0  0  0
  -15.8670  -28.0817   22.7024 H   0  0  0  0  0  0
  -24.5909  -30.7063   25.7814 H   0  0  0  0  0  0
  -24.8918  -32.2878   26.4926 H   0  0  0  0  0  0
  -25.8074  -30.8893   27.0241 H   0  0  0  0  0  0
  -26.2849  -29.6842   24.1111 H   0  0  0  0  0  0
  -27.4052  -29.7274   25.4541 H   0  0  0  0  0  0
  -27.8688  -30.4404   23.9253 H   0  0  0  0  0  0
  -27.2701  -33.3609   26.2114 H   0  0  0  0  0  0
  -28.3855  -32.6879   25.0308 H   0  0  0  0  0  0
  -28.0740  -31.8404   26.5382 H   0  0  0  0  0  0
  -28.2609  -38.0108   24.7504 H   0  0  0  0  0  0
  -28.1073  -36.2636   24.6305 H   0  0  0  0  0  0
  -27.2296  -37.1480   25.8867 H   0  0  0  0  0  0
  -20.9292  -29.8807   21.7017 H   0  0  0  0  0  0
  -26.0193  -38.2877   24.1409 H   0  0  0  0  0  0
  -28.3614  -15.4704   23.2309 H   0  0  0  0  0  0
  -25.4027  -18.5180   23.6562 H   0  0  0  0  0  0
  -29.6435  -19.3456   20.2914 H   0  0  0  0  0  0
  -29.0393  -21.2473   22.5984 H   0  0  0  0  0  0
  -26.5721  -15.5124   25.1753 H   0  0  0  0  0  0
  -25.6166  -15.1124   23.7442 H   0  0  0  0  0  0
  -25.1152  -16.4330   24.8021 H   0  0  0  0  0  0
  -30.9614  -16.9639   22.2037 H   0  0  0  0  0  0
  -30.3077  -17.1973   20.5877 H   0  0  0  0  0  0
  -30.5797  -21.6442   19.9534 H   0  0  0  0  0  0
  -30.9747  -22.4232   21.4832 H   0  0  0  0  0  0
  -27.3548  -24.9177   20.5672 H   0  0  0  0  0  0
  -28.0057  -25.0166   18.9282 H   0  0  0  0  0  0
  -28.2527  -22.7992   20.3555 H   0  0  0  0  0  0
  -29.1416  -14.8989   21.7594 H   0  0  0  0  0  0
  1 25  1  0  0  0
  1 30  2  0  0  0
  1 85  1  0  0  0
  2  3  1  0  0  0
  2 25  1  0  0  0
  2 88  1  0  0  0
  2 89  1  0  0  0
  3  4  1  0  0  0
  3 90  1  0  0  0
  3 91  1  0  0  0
  4  5  1  0  0  0
  4 92  1  0  0  0
  4 93  1  0  0  0
  5  6  1  0  0  0
  5 26  1  0  0  0
  5 94  1  0  0  0
  6 25  1  0  0  0
  6 95  1  0  0  0
  6 96  1  0  0  0
  7  8  2  0  0  0
  7 26  1  0  0  0
  7 29  1  0  0  0
  8  9  1  0  0  0
  8 22  1  0  0  0
  9 10  1  0  0  0
  9 27  2  0  0  0
 10 11  2  0  0  0
 10 15  1  0  0  0
 11 12  1  0  0  0
 11 97  1  0  0  0
 12 13  2  0  0  0
 12 98  1  0  0  0
 13 14  1  0  0  0
 13 31  1  0  0  0
 14 15  2  0  0  0
 14 99  1  0  0  0
 15100  1  0  0  0
 16 17  2  0  0  0
 16 21  1  0  0  0
 16 31  1  0  0  0
 17 18  1  0  0  0
 17101  1  0  0  0
 18 19  2  0  0  0
 18102  1  0  0  0
 19 20  1  0  0  0
 19 24  1  0  0  0
 20 21  2  0  0  0
 20103  1  0  0  0
 21 23  1  0  0  0
 22 28  1  0  0  0
 22 32  2  0  0  0
 26 27  1  0  0  0
 28104  1  0  0  0
 28105  1  0  0  0
 29106  1  0  0  0
 29107  1  0  0  0
 33 34  1  0  0  0
 33 66  1  0  0  0
 33 70  2  0  0  0
 34 36  1  0  0  0
 34 59  1  0  0  0
 34108  1  0  0  0
 35 44  2  0  0  0
 35 45  1  0  0  0
 35 68  1  0  0  0
 36 56  1  0  0  0
 36109  1  0  0  0
 37 39  1  0  0  0
 37 47  1  0  0  0
 37 66  1  0  0  0
 37110  1  0  0  0
 38 43  2  0  0  0
 38 46  1  0  0  0
 38 47  1  0  0  0
 39 64  1  0  0  0
 39 67  2  0  0  0
 40 52  1  0  0  0
 40 53  2  0  0  0
 40 58  1  0  0  0
 41111  1  0  0  0
 41112  1  0  0  0
 41113  1  0  0  0
 41 48  1  0  0  0
 42 43  1  0  0  0
 42 66  1  0  0  0
 42114  1  0  0  0
 42115  1  0  0  0
 43 44  1  0  0  0
 44116  1  0  0  0
 45 46  2  0  0  0
 45117  1  0  0  0
 46118  1  0  0  0
 47119  1  0  0  0
 47120  1  0  0  0
 48 56  1  0  0  0
 48 65  1  0  0  0
 48121  1  0  0  0
 49 50  1  0  0  0
 49 53  1  0  0  0
 49 64  1  0  0  0
 49122  1  0  0  0
 50 51  1  0  0  0
 50123  1  0  0  0
 50124  1  0  0  0
 51 52  1  0  0  0
 51125  1  0  0  0
 51126  1  0  0  0
 52127  1  0  0  0
 52128  1  0  0  0
 53 54  1  0  0  0
 54 55  2  0  0  0
 54129  1  0  0  0
 55 57  1  0  0  0
 55130  1  0  0  0
 56 69  2  0  0  0
 57 58  2  0  0  0
 57131  1  0  0  0
 58132  1  0  0  0
 59 60  1  0  0  0
 59 61  1  0  0  0
 59 62  1  0  0  0
 60133  1  0  0  0
 60134  1  0  0  0
 60135  1  0  0  0
 61136  1  0  0  0
 61137  1  0  0  0
 61138  1  0  0  0
 62139  1  0  0  0
 62140  1  0  0  0
 62141  1  0  0  0
 63 65  1  0  0  0
 63142  1  0  0  0
 63143  1  0  0  0
 63144  1  0  0  0
 64145  1  0  0  0
 65146  1  0  0  0
 68 83  1  0  0  0
 71 74  2  0  0  0
 71 75  1  0  0  0
 71147  1  0  0  0
 72 74  1  0  0  0
 72 76  2  0  0  0
 72148  1  0  0  0
 73 75  2  0  0  0
 73 76  1  0  0  0
 73 77  1  0  0  0
 74 80  1  0  0  0
 75 81  1  0  0  0
 76 87  1  0  0  0
 77 78  2  0  0  0
 77149  1  0  0  0
 78 82  1  0  0  0
 78150  1  0  0  0
 79 83  1  0  0  0
 79 84  1  0  0  0
 79 86  2  0  0  0
 80151  1  0  0  0
 80152  1  0  0  0
 80153  1  0  0  0
 81 85  1  0  0  0
 81154  1  0  0  0
 81155  1  0  0  0
 82 84  1  0  0  0
 82156  1  0  0  0
 82157  1  0  0  0
 83158  1  0  0  0
 83159  1  0  0  0
 84160  1  0  0  0
 85161  1  0  0  0
M  ISO  4   1 100  68 101  83 101  85 100
M  END
> <chiral flag>
0

> <version>
0

> <s_m_source_file>
/data/baiqing/PycharmProjects/Reinvent-master-3.2/result/LINK_invent/BTK/process_docking_weight1_custom_product_contain_oxygen_bond_distance_aromatic_linkinvent_7_9_3/rearranged_h_0047.sdf

> <i_m_source_file_index>
71

> <r_mmod_Potential_Energy-OPLS-2005>
-118.990943908691

> <r_mmod_Stretch_Energy-OPLS-2005>
40.2622222900391

> <r_mmod_Bend_Energy-OPLS-2005>
101.724609375

> <r_mmod_Torsional_Energy-OPLS-2005>
211.099517822266

> <r_mmod_Improper_Torsional_Energy-OPLS-2005>
3.46580147743225

> <r_mmod_Van_der_Waal_Energy-OPLS-2005>
158.807418823242

> <r_mmod_Electrostatic_Energy-OPLS-2005>
-405.8505859375

> <r_mmod_Solvation_Energy-OPLS-2005>
-240.459060668945

> <b_mmod_Minimization_Converged-OPLS-2005>
0

> <r_mmod_RMS_Derivative-OPLS-2005>
1.84458553791046

$$$$
71
                    3D
 Structure written by MMmdl.
154162  0  0  1  0            999 V2000
  -30.5949  -14.7728   20.4450 C   0  0  0  0  0  0
  -30.4408  -12.4643   19.4857 C   0  0  0  0  0  0
  -29.5189  -12.4795   18.2459 C   0  0  0  0  0  0
  -28.0402  -12.3227   18.6534 C   0  0  0  0  0  0
  -27.6420  -13.2304   19.8479 C   0  0  2  0  0  0
  -28.6856  -13.1756   20.9848 C   0  0  0  0  0  0
  -25.2510  -13.8194   20.5673 C   0  0  0  0  0  0
  -24.1799  -13.0443   20.9205 C   0  0  0  0  0  0
  -24.6384  -11.6921   20.8749 C   0  0  0  0  0  0
  -23.9056  -10.4296   21.0410 C   0  0  0  0  0  0
  -24.3609   -9.4209   21.9184 C   0  0  0  0  0  0
  -23.6288   -8.2239   22.0749 C   0  0  0  0  0  0
  -22.4273   -8.0275   21.3536 C   0  0  0  0  0  0
  -21.9905   -9.0250   20.4643 C   0  0  0  0  0  0
  -22.7228  -10.2135   20.3057 C   0  0  0  0  0  0
  -21.6848   -6.0728   22.5274 C   0  0  0  0  0  0
  -21.4010   -6.5632   23.8207 C   0  0  0  0  0  0
  -21.3655   -5.6784   24.9171 C   0  0  0  0  0  0
  -21.6041   -4.3048   24.7221 C   0  0  0  0  0  0
  -21.8822   -3.8139   23.4342 C   0  0  0  0  0  0
  -21.9193   -4.6957   22.3399 C   0  0  0  0  0  0
  -22.7821  -13.5234   21.1867 C   0  0  0  0  0  0
  -22.1668   -4.2142   21.0979 F   0  0  0  0  0  0
  -21.5624   -3.4536   25.7734 F   0  0  0  0  0  0
  -29.9857  -13.5352   20.4035 N   0  0  0  0  0  0
  -26.2936  -12.9395   20.3261 N   0  0  0  0  0  0
  -25.9316  -11.6544   20.5756 N   0  0  0  0  0  0
  -22.0464  -12.8226   22.0426 N   0  0  0  0  0  0
  -25.4192  -15.1914   20.4081 N   0  0  0  0  0  0
  -31.7839  -14.8784   20.1329 O   0  0  0  0  0  0
  -21.6635   -6.8873   21.4235 O   0  0  0  0  0  0
  -22.3507  -14.5539   20.6717 O   0  0  0  0  0  0
  -24.6339  -31.8533   23.1998 C   0  0  0  0  0  0
  -25.9154  -32.4747   23.8342 C   0  0  1  0  0  0
  -27.2156  -27.2378   20.1277 C   0  0  0  0  0  0
  -25.5942  -33.8550   24.2259 N   0  0  0  0  0  0
  -23.4318  -30.4768   21.5446 C   0  0  2  0  0  0
  -24.8792  -28.9277   20.1096 C   0  0  0  0  0  0
  -22.7515  -29.4581   22.4918 C   0  0  0  0  0  0
  -18.0284  -28.1386   22.8479 C   0  0  0  0  0  0
  -24.1488  -36.7270   23.2641 C   0  0  0  0  0  0
  -25.9814  -30.7585   21.3855 C   0  0  0  0  0  0
  -26.0536  -29.3811   20.7235 C   0  0  0  0  0  0
  -27.2239  -28.5491   20.7234 C   0  0  0  0  0  0
  -26.0172  -26.8717   19.4685 C   0  0  0  0  0  0
  -24.8682  -27.6821   19.4700 C   0  0  0  0  0  0
  -23.6512  -29.8156   20.1596 C   0  0  0  0  0  0
  -25.4118  -36.3062   24.0328 C   0  0  1  0  0  0
  -20.5889  -28.3694   23.1268 C   0  0  2  0  0  0
  -20.6765  -26.9408   22.5409 C   0  0  0  0  0  0
  -19.5745  -26.6381   21.5207 C   0  0  0  0  0  0
  -18.1928  -26.7924   22.1624 C   0  0  0  0  0  0
  -19.1540  -28.8859   23.2866 C   0  0  0  0  0  0
  -18.9462  -30.1459   23.8886 C   0  0  0  0  0  0
  -17.6463  -30.6589   24.0555 C   0  0  0  0  0  0
  -25.9062  -34.9433   23.5095 C   0  0  0  0  0  0
  -16.5352  -29.9084   23.6332 C   0  0  0  0  0  0
  -16.7271  -28.6500   23.0353 C   0  0  0  0  0  0
  -26.4516  -31.6578   25.0738 C   0  0  0  0  0  0
  -25.3731  -31.3732   26.1454 C   0  0  0  0  0  0
  -27.0371  -30.2989   24.6250 C   0  0  0  0  0  0
  -27.6067  -32.4323   25.7513 C   0  0  0  0  0  0
  -27.5576  -37.1793   24.8470 C   0  0  0  0  0  0
  -21.4220  -29.3039   22.3664 N   0  0  0  0  0  0
  -26.4290  -37.3763   23.9412 N   0  0  0  0  0  0
  -24.7016  -31.0474   22.0992 N   0  0  0  0  0  0
  -23.4204  -28.8110   23.3019 O   0  0  0  0  0  0
  -28.2850  -26.3012   20.2075 O   0  0  0  0  0  0
  -26.5632  -34.8909   22.4665 O   0  0  0  0  0  0
  -23.5482  -32.1370   23.7273 O   0  0  0  0  0  0
  -26.7337  -19.2439   18.0351 C   0  0  0  0  0  0
  -27.3719  -20.0605   18.9711 C   0  0  0  0  0  0
  -27.3051  -18.0197   17.7079 C   0  0  0  0  0  0
  -28.5570  -19.6844   19.6642 C   0  0  0  0  0  0
  -29.0034  -18.2662   19.5077 C   0  0  0  0  0  0
  -28.4282  -17.5544   18.4031 C   0  0  0  0  0  0
  -28.9518  -23.6526   20.4094 C   0  0  0  0  0  0
  -29.1991  -20.9349   20.4365 C   0  0  0  0  0  0
  -30.0482  -17.4080   20.3693 C   0  0  0  0  0  0
  -27.9711  -24.8420   19.9376 C   0  0  0  0  0  0
  -28.6116  -22.3341   20.1302 N   0  0  0  0  0  0
  -29.7965  -15.8997   20.6214 N   0  0  0  0  0  0
  -29.9847  -23.9222   21.0257 O   0  0  0  0  0  0
  -29.1036  -16.1050   17.7479 Cl  0  0  0  0  0  0
  -31.4799  -12.5981   19.1802 H   0  0  0  0  0  0
  -30.3998  -11.4952   19.9849 H   0  0  0  0  0  0
  -29.8015  -11.6782   17.5622 H   0  0  0  0  0  0
  -29.6570  -13.4069   17.6922 H   0  0  0  0  0  0
  -27.8873  -11.2765   18.9208 H   0  0  0  0  0  0
  -27.3903  -12.5143   17.7986 H   0  0  0  0  0  0
  -27.6321  -14.2485   19.4600 H   0  0  0  0  0  0
  -28.7247  -12.1805   21.4302 H   0  0  0  0  0  0
  -28.4148  -13.8598   21.7906 H   0  0  0  0  0  0
  -25.2755   -9.5687   22.4759 H   0  0  0  0  0  0
  -23.9993   -7.4635   22.7472 H   0  0  0  0  0  0
  -21.0831   -8.8768   19.8958 H   0  0  0  0  0  0
  -22.3681  -10.9674   19.6168 H   0  0  0  0  0  0
  -21.2002   -7.6142   23.9711 H   0  0  0  0  0  0
  -21.1477   -6.0514   25.9072 H   0  0  0  0  0  0
  -22.0608   -2.7600   23.2843 H   0  0  0  0  0  0
  -22.4078  -11.9892   22.4819 H   0  0  0  0  0  0
  -21.1085  -13.1257   22.2635 H   0  0  0  0  0  0
  -24.6461  -15.8390   20.5142 H   0  0  0  0  0  0
  -26.2532  -15.6310   20.0420 H   0  0  0  0  0  0
  -26.7212  -32.5379   23.1072 H   0  0  0  0  0  0
  -25.0070  -33.9688   25.0391 H   0  0  0  0  0  0
  -22.7292  -31.2999   21.3998 H   0  0  0  0  0  0
  -23.3756  -35.9596   23.3305 H   0  0  0  0  0  0
  -24.3572  -36.8892   22.2054 H   0  0  0  0  0  0
  -23.7235  -37.6471   23.6663 H   0  0  0  0  0  0
  -26.1253  -31.5203   20.6181 H   0  0  0  0  0  0
  -26.8564  -30.8036   22.0220 H   0  0  0  0  0  0
  -28.1188  -28.8880   21.2263 H   0  0  0  0  0  0
  -25.9218  -25.9273   18.9548 H   0  0  0  0  0  0
  -23.9713  -27.3327   18.9772 H   0  0  0  0  0  0
  -23.7779  -30.5943   19.4068 H   0  0  0  0  0  0
  -22.7692  -29.2511   19.8513 H   0  0  0  0  0  0
  -25.1297  -36.1912   25.0819 H   0  0  0  0  0  0
  -20.9970  -28.3263   24.1392 H   0  0  0  0  0  0
  -20.5646  -26.2303   23.3612 H   0  0  0  0  0  0
  -21.6634  -26.7417   22.1213 H   0  0  0  0  0  0
  -19.6907  -25.6289   21.1241 H   0  0  0  0  0  0
  -19.6684  -27.3185   20.6731 H   0  0  0  0  0  0
  -17.4189  -26.6657   21.4036 H   0  0  0  0  0  0
  -18.0343  -26.0071   22.9028 H   0  0  0  0  0  0
  -19.7939  -30.7272   24.2258 H   0  0  0  0  0  0
  -17.5017  -31.6270   24.5154 H   0  0  0  0  0  0
  -15.5352  -30.2982   23.7670 H   0  0  0  0  0  0
  -15.8667  -28.0818   22.7081 H   0  0  0  0  0  0
  -24.5920  -30.7065   25.7782 H   0  0  0  0  0  0
  -24.8907  -32.2897   26.4858 H   0  0  0  0  0  0
  -25.8045  -30.8928   27.0245 H   0  0  0  0  0  0
  -26.2969  -29.6732   24.1251 H   0  0  0  0  0  0
  -27.4011  -29.7262   25.4791 H   0  0  0  0  0  0
  -27.8863  -30.4255   23.9532 H   0  0  0  0  0  0
  -27.2676  -33.3629   26.2075 H   0  0  0  0  0  0
  -28.3886  -32.6872   25.0345 H   0  0  0  0  0  0
  -28.0724  -31.8456   26.5444 H   0  0  0  0  0  0
  -28.2598  -38.0086   24.7504 H   0  0  0  0  0  0
  -28.1067  -36.2614   24.6311 H   0  0  0  0  0  0
  -27.2288  -37.1455   25.8872 H   0  0  0  0  0  0
  -20.9418  -29.8778   21.6873 H   0  0  0  0  0  0
  -26.0169  -38.2836   24.1417 H   0  0  0  0  0  0
  -25.8527  -19.5909   17.5130 H   0  0  0  0  0  0
  -26.9043  -21.0222   19.1071 H   0  0  0  0  0  0
  -26.8819  -17.4298   16.9072 H   0  0  0  0  0  0
  -30.2678  -20.9554   20.2205 H   0  0  0  0  0  0
  -29.1099  -20.7542   21.5083 H   0  0  0  0  0  0
  -31.0234  -17.5136   19.8924 H   0  0  0  0  0  0
  -30.1456  -17.8910   21.3416 H   0  0  0  0  0  0
  -27.0148  -24.6021   20.4045 H   0  0  0  0  0  0
  -27.8351  -24.7245   18.8621 H   0  0  0  0  0  0
  -27.7512  -22.2757   19.6060 H   0  0  0  0  0  0
  -28.8452  -15.6811   20.8730 H   0  0  0  0  0  0
  1 25  1  0  0  0
  1 30  2  0  0  0
  1 82  1  0  0  0
  2  3  1  0  0  0
  2 25  1  0  0  0
  2 85  1  0  0  0
  2 86  1  0  0  0
  3  4  1  0  0  0
  3 87  1  0  0  0
  3 88  1  0  0  0
  4  5  1  0  0  0
  4 89  1  0  0  0
  4 90  1  0  0  0
  5  6  1  0  0  0
  5 26  1  0  0  0
  5 91  1  0  0  0
  6 25  1  0  0  0
  6 92  1  0  0  0
  6 93  1  0  0  0
  7  8  2  0  0  0
  7 26  1  0  0  0
  7 29  1  0  0  0
  8  9  1  0  0  0
  8 22  1  0  0  0
  9 10  1  0  0  0
  9 27  2  0  0  0
 10 11  2  0  0  0
 10 15  1  0  0  0
 11 12  1  0  0  0
 11 94  1  0  0  0
 12 13  2  0  0  0
 12 95  1  0  0  0
 13 14  1  0  0  0
 13 31  1  0  0  0
 14 15  2  0  0  0
 14 96  1  0  0  0
 15 97  1  0  0  0
 16 17  2  0  0  0
 16 21  1  0  0  0
 16 31  1  0  0  0
 17 18  1  0  0  0
 17 98  1  0  0  0
 18 19  2  0  0  0
 18 99  1  0  0  0
 19 20  1  0  0  0
 19 24  1  0  0  0
 20 21  2  0  0  0
 20100  1  0  0  0
 21 23  1  0  0  0
 22 28  1  0  0  0
 22 32  2  0  0  0
 26 27  1  0  0  0
 28101  1  0  0  0
 28102  1  0  0  0
 29103  1  0  0  0
 29104  1  0  0  0
 33 34  1  0  0  0
 33 66  1  0  0  0
 33 70  2  0  0  0
 34 36  1  0  0  0
 34 59  1  0  0  0
 34105  1  0  0  0
 35 44  2  0  0  0
 35 45  1  0  0  0
 35 68  1  0  0  0
 36 56  1  0  0  0
 36106  1  0  0  0
 37 39  1  0  0  0
 37 47  1  0  0  0
 37 66  1  0  0  0
 37107  1  0  0  0
 38 43  2  0  0  0
 38 46  1  0  0  0
 38 47  1  0  0  0
 39 64  1  0  0  0
 39 67  2  0  0  0
 40 52  1  0  0  0
 40 53  2  0  0  0
 40 58  1  0  0  0
 41108  1  0  0  0
 41109  1  0  0  0
 41110  1  0  0  0
 41 48  1  0  0  0
 42 43  1  0  0  0
 42 66  1  0  0  0
 42111  1  0  0  0
 42112  1  0  0  0
 43 44  1  0  0  0
 44113  1  0  0  0
 45 46  2  0  0  0
 45114  1  0  0  0
 46115  1  0  0  0
 47116  1  0  0  0
 47117  1  0  0  0
 48 56  1  0  0  0
 48 65  1  0  0  0
 48118  1  0  0  0
 49 50  1  0  0  0
 49 53  1  0  0  0
 49 64  1  0  0  0
 49119  1  0  0  0
 50 51  1  0  0  0
 50120  1  0  0  0
 50121  1  0  0  0
 51 52  1  0  0  0
 51122  1  0  0  0
 51123  1  0  0  0
 52124  1  0  0  0
 52125  1  0  0  0
 53 54  1  0  0  0
 54 55  2  0  0  0
 54126  1  0  0  0
 55 57  1  0  0  0
 55127  1  0  0  0
 56 69  2  0  0  0
 57 58  2  0  0  0
 57128  1  0  0  0
 58129  1  0  0  0
 59 60  1  0  0  0
 59 61  1  0  0  0
 59 62  1  0  0  0
 60130  1  0  0  0
 60131  1  0  0  0
 60132  1  0  0  0
 61133  1  0  0  0
 61134  1  0  0  0
 61135  1  0  0  0
 62136  1  0  0  0
 62137  1  0  0  0
 62138  1  0  0  0
 63 65  1  0  0  0
 63139  1  0  0  0
 63140  1  0  0  0
 63141  1  0  0  0
 64142  1  0  0  0
 65143  1  0  0  0
 68 80  1  0  0  0
 71 72  2  0  0  0
 71 73  1  0  0  0
 71144  1  0  0  0
 72 74  1  0  0  0
 72145  1  0  0  0
 73 76  2  0  0  0
 73146  1  0  0  0
 74 75  2  0  0  0
 74 78  1  0  0  0
 75 76  1  0  0  0
 75 79  1  0  0  0
 76 84  1  0  0  0
 77 80  1  0  0  0
 77 81  1  0  0  0
 77 83  2  0  0  0
 78 81  1  0  0  0
 78147  1  0  0  0
 78148  1  0  0  0
 79 82  1  0  0  0
 79149  1  0  0  0
 79150  1  0  0  0
 80151  1  0  0  0
 80152  1  0  0  0
 81153  1  0  0  0
 82154  1  0  0  0
M  ISO  4   1 100  68 101  80 101  82 100
M  END
> <chiral flag>
0

> <version>
0

> <s_m_source_file>
/data/baiqing/PycharmProjects/Reinvent-master-3.2/result/LINK_invent/BTK/process_docking_weight1_custom_product_contain_oxygen_bond_distance_aromatic_linkinvent_7_9_3/rearranged_h_0047.sdf

> <i_m_source_file_index>
72

> <r_mmod_Potential_Energy-OPLS-2005>
168.023223876953

> <r_mmod_Stretch_Energy-OPLS-2005>
158.331649780273

> <r_mmod_Bend_Energy-OPLS-2005>
199.002502441406

> <r_mmod_Torsional_Energy-OPLS-2005>
223.602935791016

> <r_mmod_Improper_Torsional_Energy-OPLS-2005>
5.47306728363037

> <r_mmod_Van_der_Waal_Energy-OPLS-2005>
147.276092529297

> <r_mmod_Electrostatic_Energy-OPLS-2005>
-414.946838378906

> <r_mmod_Solvation_Energy-OPLS-2005>
-253.496856689453

> <b_mmod_Minimization_Converged-OPLS-2005>
0

> <r_mmod_RMS_Derivative-OPLS-2005>
0.81731790304184

$$$$
72
                    3D
 Structure written by MMmdl.
162170  0  0  1  0            999 V2000
  -30.6170  -14.7265   20.4541 C   0  0  0  0  0  0
  -30.4299  -12.4381   19.4872 C   0  0  0  0  0  0
  -29.5144  -12.5120   18.2443 C   0  0  0  0  0  0
  -28.0380  -12.3422   18.6503 C   0  0  0  0  0  0
  -27.6459  -13.2338   19.8589 C   0  0  2  0  0  0
  -28.6870  -13.1549   20.9988 C   0  0  0  0  0  0
  -25.2519  -13.8205   20.5697 C   0  0  0  0  0  0
  -24.1807  -13.0445   20.9198 C   0  0  0  0  0  0
  -24.6401  -11.6924   20.8741 C   0  0  0  0  0  0
  -23.9078  -10.4298   21.0402 C   0  0  0  0  0  0
  -24.3627   -9.4212   21.9179 C   0  0  0  0  0  0
  -23.6303   -8.2246   22.0752 C   0  0  0  0  0  0
  -22.4284   -8.0283   21.3543 C   0  0  0  0  0  0
  -21.9919   -9.0256   20.4645 C   0  0  0  0  0  0
  -22.7249  -10.2136   20.3052 C   0  0  0  0  0  0
  -21.6856   -6.0738   22.5278 C   0  0  0  0  0  0
  -21.4014   -6.5640   23.8211 C   0  0  0  0  0  0
  -21.3662   -5.6794   24.9172 C   0  0  0  0  0  0
  -21.6046   -4.3056   24.7223 C   0  0  0  0  0  0
  -21.8819   -3.8148   23.4345 C   0  0  0  0  0  0
  -21.9193   -4.6966   22.3401 C   0  0  0  0  0  0
  -22.7827  -13.5222   21.1861 C   0  0  0  0  0  0
  -22.1659   -4.2150   21.0980 F   0  0  0  0  0  0
  -21.5634   -3.4541   25.7736 F   0  0  0  0  0  0
  -29.9967  -13.4971   20.4301 N   0  0  0  0  0  0
  -26.2955  -12.9417   20.3305 N   0  0  0  0  0  0
  -25.9337  -11.6556   20.5758 N   0  0  0  0  0  0
  -22.0474  -12.8211   22.0417 N   0  0  0  0  0  0
  -25.4219  -15.1930   20.4126 N   0  0  0  0  0  0
  -31.7872  -14.8283   20.0746 O   0  0  0  0  0  0
  -21.6644   -6.8883   21.4240 O   0  0  0  0  0  0
  -22.3509  -14.5525   20.6710 O   0  0  0  0  0  0
  -24.6317  -31.8551   23.2002 C   0  0  0  0  0  0
  -25.9146  -32.4753   23.8338 C   0  0  1  0  0  0
  -27.2138  -27.2538   20.1207 C   0  0  0  0  0  0
  -25.5937  -33.8555   24.2254 N   0  0  0  0  0  0
  -23.4278  -30.4804   21.5435 C   0  0  2  0  0  0
  -24.8733  -28.9318   20.1063 C   0  0  0  0  0  0
  -22.7500  -29.4606   22.4906 C   0  0  0  0  0  0
  -18.0290  -28.1387   22.8483 C   0  0  0  0  0  0
  -24.1488  -36.7284   23.2640 C   0  0  0  0  0  0
  -25.9755  -30.7634   21.3847 C   0  0  0  0  0  0
  -26.0444  -29.3870   20.7240 C   0  0  0  0  0  0
  -27.2128  -28.5576   20.7268 C   0  0  0  0  0  0
  -26.0230  -26.8853   19.4499 C   0  0  0  0  0  0
  -24.8690  -27.6897   19.4588 C   0  0  0  0  0  0
  -23.6455  -29.8198   20.1574 C   0  0  0  0  0  0
  -25.4117  -36.3070   24.0325 C   0  0  1  0  0  0
  -20.5895  -28.3703   23.1265 C   0  0  2  0  0  0
  -20.6780  -26.9421   22.5405 C   0  0  0  0  0  0
  -19.5756  -26.6383   21.5209 C   0  0  0  0  0  0
  -18.1935  -26.7929   22.1622 C   0  0  0  0  0  0
  -19.1544  -28.8862   23.2868 C   0  0  0  0  0  0
  -18.9465  -30.1460   23.8893 C   0  0  0  0  0  0
  -17.6465  -30.6590   24.0562 C   0  0  0  0  0  0
  -25.9057  -34.9439   23.5091 C   0  0  0  0  0  0
  -16.5356  -29.9088   23.6330 C   0  0  0  0  0  0
  -16.7277  -28.6502   23.0357 C   0  0  0  0  0  0
  -26.4508  -31.6588   25.0735 C   0  0  0  0  0  0
  -25.3723  -31.3748   26.1449 C   0  0  0  0  0  0
  -27.0361  -30.2998   24.6249 C   0  0  0  0  0  0
  -27.6050  -32.4341   25.7513 C   0  0  0  0  0  0
  -27.5578  -37.1800   24.8465 C   0  0  0  0  0  0
  -21.4207  -29.3049   22.3650 N   0  0  0  0  0  0
  -26.4291  -37.3769   23.9407 N   0  0  0  0  0  0
  -24.6974  -31.0511   22.0986 N   0  0  0  0  0  0
  -23.4197  -28.8137   23.3002 O   0  0  0  0  0  0
  -28.3073  -26.3536   20.2187 O   0  0  0  0  0  0
  -26.5627  -34.8915   22.4659 O   0  0  0  0  0  0
  -23.5469  -32.1379   23.7296 O   0  0  0  0  0  0
  -30.0720  -18.3521   17.9098 C   0  0  0  0  0  0
  -30.0913  -17.1668   18.6639 C   0  0  0  0  0  0
  -29.6632  -18.4896   20.6592 C   0  0  0  0  0  0
  -29.6490  -19.7415   19.9032 C   0  0  0  0  0  0
  -29.8801  -19.6217   18.4986 C   0  0  0  0  0  0
  -29.9019  -17.1788   20.0612 C   0  0  0  0  0  0
  -29.5771  -21.1495   20.5320 C   0  0  0  0  0  0
  -30.0026  -20.8186   17.5581 C   0  0  0  0  0  0
  -28.7469  -24.9346   18.3338 C   0  0  0  0  0  0
  -27.5070  -21.8926   19.4488 C   0  0  0  0  0  0
  -28.9174  -23.7121   20.6209 C   0  0  0  0  0  0
  -28.2144  -24.9122   19.7755 C   0  0  1  0  0  0
  -29.8753  -15.8624   20.7498 N   0  0  0  0  0  0
  -28.7576  -22.2262   20.1722 N   0  0  0  0  0  0
  -30.4574  -21.3861   21.4978 N   0  3  0  0  0  0
  -31.4747  -12.5460   19.1913 H   0  0  0  0  0  0
  -30.3579  -11.4573   19.9603 H   0  0  0  0  0  0
  -29.7942  -11.7439   17.5219 H   0  0  0  0  0  0
  -29.6511  -13.4703   17.7408 H   0  0  0  0  0  0
  -27.8866  -11.2923   18.9027 H   0  0  0  0  0  0
  -27.3849  -12.5466   17.8010 H   0  0  0  0  0  0
  -27.6457  -14.2593   19.4888 H   0  0  0  0  0  0
  -28.7114  -12.1543   21.4329 H   0  0  0  0  0  0
  -28.4226  -13.8331   21.8116 H   0  0  0  0  0  0
  -25.2769   -9.5690   22.4757 H   0  0  0  0  0  0
  -24.0013   -7.4637   22.7472 H   0  0  0  0  0  0
  -21.0848   -8.8778   19.8952 H   0  0  0  0  0  0
  -22.3703  -10.9676   19.6165 H   0  0  0  0  0  0
  -21.2004   -7.6148   23.9716 H   0  0  0  0  0  0
  -21.1486   -6.0522   25.9077 H   0  0  0  0  0  0
  -22.0597   -2.7611   23.2843 H   0  0  0  0  0  0
  -22.4092  -11.9872   22.4806 H   0  0  0  0  0  0
  -21.1090  -13.1230   22.2621 H   0  0  0  0  0  0
  -24.6553  -15.8475   20.5236 H   0  0  0  0  0  0
  -26.2726  -15.6328   20.0858 H   0  0  0  0  0  0
  -26.7209  -32.5395   23.1074 H   0  0  0  0  0  0
  -25.0077  -33.9691   25.0395 H   0  0  0  0  0  0
  -22.7251  -31.3039   21.4005 H   0  0  0  0  0  0
  -23.3751  -35.9615   23.3299 H   0  0  0  0  0  0
  -24.3578  -36.8911   22.2056 H   0  0  0  0  0  0
  -23.7239  -37.6483   23.6668 H   0  0  0  0  0  0
  -26.1200  -31.5259   20.6179 H   0  0  0  0  0  0
  -26.8510  -30.8075   22.0208 H   0  0  0  0  0  0
  -28.1038  -28.8968   21.2365 H   0  0  0  0  0  0
  -25.9339  -25.9577   18.9085 H   0  0  0  0  0  0
  -23.9770  -27.3429   18.9551 H   0  0  0  0  0  0
  -23.7711  -30.5992   19.4049 H   0  0  0  0  0  0
  -22.7631  -29.2557   19.8499 H   0  0  0  0  0  0
  -25.1299  -36.1916   25.0816 H   0  0  0  0  0  0
  -20.9986  -28.3286   24.1385 H   0  0  0  0  0  0
  -20.5682  -26.2315   23.3611 H   0  0  0  0  0  0
  -21.6648  -26.7449   22.1199 H   0  0  0  0  0  0
  -19.6919  -25.6289   21.1249 H   0  0  0  0  0  0
  -19.6694  -27.3185   20.6732 H   0  0  0  0  0  0
  -17.4205  -26.6674   21.4025 H   0  0  0  0  0  0
  -18.0341  -26.0073   22.9020 H   0  0  0  0  0  0
  -19.7943  -30.7271   24.2267 H   0  0  0  0  0  0
  -17.5023  -31.6272   24.5159 H   0  0  0  0  0  0
  -15.5358  -30.2991   23.7656 H   0  0  0  0  0  0
  -15.8673  -28.0815   22.7086 H   0  0  0  0  0  0
  -24.5894  -30.7102   25.7776 H   0  0  0  0  0  0
  -24.8920  -32.2922   26.4860 H   0  0  0  0  0  0
  -25.8029  -30.8931   27.0236 H   0  0  0  0  0  0
  -26.2957  -29.6738   24.1256 H   0  0  0  0  0  0
  -27.4004  -29.7276   25.4792 H   0  0  0  0  0  0
  -27.8853  -30.4257   23.9529 H   0  0  0  0  0  0
  -27.2642  -33.3642   26.2075 H   0  0  0  0  0  0
  -28.3870  -32.6904   25.0352 H   0  0  0  0  0  0
  -28.0709  -31.8481   26.5445 H   0  0  0  0  0  0
  -28.2594  -38.0098   24.7511 H   0  0  0  0  0  0
  -28.1075  -36.2628   24.6292 H   0  0  0  0  0  0
  -27.2296  -37.1451   25.8868 H   0  0  0  0  0  0
  -20.9387  -29.8781   21.6864 H   0  0  0  0  0  0
  -26.0168  -38.2842   24.1405 H   0  0  0  0  0  0
  -30.2373  -18.2741   16.8438 H   0  0  0  0  0  0
  -30.2458  -16.2358   18.1372 H   0  0  0  0  0  0
  -29.5108  -18.5450   21.7278 H   0  0  0  0  0  0
  -30.6548  -20.5798   16.7175 H   0  0  0  0  0  0
  -30.4342  -21.6994   18.0330 H   0  0  0  0  0  0
  -29.0319  -21.0809   17.1405 H   0  0  0  0  0  0
  -28.6904  -23.9592   17.8551 H   0  0  0  0  0  0
  -29.7919  -25.2441   18.3130 H   0  0  0  0  0  0
  -28.1837  -25.6336   17.7154 H   0  0  0  0  0  0
  -27.2678  -20.8285   19.4869 H   0  0  0  0  0  0
  -27.5509  -22.1790   18.3999 H   0  0  0  0  0  0
  -26.6570  -22.4088   19.8955 H   0  0  0  0  0  0
  -28.5660  -23.7790   21.6513 H   0  0  0  0  0  0
  -29.9846  -23.9337   20.6635 H   0  0  0  0  0  0
  -27.1719  -24.6127   19.7656 H   0  0  0  0  0  0
  -29.0483  -15.6908   21.3021 H   0  0  0  0  0  0
  -31.1150  -20.6615   21.7437 H   0  0  0  0  0  0
  -30.4769  -22.2494   22.0113 H   0  0  0  0  0  0
  1 25  1  0  0  0
  1 30  2  0  0  0
  1 83  1  0  0  0
  2  3  1  0  0  0
  2 25  1  0  0  0
  2 86  1  0  0  0
  2 87  1  0  0  0
  3  4  1  0  0  0
  3 88  1  0  0  0
  3 89  1  0  0  0
  4  5  1  0  0  0
  4 90  1  0  0  0
  4 91  1  0  0  0
  5  6  1  0  0  0
  5 26  1  0  0  0
  5 92  1  0  0  0
  6 25  1  0  0  0
  6 93  1  0  0  0
  6 94  1  0  0  0
  7  8  2  0  0  0
  7 26  1  0  0  0
  7 29  1  0  0  0
  8  9  1  0  0  0
  8 22  1  0  0  0
  9 10  1  0  0  0
  9 27  2  0  0  0
 10 11  2  0  0  0
 10 15  1  0  0  0
 11 12  1  0  0  0
 11 95  1  0  0  0
 12 13  2  0  0  0
 12 96  1  0  0  0
 13 14  1  0  0  0
 13 31  1  0  0  0
 14 15  2  0  0  0
 14 97  1  0  0  0
 15 98  1  0  0  0
 16 17  2  0  0  0
 16 21  1  0  0  0
 16 31  1  0  0  0
 17 18  1  0  0  0
 17 99  1  0  0  0
 18 19  2  0  0  0
 18100  1  0  0  0
 19 20  1  0  0  0
 19 24  1  0  0  0
 20 21  2  0  0  0
 20101  1  0  0  0
 21 23  1  0  0  0
 22 28  1  0  0  0
 22 32  2  0  0  0
 26 27  1  0  0  0
 28102  1  0  0  0
 28103  1  0  0  0
 29104  1  0  0  0
 29105  1  0  0  0
 33 34  1  0  0  0
 33 66  1  0  0  0
 33 70  2  0  0  0
 34 36  1  0  0  0
 34 59  1  0  0  0
 34106  1  0  0  0
 35 44  2  0  0  0
 35 45  1  0  0  0
 35 68  1  0  0  0
 36 56  1  0  0  0
 36107  1  0  0  0
 37 39  1  0  0  0
 37 47  1  0  0  0
 37 66  1  0  0  0
 37108  1  0  0  0
 38 43  2  0  0  0
 38 46  1  0  0  0
 38 47  1  0  0  0
 39 64  1  0  0  0
 39 67  2  0  0  0
 40 52  1  0  0  0
 40 53  2  0  0  0
 40 58  1  0  0  0
 41109  1  0  0  0
 41110  1  0  0  0
 41111  1  0  0  0
 41 48  1  0  0  0
 42 43  1  0  0  0
 42 66  1  0  0  0
 42112  1  0  0  0
 42113  1  0  0  0
 43 44  1  0  0  0
 44114  1  0  0  0
 45 46  2  0  0  0
 45115  1  0  0  0
 46116  1  0  0  0
 47117  1  0  0  0
 47118  1  0  0  0
 48 56  1  0  0  0
 48 65  1  0  0  0
 48119  1  0  0  0
 49 50  1  0  0  0
 49 53  1  0  0  0
 49 64  1  0  0  0
 49120  1  0  0  0
 50 51  1  0  0  0
 50121  1  0  0  0
 50122  1  0  0  0
 51 52  1  0  0  0
 51123  1  0  0  0
 51124  1  0  0  0
 52125  1  0  0  0
 52126  1  0  0  0
 53 54  1  0  0  0
 54 55  2  0  0  0
 54127  1  0  0  0
 55 57  1  0  0  0
 55128  1  0  0  0
 56 69  2  0  0  0
 57 58  2  0  0  0
 57129  1  0  0  0
 58130  1  0  0  0
 59 60  1  0  0  0
 59 61  1  0  0  0
 59 62  1  0  0  0
 60131  1  0  0  0
 60132  1  0  0  0
 60133  1  0  0  0
 61134  1  0  0  0
 61135  1  0  0  0
 61136  1  0  0  0
 62137  1  0  0  0
 62138  1  0  0  0
 62139  1  0  0  0
 63 65  1  0  0  0
 63140  1  0  0  0
 63141  1  0  0  0
 63142  1  0  0  0
 64143  1  0  0  0
 65144  1  0  0  0
 68 82  1  0  0  0
 71 72  2  0  0  0
 71 75  1  0  0  0
 71145  1  0  0  0
 72 76  1  0  0  0
 72146  1  0  0  0
 73 74  1  0  0  0
 73 76  2  0  0  0
 73147  1  0  0  0
 74 75  2  0  0  0
 74 77  1  0  0  0
 75 78  1  0  0  0
 76 83  1  0  0  0
 77 84  1  0  0  0
 77 85  2  0  0  0
 78148  1  0  0  0
 78149  1  0  0  0
 78150  1  0  0  0
 79151  1  0  0  0
 79152  1  0  0  0
 79153  1  0  0  0
 79 82  1  0  0  0
 80 84  1  0  0  0
 80154  1  0  0  0
 80155  1  0  0  0
 80156  1  0  0  0
 81 82  1  0  0  0
 81 84  1  0  0  0
 81157  1  0  0  0
 81158  1  0  0  0
 82159  1  0  0  0
 83160  1  0  0  0
 85161  1  0  0  0
 85162  1  0  0  0
M  CHG  1  85   1
M  ISO  4   1 100  68 101  82 101  83 100
M  END
> <chiral flag>
0

> <version>
0

> <s_m_source_file>
/data/baiqing/PycharmProjects/Reinvent-master-3.2/result/LINK_invent/BTK/process_docking_weight1_custom_product_contain_oxygen_bond_distance_aromatic_linkinvent_7_9_3/rearranged_h_0047.sdf

> <i_m_source_file_index>
73

> <r_mmod_Potential_Energy-OPLS-2005>
19.5245780944824

> <r_mmod_Stretch_Energy-OPLS-2005>
135.473373413086

> <r_mmod_Bend_Energy-OPLS-2005>
166.972900390625

> <r_mmod_Torsional_Energy-OPLS-2005>
264.169067382812

> <r_mmod_Improper_Torsional_Energy-OPLS-2005>
6.08343410491943

> <r_mmod_Van_der_Waal_Energy-OPLS-2005>
151.223739624023

> <r_mmod_Electrostatic_Energy-OPLS-2005>
-389.283752441406

> <r_mmod_Solvation_Energy-OPLS-2005>
-399.215942382812

> <b_mmod_Minimization_Converged-OPLS-2005>
0

> <r_mmod_RMS_Derivative-OPLS-2005>
0.53492683172226

$$$$
73
                    3D
 Structure written by MMmdl.
168177  0  0  1  0            999 V2000
  -30.6614  -14.6549   20.5232 C   0  0  0  0  0  0
  -30.4411  -12.4052   19.4667 C   0  0  0  0  0  0
  -29.5153  -12.5177   18.2344 C   0  0  0  0  0  0
  -28.0375  -12.3491   18.6429 C   0  0  0  0  0  0
  -27.6519  -13.2249   19.8647 C   0  0  2  0  0  0
  -28.7002  -13.1004   20.9971 C   0  0  0  0  0  0
  -25.2375  -13.7995   20.5544 C   0  0  0  0  0  0
  -24.1734  -13.0282   20.9209 C   0  0  0  0  0  0
  -24.6393  -11.6808   20.8765 C   0  0  0  0  0  0
  -23.9073  -10.4209   21.0410 C   0  0  0  0  0  0
  -24.3610   -9.4141   21.9198 C   0  0  0  0  0  0
  -23.6266   -8.2194   22.0764 C   0  0  0  0  0  0
  -22.4248   -8.0252   21.3553 C   0  0  0  0  0  0
  -21.9893   -9.0231   20.4653 C   0  0  0  0  0  0
  -22.7245  -10.2089   20.3053 C   0  0  0  0  0  0
  -21.6845   -6.0715   22.5271 C   0  0  0  0  0  0
  -21.4023   -6.5625   23.8206 C   0  0  0  0  0  0
  -21.3655   -5.6774   24.9167 C   0  0  0  0  0  0
  -21.6031   -4.3038   24.7216 C   0  0  0  0  0  0
  -21.8822   -3.8135   23.4340 C   0  0  0  0  0  0
  -21.9192   -4.6946   22.3396 C   0  0  0  0  0  0
  -22.7758  -13.5107   21.1856 C   0  0  0  0  0  0
  -22.1664   -4.2136   21.0974 F   0  0  0  0  0  0
  -21.5614   -3.4526   25.7734 F   0  0  0  0  0  0
  -30.0230  -13.4377   20.4386 N   0  0  0  0  0  0
  -26.2954  -12.9316   20.3308 N   0  0  0  0  0  0
  -25.9343  -11.6459   20.5794 N   0  0  0  0  0  0
  -22.0413  -12.8157   22.0458 N   0  0  0  0  0  0
  -25.3674  -15.1628   20.3612 N   0  0  0  0  0  0
  -31.8131  -14.8002   20.1070 O   0  0  0  0  0  0
  -21.6619   -6.8856   21.4236 O   0  0  0  0  0  0
  -22.3446  -14.5417   20.6685 O   0  0  0  0  0  0
  -24.6262  -31.8600   23.2034 C   0  0  0  0  0  0
  -25.9099  -32.4778   23.8367 C   0  0  1  0  0  0
  -27.2459  -27.3095   20.1325 C   0  0  0  0  0  0
  -25.5915  -33.8584   24.2287 N   0  0  0  0  0  0
  -23.4236  -30.4809   21.5451 C   0  0  2  0  0  0
  -24.8774  -28.9307   20.1187 C   0  0  0  0  0  0
  -22.7479  -29.4623   22.4937 C   0  0  0  0  0  0
  -18.0290  -28.1377   22.8473 C   0  0  0  0  0  0
  -24.1484  -36.7298   23.2632 C   0  0  0  0  0  0
  -25.9654  -30.7818   21.3838 C   0  0  0  0  0  0
  -26.0426  -29.4048   20.7349 C   0  0  0  0  0  0
  -27.2258  -28.6060   20.7354 C   0  0  0  0  0  0
  -26.0703  -26.9147   19.4546 C   0  0  0  0  0  0
  -24.8930  -27.6868   19.4707 C   0  0  0  0  0  0
  -23.6448  -29.8120   20.1625 C   0  0  0  0  0  0
  -25.4098  -36.3089   24.0339 C   0  0  1  0  0  0
  -20.5887  -28.3692   23.1260 C   0  0  2  0  0  0
  -20.6771  -26.9416   22.5394 C   0  0  0  0  0  0
  -19.5752  -26.6384   21.5190 C   0  0  0  0  0  0
  -18.1934  -26.7920   22.1609 C   0  0  0  0  0  0
  -19.1542  -28.8851   23.2859 C   0  0  0  0  0  0
  -18.9468  -30.1449   23.8879 C   0  0  0  0  0  0
  -17.6471  -30.6578   24.0567 C   0  0  0  0  0  0
  -25.9046  -34.9457   23.5114 C   0  0  0  0  0  0
  -16.5360  -29.9078   23.6339 C   0  0  0  0  0  0
  -16.7279  -28.6500   23.0347 C   0  0  0  0  0  0
  -26.4477  -31.6584   25.0741 C   0  0  0  0  0  0
  -25.3705  -31.3736   26.1471 C   0  0  0  0  0  0
  -27.0346  -30.3008   24.6215 C   0  0  0  0  0  0
  -27.6029  -32.4330   25.7501 C   0  0  0  0  0  0
  -27.5600  -37.1765   24.8429 C   0  0  0  0  0  0
  -21.4191  -29.3047   22.3657 N   0  0  0  0  0  0
  -26.4255  -37.3808   23.9460 N   0  0  0  0  0  0
  -24.6897  -31.0581   22.1003 N   0  0  0  0  0  0
  -23.4184  -28.8175   23.3043 O   0  0  0  0  0  0
  -28.3862  -26.4806   20.1037 O   0  0  0  0  0  0
  -26.5627  -34.8924   22.4685 O   0  0  0  0  0  0
  -23.5412  -32.1411   23.7331 O   0  0  0  0  0  0
  -31.1592  -19.3511   20.4058 C   0  0  0  0  0  0
  -31.1844  -17.9284   20.6025 C   0  0  0  0  0  0
  -28.7733  -19.3452   20.5821 C   0  0  0  0  0  0
  -29.9455  -20.1033   20.3673 C   0  0  0  0  0  0
  -28.7932  -17.9401   20.8041 C   0  0  0  0  0  0
  -29.9926  -17.1705   20.7822 C   0  0  0  0  0  0
  -29.6928  -24.2437   20.4270 C   0  0  0  0  0  0
  -33.1690  -24.7598   19.2143 C   0  0  0  0  0  0
  -30.8215  -24.7888   19.9198 C   0  0  0  0  0  0
  -32.1202  -24.1482   19.7855 C   0  0  0  0  0  0
  -27.1596  -22.8285   21.0837 C   0  0  0  0  0  0
  -27.1297  -24.2341   20.4454 C   0  0  0  0  0  0
  -28.4773  -22.5098   21.8081 C   0  0  0  0  0  0
  -28.3903  -25.1011   20.6925 C   0  0  2  0  0  0
  -27.4551  -17.2696   20.9770 C   0  0  0  0  0  0
  -29.8553  -21.6222   19.9175 C   0  0  0  0  0  0
  -29.9048  -15.7104   20.9625 N   0  0  0  0  0  0
  -29.6379  -22.7539   20.9220 N   0  3  1  0  0  0
  -31.4843  -12.5174   19.1659 H   0  0  0  0  0  0
  -30.3664  -11.4129   19.9143 H   0  0  0  0  0  0
  -29.7856  -11.7693   17.4878 H   0  0  0  0  0  0
  -29.6574  -13.4890   17.7570 H   0  0  0  0  0  0
  -27.8771  -11.2968   18.8807 H   0  0  0  0  0  0
  -27.3863  -12.5728   17.7975 H   0  0  0  0  0  0
  -27.6616  -14.2592   19.5196 H   0  0  0  0  0  0
  -28.7099  -12.0847   21.3953 H   0  0  0  0  0  0
  -28.4378  -13.7426   21.8385 H   0  0  0  0  0  0
  -25.2753   -9.5605   22.4782 H   0  0  0  0  0  0
  -23.9960   -7.4580   22.7481 H   0  0  0  0  0  0
  -21.0826   -8.8761   19.8967 H   0  0  0  0  0  0
  -22.3721  -10.9629   19.6152 H   0  0  0  0  0  0
  -21.2044   -7.6135   23.9705 H   0  0  0  0  0  0
  -21.1467   -6.0507   25.9065 H   0  0  0  0  0  0
  -22.0612   -2.7598   23.2837 H   0  0  0  0  0  0
  -22.4017  -11.9832   22.4882 H   0  0  0  0  0  0
  -21.1035  -13.1216   22.2661 H   0  0  0  0  0  0
  -24.5596  -15.7742   20.4129 H   0  0  0  0  0  0
  -26.1550  -15.5836   19.8905 H   0  0  0  0  0  0
  -26.7170  -32.5465   23.1120 H   0  0  0  0  0  0
  -25.0052  -33.9724   25.0424 H   0  0  0  0  0  0
  -22.7189  -31.3023   21.3975 H   0  0  0  0  0  0
  -23.3771  -35.9597   23.3204 H   0  0  0  0  0  0
  -24.3608  -36.9011   22.2068 H   0  0  0  0  0  0
  -23.7177  -37.6449   23.6705 H   0  0  0  0  0  0
  -26.0993  -31.5407   20.6117 H   0  0  0  0  0  0
  -26.8438  -30.8346   22.0148 H   0  0  0  0  0  0
  -28.1219  -28.9750   21.2142 H   0  0  0  0  0  0
  -26.0526  -25.9976   18.8891 H   0  0  0  0  0  0
  -24.0102  -27.3265   18.9593 H   0  0  0  0  0  0
  -23.7722  -30.5882   19.4075 H   0  0  0  0  0  0
  -22.7661  -29.2423   19.8547 H   0  0  0  0  0  0
  -25.1251  -36.1933   25.0826 H   0  0  0  0  0  0
  -20.9970  -28.3273   24.1383 H   0  0  0  0  0  0
  -20.5647  -26.2315   23.3598 H   0  0  0  0  0  0
  -21.6649  -26.7436   22.1213 H   0  0  0  0  0  0
  -19.6920  -25.6292   21.1232 H   0  0  0  0  0  0
  -19.6683  -27.3181   20.6708 H   0  0  0  0  0  0
  -17.4201  -26.6652   21.4016 H   0  0  0  0  0  0
  -18.0359  -26.0053   22.9004 H   0  0  0  0  0  0
  -19.7947  -30.7264   24.2234 H   0  0  0  0  0  0
  -17.5036  -31.6257   24.5170 H   0  0  0  0  0  0
  -15.5359  -30.2982   23.7662 H   0  0  0  0  0  0
  -15.8680  -28.0817   22.7066 H   0  0  0  0  0  0
  -24.5861  -30.7097   25.7818 H   0  0  0  0  0  0
  -24.8909  -32.2910   26.4901 H   0  0  0  0  0  0
  -25.8030  -30.8920   27.0250 H   0  0  0  0  0  0
  -26.2950  -29.6739   24.1219 H   0  0  0  0  0  0
  -27.4021  -29.7281   25.4740 H   0  0  0  0  0  0
  -27.8824  -30.4301   23.9480 H   0  0  0  0  0  0
  -27.2625  -33.3622   26.2082 H   0  0  0  0  0  0
  -28.3822  -32.6904   25.0317 H   0  0  0  0  0  0
  -28.0708  -31.8456   26.5407 H   0  0  0  0  0  0
  -28.2483  -38.0197   24.7702 H   0  0  0  0  0  0
  -28.1229  -36.2752   24.5950 H   0  0  0  0  0  0
  -27.2371  -37.1054   25.8830 H   0  0  0  0  0  0
  -20.9375  -29.8778   21.6866 H   0  0  0  0  0  0
  -26.0127  -38.2850   24.1593 H   0  0  0  0  0  0
  -32.0992  -19.8575   20.2359 H   0  0  0  0  0  0
  -32.1390  -17.4209   20.6007 H   0  0  0  0  0  0
  -27.8156  -19.8434   20.5307 H   0  0  0  0  0  0
  -34.1251  -24.2620   19.1330 H   0  0  0  0  0  0
  -33.1011  -25.7635   18.8186 H   0  0  0  0  0  0
  -30.7691  -25.8322   19.6417 H   0  0  0  0  0  0
  -32.2881  -23.1508   20.1635 H   0  0  0  0  0  0
  -26.9775  -22.0839   20.3087 H   0  0  0  0  0  0
  -26.3303  -22.7211   21.7825 H   0  0  0  0  0  0
  -26.2483  -24.7386   20.8382 H   0  0  0  0  0  0
  -26.9803  -24.1172   19.3720 H   0  0  0  0  0  0
  -28.4720  -21.4916   22.1951 H   0  0  0  0  0  0
  -28.5771  -23.1427   22.6904 H   0  0  0  0  0  0
  -28.4260  -25.3051   21.7635 H   0  0  0  0  0  0
  -26.7062  -17.9564   21.3720 H   0  0  0  0  0  0
  -27.4981  -16.4118   21.6484 H   0  0  0  0  0  0
  -27.1323  -16.9507   19.9882 H   0  0  0  0  0  0
  -29.0508  -21.6858   19.1846 H   0  0  0  0  0  0
  -30.7508  -21.8269   19.3351 H   0  0  0  0  0  0
  -29.0065  -15.4004   21.2960 H   0  0  0  0  0  0
  -30.4227  -22.6390   21.5445 H   0  0  0  0  0  0
  1 25  1  0  0  0
  1 30  2  0  0  0
  1 87  1  0  0  0
  2  3  1  0  0  0
  2 25  1  0  0  0
  2 89  1  0  0  0
  2 90  1  0  0  0
  3  4  1  0  0  0
  3 91  1  0  0  0
  3 92  1  0  0  0
  4  5  1  0  0  0
  4 93  1  0  0  0
  4 94  1  0  0  0
  5  6  1  0  0  0
  5 26  1  0  0  0
  5 95  1  0  0  0
  6 25  1  0  0  0
  6 96  1  0  0  0
  6 97  1  0  0  0
  7  8  2  0  0  0
  7 26  1  0  0  0
  7 29  1  0  0  0
  8  9  1  0  0  0
  8 22  1  0  0  0
  9 10  1  0  0  0
  9 27  2  0  0  0
 10 11  2  0  0  0
 10 15  1  0  0  0
 11 12  1  0  0  0
 11 98  1  0  0  0
 12 13  2  0  0  0
 12 99  1  0  0  0
 13 14  1  0  0  0
 13 31  1  0  0  0
 14 15  2  0  0  0
 14100  1  0  0  0
 15101  1  0  0  0
 16 17  2  0  0  0
 16 21  1  0  0  0
 16 31  1  0  0  0
 17 18  1  0  0  0
 17102  1  0  0  0
 18 19  2  0  0  0
 18103  1  0  0  0
 19 20  1  0  0  0
 19 24  1  0  0  0
 20 21  2  0  0  0
 20104  1  0  0  0
 21 23  1  0  0  0
 22 28  1  0  0  0
 22 32  2  0  0  0
 26 27  1  0  0  0
 28105  1  0  0  0
 28106  1  0  0  0
 29107  1  0  0  0
 29108  1  0  0  0
 33 34  1  0  0  0
 33 66  1  0  0  0
 33 70  2  0  0  0
 34 36  1  0  0  0
 34 59  1  0  0  0
 34109  1  0  0  0
 35 44  2  0  0  0
 35 45  1  0  0  0
 35 68  1  0  0  0
 36 56  1  0  0  0
 36110  1  0  0  0
 37 39  1  0  0  0
 37 47  1  0  0  0
 37 66  1  0  0  0
 37111  1  0  0  0
 38 43  2  0  0  0
 38 46  1  0  0  0
 38 47  1  0  0  0
 39 64  1  0  0  0
 39 67  2  0  0  0
 40 52  1  0  0  0
 40 53  2  0  0  0
 40 58  1  0  0  0
 41112  1  0  0  0
 41113  1  0  0  0
 41114  1  0  0  0
 41 48  1  0  0  0
 42 43  1  0  0  0
 42 66  1  0  0  0
 42115  1  0  0  0
 42116  1  0  0  0
 43 44  1  0  0  0
 44117  1  0  0  0
 45 46  2  0  0  0
 45118  1  0  0  0
 46119  1  0  0  0
 47120  1  0  0  0
 47121  1  0  0  0
 48 56  1  0  0  0
 48 65  1  0  0  0
 48122  1  0  0  0
 49 50  1  0  0  0
 49 53  1  0  0  0
 49 64  1  0  0  0
 49123  1  0  0  0
 50 51  1  0  0  0
 50124  1  0  0  0
 50125  1  0  0  0
 51 52  1  0  0  0
 51126  1  0  0  0
 51127  1  0  0  0
 52128  1  0  0  0
 52129  1  0  0  0
 53 54  1  0  0  0
 54 55  2  0  0  0
 54130  1  0  0  0
 55 57  1  0  0  0
 55131  1  0  0  0
 56 69  2  0  0  0
 57 58  2  0  0  0
 57132  1  0  0  0
 58133  1  0  0  0
 59 60  1  0  0  0
 59 61  1  0  0  0
 59 62  1  0  0  0
 60134  1  0  0  0
 60135  1  0  0  0
 60136  1  0  0  0
 61137  1  0  0  0
 61138  1  0  0  0
 61139  1  0  0  0
 62140  1  0  0  0
 62141  1  0  0  0
 62142  1  0  0  0
 63 65  1  0  0  0
 63143  1  0  0  0
 63144  1  0  0  0
 63145  1  0  0  0
 64146  1  0  0  0
 65147  1  0  0  0
 68 84  1  0  0  0
 71 72  2  0  0  0
 71 74  1  0  0  0
 71148  1  0  0  0
 72 76  1  0  0  0
 72149  1  0  0  0
 73 74  2  0  0  0
 73 75  1  0  0  0
 73150  1  0  0  0
 74 86  1  0  0  0
 75 76  2  0  0  0
 75 85  1  0  0  0
 76 87  1  0  0  0
 77 79  2  0  0  0
 77 84  1  0  0  0
 77 88  1  0  0  0
 78 80  2  0  0  0
 78151  1  0  0  0
 78152  1  0  0  0
 79 80  1  0  0  0
 79153  1  0  0  0
 80154  1  0  0  0
 81 82  1  0  0  0
 81 83  1  0  0  0
 81155  1  0  0  0
 81156  1  0  0  0
 82 84  1  0  0  0
 82157  1  0  0  0
 82158  1  0  0  0
 83 88  1  0  0  0
 83159  1  0  0  0
 83160  1  0  0  0
 84161  1  0  0  0
 85162  1  0  0  0
 85163  1  0  0  0
 85164  1  0  0  0
 86165  1  0  0  0
 86166  1  0  0  0
 86 88  1  0  0  0
 87167  1  0  0  0
 88168  1  0  0  0
M  CHG  1  88   1
M  ISO  4   1 100  68 101  84 101  87 100
M  END
> <chiral flag>
0

> <version>
0

> <s_m_source_file>
/data/baiqing/PycharmProjects/Reinvent-master-3.2/result/LINK_invent/BTK/process_docking_weight1_custom_product_contain_oxygen_bond_distance_aromatic_linkinvent_7_9_3/rearranged_h_0047.sdf

> <i_m_source_file_index>
74

> <r_mmod_Potential_Energy-OPLS-2005>
14.5918426513672

> <r_mmod_Stretch_Energy-OPLS-2005>
101.108428955078

> <r_mmod_Bend_Energy-OPLS-2005>
170.993225097656

> <r_mmod_Torsional_Energy-OPLS-2005>
253.97233581543

> <r_mmod_Improper_Torsional_Energy-OPLS-2005>
6.11636304855347

> <r_mmod_Van_der_Waal_Energy-OPLS-2005>
156.294921875

> <r_mmod_Electrostatic_Energy-OPLS-2005>
-295.971313476562

> <r_mmod_Solvation_Energy-OPLS-2005>
-427.988586425781

> <b_mmod_Minimization_Converged-OPLS-2005>
0

> <r_mmod_RMS_Derivative-OPLS-2005>
2.14444255828857

$$$$
74
                    3D
 Structure written by MMmdl.
152160  0  0  1  0            999 V2000
  -30.3808  -15.3912   20.3771 C   0  0  0  0  0  0
  -30.4337  -12.9076   19.5155 C   0  0  0  0  0  0
  -29.5349  -12.5992   18.2894 C   0  0  0  0  0  0
  -28.0918  -12.2950   18.7274 C   0  0  0  0  0  0
  -27.6016  -13.2824   19.8145 C   0  0  2  0  0  0
  -28.6348  -13.5111   20.9379 C   0  0  0  0  0  0
  -25.2356  -13.8255   20.5780 C   0  0  0  0  0  0
  -24.1719  -13.0433   20.9278 C   0  0  0  0  0  0
  -24.6383  -11.6937   20.8772 C   0  0  0  0  0  0
  -23.9079  -10.4296   21.0408 C   0  0  0  0  0  0
  -24.3626   -9.4219   21.9190 C   0  0  0  0  0  0
  -23.6303   -8.2256   22.0758 C   0  0  0  0  0  0
  -22.4291   -8.0282   21.3540 C   0  0  0  0  0  0
  -21.9918   -9.0251   20.4642 C   0  0  0  0  0  0
  -22.7242  -10.2137   20.3063 C   0  0  0  0  0  0
  -21.6857   -6.0737   22.5274 C   0  0  0  0  0  0
  -21.4014   -6.5639   23.8210 C   0  0  0  0  0  0
  -21.3669   -5.6791   24.9167 C   0  0  0  0  0  0
  -21.6054   -4.3052   24.7213 C   0  0  0  0  0  0
  -21.8817   -3.8148   23.4332 C   0  0  0  0  0  0
  -21.9194   -4.6969   22.3392 C   0  0  0  0  0  0
  -22.7739  -13.5198   21.1885 C   0  0  0  0  0  0
  -22.1661   -4.2159   21.0969 F   0  0  0  0  0  0
  -21.5633   -3.4535   25.7726 F   0  0  0  0  0  0
  -29.8347  -14.0665   20.2861 N   0  0  0  0  0  0
  -26.2773  -12.9537   20.3222 N   0  0  0  0  0  0
  -25.9321  -11.6631   20.5724 N   0  0  0  0  0  0
  -22.0372  -12.8214   22.0446 N   0  0  0  0  0  0
  -25.3976  -15.1992   20.4234 N   0  0  0  0  0  0
  -31.6161  -15.3673   20.2496 O   0  0  0  0  0  0
  -21.6642   -6.8887   21.4241 O   0  0  0  0  0  0
  -22.3428  -14.5486   20.6695 O   0  0  0  0  0  0
  -24.6697  -31.8161   23.1636 C   0  0  0  0  0  0
  -25.9346  -32.4538   23.8135 C   0  0  1  0  0  0
  -27.2190  -26.8464   20.2092 C   0  0  0  0  0  0
  -25.5992  -33.8357   24.2030 N   0  0  0  0  0  0
  -23.4887  -30.4232   21.5149 C   0  0  2  0  0  0
  -24.9423  -28.7864   20.1258 C   0  0  0  0  0  0
  -22.7699  -29.4400   22.4761 C   0  0  0  0  0  0
  -18.0333  -28.1422   22.8468 C   0  0  0  0  0  0
  -24.1510  -36.7187   23.2651 C   0  0  0  0  0  0
  -26.0614  -30.5925   21.4109 C   0  0  0  0  0  0
  -26.1262  -29.1688   20.7697 C   0  0  0  0  0  0
  -27.2566  -28.2208   20.7872 C   0  0  0  0  0  0
  -26.0090  -26.6375   19.5093 C   0  0  0  0  0  0
  -24.9113  -27.5406   19.4770 C   0  0  0  0  0  0
  -23.7361  -29.7287   20.1465 C   0  0  0  0  0  0
  -25.4151  -36.2929   24.0290 C   0  0  1  0  0  0
  -20.5955  -28.3769   23.1178 C   0  0  2  0  0  0
  -20.6798  -26.9447   22.5399 C   0  0  0  0  0  0
  -19.5767  -26.6386   21.5213 C   0  0  0  0  0  0
  -18.1953  -26.7954   22.1628 C   0  0  0  0  0  0
  -19.1594  -28.8917   23.2809 C   0  0  0  0  0  0
  -18.9504  -30.1508   23.8845 C   0  0  0  0  0  0
  -17.6496  -30.6610   24.0557 C   0  0  0  0  0  0
  -25.9118  -34.9318   23.4986 C   0  0  0  0  0  0
  -16.5386  -29.9091   23.6352 C   0  0  0  0  0  0
  -16.7314  -28.6516   23.0361 C   0  0  0  0  0  0
  -26.4575  -31.6513   25.0695 C   0  0  0  0  0  0
  -25.3697  -31.3765   26.1347 C   0  0  0  0  0  0
  -27.0478  -30.2870   24.6483 C   0  0  0  0  0  0
  -27.6068  -32.4336   25.7483 C   0  0  0  0  0  0
  -27.5578  -37.1748   24.8467 C   0  0  0  0  0  0
  -21.4362  -29.3046   22.3512 N   0  0  0  0  0  0
  -26.4284  -37.3676   23.9413 N   0  0  0  0  0  0
  -24.7617  -30.9739   22.0823 N   0  0  0  0  0  0
  -23.4214  -28.7987   23.3041 O   0  0  0  0  0  0
  -28.2410  -25.7358   20.1471 O   0  0  0  0  0  0
  -26.5735  -34.8868   22.4586 O   0  0  0  0  0  0
  -23.5753  -32.1173   23.6676 O   0  0  0  0  0  0
  -29.7694  -21.1251   21.8116 C   0  0  0  0  0  0
  -30.3488  -19.9769   22.4137 C   0  0  0  0  0  0
  -29.0836  -21.0994   20.5832 C   0  0  0  0  0  0
  -30.3238  -18.6483   21.8954 C   0  0  0  0  0  0
  -29.0505  -19.6140   20.0670 C   0  0  0  0  0  0
  -29.6707  -18.3019   20.6767 C   0  0  0  0  0  0
  -30.9944  -17.5804   22.7448 C   0  0  0  0  0  0
  -28.2883  -19.4195   18.7733 C   0  0  0  0  0  0
  -28.6261  -22.7182   19.9660 C   0  0  0  0  0  0
  -29.5938  -16.6852   20.3135 N   0  0  0  0  0  0
  -28.0006  -24.0933   20.6678 N   0  0  0  0  0  0
  -31.4407  -13.1438   19.1681 H   0  0  0  0  0  0
  -30.5422  -12.0269   20.1510 H   0  0  0  0  0  0
  -29.9402  -11.7636   17.7170 H   0  0  0  0  0  0
  -29.5336  -13.4604   17.6193 H   0  0  0  0  0  0
  -28.0727  -11.2781   19.1220 H   0  0  0  0  0  0
  -27.4205  -12.3035   17.8678 H   0  0  0  0  0  0
  -27.4948  -14.2316   19.2882 H   0  0  0  0  0  0
  -28.8467  -12.5930   21.4880 H   0  0  0  0  0  0
  -28.2523  -14.2286   21.6666 H   0  0  0  0  0  0
  -25.2761   -9.5706   22.4778 H   0  0  0  0  0  0
  -24.0008   -7.4656   22.7487 H   0  0  0  0  0  0
  -21.0853   -8.8758   19.8946 H   0  0  0  0  0  0
  -22.3683  -10.9673   19.6181 H   0  0  0  0  0  0
  -21.2002   -7.6148   23.9712 H   0  0  0  0  0  0
  -21.1495   -6.0518   25.9072 H   0  0  0  0  0  0
  -22.0591   -2.7615   23.2816 H   0  0  0  0  0  0
  -22.3977  -11.9902   22.4891 H   0  0  0  0  0  0
  -21.0979  -13.1247   22.2595 H   0  0  0  0  0  0
  -24.6269  -15.8481   20.5441 H   0  0  0  0  0  0
  -26.2409  -15.6449   20.0891 H   0  0  0  0  0  0
  -26.7418  -32.5048   23.0848 H   0  0  0  0  0  0
  -25.0069  -33.9424   25.0134 H   0  0  0  0  0  0
  -22.8082  -31.2578   21.3335 H   0  0  0  0  0  0
  -23.3776  -35.9509   23.3259 H   0  0  0  0  0  0
  -24.3596  -36.8892   22.2077 H   0  0  0  0  0  0
  -23.7258  -37.6354   23.6749 H   0  0  0  0  0  0
  -26.2507  -31.3213   20.6224 H   0  0  0  0  0  0
  -26.9198  -30.6564   22.0668 H   0  0  0  0  0  0
  -28.1614  -28.5200   21.2973 H   0  0  0  0  0  0
  -25.8911  -25.6963   18.9905 H   0  0  0  0  0  0
  -24.0180  -27.2428   18.9449 H   0  0  0  0  0  0
  -23.9088  -30.4921   19.3864 H   0  0  0  0  0  0
  -22.8433  -29.1919   19.8206 H   0  0  0  0  0  0
  -25.1352  -36.1704   25.0776 H   0  0  0  0  0  0
  -21.0048  -28.3376   24.1296 H   0  0  0  0  0  0
  -20.5669  -26.2394   23.3645 H   0  0  0  0  0  0
  -21.6662  -26.7402   22.1212 H   0  0  0  0  0  0
  -19.6922  -25.6279   21.1280 H   0  0  0  0  0  0
  -19.6700  -27.3167   20.6718 H   0  0  0  0  0  0
  -17.4216  -26.6700   21.4035 H   0  0  0  0  0  0
  -18.0355  -26.0111   22.9044 H   0  0  0  0  0  0
  -19.7975  -30.7341   24.2183 H   0  0  0  0  0  0
  -17.5043  -31.6278   24.5180 H   0  0  0  0  0  0
  -15.5382  -30.2971   23.7703 H   0  0  0  0  0  0
  -15.8719  -28.0813   22.7100 H   0  0  0  0  0  0
  -24.5863  -30.7148   25.7628 H   0  0  0  0  0  0
  -24.8914  -32.2967   26.4711 H   0  0  0  0  0  0
  -25.7925  -30.8938   27.0169 H   0  0  0  0  0  0
  -26.3152  -29.6524   24.1488 H   0  0  0  0  0  0
  -27.3971  -29.7261   25.5161 H   0  0  0  0  0  0
  -27.9112  -30.4025   23.9931 H   0  0  0  0  0  0
  -27.2643  -33.3683   26.1935 H   0  0  0  0  0  0
  -28.3931  -32.6833   25.0344 H   0  0  0  0  0  0
  -28.0687  -31.8552   26.5496 H   0  0  0  0  0  0
  -28.2550  -38.0085   24.7524 H   0  0  0  0  0  0
  -28.1117  -36.2605   24.6276 H   0  0  0  0  0  0
  -27.2298  -37.1366   25.8870 H   0  0  0  0  0  0
  -20.9632  -29.8745   21.6631 H   0  0  0  0  0  0
  -26.0115  -38.2722   24.1430 H   0  0  0  0  0  0
  -29.8851  -22.0777   22.3118 H   0  0  0  0  0  0
  -30.8499  -20.1415   23.3581 H   0  0  0  0  0  0
  -31.3749  -17.9851   23.6834 H   0  0  0  0  0  0
  -31.8443  -17.1547   22.2128 H   0  0  0  0  0  0
  -30.2954  -16.7838   23.0000 H   0  0  0  0  0  0
  -28.5927  -20.1593   18.0331 H   0  0  0  0  0  0
  -27.2188  -19.5333   18.9512 H   0  0  0  0  0  0
  -28.4596  -18.4290   18.3514 H   0  0  0  0  0  0
  -27.9874  -22.5239   19.1036 H   0  0  0  0  0  0
  -29.5591  -23.0693   19.5230 H   0  0  0  0  0  0
  -28.6559  -16.4447   20.0300 H   0  0  0  0  0  0
  -26.9909  -23.9810   20.6694 H   0  0  0  0  0  0
  1 25  1  0  0  0
  1 30  2  0  0  0
  1 80  1  0  0  0
  2  3  1  0  0  0
  2 25  1  0  0  0
  2 82  1  0  0  0
  2 83  1  0  0  0
  3  4  1  0  0  0
  3 84  1  0  0  0
  3 85  1  0  0  0
  4  5  1  0  0  0
  4 86  1  0  0  0
  4 87  1  0  0  0
  5  6  1  0  0  0
  5 26  1  0  0  0
  5 88  1  0  0  0
  6 25  1  0  0  0
  6 89  1  0  0  0
  6 90  1  0  0  0
  7  8  2  0  0  0
  7 26  1  0  0  0
  7 29  1  0  0  0
  8  9  1  0  0  0
  8 22  1  0  0  0
  9 10  1  0  0  0
  9 27  2  0  0  0
 10 11  2  0  0  0
 10 15  1  0  0  0
 11 12  1  0  0  0
 11 91  1  0  0  0
 12 13  2  0  0  0
 12 92  1  0  0  0
 13 14  1  0  0  0
 13 31  1  0  0  0
 14 15  2  0  0  0
 14 93  1  0  0  0
 15 94  1  0  0  0
 16 17  2  0  0  0
 16 21  1  0  0  0
 16 31  1  0  0  0
 17 18  1  0  0  0
 17 95  1  0  0  0
 18 19  2  0  0  0
 18 96  1  0  0  0
 19 20  1  0  0  0
 19 24  1  0  0  0
 20 21  2  0  0  0
 20 97  1  0  0  0
 21 23  1  0  0  0
 22 28  1  0  0  0
 22 32  2  0  0  0
 26 27  1  0  0  0
 28 98  1  0  0  0
 28 99  1  0  0  0
 29100  1  0  0  0
 29101  1  0  0  0
 33 34  1  0  0  0
 33 66  1  0  0  0
 33 70  2  0  0  0
 34 36  1  0  0  0
 34 59  1  0  0  0
 34102  1  0  0  0
 35 44  2  0  0  0
 35 45  1  0  0  0
 35 68  1  0  0  0
 36 56  1  0  0  0
 36103  1  0  0  0
 37 39  1  0  0  0
 37 47  1  0  0  0
 37 66  1  0  0  0
 37104  1  0  0  0
 38 43  2  0  0  0
 38 46  1  0  0  0
 38 47  1  0  0  0
 39 64  1  0  0  0
 39 67  2  0  0  0
 40 52  1  0  0  0
 40 53  2  0  0  0
 40 58  1  0  0  0
 41105  1  0  0  0
 41106  1  0  0  0
 41107  1  0  0  0
 41 48  1  0  0  0
 42 43  1  0  0  0
 42 66  1  0  0  0
 42108  1  0  0  0
 42109  1  0  0  0
 43 44  1  0  0  0
 44110  1  0  0  0
 45 46  2  0  0  0
 45111  1  0  0  0
 46112  1  0  0  0
 47113  1  0  0  0
 47114  1  0  0  0
 48 56  1  0  0  0
 48 65  1  0  0  0
 48115  1  0  0  0
 49 50  1  0  0  0
 49 53  1  0  0  0
 49 64  1  0  0  0
 49116  1  0  0  0
 50 51  1  0  0  0
 50117  1  0  0  0
 50118  1  0  0  0
 51 52  1  0  0  0
 51119  1  0  0  0
 51120  1  0  0  0
 52121  1  0  0  0
 52122  1  0  0  0
 53 54  1  0  0  0
 54 55  2  0  0  0
 54123  1  0  0  0
 55 57  1  0  0  0
 55124  1  0  0  0
 56 69  2  0  0  0
 57 58  2  0  0  0
 57125  1  0  0  0
 58126  1  0  0  0
 59 60  1  0  0  0
 59 61  1  0  0  0
 59 62  1  0  0  0
 60127  1  0  0  0
 60128  1  0  0  0
 60129  1  0  0  0
 61130  1  0  0  0
 61131  1  0  0  0
 61132  1  0  0  0
 62133  1  0  0  0
 62134  1  0  0  0
 62135  1  0  0  0
 63 65  1  0  0  0
 63136  1  0  0  0
 63137  1  0  0  0
 63138  1  0  0  0
 64139  1  0  0  0
 65140  1  0  0  0
 68 81  1  0  0  0
 71 72  2  0  0  0
 71 73  1  0  0  0
 71141  1  0  0  0
 72 74  1  0  0  0
 72142  1  0  0  0
 73 75  2  0  0  0
 73 79  1  0  0  0
 74 76  2  0  0  0
 74 77  1  0  0  0
 75 76  1  0  0  0
 75 78  1  0  0  0
 76 80  1  0  0  0
 77143  1  0  0  0
 77144  1  0  0  0
 77145  1  0  0  0
 78146  1  0  0  0
 78147  1  0  0  0
 78148  1  0  0  0
 79 81  1  0  0  0
 79149  1  0  0  0
 79150  1  0  0  0
 80151  1  0  0  0
 81152  1  0  0  0
M  ISO  4   1 100  68 101  80 100  81 101
M  END
> <chiral flag>
0

> <version>
0

> <s_m_source_file>
/data/baiqing/PycharmProjects/Reinvent-master-3.2/result/LINK_invent/BTK/process_docking_weight1_custom_product_contain_oxygen_bond_distance_aromatic_linkinvent_7_9_3/rearranged_h_0047.sdf

> <i_m_source_file_index>
75

> <r_mmod_Potential_Energy-OPLS-2005>
1523.5966796875

> <r_mmod_Stretch_Energy-OPLS-2005>
711.883972167969

> <r_mmod_Bend_Energy-OPLS-2005>
474.104553222656

> <r_mmod_Torsional_Energy-OPLS-2005>
236.985702514648

> <r_mmod_Improper_Torsional_Energy-OPLS-2005>
8.75403881072998

> <r_mmod_Van_der_Waal_Energy-OPLS-2005>
124.966949462891

> <r_mmod_Electrostatic_Energy-OPLS-2005>
-398.167419433594

> <r_mmod_Solvation_Energy-OPLS-2005>
-221.912414550781

> <b_mmod_Minimization_Converged-OPLS-2005>
0

> <r_mmod_RMS_Derivative-OPLS-2005>
1.7462602853775

$$$$
75
                    3D
 Structure written by MMmdl.
162170  0  0  1  0            999 V2000
  -30.6536  -14.5486   20.5569 C   0  0  0  0  0  0
  -30.4275  -12.3515   19.4661 C   0  0  0  0  0  0
  -29.5005  -12.4805   18.2351 C   0  0  0  0  0  0
  -28.0254  -12.3127   18.6447 C   0  0  0  0  0  0
  -27.6489  -13.1972   19.8568 C   0  0  2  0  0  0
  -28.6777  -13.0320   20.9902 C   0  0  0  0  0  0
  -25.2566  -13.8194   20.5687 C   0  0  0  0  0  0
  -24.1810  -13.0486   20.9238 C   0  0  0  0  0  0
  -24.6332  -11.6949   20.8754 C   0  0  0  0  0  0
  -23.8989  -10.4314   21.0398 C   0  0  0  0  0  0
  -24.3569   -9.4237   21.9156 C   0  0  0  0  0  0
  -23.6281   -8.2259   22.0738 C   0  0  0  0  0  0
  -22.4243   -8.0283   21.3534 C   0  0  0  0  0  0
  -21.9860   -9.0256   20.4628 C   0  0  0  0  0  0
  -22.7172  -10.2152   20.3046 C   0  0  0  0  0  0
  -21.6861   -6.0735   22.5296 C   0  0  0  0  0  0
  -21.3999   -6.5642   23.8230 C   0  0  0  0  0  0
  -21.3640   -5.6790   24.9184 C   0  0  0  0  0  0
  -21.6054   -4.3060   24.7238 C   0  0  0  0  0  0
  -21.8808   -3.8153   23.4354 C   0  0  0  0  0  0
  -21.9192   -4.6963   22.3406 C   0  0  0  0  0  0
  -22.7854  -13.5295   21.1901 C   0  0  0  0  0  0
  -22.1662   -4.2164   21.0979 F   0  0  0  0  0  0
  -21.5628   -3.4531   25.7738 F   0  0  0  0  0  0
  -30.0021  -13.3589   20.4487 N   0  0  0  0  0  0
  -26.2904  -12.9297   20.3220 N   0  0  0  0  0  0
  -25.9236  -11.6508   20.5773 N   0  0  0  0  0  0
  -22.0482  -12.8287   22.0471 N   0  0  0  0  0  0
  -25.4496  -15.1880   20.4040 N   0  0  0  0  0  0
  -31.8042  -14.7159   20.1508 O   0  0  0  0  0  0
  -21.6610   -6.8872   21.4256 O   0  0  0  0  0  0
  -22.3536  -14.5613   20.6772 O   0  0  0  0  0  0
  -24.6073  -31.8693   23.1914 C   0  0  0  0  0  0
  -25.8958  -32.4823   23.8270 C   0  0  1  0  0  0
  -27.3175  -27.4706   20.0668 C   0  0  0  0  0  0
  -25.5870  -33.8634   24.2327 N   0  0  0  0  0  0
  -23.3998  -30.4647   21.5302 C   0  0  2  0  0  0
  -24.8765  -28.9187   20.1274 C   0  0  0  0  0  0
  -22.7303  -29.4587   22.5005 C   0  0  0  0  0  0
  -18.0058  -28.1390   22.8397 C   0  0  0  0  0  0
  -24.1483  -36.7366   23.2645 C   0  0  0  0  0  0
  -25.9211  -30.8472   21.3375 C   0  0  0  0  0  0
  -26.0238  -29.4689   20.7075 C   0  0  0  0  0  0
  -27.2416  -28.7465   20.6765 C   0  0  0  0  0  0
  -26.1459  -26.9197   19.5026 C   0  0  0  0  0  0
  -24.9307  -27.6420   19.5349 C   0  0  0  0  0  0
  -23.6262  -29.7742   20.1550 C   0  0  0  0  0  0
  -25.4116  -36.3175   24.0364 C   0  0  1  0  0  0
  -20.5684  -28.3557   23.1311 C   0  0  2  0  0  0
  -20.6576  -26.9232   22.5456 C   0  0  0  0  0  0
  -19.5501  -26.6196   21.5287 C   0  0  0  0  0  0
  -18.1609  -26.7961   22.1570 C   0  0  0  0  0  0
  -19.1379  -28.8794   23.2848 C   0  0  0  0  0  0
  -18.9404  -30.1352   23.8930 C   0  0  0  0  0  0
  -17.6411  -30.6450   24.0722 C   0  0  0  0  0  0
  -25.9023  -34.9508   23.5165 C   0  0  0  0  0  0
  -16.5279  -29.9158   23.6297 C   0  0  0  0  0  0
  -16.7099  -28.6609   23.0162 C   0  0  0  0  0  0
  -26.4412  -31.6567   25.0579 C   0  0  0  0  0  0
  -25.3630  -31.3781   26.1311 C   0  0  0  0  0  0
  -27.0355  -30.3030   24.5998 C   0  0  0  0  0  0
  -27.6051  -32.4224   25.7302 C   0  0  0  0  0  0
  -27.5602  -37.1812   24.8466 C   0  0  0  0  0  0
  -21.4057  -29.2854   22.3699 N   0  0  0  0  0  0
  -26.4324  -37.3836   23.9407 N   0  0  0  0  0  0
  -24.6574  -31.0759   22.0828 N   0  0  0  0  0  0
  -23.4105  -28.8333   23.3220 O   0  0  0  0  0  0
  -28.5615  -26.8538   20.0086 O   0  0  0  0  0  0
  -26.5564  -34.9019   22.4684 O   0  0  0  0  0  0
  -23.5269  -32.1469   23.7290 O   0  0  0  0  0  0
  -28.8818  -16.1654   24.3298 C   0  0  0  0  0  0
  -28.3871  -17.4717   24.2824 C   0  0  0  0  0  0
  -29.4255  -15.5808   23.1734 C   0  0  0  0  0  0
  -28.4983  -18.2410   23.1160 C   0  0  0  0  0  0
  -29.0208  -17.6591   21.9208 C   0  0  0  0  0  0
  -29.4575  -16.2903   21.9440 C   0  0  0  0  0  0
  -29.0871  -22.3642   19.5704 C   0  0  0  0  0  0
  -28.7222  -21.0936   19.2887 C   0  0  0  0  0  0
  -28.5130  -23.1704   20.6437 C   0  0  0  0  0  0
  -28.3916  -24.5134   20.6824 C   0  0  0  0  0  0
  -27.5884  -20.4500   19.9236 C   0  0  0  0  0  0
  -28.0501  -19.6902   23.2554 C   0  0  0  0  0  0
  -29.1108  -18.5522   20.6711 C   0  0  0  0  0  0
  -28.7499  -25.4943   19.5810 C   0  0  0  0  0  0
  -29.8694  -15.6404   20.7347 N   0  0  0  0  0  0
  -27.8280  -19.2267   20.4178 N   0  0  0  0  0  0
  -26.4612  -20.9475   20.0014 O   0  0  0  0  0  0
  -31.4686  -12.4713   19.1686 H   0  0  0  0  0  0
  -30.3680  -11.3618   19.9214 H   0  0  0  0  0  0
  -29.7756  -11.7260   17.4987 H   0  0  0  0  0  0
  -29.6380  -13.4494   17.7551 H   0  0  0  0  0  0
  -27.8742  -11.2593   18.9045 H   0  0  0  0  0  0
  -27.3651  -12.5303   17.8024 H   0  0  0  0  0  0
  -27.6749  -14.2302   19.5159 H   0  0  0  0  0  0
  -28.6855  -12.0129   21.3810 H   0  0  0  0  0  0
  -28.3840  -13.6521   21.8295 H   0  0  0  0  0  0
  -25.2722   -9.5726   22.4711 H   0  0  0  0  0  0
  -24.0025   -7.4621   22.7429 H   0  0  0  0  0  0
  -21.0811   -8.8730   19.8925 H   0  0  0  0  0  0
  -22.3596  -10.9679   19.6156 H   0  0  0  0  0  0
  -21.1968   -7.6143   23.9754 H   0  0  0  0  0  0
  -21.1484   -6.0492   25.9086 H   0  0  0  0  0  0
  -22.0604   -2.7623   23.2839 H   0  0  0  0  0  0
  -22.4054  -11.9919   22.4808 H   0  0  0  0  0  0
  -21.1105  -13.1350   22.2747 H   0  0  0  0  0  0
  -24.7151  -15.8785   20.4996 H   0  0  0  0  0  0
  -26.3308  -15.5826   20.1015 H   0  0  0  0  0  0
  -26.7151  -32.5761   23.1194 H   0  0  0  0  0  0
  -25.0047  -33.9830   25.0503 H   0  0  0  0  0  0
  -22.6800  -31.2644   21.3477 H   0  0  0  0  0  0
  -23.3765  -35.9670   23.3335 H   0  0  0  0  0  0
  -24.3555  -36.8917   22.2042 H   0  0  0  0  0  0
  -23.7204  -37.6597   23.6591 H   0  0  0  0  0  0
  -25.9832  -31.6024   20.5503 H   0  0  0  0  0  0
  -26.8198  -30.9577   21.9258 H   0  0  0  0  0  0
  -28.1451  -29.1925   21.0802 H   0  0  0  0  0  0
  -26.1702  -25.9525   19.0282 H   0  0  0  0  0  0
  -24.0565  -27.1943   19.0994 H   0  0  0  0  0  0
  -23.7468  -30.5352   19.3813 H   0  0  0  0  0  0
  -22.7635  -29.1704   19.8590 H   0  0  0  0  0  0
  -25.1251  -36.2067   25.0849 H   0  0  0  0  0  0
  -20.9709  -28.3161   24.1480 H   0  0  0  0  0  0
  -20.5396  -26.2122   23.3684 H   0  0  0  0  0  0
  -21.6392  -26.7201   22.1215 H   0  0  0  0  0  0
  -19.6575  -25.6042   21.1559 H   0  0  0  0  0  0
  -19.6456  -27.2932   20.6742 H   0  0  0  0  0  0
  -17.3800  -26.6908   21.3972 H   0  0  0  0  0  0
  -17.9782  -26.0077   22.8883 H   0  0  0  0  0  0
  -19.7928  -30.7084   24.2295 H   0  0  0  0  0  0
  -17.5031  -31.5999   24.5651 H   0  0  0  0  0  0
  -15.5302  -30.3112   23.7680 H   0  0  0  0  0  0
  -15.8495  -28.0972   22.6806 H   0  0  0  0  0  0
  -24.5772  -30.7180   25.7640 H   0  0  0  0  0  0
  -24.8825  -32.2980   26.4638 H   0  0  0  0  0  0
  -25.7915  -30.9005   27.0097 H   0  0  0  0  0  0
  -26.3009  -29.6674   24.1062 H   0  0  0  0  0  0
  -27.4173  -29.7399   25.4518 H   0  0  0  0  0  0
  -27.8756  -30.4447   23.9197 H   0  0  0  0  0  0
  -27.2779  -33.3524   26.1948 H   0  0  0  0  0  0
  -28.3790  -32.6686   25.0025 H   0  0  0  0  0  0
  -28.0725  -31.8168   26.5052 H   0  0  0  0  0  0
  -28.2606  -38.0131   24.7483 H   0  0  0  0  0  0
  -28.1111  -36.2618   24.6306 H   0  0  0  0  0  0
  -27.2282  -37.1502   25.8872 H   0  0  0  0  0  0
  -20.9221  -29.8333   21.6693 H   0  0  0  0  0  0
  -26.0281  -38.2961   24.1322 H   0  0  0  0  0  0
  -28.8133  -15.6215   25.2600 H   0  0  0  0  0  0
  -27.9467  -17.9242   25.1611 H   0  0  0  0  0  0
  -29.7654  -14.5568   23.2672 H   0  0  0  0  0  0
  -29.8990  -22.7756   18.9850 H   0  0  0  0  0  0
  -29.2492  -20.5249   18.5406 H   0  0  0  0  0  0
  -28.1782  -22.6541   21.5320 H   0  0  0  0  0  0
  -27.9930  -24.9533   21.5881 H   0  0  0  0  0  0
  -28.2565  -20.0640   24.2590 H   0  0  0  0  0  0
  -26.9749  -19.7583   23.0746 H   0  0  0  0  0  0
  -28.5666  -20.3816   22.5912 H   0  0  0  0  0  0
  -29.3605  -18.0095   19.7630 H   0  0  0  0  0  0
  -29.9450  -19.2350   20.8510 H   0  0  0  0  0  0
  -28.2475  -25.2669   18.6431 H   0  0  0  0  0  0
  -29.8158  -25.3399   19.3747 H   0  0  0  0  0  0
  -30.0420  -16.3014   19.9959 H   0  0  0  0  0  0
  -27.0597  -18.8468   20.9483 H   0  0  0  0  0  0
  1 25  1  0  0  0
  1 30  2  0  0  0
  1 85  1  0  0  0
  2  3  1  0  0  0
  2 25  1  0  0  0
  2 88  1  0  0  0
  2 89  1  0  0  0
  3  4  1  0  0  0
  3 90  1  0  0  0
  3 91  1  0  0  0
  4  5  1  0  0  0
  4 92  1  0  0  0
  4 93  1  0  0  0
  5  6  1  0  0  0
  5 26  1  0  0  0
  5 94  1  0  0  0
  6 25  1  0  0  0
  6 95  1  0  0  0
  6 96  1  0  0  0
  7  8  2  0  0  0
  7 26  1  0  0  0
  7 29  1  0  0  0
  8  9  1  0  0  0
  8 22  1  0  0  0
  9 10  1  0  0  0
  9 27  2  0  0  0
 10 11  2  0  0  0
 10 15  1  0  0  0
 11 12  1  0  0  0
 11 97  1  0  0  0
 12 13  2  0  0  0
 12 98  1  0  0  0
 13 14  1  0  0  0
 13 31  1  0  0  0
 14 15  2  0  0  0
 14 99  1  0  0  0
 15100  1  0  0  0
 16 17  2  0  0  0
 16 21  1  0  0  0
 16 31  1  0  0  0
 17 18  1  0  0  0
 17101  1  0  0  0
 18 19  2  0  0  0
 18102  1  0  0  0
 19 20  1  0  0  0
 19 24  1  0  0  0
 20 21  2  0  0  0
 20103  1  0  0  0
 21 23  1  0  0  0
 22 28  1  0  0  0
 22 32  2  0  0  0
 26 27  1  0  0  0
 28104  1  0  0  0
 28105  1  0  0  0
 29106  1  0  0  0
 29107  1  0  0  0
 33 34  1  0  0  0
 33 66  1  0  0  0
 33 70  2  0  0  0
 34 36  1  0  0  0
 34 59  1  0  0  0
 34108  1  0  0  0
 35 44  2  0  0  0
 35 45  1  0  0  0
 35 68  1  0  0  0
 36 56  1  0  0  0
 36109  1  0  0  0
 37 39  1  0  0  0
 37 47  1  0  0  0
 37 66  1  0  0  0
 37110  1  0  0  0
 38 43  2  0  0  0
 38 46  1  0  0  0
 38 47  1  0  0  0
 39 64  1  0  0  0
 39 67  2  0  0  0
 40 52  1  0  0  0
 40 53  2  0  0  0
 40 58  1  0  0  0
 41111  1  0  0  0
 41112  1  0  0  0
 41113  1  0  0  0
 41 48  1  0  0  0
 42 43  1  0  0  0
 42 66  1  0  0  0
 42114  1  0  0  0
 42115  1  0  0  0
 43 44  1  0  0  0
 44116  1  0  0  0
 45 46  2  0  0  0
 45117  1  0  0  0
 46118  1  0  0  0
 47119  1  0  0  0
 47120  1  0  0  0
 48 56  1  0  0  0
 48 65  1  0  0  0
 48121  1  0  0  0
 49 50  1  0  0  0
 49 53  1  0  0  0
 49 64  1  0  0  0
 49122  1  0  0  0
 50 51  1  0  0  0
 50123  1  0  0  0
 50124  1  0  0  0
 51 52  1  0  0  0
 51125  1  0  0  0
 51126  1  0  0  0
 52127  1  0  0  0
 52128  1  0  0  0
 53 54  1  0  0  0
 54 55  2  0  0  0
 54129  1  0  0  0
 55 57  1  0  0  0
 55130  1  0  0  0
 56 69  2  0  0  0
 57 58  2  0  0  0
 57131  1  0  0  0
 58132  1  0  0  0
 59 60  1  0  0  0
 59 61  1  0  0  0
 59 62  1  0  0  0
 60133  1  0  0  0
 60134  1  0  0  0
 60135  1  0  0  0
 61136  1  0  0  0
 61137  1  0  0  0
 61138  1  0  0  0
 62139  1  0  0  0
 62140  1  0  0  0
 62141  1  0  0  0
 63 65  1  0  0  0
 63142  1  0  0  0
 63143  1  0  0  0
 63144  1  0  0  0
 64145  1  0  0  0
 65146  1  0  0  0
 68 84  1  0  0  0
 71 72  2  0  0  0
 71 73  1  0  0  0
 71147  1  0  0  0
 72 74  1  0  0  0
 72148  1  0  0  0
 73 76  2  0  0  0
 73149  1  0  0  0
 74 75  2  0  0  0
 74 82  1  0  0  0
 75 76  1  0  0  0
 75 83  1  0  0  0
 76 85  1  0  0  0
 77 78  2  0  0  0
 77 79  1  0  0  0
 77150  1  0  0  0
 78 81  1  0  0  0
 78151  1  0  0  0
 79 80  2  0  0  0
 79152  1  0  0  0
 80 84  1  0  0  0
 80153  1  0  0  0
 81 86  1  0  0  0
 81 87  2  0  0  0
 82154  1  0  0  0
 82155  1  0  0  0
 82156  1  0  0  0
 83 86  1  0  0  0
 83157  1  0  0  0
 83158  1  0  0  0
 84159  1  0  0  0
 84160  1  0  0  0
 85161  1  0  0  0
 86162  1  0  0  0
M  ISO  4   1 100  68 101  84 101  85 100
M  END
> <chiral flag>
0

> <version>
0

> <s_m_source_file>
/data/baiqing/PycharmProjects/Reinvent-master-3.2/result/LINK_invent/BTK/process_docking_weight1_custom_product_contain_oxygen_bond_distance_aromatic_linkinvent_7_9_3/rearranged_h_0047.sdf

> <i_m_source_file_index>
76

> <r_mmod_Potential_Energy-OPLS-2005>
31.2485961914062

> <r_mmod_Stretch_Energy-OPLS-2005>
44.8148422241211

> <r_mmod_Bend_Energy-OPLS-2005>
140.633041381836

> <r_mmod_Torsional_Energy-OPLS-2005>
289.615997314453

> <r_mmod_Improper_Torsional_Energy-OPLS-2005>
16.6315746307373

> <r_mmod_Van_der_Waal_Energy-OPLS-2005>
158.588195800781

> <r_mmod_Electrostatic_Energy-OPLS-2005>
-426.144989013672

> <r_mmod_Solvation_Energy-OPLS-2005>
-220.059234619141

> <b_mmod_Minimization_Converged-OPLS-2005>
0

> <r_mmod_RMS_Derivative-OPLS-2005>
13.3725481033325

$$$$
76
                    3D
 Structure written by MMmdl.
164173  0  0  1  0            999 V2000
  -30.6212  -14.5680   20.5240 C   0  0  0  0  0  0
  -30.4364  -12.3495   19.4385 C   0  0  0  0  0  0
  -29.5025  -12.5061   18.2174 C   0  0  0  0  0  0
  -28.0240  -12.3483   18.6308 C   0  0  0  0  0  0
  -27.6578  -13.2023   19.8733 C   0  0  2  0  0  0
  -28.7003  -13.0071   20.9978 C   0  0  0  0  0  0
  -25.2571  -13.8130   20.5670 C   0  0  0  0  0  0
  -24.1827  -13.0419   20.9198 C   0  0  0  0  0  0
  -24.6379  -11.6887   20.8754 C   0  0  0  0  0  0
  -23.9046  -10.4276   21.0414 C   0  0  0  0  0  0
  -24.3600   -9.4192   21.9192 C   0  0  0  0  0  0
  -23.6282   -8.2228   22.0758 C   0  0  0  0  0  0
  -22.4265   -8.0269   21.3546 C   0  0  0  0  0  0
  -21.9889   -9.0242   20.4653 C   0  0  0  0  0  0
  -22.7216  -10.2124   20.3062 C   0  0  0  0  0  0
  -21.6845   -6.0726   22.5277 C   0  0  0  0  0  0
  -21.4008   -6.5631   23.8207 C   0  0  0  0  0  0
  -21.3661   -5.6791   24.9176 C   0  0  0  0  0  0
  -21.6047   -4.3055   24.7230 C   0  0  0  0  0  0
  -21.8819   -3.8139   23.4351 C   0  0  0  0  0  0
  -21.9190   -4.6953   22.3406 C   0  0  0  0  0  0
  -22.7850  -13.5231   21.1869 C   0  0  0  0  0  0
  -22.1663   -4.2134   21.0984 F   0  0  0  0  0  0
  -21.5634   -3.4542   25.7746 F   0  0  0  0  0  0
  -30.0220  -13.3436   20.4434 N   0  0  0  0  0  0
  -26.2999  -12.9290   20.3350 N   0  0  0  0  0  0
  -25.9303  -11.6461   20.5779 N   0  0  0  0  0  0
  -22.0487  -12.8226   22.0423 N   0  0  0  0  0  0
  -25.4290  -15.1832   20.4022 N   0  0  0  0  0  0
  -31.7747  -14.7637   20.1274 O   0  0  0  0  0  0
  -21.6635   -6.8863   21.4236 O   0  0  0  0  0  0
  -22.3549  -14.5553   20.6725 O   0  0  0  0  0  0
  -24.6215  -31.8632   23.2063 C   0  0  0  0  0  0
  -25.9079  -32.4800   23.8369 C   0  0  1  0  0  0
  -27.2218  -27.3607   20.0916 C   0  0  0  0  0  0
  -25.5919  -33.8605   24.2299 N   0  0  0  0  0  0
  -23.4110  -30.4880   21.5495 C   0  0  2  0  0  0
  -24.8504  -28.9413   20.1157 C   0  0  0  0  0  0
  -22.7437  -29.4650   22.4980 C   0  0  0  0  0  0
  -18.0273  -28.1378   22.8499 C   0  0  0  0  0  0
  -24.1489  -36.7297   23.2639 C   0  0  0  0  0  0
  -25.9475  -30.8038   21.3689 C   0  0  0  0  0  0
  -26.0172  -29.4334   20.7114 C   0  0  0  0  0  0
  -27.2026  -28.6524   20.6909 C   0  0  0  0  0  0
  -26.0242  -26.8938   19.5017 C   0  0  0  0  0  0
  -24.8521  -27.6747   19.5094 C   0  0  0  0  0  0
  -23.6194  -29.8200   20.1648 C   0  0  0  0  0  0
  -25.4119  -36.3103   24.0334 C   0  0  1  0  0  0
  -20.5872  -28.3680   23.1309 C   0  0  2  0  0  0
  -20.6769  -26.9411   22.5420 C   0  0  0  0  0  0
  -19.5747  -26.6383   21.5221 C   0  0  0  0  0  0
  -18.1923  -26.7926   22.1620 C   0  0  0  0  0  0
  -19.1527  -28.8845   23.2901 C   0  0  0  0  0  0
  -18.9451  -30.1450   23.8913 C   0  0  0  0  0  0
  -17.6453  -30.6584   24.0580 C   0  0  0  0  0  0
  -25.9052  -34.9469   23.5116 C   0  0  0  0  0  0
  -16.5343  -29.9087   23.6338 C   0  0  0  0  0  0
  -16.7262  -28.6504   23.0361 C   0  0  0  0  0  0
  -26.4481  -31.6606   25.0726 C   0  0  0  0  0  0
  -25.3723  -31.3743   26.1465 C   0  0  0  0  0  0
  -27.0306  -30.3036   24.6151 C   0  0  0  0  0  0
  -27.6059  -32.4335   25.7474 C   0  0  0  0  0  0
  -27.5586  -37.1810   24.8468 C   0  0  0  0  0  0
  -21.4160  -29.3040   22.3714 N   0  0  0  0  0  0
  -26.4301  -37.3793   23.9407 N   0  0  0  0  0  0
  -24.6790  -31.0673   22.0991 N   0  0  0  0  0  0
  -23.4187  -28.8197   23.3045 O   0  0  0  0  0  0
  -28.4003  -26.6167   20.0998 O   0  0  0  0  0  0
  -26.5616  -34.8933   22.4680 O   0  0  0  0  0  0
  -23.5391  -32.1416   23.7421 O   0  0  0  0  0  0
  -28.6545  -18.9939   19.7488 C   0  0  0  0  0  0
  -28.6501  -17.6347   20.1559 C   0  0  0  0  0  0
  -30.9866  -17.7880   20.7176 C   0  0  0  0  0  0
  -29.8339  -19.7820   19.7802 C   0  0  0  0  0  0
  -30.9972  -19.1660   20.3475 C   0  0  0  0  0  0
  -29.8331  -16.9849   20.5815 C   0  0  0  0  0  0
  -30.5265  -23.6134   19.2338 C   0  0  0  0  0  0
  -31.8593  -23.4331   19.2347 C   0  0  0  0  0  0
  -29.8944  -25.0107   19.1093 C   0  0  0  0  0  0
  -28.2551  -24.1915   20.8341 C   0  0  0  0  0  0
  -28.5129  -22.6837   20.4598 C   0  0  0  0  0  0
  -28.4756  -25.2139   19.6832 C   0  0  1  0  0  0
  -29.8907  -21.0955   18.9208 C   0  0  0  0  0  0
  -32.2949  -19.9401   20.5381 C   0  0  0  0  0  0
  -29.7930  -15.5769   20.9096 N   0  0  0  0  0  0
  -29.5059  -22.4987   19.3643 N   0  3  2  0  0  0
  -33.1755  -19.2765   21.2878 F   0  0  0  0  0  0
  -32.8607  -20.1857   19.3577 F   0  0  0  0  0  0
  -32.0243  -21.0859   21.1601 F   0  0  0  0  0  0
  -31.4792  -12.4735   19.1400 H   0  0  0  0  0  0
  -30.3627  -11.3423   19.8517 H   0  0  0  0  0  0
  -29.7580  -11.7704   17.4535 H   0  0  0  0  0  0
  -29.6514  -13.4857   17.7604 H   0  0  0  0  0  0
  -27.8530  -11.2936   18.8487 H   0  0  0  0  0  0
  -27.3666  -12.5948   17.7961 H   0  0  0  0  0  0
  -27.6912  -14.2448   19.5582 H   0  0  0  0  0  0
  -28.6978  -11.9721   21.3441 H   0  0  0  0  0  0
  -28.4552  -13.6076   21.8748 H   0  0  0  0  0  0
  -25.2739   -9.5675   22.4777 H   0  0  0  0  0  0
  -23.9993   -7.4615   22.7465 H   0  0  0  0  0  0
  -21.0822   -8.8752   19.8959 H   0  0  0  0  0  0
  -22.3663  -10.9666   19.6180 H   0  0  0  0  0  0
  -21.1992   -7.6139   23.9709 H   0  0  0  0  0  0
  -21.1492   -6.0524   25.9080 H   0  0  0  0  0  0
  -22.0599   -2.7600   23.2858 H   0  0  0  0  0  0
  -22.4098  -11.9871   22.4790 H   0  0  0  0  0  0
  -21.1113  -13.1267   22.2655 H   0  0  0  0  0  0
  -24.6541  -15.8316   20.4882 H   0  0  0  0  0  0
  -26.2584  -15.6046   20.0069 H   0  0  0  0  0  0
  -26.7142  -32.5478   23.1113 H   0  0  0  0  0  0
  -25.0092  -33.9774   25.0465 H   0  0  0  0  0  0
  -22.7039  -31.3085   21.4093 H   0  0  0  0  0  0
  -23.3757  -35.9625   23.3322 H   0  0  0  0  0  0
  -24.3569  -36.8894   22.2046 H   0  0  0  0  0  0
  -23.7242  -37.6509   23.6642 H   0  0  0  0  0  0
  -26.0729  -31.5692   20.6015 H   0  0  0  0  0  0
  -26.8316  -30.8518   21.9932 H   0  0  0  0  0  0
  -28.1047  -29.0321   21.1498 H   0  0  0  0  0  0
  -25.9540  -25.9261   19.0306 H   0  0  0  0  0  0
  -23.9500  -27.2898   19.0530 H   0  0  0  0  0  0
  -23.7365  -30.5951   19.4059 H   0  0  0  0  0  0
  -22.7391  -29.2463   19.8678 H   0  0  0  0  0  0
  -25.1307  -36.1960   25.0829 H   0  0  0  0  0  0
  -20.9962  -28.3233   24.1429 H   0  0  0  0  0  0
  -20.5662  -26.2294   23.3617 H   0  0  0  0  0  0
  -21.6644  -26.7446   22.1220 H   0  0  0  0  0  0
  -19.6917  -25.6294   21.1254 H   0  0  0  0  0  0
  -19.6691  -27.3199   20.6759 H   0  0  0  0  0  0
  -17.4208  -26.6703   21.4003 H   0  0  0  0  0  0
  -18.0301  -26.0042   22.8984 H   0  0  0  0  0  0
  -19.7928  -30.7273   24.2275 H   0  0  0  0  0  0
  -17.5008  -31.6269   24.5174 H   0  0  0  0  0  0
  -15.5347  -30.3006   23.7642 H   0  0  0  0  0  0
  -15.8656  -28.0832   22.7072 H   0  0  0  0  0  0
  -24.5917  -30.7063   25.7817 H   0  0  0  0  0  0
  -24.8885  -32.2898   26.4873 H   0  0  0  0  0  0
  -25.8055  -30.8954   27.0252 H   0  0  0  0  0  0
  -26.2859  -29.6800   24.1191 H   0  0  0  0  0  0
  -27.4032  -29.7291   25.4642 H   0  0  0  0  0  0
  -27.8723  -30.4339   23.9343 H   0  0  0  0  0  0
  -27.2687  -33.3638   26.2059 H   0  0  0  0  0  0
  -28.3842  -32.6889   25.0270 H   0  0  0  0  0  0
  -28.0750  -31.8452   26.5369 H   0  0  0  0  0  0
  -28.2630  -38.0085   24.7502 H   0  0  0  0  0  0
  -28.1052  -36.2620   24.6300 H   0  0  0  0  0  0
  -27.2306  -37.1470   25.8874 H   0  0  0  0  0  0
  -20.9322  -29.8747   21.6926 H   0  0  0  0  0  0
  -26.0185  -38.2873   24.1398 H   0  0  0  0  0  0
  -27.7466  -19.4034   19.3286 H   0  0  0  0  0  0
  -27.7286  -17.0759   20.0760 H   0  0  0  0  0  0
  -31.8895  -17.3345   21.0994 H   0  0  0  0  0  0
  -32.5159  -24.2864   19.1419 H   0  0  0  0  0  0
  -32.3406  -22.4769   19.3142 H   0  0  0  0  0  0
  -29.9177  -25.3211   18.0633 H   0  0  0  0  0  0
  -30.5684  -25.6929   19.6294 H   0  0  0  0  0  0
  -28.9244  -24.4562   21.6534 H   0  0  0  0  0  0
  -27.2469  -24.2999   21.2348 H   0  0  0  0  0  0
  -27.5787  -22.2198   20.1398 H   0  0  0  0  0  0
  -28.8382  -22.1384   21.3451 H   0  0  0  0  0  0
  -27.7890  -24.9935   18.8675 H   0  0  0  0  0  0
  -29.1921  -20.9068   18.1050 H   0  0  0  0  0  0
  -30.8383  -21.1188   18.3872 H   0  0  0  0  0  0
  -28.8866  -15.2335   21.1890 H   0  0  0  0  0  0
  -28.8953  -22.6820   18.5818 H   0  0  0  0  0  0
  1 25  1  0  0  0
  1 30  2  0  0  0
  1 85  1  0  0  0
  2  3  1  0  0  0
  2 25  1  0  0  0
  2 90  1  0  0  0
  2 91  1  0  0  0
  3  4  1  0  0  0
  3 92  1  0  0  0
  3 93  1  0  0  0
  4  5  1  0  0  0
  4 94  1  0  0  0
  4 95  1  0  0  0
  5  6  1  0  0  0
  5 26  1  0  0  0
  5 96  1  0  0  0
  6 25  1  0  0  0
  6 97  1  0  0  0
  6 98  1  0  0  0
  7  8  2  0  0  0
  7 26  1  0  0  0
  7 29  1  0  0  0
  8  9  1  0  0  0
  8 22  1  0  0  0
  9 10  1  0  0  0
  9 27  2  0  0  0
 10 11  2  0  0  0
 10 15  1  0  0  0
 11 12  1  0  0  0
 11 99  1  0  0  0
 12 13  2  0  0  0
 12100  1  0  0  0
 13 14  1  0  0  0
 13 31  1  0  0  0
 14 15  2  0  0  0
 14101  1  0  0  0
 15102  1  0  0  0
 16 17  2  0  0  0
 16 21  1  0  0  0
 16 31  1  0  0  0
 17 18  1  0  0  0
 17103  1  0  0  0
 18 19  2  0  0  0
 18104  1  0  0  0
 19 20  1  0  0  0
 19 24  1  0  0  0
 20 21  2  0  0  0
 20105  1  0  0  0
 21 23  1  0  0  0
 22 28  1  0  0  0
 22 32  2  0  0  0
 26 27  1  0  0  0
 28106  1  0  0  0
 28107  1  0  0  0
 29108  1  0  0  0
 29109  1  0  0  0
 33 34  1  0  0  0
 33 66  1  0  0  0
 33 70  2  0  0  0
 34 36  1  0  0  0
 34 59  1  0  0  0
 34110  1  0  0  0
 35 44  2  0  0  0
 35 45  1  0  0  0
 35 68  1  0  0  0
 36 56  1  0  0  0
 36111  1  0  0  0
 37 39  1  0  0  0
 37 47  1  0  0  0
 37 66  1  0  0  0
 37112  1  0  0  0
 38 43  2  0  0  0
 38 46  1  0  0  0
 38 47  1  0  0  0
 39 64  1  0  0  0
 39 67  2  0  0  0
 40 52  1  0  0  0
 40 53  2  0  0  0
 40 58  1  0  0  0
 41113  1  0  0  0
 41114  1  0  0  0
 41115  1  0  0  0
 41 48  1  0  0  0
 42 43  1  0  0  0
 42 66  1  0  0  0
 42116  1  0  0  0
 42117  1  0  0  0
 43 44  1  0  0  0
 44118  1  0  0  0
 45 46  2  0  0  0
 45119  1  0  0  0
 46120  1  0  0  0
 47121  1  0  0  0
 47122  1  0  0  0
 48 56  1  0  0  0
 48 65  1  0  0  0
 48123  1  0  0  0
 49 50  1  0  0  0
 49 53  1  0  0  0
 49 64  1  0  0  0
 49124  1  0  0  0
 50 51  1  0  0  0
 50125  1  0  0  0
 50126  1  0  0  0
 51 52  1  0  0  0
 51127  1  0  0  0
 51128  1  0  0  0
 52129  1  0  0  0
 52130  1  0  0  0
 53 54  1  0  0  0
 54 55  2  0  0  0
 54131  1  0  0  0
 55 57  1  0  0  0
 55132  1  0  0  0
 56 69  2  0  0  0
 57 58  2  0  0  0
 57133  1  0  0  0
 58134  1  0  0  0
 59 60  1  0  0  0
 59 61  1  0  0  0
 59 62  1  0  0  0
 60135  1  0  0  0
 60136  1  0  0  0
 60137  1  0  0  0
 61138  1  0  0  0
 61139  1  0  0  0
 61140  1  0  0  0
 62141  1  0  0  0
 62142  1  0  0  0
 62143  1  0  0  0
 63 65  1  0  0  0
 63144  1  0  0  0
 63145  1  0  0  0
 63146  1  0  0  0
 64147  1  0  0  0
 65148  1  0  0  0
 68 82  1  0  0  0
 71 72  2  0  0  0
 71 74  1  0  0  0
 71149  1  0  0  0
 72 76  1  0  0  0
 72150  1  0  0  0
 73 75  1  0  0  0
 73 76  2  0  0  0
 73151  1  0  0  0
 74 75  2  0  0  0
 74 83  1  0  0  0
 75 84  1  0  0  0
 76 85  1  0  0  0
 77 78  2  0  0  0
 77 79  1  0  0  0
 77 86  1  0  0  0
 78152  1  0  0  0
 78153  1  0  0  0
 79 82  1  0  0  0
 79154  1  0  0  0
 79155  1  0  0  0
 80 81  1  0  0  0
 80 82  1  0  0  0
 80156  1  0  0  0
 80157  1  0  0  0
 81 86  1  0  0  0
 81158  1  0  0  0
 81159  1  0  0  0
 82160  1  0  0  0
 83161  1  0  0  0
 83162  1  0  0  0
 83 86  1  0  0  0
 84 87  1  0  0  0
 84 88  1  0  0  0
 84 89  1  0  0  0
 85163  1  0  0  0
 86164  1  0  0  0
M  CHG  1  86   1
M  ISO  4   1 100  68 101  82 101  85 100
M  END
> <chiral flag>
0

> <version>
0

> <s_m_source_file>
/data/baiqing/PycharmProjects/Reinvent-master-3.2/result/LINK_invent/BTK/process_docking_weight1_custom_product_contain_oxygen_bond_distance_aromatic_linkinvent_7_9_3/rearranged_h_0047.sdf

> <i_m_source_file_index>
77

> <r_mmod_Potential_Energy-OPLS-2005>
-29.9649047851562

> <r_mmod_Stretch_Energy-OPLS-2005>
63.7420921325684

> <r_mmod_Bend_Energy-OPLS-2005>
182.861190795898

> <r_mmod_Torsional_Energy-OPLS-2005>
258.207580566406

> <r_mmod_Improper_Torsional_Energy-OPLS-2005>
7.96169185638428

> <r_mmod_Van_der_Waal_Energy-OPLS-2005>
154.538619995117

> <r_mmod_Electrostatic_Energy-OPLS-2005>
-273.52294921875

> <r_mmod_Solvation_Energy-OPLS-2005>
-451.778442382812

> <b_mmod_Minimization_Converged-OPLS-2005>
0

> <r_mmod_RMS_Derivative-OPLS-2005>
1.56242883205414

$$$$
77
                    3D
 Structure written by MMmdl.
157165  0  0  1  0            999 V2000
  -30.7160  -14.5067   20.5207 C   0  0  0  0  0  0
  -30.4225  -12.3009   19.4608 C   0  0  0  0  0  0
  -29.5090  -12.5023   18.2326 C   0  0  0  0  0  0
  -28.0299  -12.3554   18.6386 C   0  0  0  0  0  0
  -27.6623  -13.2166   19.8767 C   0  0  2  0  0  0
  -28.7097  -13.0524   21.0065 C   0  0  0  0  0  0
  -25.2608  -13.8166   20.5744 C   0  0  0  0  0  0
  -24.1885  -13.0424   20.9263 C   0  0  0  0  0  0
  -24.6454  -11.6896   20.8789 C   0  0  0  0  0  0
  -23.9097  -10.4298   21.0423 C   0  0  0  0  0  0
  -24.3631   -9.4185   21.9182 C   0  0  0  0  0  0
  -23.6301   -8.2214   22.0720 C   0  0  0  0  0  0
  -22.4272   -8.0307   21.3509 C   0  0  0  0  0  0
  -21.9939   -9.0298   20.4603 C   0  0  0  0  0  0
  -22.7279  -10.2165   20.3056 C   0  0  0  0  0  0
  -21.6867   -6.0724   22.5276 C   0  0  0  0  0  0
  -21.4012   -6.5613   23.8223 C   0  0  0  0  0  0
  -21.3673   -5.6752   24.9189 C   0  0  0  0  0  0
  -21.6060   -4.3026   24.7223 C   0  0  0  0  0  0
  -21.8825   -3.8120   23.4355 C   0  0  0  0  0  0
  -21.9187   -4.6937   22.3416 C   0  0  0  0  0  0
  -22.7900  -13.5218   21.1896 C   0  0  0  0  0  0
  -22.1645   -4.2146   21.0993 F   0  0  0  0  0  0
  -21.5648   -3.4541   25.7736 F   0  0  0  0  0  0
  -30.0437  -13.3245   20.4487 N   0  0  0  0  0  0
  -26.3041  -12.9360   20.3413 N   0  0  0  0  0  0
  -25.9394  -11.6494   20.5829 N   0  0  0  0  0  0
  -22.0557  -12.8231   22.0469 N   0  0  0  0  0  0
  -25.4309  -15.1867   20.4028 N   0  0  0  0  0  0
  -31.8732  -14.6397   20.1062 O   0  0  0  0  0  0
  -21.6634   -6.8897   21.4239 O   0  0  0  0  0  0
  -22.3559  -14.5492   20.6702 O   0  0  0  0  0  0
  -24.6208  -31.8690   23.2109 C   0  0  0  0  0  0
  -25.9094  -32.4832   23.8434 C   0  0  1  0  0  0
  -27.2171  -27.3984   20.0874 C   0  0  0  0  0  0
  -25.5953  -33.8634   24.2359 N   0  0  0  0  0  0
  -23.4116  -30.4938   21.5531 C   0  0  2  0  0  0
  -24.8504  -28.9706   20.1084 C   0  0  0  0  0  0
  -22.7470  -29.4619   22.5004 C   0  0  0  0  0  0
  -18.0278  -28.1305   22.8463 C   0  0  0  0  0  0
  -24.1488  -36.7324   23.2633 C   0  0  0  0  0  0
  -25.9448  -30.8185   21.3732 C   0  0  0  0  0  0
  -26.0150  -29.4542   20.7163 C   0  0  0  0  0  0
  -27.1983  -28.6737   20.7072 C   0  0  0  0  0  0
  -26.0374  -26.9701   19.4353 C   0  0  0  0  0  0
  -24.8619  -27.7331   19.4528 C   0  0  0  0  0  0
  -23.6169  -29.8381   20.1644 C   0  0  0  0  0  0
  -25.4115  -36.3116   24.0337 C   0  0  1  0  0  0
  -20.5865  -28.3659   23.1224 C   0  0  2  0  0  0
  -20.6852  -26.9423   22.5176 C   0  0  0  0  0  0
  -19.5650  -26.6035   21.5264 C   0  0  0  0  0  0
  -18.1847  -26.7824   22.1617 C   0  0  0  0  0  0
  -19.1514  -28.8788   23.2848 C   0  0  0  0  0  0
  -18.9462  -30.1376   23.8885 C   0  0  0  0  0  0
  -17.6483  -30.6583   24.0477 C   0  0  0  0  0  0
  -25.9036  -34.9492   23.5125 C   0  0  0  0  0  0
  -16.5368  -29.9054   23.6289 C   0  0  0  0  0  0
  -16.7263  -28.6428   23.0310 C   0  0  0  0  0  0
  -26.4509  -31.6629   25.0778 C   0  0  0  0  0  0
  -25.3778  -31.3748   26.1517 C   0  0  0  0  0  0
  -27.0324  -30.3067   24.6201 C   0  0  0  0  0  0
  -27.6079  -32.4328   25.7551 C   0  0  0  0  0  0
  -27.5584  -37.1818   24.8469 C   0  0  0  0  0  0
  -21.4191  -29.3175   22.3843 N   0  0  0  0  0  0
  -26.4292  -37.3814   23.9392 N   0  0  0  0  0  0
  -24.6785  -31.0748   22.1026 N   0  0  0  0  0  0
  -23.4297  -28.7989   23.2864 O   0  0  0  0  0  0
  -28.3602  -26.6068   20.1503 O   0  0  0  0  0  0
  -26.5595  -34.8957   22.4678 O   0  0  0  0  0  0
  -23.5362  -32.1447   23.7461 O   0  0  0  0  0  0
  -29.5991  -19.3806   21.1285 C   0  0  0  0  0  0
  -28.1402  -17.7866   20.0296 C   0  0  0  0  0  0
  -29.3644  -18.0618   20.6600 C   0  0  0  0  0  0
  -28.6184  -20.4058   21.0134 C   0  0  0  0  0  0
  -27.3464  -20.0720   20.4583 C   0  0  0  0  0  0
  -27.1483  -18.7734   19.9135 C   0  0  0  0  0  0
  -28.9513  -24.2343   20.7669 C   0  0  0  0  0  0
  -26.1860  -21.0727   20.4724 C   0  0  0  0  0  0
  -30.4614  -16.9866   20.7195 C   0  0  0  0  0  0
  -28.9679  -21.8208   21.5328 C   0  0  0  0  0  0
  -28.2588  -25.2034   19.7836 C   0  0  0  0  0  0
  -28.6201  -22.9351   20.6401 N   0  0  0  0  0  0
  -30.0000  -15.5893   20.8831 N   0  0  0  0  0  0
  -29.7418  -24.6452   21.6229 O   0  0  0  0  0  0
  -25.7119  -18.3516   19.0538 Cl  0  0  0  0  0  0
  -31.4788  -12.3600   19.1866 H   0  0  0  0  0  0
  -30.2880  -11.3064   19.8901 H   0  0  0  0  0  0
  -29.7581  -11.7780   17.4572 H   0  0  0  0  0  0
  -29.6845  -13.4880   17.7970 H   0  0  0  0  0  0
  -27.8581  -11.3037   18.8606 H   0  0  0  0  0  0
  -27.3750  -12.6006   17.8030 H   0  0  0  0  0  0
  -27.6922  -14.2538   19.5407 H   0  0  0  0  0  0
  -28.6909  -12.0386   21.4080 H   0  0  0  0  0  0
  -28.4837  -13.7142   21.8462 H   0  0  0  0  0  0
  -25.2791   -9.5659   22.4759 H   0  0  0  0  0  0
  -24.0013   -7.4606   22.7432 H   0  0  0  0  0  0
  -21.0874   -8.8820   19.8945 H   0  0  0  0  0  0
  -22.3739  -10.9694   19.6167 H   0  0  0  0  0  0
  -21.1986   -7.6143   23.9740 H   0  0  0  0  0  0
  -21.1489   -6.0489   25.9093 H   0  0  0  0  0  0
  -22.0586   -2.7615   23.2862 H   0  0  0  0  0  0
  -22.4125  -11.9842   22.4796 H   0  0  0  0  0  0
  -21.1190  -13.1258   22.2712 H   0  0  0  0  0  0
  -24.6463  -15.8267   20.4406 H   0  0  0  0  0  0
  -26.2518  -15.6023   19.9820 H   0  0  0  0  0  0
  -26.7155  -32.5522   23.1180 H   0  0  0  0  0  0
  -25.0116  -33.9791   25.0525 H   0  0  0  0  0  0
  -22.7029  -31.3118   21.4201 H   0  0  0  0  0  0
  -23.3742  -35.9657   23.3296 H   0  0  0  0  0  0
  -24.3571  -36.8935   22.2040 H   0  0  0  0  0  0
  -23.7246  -37.6541   23.6647 H   0  0  0  0  0  0
  -26.0696  -31.5863   20.6111 H   0  0  0  0  0  0
  -26.8255  -30.8627   21.9985 H   0  0  0  0  0  0
  -28.0888  -29.0416   21.1957 H   0  0  0  0  0  0
  -25.9826  -26.0560   18.8657 H   0  0  0  0  0  0
  -23.9811  -27.3715   18.9361 H   0  0  0  0  0  0
  -23.7336  -30.6152   19.4096 H   0  0  0  0  0  0
  -22.7415  -29.2636   19.8556 H   0  0  0  0  0  0
  -25.1266  -36.1973   25.0826 H   0  0  0  0  0  0
  -20.9918  -28.3072   24.1344 H   0  0  0  0  0  0
  -20.6000  -26.2150   23.3214 H   0  0  0  0  0  0
  -21.6715  -26.7587   22.0852 H   0  0  0  0  0  0
  -19.6634  -25.5691   21.1937 H   0  0  0  0  0  0
  -19.6563  -27.2172   20.6272 H   0  0  0  0  0  0
  -18.0104  -25.9951   22.8969 H   0  0  0  0  0  0
  -17.4100  -26.6518   21.4020 H   0  0  0  0  0  0
  -19.7957  -30.7133   24.2302 H   0  0  0  0  0  0
  -17.5121  -31.6297   24.5039 H   0  0  0  0  0  0
  -15.5385  -30.2914   23.7726 H   0  0  0  0  0  0
  -15.8657  -28.0657   22.7072 H   0  0  0  0  0  0
  -24.5960  -30.7082   25.7862 H   0  0  0  0  0  0
  -24.8980  -32.2909   26.4974 H   0  0  0  0  0  0
  -25.8134  -30.8928   27.0278 H   0  0  0  0  0  0
  -26.2882  -29.6837   24.1237 H   0  0  0  0  0  0
  -27.4030  -29.7293   25.4676 H   0  0  0  0  0  0
  -27.8753  -30.4335   23.9405 H   0  0  0  0  0  0
  -27.2727  -33.3600   26.2201 H   0  0  0  0  0  0
  -28.3909  -32.6923   25.0416 H   0  0  0  0  0  0
  -28.0775  -31.8435   26.5436 H   0  0  0  0  0  0
  -28.2595  -38.0121   24.7504 H   0  0  0  0  0  0
  -28.1078  -36.2645   24.6287 H   0  0  0  0  0  0
  -27.2304  -37.1477   25.8878 H   0  0  0  0  0  0
  -20.9289  -29.9416   21.7605 H   0  0  0  0  0  0
  -26.0170  -38.2867   24.1444 H   0  0  0  0  0  0
  -30.5523  -19.6081   21.5833 H   0  0  0  0  0  0
  -27.9684  -16.8190   19.5927 H   0  0  0  0  0  0
  -25.2617  -20.6553   20.0823 H   0  0  0  0  0  0
  -26.3856  -21.9608   19.8756 H   0  0  0  0  0  0
  -25.9718  -21.3730   21.4987 H   0  0  0  0  0  0
  -31.1797  -17.2233   21.4983 H   0  0  0  0  0  0
  -30.9985  -17.0586   19.7711 H   0  0  0  0  0  0
  -30.0359  -21.8681   21.7617 H   0  0  0  0  0  0
  -28.4524  -21.9703   22.4800 H   0  0  0  0  0  0
  -28.6728  -25.0732   18.7862 H   0  0  0  0  0  0
  -27.2401  -24.8147   19.7806 H   0  0  0  0  0  0
  -27.9754  -22.7178   19.8897 H   0  0  0  0  0  0
  -29.0683  -15.4297   21.2355 H   0  0  0  0  0  0
  1 25  1  0  0  0
  1 30  2  0  0  0
  1 83  1  0  0  0
  2  3  1  0  0  0
  2 25  1  0  0  0
  2 86  1  0  0  0
  2 87  1  0  0  0
  3  4  1  0  0  0
  3 88  1  0  0  0
  3 89  1  0  0  0
  4  5  1  0  0  0
  4 90  1  0  0  0
  4 91  1  0  0  0
  5  6  1  0  0  0
  5 26  1  0  0  0
  5 92  1  0  0  0
  6 25  1  0  0  0
  6 93  1  0  0  0
  6 94  1  0  0  0
  7  8  2  0  0  0
  7 26  1  0  0  0
  7 29  1  0  0  0
  8  9  1  0  0  0
  8 22  1  0  0  0
  9 10  1  0  0  0
  9 27  2  0  0  0
 10 11  2  0  0  0
 10 15  1  0  0  0
 11 12  1  0  0  0
 11 95  1  0  0  0
 12 13  2  0  0  0
 12 96  1  0  0  0
 13 14  1  0  0  0
 13 31  1  0  0  0
 14 15  2  0  0  0
 14 97  1  0  0  0
 15 98  1  0  0  0
 16 17  2  0  0  0
 16 21  1  0  0  0
 16 31  1  0  0  0
 17 18  1  0  0  0
 17 99  1  0  0  0
 18 19  2  0  0  0
 18100  1  0  0  0
 19 20  1  0  0  0
 19 24  1  0  0  0
 20 21  2  0  0  0
 20101  1  0  0  0
 21 23  1  0  0  0
 22 28  1  0  0  0
 22 32  2  0  0  0
 26 27  1  0  0  0
 28102  1  0  0  0
 28103  1  0  0  0
 29104  1  0  0  0
 29105  1  0  0  0
 33 34  1  0  0  0
 33 66  1  0  0  0
 33 70  2  0  0  0
 34 36  1  0  0  0
 34 59  1  0  0  0
 34106  1  0  0  0
 35 44  2  0  0  0
 35 45  1  0  0  0
 35 68  1  0  0  0
 36 56  1  0  0  0
 36107  1  0  0  0
 37 39  1  0  0  0
 37 47  1  0  0  0
 37 66  1  0  0  0
 37108  1  0  0  0
 38 43  2  0  0  0
 38 46  1  0  0  0
 38 47  1  0  0  0
 39 64  1  0  0  0
 39 67  2  0  0  0
 40 52  1  0  0  0
 40 53  2  0  0  0
 40 58  1  0  0  0
 41109  1  0  0  0
 41110  1  0  0  0
 41111  1  0  0  0
 41 48  1  0  0  0
 42 43  1  0  0  0
 42 66  1  0  0  0
 42112  1  0  0  0
 42113  1  0  0  0
 43 44  1  0  0  0
 44114  1  0  0  0
 45 46  2  0  0  0
 45115  1  0  0  0
 46116  1  0  0  0
 47117  1  0  0  0
 47118  1  0  0  0
 48 56  1  0  0  0
 48 65  1  0  0  0
 48119  1  0  0  0
 49 50  1  0  0  0
 49 53  1  0  0  0
 49 64  1  0  0  0
 49120  1  0  0  0
 50 51  1  0  0  0
 50121  1  0  0  0
 50122  1  0  0  0
 51 52  1  0  0  0
 51123  1  0  0  0
 51124  1  0  0  0
 52125  1  0  0  0
 52126  1  0  0  0
 53 54  1  0  0  0
 54 55  2  0  0  0
 54127  1  0  0  0
 55 57  1  0  0  0
 55128  1  0  0  0
 56 69  2  0  0  0
 57 58  2  0  0  0
 57129  1  0  0  0
 58130  1  0  0  0
 59 60  1  0  0  0
 59 61  1  0  0  0
 59 62  1  0  0  0
 60131  1  0  0  0
 60132  1  0  0  0
 60133  1  0  0  0
 61134  1  0  0  0
 61135  1  0  0  0
 61136  1  0  0  0
 62137  1  0  0  0
 62138  1  0  0  0
 62139  1  0  0  0
 63 65  1  0  0  0
 63140  1  0  0  0
 63141  1  0  0  0
 63142  1  0  0  0
 64143  1  0  0  0
 65144  1  0  0  0
 68 81  1  0  0  0
 71 73  2  0  0  0
 71 74  1  0  0  0
 71145  1  0  0  0
 72 73  1  0  0  0
 72 76  2  0  0  0
 72146  1  0  0  0
 73 79  1  0  0  0
 74 75  2  0  0  0
 74 80  1  0  0  0
 75 76  1  0  0  0
 75 78  1  0  0  0
 76 85  1  0  0  0
 77 81  1  0  0  0
 77 82  1  0  0  0
 77 84  2  0  0  0
 78147  1  0  0  0
 78148  1  0  0  0
 78149  1  0  0  0
 79 83  1  0  0  0
 79150  1  0  0  0
 79151  1  0  0  0
 80 82  1  0  0  0
 80152  1  0  0  0
 80153  1  0  0  0
 81154  1  0  0  0
 81155  1  0  0  0
 82156  1  0  0  0
 83157  1  0  0  0
M  ISO  4   1 100  68 101  81 101  83 100
M  END
> <chiral flag>
0

> <version>
0

> <s_m_source_file>
/data/baiqing/PycharmProjects/Reinvent-master-3.2/result/LINK_invent/BTK/process_docking_weight1_custom_product_contain_oxygen_bond_distance_aromatic_linkinvent_7_9_3/rearranged_h_0047.sdf

> <i_m_source_file_index>
78

> <r_mmod_Potential_Energy-OPLS-2005>
-148.366577148438

> <r_mmod_Stretch_Energy-OPLS-2005>
46.3497543334961

> <r_mmod_Bend_Energy-OPLS-2005>
107.949378967285

> <r_mmod_Torsional_Energy-OPLS-2005>
204.442123413086

> <r_mmod_Improper_Torsional_Energy-OPLS-2005>
5.79769563674927

> <r_mmod_Van_der_Waal_Energy-OPLS-2005>
158.067779541016

> <r_mmod_Electrostatic_Energy-OPLS-2005>
-455.377105712891

> <r_mmod_Solvation_Energy-OPLS-2005>
-239.463668823242

> <b_mmod_Minimization_Converged-OPLS-2005>
0

> <r_mmod_RMS_Derivative-OPLS-2005>
9.59171676635742

$$$$
78
                    3D
 Structure written by MMmdl.
161170  0  0  1  0            999 V2000
  -30.6084  -14.6552   20.4945 C   0  0  0  0  0  0
  -30.4406  -12.3992   19.4591 C   0  0  0  0  0  0
  -29.5126  -12.5113   18.2283 C   0  0  0  0  0  0
  -28.0343  -12.3466   18.6369 C   0  0  0  0  0  0
  -27.6535  -13.2161   19.8647 C   0  0  2  0  0  0
  -28.6972  -13.0721   20.9961 C   0  0  0  0  0  0
  -25.2560  -13.8170   20.5671 C   0  0  0  0  0  0
  -24.1834  -13.0438   20.9203 C   0  0  0  0  0  0
  -24.6389  -11.6908   20.8739 C   0  0  0  0  0  0
  -23.9053  -10.4290   21.0408 C   0  0  0  0  0  0
  -24.3612   -9.4205   21.9181 C   0  0  0  0  0  0
  -23.6291   -8.2236   22.0753 C   0  0  0  0  0  0
  -22.4272   -8.0275   21.3550 C   0  0  0  0  0  0
  -21.9904   -9.0242   20.4649 C   0  0  0  0  0  0
  -22.7229  -10.2122   20.3052 C   0  0  0  0  0  0
  -21.6846   -6.0738   22.5281 C   0  0  0  0  0  0
  -21.4011   -6.5640   23.8216 C   0  0  0  0  0  0
  -21.3659   -5.6789   24.9174 C   0  0  0  0  0  0
  -21.6047   -4.3053   24.7224 C   0  0  0  0  0  0
  -21.8815   -3.8151   23.4340 C   0  0  0  0  0  0
  -21.9189   -4.6969   22.3402 C   0  0  0  0  0  0
  -22.7856  -13.5238   21.1869 C   0  0  0  0  0  0
  -22.1658   -4.2155   21.0982 F   0  0  0  0  0  0
  -21.5627   -3.4541   25.7735 F   0  0  0  0  0  0
  -30.0135  -13.4205   20.4362 N   0  0  0  0  0  0
  -26.2988  -12.9344   20.3306 N   0  0  0  0  0  0
  -25.9319  -11.6501   20.5749 N   0  0  0  0  0  0
  -22.0496  -12.8229   22.0419 N   0  0  0  0  0  0
  -25.4260  -15.1890   20.4048 N   0  0  0  0  0  0
  -31.7689  -14.8244   20.1071 O   0  0  0  0  0  0
  -21.6641   -6.8874   21.4240 O   0  0  0  0  0  0
  -22.3548  -14.5544   20.6715 O   0  0  0  0  0  0
  -24.6250  -31.8594   23.2015 C   0  0  0  0  0  0
  -25.9095  -32.4779   23.8348 C   0  0  1  0  0  0
  -27.2314  -27.3281   20.1260 C   0  0  0  0  0  0
  -25.5906  -33.8581   24.2278 N   0  0  0  0  0  0
  -23.4194  -30.4810   21.5437 C   0  0  2  0  0  0
  -24.8688  -28.9314   20.1148 C   0  0  0  0  0  0
  -22.7468  -29.4624   22.4942 C   0  0  0  0  0  0
  -18.0284  -28.1383   22.8488 C   0  0  0  0  0  0
  -24.1491  -36.7305   23.2651 C   0  0  0  0  0  0
  -25.9585  -30.7936   21.3707 C   0  0  0  0  0  0
  -26.0360  -29.4196   20.7169 C   0  0  0  0  0  0
  -27.2230  -28.6302   20.7105 C   0  0  0  0  0  0
  -26.0458  -26.8859   19.5025 C   0  0  0  0  0  0
  -24.8746  -27.6691   19.4983 C   0  0  0  0  0  0
  -23.6349  -29.8100   20.1609 C   0  0  0  0  0  0
  -25.4122  -36.3094   24.0333 C   0  0  1  0  0  0
  -20.5885  -28.3690   23.1289 C   0  0  2  0  0  0
  -20.6775  -26.9415   22.5413 C   0  0  0  0  0  0
  -19.5749  -26.6385   21.5217 C   0  0  0  0  0  0
  -18.1929  -26.7924   22.1628 C   0  0  0  0  0  0
  -19.1535  -28.8853   23.2884 C   0  0  0  0  0  0
  -18.9457  -30.1455   23.8902 C   0  0  0  0  0  0
  -17.6459  -30.6590   24.0565 C   0  0  0  0  0  0
  -25.9043  -34.9456   23.5108 C   0  0  0  0  0  0
  -16.5351  -29.9089   23.6330 C   0  0  0  0  0  0
  -16.7272  -28.6504   23.0353 C   0  0  0  0  0  0
  -26.4483  -31.6587   25.0717 C   0  0  0  0  0  0
  -25.3717  -31.3726   26.1444 C   0  0  0  0  0  0
  -27.0327  -30.3010   24.6167 C   0  0  0  0  0  0
  -27.6043  -32.4323   25.7488 C   0  0  0  0  0  0
  -27.5562  -37.1848   24.8494 C   0  0  0  0  0  0
  -21.4182  -29.3042   22.3682 N   0  0  0  0  0  0
  -26.4323  -37.3761   23.9363 N   0  0  0  0  0  0
  -24.6864  -31.0612   22.0961 N   0  0  0  0  0  0
  -23.4192  -28.8171   23.3028 O   0  0  0  0  0  0
  -28.3511  -26.4882   20.1285 O   0  0  0  0  0  0
  -26.5615  -34.8919   22.4677 O   0  0  0  0  0  0
  -23.5417  -32.1390   23.7349 O   0  0  0  0  0  0
  -28.5165  -19.2818   20.5376 C   0  0  0  0  0  0
  -28.6137  -17.8871   20.8150 C   0  0  0  0  0  0
  -30.9257  -17.9037   20.1799 C   0  0  0  0  0  0
  -29.6151  -20.0360   20.0513 C   0  0  0  0  0  0
  -30.8496  -19.3135   19.9115 C   0  0  0  0  0  0
  -29.8071  -17.1427   20.6121 C   0  0  0  0  0  0
  -28.6768  -23.9211   19.7966 C   0  0  0  0  0  0
  -28.7433  -23.6777   22.6874 C   0  0  0  0  0  0
  -28.8831  -25.0755   22.0674 C   0  0  0  0  0  0
  -29.3568  -22.5798   21.7931 C   0  0  0  0  0  0
  -28.1892  -25.1277   20.6999 C   0  0  1  0  0  0
  -29.4039  -21.5106   19.5062 C   0  0  0  0  0  0
  -32.1143  -20.0234   19.4277 C   0  0  0  0  0  0
  -29.0442  -22.7059   20.3602 N   0  0  0  0  0  0
  -29.7856  -15.6934   20.8560 N   0  0  0  0  0  0
  -28.6609  -24.0779   18.5711 O   0  0  0  0  0  0
  -33.2043  -19.2731   19.5962 F   0  0  0  0  0  0
  -32.0085  -20.3040   18.1282 F   0  0  0  0  0  0
  -32.3009  -21.1570   20.1051 F   0  0  0  0  0  0
  -31.4830  -12.5249   19.1621 H   0  0  0  0  0  0
  -30.3742  -11.4048   19.9021 H   0  0  0  0  0  0
  -29.7816  -11.7599   17.4848 H   0  0  0  0  0  0
  -29.6554  -13.4810   17.7486 H   0  0  0  0  0  0
  -27.8731  -11.2936   18.8678 H   0  0  0  0  0  0
  -27.3800  -12.5750   17.7946 H   0  0  0  0  0  0
  -27.6698  -14.2515   19.5247 H   0  0  0  0  0  0
  -28.7114  -12.0508   21.3791 H   0  0  0  0  0  0
  -28.4400  -13.7022   21.8488 H   0  0  0  0  0  0
  -25.2758   -9.5675   22.4754 H   0  0  0  0  0  0
  -23.9999   -7.4627   22.7464 H   0  0  0  0  0  0
  -21.0836   -8.8753   19.8957 H   0  0  0  0  0  0
  -22.3689  -10.9654   19.6154 H   0  0  0  0  0  0
  -21.2002   -7.6149   23.9727 H   0  0  0  0  0  0
  -21.1491   -6.0518   25.9080 H   0  0  0  0  0  0
  -22.0598   -2.7617   23.2838 H   0  0  0  0  0  0
  -22.4100  -11.9880   22.4799 H   0  0  0  0  0  0
  -21.1113  -13.1252   22.2625 H   0  0  0  0  0  0
  -24.6518  -15.8371   20.5007 H   0  0  0  0  0  0
  -26.2587  -15.6222   20.0282 H   0  0  0  0  0  0
  -26.7168  -32.5455   23.1104 H   0  0  0  0  0  0
  -25.0036  -33.9721   25.0412 H   0  0  0  0  0  0
  -22.7133  -31.3013   21.3976 H   0  0  0  0  0  0
  -23.3707  -35.9696   23.3437 H   0  0  0  0  0  0
  -24.3544  -36.8793   22.2038 H   0  0  0  0  0  0
  -23.7324  -37.6582   23.6586 H   0  0  0  0  0  0
  -26.0863  -31.5555   20.6005 H   0  0  0  0  0  0
  -26.8401  -30.8458   21.9981 H   0  0  0  0  0  0
  -28.1215  -29.0023   21.1828 H   0  0  0  0  0  0
  -26.0221  -25.9187   19.0206 H   0  0  0  0  0  0
  -23.9813  -27.2896   19.0219 H   0  0  0  0  0  0
  -23.7516  -30.5831   19.4006 H   0  0  0  0  0  0
  -22.7561  -29.2360   19.8616 H   0  0  0  0  0  0
  -25.1323  -36.1972   25.0834 H   0  0  0  0  0  0
  -20.9977  -28.3263   24.1409 H   0  0  0  0  0  0
  -20.5678  -26.2302   23.3612 H   0  0  0  0  0  0
  -21.6644  -26.7442   22.1205 H   0  0  0  0  0  0
  -19.6913  -25.6295   21.1247 H   0  0  0  0  0  0
  -19.6687  -27.3196   20.6745 H   0  0  0  0  0  0
  -17.4201  -26.6672   21.4030 H   0  0  0  0  0  0
  -18.0329  -26.0063   22.9019 H   0  0  0  0  0  0
  -19.7938  -30.7263   24.2275 H   0  0  0  0  0  0
  -17.5018  -31.6271   24.5161 H   0  0  0  0  0  0
  -15.5351  -30.2993   23.7650 H   0  0  0  0  0  0
  -15.8671  -28.0823   22.7069 H   0  0  0  0  0  0
  -24.5881  -30.7089   25.7770 H   0  0  0  0  0  0
  -24.8917  -32.2893   26.4879 H   0  0  0  0  0  0
  -25.8032  -30.8890   27.0213 H   0  0  0  0  0  0
  -26.2902  -29.6764   24.1185 H   0  0  0  0  0  0
  -27.4020  -29.7264   25.4671 H   0  0  0  0  0  0
  -27.8772  -30.4301   23.9393 H   0  0  0  0  0  0
  -27.2645  -33.3614   26.2078 H   0  0  0  0  0  0
  -28.3841  -32.6899   25.0310 H   0  0  0  0  0  0
  -28.0721  -31.8441   26.5391 H   0  0  0  0  0  0
  -28.2713  -38.0003   24.7335 H   0  0  0  0  0  0
  -28.0914  -36.2532   24.6594 H   0  0  0  0  0  0
  -27.2242  -37.1839   25.8891 H   0  0  0  0  0  0
  -20.9364  -29.8753   21.6881 H   0  0  0  0  0  0
  -26.0221  -38.2876   24.1211 H   0  0  0  0  0  0
  -27.5584  -19.7693   20.6550 H   0  0  0  0  0  0
  -27.7239  -17.3772   21.1577 H   0  0  0  0  0  0
  -31.8672  -17.3984   20.0280 H   0  0  0  0  0  0
  -27.6869  -23.4615   22.8546 H   0  0  0  0  0  0
  -29.2148  -23.6551   23.6709 H   0  0  0  0  0  0
  -29.9377  -25.3340   21.9598 H   0  0  0  0  0  0
  -28.4459  -25.8205   22.7328 H   0  0  0  0  0  0
  -29.0389  -21.6058   22.1660 H   0  0  0  0  0  0
  -30.4434  -22.6044   21.8904 H   0  0  0  0  0  0
  -27.1310  -24.9328   20.8807 H   0  0  0  0  0  0
  -28.6062  -21.4134   18.7681 H   0  0  0  0  0  0
  -30.2643  -21.8088   18.9111 H   0  0  0  0  0  0
  -28.9030  -15.3532   21.2061 H   0  0  0  0  0  0
  1 25  1  0  0  0
  1 30  2  0  0  0
  1 85  1  0  0  0
  2  3  1  0  0  0
  2 25  1  0  0  0
  2 90  1  0  0  0
  2 91  1  0  0  0
  3  4  1  0  0  0
  3 92  1  0  0  0
  3 93  1  0  0  0
  4  5  1  0  0  0
  4 94  1  0  0  0
  4 95  1  0  0  0
  5  6  1  0  0  0
  5 26  1  0  0  0
  5 96  1  0  0  0
  6 25  1  0  0  0
  6 97  1  0  0  0
  6 98  1  0  0  0
  7  8  2  0  0  0
  7 26  1  0  0  0
  7 29  1  0  0  0
  8  9  1  0  0  0
  8 22  1  0  0  0
  9 10  1  0  0  0
  9 27  2  0  0  0
 10 11  2  0  0  0
 10 15  1  0  0  0
 11 12  1  0  0  0
 11 99  1  0  0  0
 12 13  2  0  0  0
 12100  1  0  0  0
 13 14  1  0  0  0
 13 31  1  0  0  0
 14 15  2  0  0  0
 14101  1  0  0  0
 15102  1  0  0  0
 16 17  2  0  0  0
 16 21  1  0  0  0
 16 31  1  0  0  0
 17 18  1  0  0  0
 17103  1  0  0  0
 18 19  2  0  0  0
 18104  1  0  0  0
 19 20  1  0  0  0
 19 24  1  0  0  0
 20 21  2  0  0  0
 20105  1  0  0  0
 21 23  1  0  0  0
 22 28  1  0  0  0
 22 32  2  0  0  0
 26 27  1  0  0  0
 28106  1  0  0  0
 28107  1  0  0  0
 29108  1  0  0  0
 29109  1  0  0  0
 33 34  1  0  0  0
 33 66  1  0  0  0
 33 70  2  0  0  0
 34 36  1  0  0  0
 34 59  1  0  0  0
 34110  1  0  0  0
 35 44  2  0  0  0
 35 45  1  0  0  0
 35 68  1  0  0  0
 36 56  1  0  0  0
 36111  1  0  0  0
 37 39  1  0  0  0
 37 47  1  0  0  0
 37 66  1  0  0  0
 37112  1  0  0  0
 38 43  2  0  0  0
 38 46  1  0  0  0
 38 47  1  0  0  0
 39 64  1  0  0  0
 39 67  2  0  0  0
 40 52  1  0  0  0
 40 53  2  0  0  0
 40 58  1  0  0  0
 41113  1  0  0  0
 41114  1  0  0  0
 41115  1  0  0  0
 41 48  1  0  0  0
 42 43  1  0  0  0
 42 66  1  0  0  0
 42116  1  0  0  0
 42117  1  0  0  0
 43 44  1  0  0  0
 44118  1  0  0  0
 45 46  2  0  0  0
 45119  1  0  0  0
 46120  1  0  0  0
 47121  1  0  0  0
 47122  1  0  0  0
 48 56  1  0  0  0
 48 65  1  0  0  0
 48123  1  0  0  0
 49 50  1  0  0  0
 49 53  1  0  0  0
 49 64  1  0  0  0
 49124  1  0  0  0
 50 51  1  0  0  0
 50125  1  0  0  0
 50126  1  0  0  0
 51 52  1  0  0  0
 51127  1  0  0  0
 51128  1  0  0  0
 52129  1  0  0  0
 52130  1  0  0  0
 53 54  1  0  0  0
 54 55  2  0  0  0
 54131  1  0  0  0
 55 57  1  0  0  0
 55132  1  0  0  0
 56 69  2  0  0  0
 57 58  2  0  0  0
 57133  1  0  0  0
 58134  1  0  0  0
 59 60  1  0  0  0
 59 61  1  0  0  0
 59 62  1  0  0  0
 60135  1  0  0  0
 60136  1  0  0  0
 60137  1  0  0  0
 61138  1  0  0  0
 61139  1  0  0  0
 61140  1  0  0  0
 62141  1  0  0  0
 62142  1  0  0  0
 62143  1  0  0  0
 63 65  1  0  0  0
 63144  1  0  0  0
 63145  1  0  0  0
 63146  1  0  0  0
 64147  1  0  0  0
 65148  1  0  0  0
 68 81  1  0  0  0
 71 72  2  0  0  0
 71 74  1  0  0  0
 71149  1  0  0  0
 72 76  1  0  0  0
 72150  1  0  0  0
 73 75  1  0  0  0
 73 76  2  0  0  0
 73151  1  0  0  0
 74 75  2  0  0  0
 74 82  1  0  0  0
 75 83  1  0  0  0
 76 85  1  0  0  0
 77 81  1  0  0  0
 77 84  1  0  0  0
 77 86  2  0  0  0
 78 79  1  0  0  0
 78 80  1  0  0  0
 78152  1  0  0  0
 78153  1  0  0  0
 79 81  1  0  0  0
 79154  1  0  0  0
 79155  1  0  0  0
 80 84  1  0  0  0
 80156  1  0  0  0
 80157  1  0  0  0
 81158  1  0  0  0
 82 84  1  0  0  0
 82159  1  0  0  0
 82160  1  0  0  0
 83 87  1  0  0  0
 83 88  1  0  0  0
 83 89  1  0  0  0
 85161  1  0  0  0
M  ISO  4   1 100  68 101  81 101  85 100
M  END
> <chiral flag>
0

> <version>
0

> <s_m_source_file>
/data/baiqing/PycharmProjects/Reinvent-master-3.2/result/LINK_invent/BTK/process_docking_weight1_custom_product_contain_oxygen_bond_distance_aromatic_linkinvent_7_9_3/rearranged_h_0047.sdf

> <i_m_source_file_index>
79

> <r_mmod_Potential_Energy-OPLS-2005>
160.047149658203

> <r_mmod_Stretch_Energy-OPLS-2005>
88.7124938964844

> <r_mmod_Bend_Energy-OPLS-2005>
145.693939208984

> <r_mmod_Torsional_Energy-OPLS-2005>
260.05615234375

> <r_mmod_Improper_Torsional_Energy-OPLS-2005>
5.88443470001221

> <r_mmod_Van_der_Waal_Energy-OPLS-2005>
149.376068115234

> <r_mmod_Electrostatic_Energy-OPLS-2005>
-312.055847167969

> <r_mmod_Solvation_Energy-OPLS-2005>
-225.818450927734

> <b_mmod_Minimization_Converged-OPLS-2005>
0

> <r_mmod_RMS_Derivative-OPLS-2005>
1.15514469146729

$$$$
79
                    3D
 Structure written by MMmdl.
158167  0  0  1  0            999 V2000
  -30.3747  -15.6252   20.2973 C   0  0  0  0  0  0
  -30.4089  -13.0877   19.4853 C   0  0  0  0  0  0
  -29.5243  -12.6254   18.2971 C   0  0  0  0  0  0
  -28.1070  -12.2677   18.7674 C   0  0  0  0  0  0
  -27.5825  -13.2837   19.8026 C   0  0  2  0  0  0
  -28.6170  -13.6803   20.8861 C   0  0  0  0  0  0
  -25.2346  -13.8197   20.5988 C   0  0  0  0  0  0
  -24.1684  -13.0376   20.9349 C   0  0  0  0  0  0
  -24.6349  -11.6884   20.8782 C   0  0  0  0  0  0
  -23.9051  -10.4252   21.0399 C   0  0  0  0  0  0
  -24.3610   -9.4179   21.9183 C   0  0  0  0  0  0
  -23.6282   -8.2220   22.0751 C   0  0  0  0  0  0
  -22.4260   -8.0260   21.3533 C   0  0  0  0  0  0
  -21.9896   -9.0231   20.4632 C   0  0  0  0  0  0
  -22.7222  -10.2108   20.3047 C   0  0  0  0  0  0
  -21.6843   -6.0722   22.5275 C   0  0  0  0  0  0
  -21.4002   -6.5634   23.8206 C   0  0  0  0  0  0
  -21.3661   -5.6790   24.9170 C   0  0  0  0  0  0
  -21.6053   -4.3053   24.7236 C   0  0  0  0  0  0
  -21.8818   -3.8137   23.4349 C   0  0  0  0  0  0
  -21.9187   -4.6953   22.3400 C   0  0  0  0  0  0
  -22.7704  -13.5137   21.1943 C   0  0  0  0  0  0
  -22.1658   -4.2141   21.0975 F   0  0  0  0  0  0
  -21.5636   -3.4535   25.7743 F   0  0  0  0  0  0
  -29.7742  -14.2947   20.1848 N   0  0  0  0  0  0
  -26.2737  -12.9482   20.3344 N   0  0  0  0  0  0
  -25.9289  -11.6569   20.5735 N   0  0  0  0  0  0
  -22.0346  -12.8121   22.0484 N   0  0  0  0  0  0
  -25.3968  -15.1944   20.4621 N   0  0  0  0  0  0
  -31.6097  -15.4607   20.2511 O   0  0  0  0  0  0
  -21.6622   -6.8863   21.4237 O   0  0  0  0  0  0
  -22.3402  -14.5430   20.6745 O   0  0  0  0  0  0
  -24.6784  -31.8019   23.1522 C   0  0  0  0  0  0
  -25.9392  -32.4470   23.8058 C   0  0  1  0  0  0
  -27.2462  -26.7436   20.2007 C   0  0  0  0  0  0
  -25.5995  -33.8291   24.1940 N   0  0  0  0  0  0
  -23.5051  -30.4024   21.5020 C   0  0  2  0  0  0
  -24.9689  -28.7502   20.1028 C   0  0  0  0  0  0
  -22.7736  -29.4318   22.4688 C   0  0  0  0  0  0
  -18.0336  -28.1436   22.8440 C   0  0  0  0  0  0
  -24.1489  -36.7148   23.2658 C   0  0  0  0  0  0
  -26.0815  -30.5426   21.4157 C   0  0  0  0  0  0
  -26.1474  -29.1130   20.7621 C   0  0  0  0  0  0
  -27.2586  -28.1296   20.7952 C   0  0  0  0  0  0
  -26.0456  -26.5848   19.4621 C   0  0  0  0  0  0
  -24.9539  -27.5105   19.4337 C   0  0  0  0  0  0
  -23.7575  -29.6965   20.1353 C   0  0  0  0  0  0
  -25.4132  -36.2883   24.0281 C   0  0  1  0  0  0
  -20.5966  -28.3786   23.1140 C   0  0  2  0  0  0
  -20.6811  -26.9449   22.5393 C   0  0  0  0  0  0
  -19.5792  -26.6369   21.5207 C   0  0  0  0  0  0
  -18.1969  -26.7966   22.1601 C   0  0  0  0  0  0
  -19.1600  -28.8928   23.2777 C   0  0  0  0  0  0
  -18.9518  -30.1516   23.8822 C   0  0  0  0  0  0
  -17.6513  -30.6624   24.0552 C   0  0  0  0  0  0
  -25.9112  -34.9280   23.4936 C   0  0  0  0  0  0
  -16.5397  -29.9104   23.6373 C   0  0  0  0  0  0
  -16.7315  -28.6528   23.0376 C   0  0  0  0  0  0
  -26.4568  -31.6531   25.0695 C   0  0  0  0  0  0
  -25.3600  -31.3844   26.1286 C   0  0  0  0  0  0
  -27.0524  -30.2888   24.6575 C   0  0  0  0  0  0
  -27.6020  -32.4418   25.7491 C   0  0  0  0  0  0
  -27.5538  -37.1720   24.8461 C   0  0  0  0  0  0
  -21.4389  -29.3035   22.3446 N   0  0  0  0  0  0
  -26.4244  -37.3653   23.9407 N   0  0  0  0  0  0
  -24.7775  -30.9484   22.0765 N   0  0  0  0  0  0
  -23.4191  -28.7905   23.3017 O   0  0  0  0  0  0
  -28.2102  -25.5587   20.4197 O   0  0  0  0  0  0
  -26.5744  -34.8866   22.4550 O   0  0  0  0  0  0
  -23.5813  -32.1096   23.6478 O   0  0  0  0  0  0
  -26.2530  -18.4253   18.1362 C   0  0  0  0  0  0
  -27.9201  -16.8619   18.8248 C   0  0  0  0  0  0
  -28.1099  -19.2991   19.5968 C   0  0  0  0  0  0
  -26.7708  -17.1411   18.0951 C   0  0  0  0  0  0
  -26.9158  -19.4816   18.7892 C   0  0  0  0  0  0
  -28.5960  -17.8046   19.6290 C   0  0  0  0  0  0
  -28.8166  -20.7094   20.0904 C   0  0  0  0  0  0
  -28.2896  -22.1701   20.1247 C   0  0  0  0  0  0
  -30.2639  -20.0122   20.2230 C   0  0  0  0  0  0
  -30.5599  -18.3885   20.7223 C   0  0  0  0  0  0
  -26.1315  -16.0849   17.2100 C   0  0  0  0  0  0
  -26.2755  -20.8176   18.4132 C   0  0  0  0  0  0
  -28.6222  -23.9563   19.8589 C   0  0  0  0  0  0
  -29.8025  -17.0975   20.2671 N   0  0  0  0  0  0
  -31.3917  -13.3402   19.0859 H   0  0  0  0  0  0
  -30.5888  -12.2693   20.1848 H   0  0  0  0  0  0
  -29.9787  -11.7712   17.7936 H   0  0  0  0  0  0
  -29.4685  -13.4245   17.5562 H   0  0  0  0  0  0
  -28.1442  -11.2788   19.2249 H   0  0  0  0  0  0
  -27.4269  -12.1892   17.9179 H   0  0  0  0  0  0
  -27.3925  -14.1615   19.1993 H   0  0  0  0  0  0
  -28.9026  -12.8289   21.5049 H   0  0  0  0  0  0
  -28.1834  -14.4211   21.5590 H   0  0  0  0  0  0
  -25.2764   -9.5669   22.4761 H   0  0  0  0  0  0
  -23.9988   -7.4619   22.7481 H   0  0  0  0  0  0
  -21.0824   -8.8746   19.8947 H   0  0  0  0  0  0
  -22.3674  -10.9655   19.6162 H   0  0  0  0  0  0
  -21.1975   -7.6141   23.9710 H   0  0  0  0  0  0
  -21.1490   -6.0517   25.9077 H   0  0  0  0  0  0
  -22.0593   -2.7605   23.2849 H   0  0  0  0  0  0
  -22.3943  -11.9779   22.4885 H   0  0  0  0  0  0
  -21.0972  -13.1163   22.2685 H   0  0  0  0  0  0
  -24.6163  -15.8342   20.5564 H   0  0  0  0  0  0
  -26.2290  -15.6479   20.1079 H   0  0  0  0  0  0
  -26.7469  -32.4946   23.0767 H   0  0  0  0  0  0
  -25.0125  -33.9359   25.0079 H   0  0  0  0  0  0
  -22.8323  -31.2411   21.3128 H   0  0  0  0  0  0
  -23.3769  -35.9468   23.3272 H   0  0  0  0  0  0
  -24.3558  -36.8852   22.2085 H   0  0  0  0  0  0
  -23.7245  -37.6303   23.6776 H   0  0  0  0  0  0
  -26.2863  -31.2691   20.6287 H   0  0  0  0  0  0
  -26.9332  -30.6072   22.0820 H   0  0  0  0  0  0
  -28.1268  -28.3995   21.3790 H   0  0  0  0  0  0
  -25.8982  -25.6422   18.9565 H   0  0  0  0  0  0
  -24.0624  -27.2254   18.8931 H   0  0  0  0  0  0
  -23.9192  -30.4581   19.3716 H   0  0  0  0  0  0
  -22.8663  -29.1524   19.8170 H   0  0  0  0  0  0
  -25.1350  -36.1630   25.0771 H   0  0  0  0  0  0
  -21.0068  -28.3423   24.1261 H   0  0  0  0  0  0
  -20.5682  -26.2412   23.3656 H   0  0  0  0  0  0
  -21.6679  -26.7406   22.1208 H   0  0  0  0  0  0
  -19.6961  -25.6251   21.1316 H   0  0  0  0  0  0
  -19.6761  -27.3117   20.6690 H   0  0  0  0  0  0
  -17.4244  -26.6705   21.4003 H   0  0  0  0  0  0
  -18.0368  -26.0125   22.9005 H   0  0  0  0  0  0
  -19.7992  -30.7348   24.2168 H   0  0  0  0  0  0
  -17.5071  -31.6310   24.5154 H   0  0  0  0  0  0
  -15.5406  -30.2994   23.7751 H   0  0  0  0  0  0
  -15.8706  -28.0832   22.7152 H   0  0  0  0  0  0
  -24.5809  -30.7200   25.7514 H   0  0  0  0  0  0
  -24.8767  -32.3080   26.4505 H   0  0  0  0  0  0
  -25.7732  -30.9090   27.0195 H   0  0  0  0  0  0
  -26.3240  -29.6499   24.1572 H   0  0  0  0  0  0
  -27.3987  -29.7345   25.5306 H   0  0  0  0  0  0
  -27.9199  -30.4054   24.0077 H   0  0  0  0  0  0
  -27.2561  -33.3800   26.1846 H   0  0  0  0  0  0
  -28.3911  -32.6855   25.0360 H   0  0  0  0  0  0
  -28.0608  -31.8706   26.5572 H   0  0  0  0  0  0
  -28.2518  -38.0047   24.7515 H   0  0  0  0  0  0
  -28.1066  -36.2570   24.6283 H   0  0  0  0  0  0
  -27.2258  -37.1347   25.8862 H   0  0  0  0  0  0
  -20.9694  -29.8691   21.6507 H   0  0  0  0  0  0
  -26.0062  -38.2686   24.1456 H   0  0  0  0  0  0
  -25.3651  -18.6208   17.5500 H   0  0  0  0  0  0
  -28.3303  -15.8794   18.6888 H   0  0  0  0  0  0
  -27.2199  -22.1836   20.1268 H   0  0  0  0  0  0
  -30.8910  -20.6805   20.8139 H   0  0  0  0  0  0
  -30.6753  -20.0765   19.2143 H   0  0  0  0  0  0
  -30.4787  -18.3820   21.8103 H   0  0  0  0  0  0
  -31.6172  -18.1971   20.5331 H   0  0  0  0  0  0
  -25.4606  -16.5380   16.4791 H   0  0  0  0  0  0
  -25.5482  -15.3736   17.7925 H   0  0  0  0  0  0
  -26.8950  -15.5335   16.6600 H   0  0  0  0  0  0
  -25.5901  -20.7290   17.5688 H   0  0  0  0  0  0
  -27.0067  -21.5448   18.0637 H   0  0  0  0  0  0
  -25.6679  -21.2039   19.2304 H   0  0  0  0  0  0
  -28.4341  -24.0524   18.7889 H   0  0  0  0  0  0
  -29.7096  -23.9797   19.9284 H   0  0  0  0  0  0
  1 25  1  0  0  0
  1 30  2  0  0  0
  1 84  1  0  0  0
  2  3  1  0  0  0
  2 25  1  0  0  0
  2 85  1  0  0  0
  2 86  1  0  0  0
  3  4  1  0  0  0
  3 87  1  0  0  0
  3 88  1  0  0  0
  4  5  1  0  0  0
  4 89  1  0  0  0
  4 90  1  0  0  0
  5  6  1  0  0  0
  5 26  1  0  0  0
  5 91  1  0  0  0
  6 25  1  0  0  0
  6 92  1  0  0  0
  6 93  1  0  0  0
  7  8  2  0  0  0
  7 26  1  0  0  0
  7 29  1  0  0  0
  8  9  1  0  0  0
  8 22  1  0  0  0
  9 10  1  0  0  0
  9 27  2  0  0  0
 10 11  2  0  0  0
 10 15  1  0  0  0
 11 12  1  0  0  0
 11 94  1  0  0  0
 12 13  2  0  0  0
 12 95  1  0  0  0
 13 14  1  0  0  0
 13 31  1  0  0  0
 14 15  2  0  0  0
 14 96  1  0  0  0
 15 97  1  0  0  0
 16 17  2  0  0  0
 16 21  1  0  0  0
 16 31  1  0  0  0
 17 18  1  0  0  0
 17 98  1  0  0  0
 18 19  2  0  0  0
 18 99  1  0  0  0
 19 20  1  0  0  0
 19 24  1  0  0  0
 20 21  2  0  0  0
 20100  1  0  0  0
 21 23  1  0  0  0
 22 28  1  0  0  0
 22 32  2  0  0  0
 26 27  1  0  0  0
 28101  1  0  0  0
 28102  1  0  0  0
 29103  1  0  0  0
 29104  1  0  0  0
 33 34  1  0  0  0
 33 66  1  0  0  0
 33 70  2  0  0  0
 34 36  1  0  0  0
 34 59  1  0  0  0
 34105  1  0  0  0
 35 44  2  0  0  0
 35 45  1  0  0  0
 35 68  1  0  0  0
 36 56  1  0  0  0
 36106  1  0  0  0
 37 39  1  0  0  0
 37 47  1  0  0  0
 37 66  1  0  0  0
 37107  1  0  0  0
 38 43  2  0  0  0
 38 46  1  0  0  0
 38 47  1  0  0  0
 39 64  1  0  0  0
 39 67  2  0  0  0
 40 52  1  0  0  0
 40 53  2  0  0  0
 40 58  1  0  0  0
 41108  1  0  0  0
 41109  1  0  0  0
 41110  1  0  0  0
 41 48  1  0  0  0
 42 43  1  0  0  0
 42 66  1  0  0  0
 42111  1  0  0  0
 42112  1  0  0  0
 43 44  1  0  0  0
 44113  1  0  0  0
 45 46  2  0  0  0
 45114  1  0  0  0
 46115  1  0  0  0
 47116  1  0  0  0
 47117  1  0  0  0
 48 56  1  0  0  0
 48 65  1  0  0  0
 48118  1  0  0  0
 49 50  1  0  0  0
 49 53  1  0  0  0
 49 64  1  0  0  0
 49119  1  0  0  0
 50 51  1  0  0  0
 50120  1  0  0  0
 50121  1  0  0  0
 51 52  1  0  0  0
 51122  1  0  0  0
 51123  1  0  0  0
 52124  1  0  0  0
 52125  1  0  0  0
 53 54  1  0  0  0
 54 55  2  0  0  0
 54126  1  0  0  0
 55 57  1  0  0  0
 55127  1  0  0  0
 56 69  2  0  0  0
 57 58  2  0  0  0
 57128  1  0  0  0
 58129  1  0  0  0
 59 60  1  0  0  0
 59 61  1  0  0  0
 59 62  1  0  0  0
 60130  1  0  0  0
 60131  1  0  0  0
 60132  1  0  0  0
 61133  1  0  0  0
 61134  1  0  0  0
 61135  1  0  0  0
 62136  1  0  0  0
 62137  1  0  0  0
 62138  1  0  0  0
 63 65  1  0  0  0
 63139  1  0  0  0
 63140  1  0  0  0
 63141  1  0  0  0
 64142  1  0  0  0
 65143  1  0  0  0
 68 83  1  0  0  0
 71 74  2  0  0  0
 71 75  1  0  0  0
 71144  1  0  0  0
 72 74  1  0  0  0
 72 76  2  0  0  0
 72145  1  0  0  0
 73 75  2  0  0  0
 73 76  1  0  0  0
 73 77  1  0  0  0
 74 81  1  0  0  0
 75 82  1  0  0  0
 76 84  1  0  0  0
 77 78  2  0  0  0
 77 79  1  0  0  0
 78 83  1  0  0  0
 78146  1  0  0  0
 79 80  1  0  0  0
 79147  1  0  0  0
 79148  1  0  0  0
 80 84  1  0  0  0
 80149  1  0  0  0
 80150  1  0  0  0
 81151  1  0  0  0
 81152  1  0  0  0
 81153  1  0  0  0
 82154  1  0  0  0
 82155  1  0  0  0
 82156  1  0  0  0
 83157  1  0  0  0
 83158  1  0  0  0
M  ISO  4   1 100  68 101  83 101  84 100
M  END
> <chiral flag>
0

> <version>
0

> <s_m_source_file>
/data/baiqing/PycharmProjects/Reinvent-master-3.2/result/LINK_invent/BTK/process_docking_weight1_custom_product_contain_oxygen_bond_distance_aromatic_linkinvent_7_9_3/rearranged_h_0047.sdf

> <i_m_source_file_index>
80

> <r_mmod_Potential_Energy-OPLS-2005>
2559.44555664062

> <r_mmod_Stretch_Energy-OPLS-2005>
924.77587890625

> <r_mmod_Bend_Energy-OPLS-2005>
786.746948242188

> <r_mmod_Torsional_Energy-OPLS-2005>
291.844787597656

> <r_mmod_Improper_Torsional_Energy-OPLS-2005>
9.01145076751709

> <r_mmod_Van_der_Waal_Energy-OPLS-2005>
154.294830322266

> <r_mmod_Electrostatic_Energy-OPLS-2005>
-286.272613525391

> <r_mmod_Solvation_Energy-OPLS-2005>
-186.828094482422

> <b_mmod_Minimization_Converged-OPLS-2005>
0

> <r_mmod_RMS_Derivative-OPLS-2005>
2.14896988868713

$$$$
80
                    3D
 Structure written by MMmdl.
171180  0  0  1  0            999 V2000
  -30.6888  -14.5454   20.5373 C   0  0  0  0  0  0
  -30.4200  -12.3434   19.4394 C   0  0  0  0  0  0
  -29.4961  -12.5006   18.2143 C   0  0  0  0  0  0
  -28.0193  -12.3512   18.6285 C   0  0  0  0  0  0
  -27.6532  -13.2154   19.8656 C   0  0  2  0  0  0
  -28.6967  -13.0536   20.9939 C   0  0  0  0  0  0
  -25.2551  -13.8170   20.5682 C   0  0  0  0  0  0
  -24.1824  -13.0438   20.9203 C   0  0  0  0  0  0
  -24.6393  -11.6909   20.8750 C   0  0  0  0  0  0
  -23.9065  -10.4290   21.0406 C   0  0  0  0  0  0
  -24.3617   -9.4206   21.9183 C   0  0  0  0  0  0
  -23.6293   -8.2241   22.0753 C   0  0  0  0  0  0
  -22.4274   -8.0280   21.3543 C   0  0  0  0  0  0
  -21.9909   -9.0255   20.4648 C   0  0  0  0  0  0
  -22.7239  -10.2131   20.3055 C   0  0  0  0  0  0
  -21.6854   -6.0736   22.5278 C   0  0  0  0  0  0
  -21.4013   -6.5641   23.8213 C   0  0  0  0  0  0
  -21.3654   -5.6792   24.9176 C   0  0  0  0  0  0
  -21.6041   -4.3054   24.7226 C   0  0  0  0  0  0
  -21.8822   -3.8145   23.4349 C   0  0  0  0  0  0
  -21.9198   -4.6963   22.3404 C   0  0  0  0  0  0
  -22.7846  -13.5230   21.1861 C   0  0  0  0  0  0
  -22.1665   -4.2148   21.0980 F   0  0  0  0  0  0
  -21.5625   -3.4534   25.7739 F   0  0  0  0  0  0
  -30.0183  -13.3613   20.4276 N   0  0  0  0  0  0
  -26.2984  -12.9356   20.3332 N   0  0  0  0  0  0
  -25.9321  -11.6510   20.5772 N   0  0  0  0  0  0
  -22.0488  -12.8217   22.0409 N   0  0  0  0  0  0
  -25.4246  -15.1885   20.4051 N   0  0  0  0  0  0
  -31.8403  -14.6692   20.1110 O   0  0  0  0  0  0
  -21.6638   -6.8875   21.4238 O   0  0  0  0  0  0
  -22.3535  -14.5540   20.6713 O   0  0  0  0  0  0
  -24.6186  -31.8652   23.2075 C   0  0  0  0  0  0
  -25.9066  -32.4805   23.8381 C   0  0  1  0  0  0
  -27.2261  -27.3923   20.1092 C   0  0  0  0  0  0
  -25.5916  -33.8603   24.2317 N   0  0  0  0  0  0
  -23.4098  -30.4885   21.5479 C   0  0  2  0  0  0
  -24.8577  -28.9495   20.1129 C   0  0  0  0  0  0
  -22.7437  -29.4647   22.4966 C   0  0  0  0  0  0
  -18.0281  -28.1378   22.8493 C   0  0  0  0  0  0
  -24.1481  -36.7293   23.2637 C   0  0  0  0  0  0
  -25.9431  -30.8169   21.3684 C   0  0  0  0  0  0
  -26.0211  -29.4482   20.7154 C   0  0  0  0  0  0
  -27.2123  -28.6773   20.7110 C   0  0  0  0  0  0
  -26.0519  -26.9242   19.4872 C   0  0  0  0  0  0
  -24.8702  -27.6883   19.4928 C   0  0  0  0  0  0
  -23.6219  -29.8213   20.1627 C   0  0  0  0  0  0
  -25.4102  -36.3097   24.0343 C   0  0  1  0  0  0
  -20.5876  -28.3670   23.1309 C   0  0  2  0  0  0
  -20.6770  -26.9403   22.5421 C   0  0  0  0  0  0
  -19.5747  -26.6384   21.5217 C   0  0  0  0  0  0
  -18.1925  -26.7928   22.1623 C   0  0  0  0  0  0
  -19.1532  -28.8841   23.2899 C   0  0  0  0  0  0
  -18.9457  -30.1448   23.8909 C   0  0  0  0  0  0
  -17.6458  -30.6585   24.0568 C   0  0  0  0  0  0
  -25.9040  -34.9468   23.5126 C   0  0  0  0  0  0
  -16.5349  -29.9088   23.6331 C   0  0  0  0  0  0
  -16.7269  -28.6505   23.0349 C   0  0  0  0  0  0
  -26.4479  -31.6589   25.0719 C   0  0  0  0  0  0
  -25.3740  -31.3719   26.1470 C   0  0  0  0  0  0
  -27.0299  -30.3019   24.6113 C   0  0  0  0  0  0
  -27.6060  -32.4304   25.7477 C   0  0  0  0  0  0
  -27.5586  -37.1787   24.8458 C   0  0  0  0  0  0
  -21.4161  -29.3032   22.3705 N   0  0  0  0  0  0
  -26.4276  -37.3795   23.9435 N   0  0  0  0  0  0
  -24.6754  -31.0719   22.0991 N   0  0  0  0  0  0
  -23.4191  -28.8194   23.3024 O   0  0  0  0  0  0
  -28.3363  -26.5659   20.1219 O   0  0  0  0  0  0
  -26.5597  -34.8930   22.4684 O   0  0  0  0  0  0
  -23.5369  -32.1418   23.7447 O   0  0  0  0  0  0
  -32.1638  -18.5492   21.8442 C   0  0  0  0  0  0
  -31.2948  -19.6385   21.6847 C   0  0  0  0  0  0
  -31.7183  -17.2450   21.5850 C   0  0  0  0  0  0
  -29.9680  -19.4613   21.2354 C   0  0  0  0  0  0
  -29.5210  -18.1210   20.9514 C   0  0  0  0  0  0
  -30.4010  -16.9948   21.1337 C   0  0  0  0  0  0
  -28.2515  -22.9457   20.1902 C   0  0  0  0  0  0
  -24.9826  -21.9268   18.7825 C   0  0  0  0  0  0
  -26.9712  -22.9638   19.7635 C   0  0  0  0  0  0
  -26.2681  -21.8457   19.1590 C   0  0  0  0  0  0
  -31.2055  -23.0572   20.1411 C   0  0  0  0  0  0
  -30.3922  -24.3600   20.1612 C   0  0  0  0  0  0
  -30.4305  -21.9277   19.4392 C   0  0  0  0  0  0
  -29.0233  -24.1393   20.8242 C   0  0  1  0  0  0
  -28.0916  -17.8839   20.4808 C   0  0  0  0  0  0
  -29.0634  -20.7358   21.2310 C   0  0  0  0  0  0
  -28.2456  -25.4883   21.0905 C   0  0  0  0  0  0
  -29.9634  -15.6233   20.9496 N   0  0  0  0  0  0
  -29.0990  -21.6783   20.0537 N   0  3  1  0  0  0
  -31.4648  -12.4374   19.1383 H   0  0  0  0  0  0
  -30.3240  -11.3442   19.8675 H   0  0  0  0  0  0
  -29.7479  -11.7597   17.4542 H   0  0  0  0  0  0
  -29.6534  -13.4775   17.7542 H   0  0  0  0  0  0
  -27.8456  -11.2974   18.8496 H   0  0  0  0  0  0
  -27.3649  -12.5942   17.7905 H   0  0  0  0  0  0
  -27.6790  -14.2543   19.5362 H   0  0  0  0  0  0
  -28.6876  -12.0333   21.3809 H   0  0  0  0  0  0
  -28.4564  -13.6956   21.8427 H   0  0  0  0  0  0
  -25.2764   -9.5684   22.4755 H   0  0  0  0  0  0
  -24.0007   -7.4628   22.7469 H   0  0  0  0  0  0
  -21.0840   -8.8773   19.8952 H   0  0  0  0  0  0
  -22.3700  -10.9668   19.6161 H   0  0  0  0  0  0
  -21.1997   -7.6149   23.9716 H   0  0  0  0  0  0
  -21.1469   -6.0520   25.9079 H   0  0  0  0  0  0
  -22.0604   -2.7607   23.2847 H   0  0  0  0  0  0
  -22.4102  -11.9872   22.4789 H   0  0  0  0  0  0
  -21.1106  -13.1240   22.2617 H   0  0  0  0  0  0
  -24.6506  -15.8372   20.4981 H   0  0  0  0  0  0
  -26.2584  -15.6171   20.0283 H   0  0  0  0  0  0
  -26.7135  -32.5503   23.1139 H   0  0  0  0  0  0
  -25.0083  -33.9754   25.0476 H   0  0  0  0  0  0
  -22.7011  -31.3073   21.4069 H   0  0  0  0  0  0
  -23.3759  -35.9606   23.3284 H   0  0  0  0  0  0
  -24.3586  -36.8917   22.2055 H   0  0  0  0  0  0
  -23.7207  -37.6486   23.6651 H   0  0  0  0  0  0
  -26.0635  -31.5808   20.5991 H   0  0  0  0  0  0
  -26.8281  -30.8687   21.9908 H   0  0  0  0  0  0
  -28.1073  -29.0522   21.1876 H   0  0  0  0  0  0
  -26.0494  -25.9577   19.0047 H   0  0  0  0  0  0
  -23.9788  -27.3006   19.0193 H   0  0  0  0  0  0
  -23.7361  -30.5972   19.4048 H   0  0  0  0  0  0
  -22.7445  -29.2450   19.8628 H   0  0  0  0  0  0
  -25.1274  -36.1944   25.0833 H   0  0  0  0  0  0
  -20.9972  -28.3231   24.1427 H   0  0  0  0  0  0
  -20.5671  -26.2277   23.3611 H   0  0  0  0  0  0
  -21.6637  -26.7439   22.1210 H   0  0  0  0  0  0
  -19.6910  -25.6299   21.1237 H   0  0  0  0  0  0
  -19.6693  -27.3206   20.6756 H   0  0  0  0  0  0
  -17.4204  -26.6691   21.4015 H   0  0  0  0  0  0
  -18.0317  -26.0062   22.9007 H   0  0  0  0  0  0
  -19.7936  -30.7262   24.2276 H   0  0  0  0  0  0
  -17.5019  -31.6266   24.5169 H   0  0  0  0  0  0
  -15.5353  -30.2992   23.7659 H   0  0  0  0  0  0
  -15.8666  -28.0833   22.7047 H   0  0  0  0  0  0
  -24.5899  -30.7076   25.7818 H   0  0  0  0  0  0
  -24.8942  -32.2881   26.4918 H   0  0  0  0  0  0
  -25.8087  -30.8888   27.0228 H   0  0  0  0  0  0
  -26.2837  -29.6787   24.1166 H   0  0  0  0  0  0
  -27.4056  -29.7253   25.4576 H   0  0  0  0  0  0
  -27.8688  -30.4325   23.9273 H   0  0  0  0  0  0
  -27.2688  -33.3608   26.2057 H   0  0  0  0  0  0
  -28.3867  -32.6850   25.0296 H   0  0  0  0  0  0
  -28.0727  -31.8417   26.5385 H   0  0  0  0  0  0
  -28.2570  -38.0120   24.7570 H   0  0  0  0  0  0
  -28.1114  -36.2658   24.6185 H   0  0  0  0  0  0
  -27.2327  -37.1315   25.8864 H   0  0  0  0  0  0
  -20.9324  -29.8747   21.6922 H   0  0  0  0  0  0
  -26.0161  -38.2860   24.1485 H   0  0  0  0  0  0
  -33.1728  -18.7123   22.1971 H   0  0  0  0  0  0
  -31.6587  -20.6228   21.9425 H   0  0  0  0  0  0
  -32.4108  -16.4353   21.7651 H   0  0  0  0  0  0
  -24.4801  -21.0814   18.3329 H   0  0  0  0  0  0
  -24.4064  -22.8325   18.9146 H   0  0  0  0  0  0
  -26.4138  -23.8813   19.8705 H   0  0  0  0  0  0
  -26.7706  -20.9038   18.9916 H   0  0  0  0  0  0
  -31.4632  -22.7666   21.1595 H   0  0  0  0  0  0
  -32.1520  -23.2239   19.6254 H   0  0  0  0  0  0
  -30.2548  -24.7354   19.1456 H   0  0  0  0  0  0
  -30.9478  -25.1290   20.7001 H   0  0  0  0  0  0
  -31.0270  -21.0191   19.3754 H   0  0  0  0  0  0
  -30.2572  -22.2214   18.4029 H   0  0  0  0  0  0
  -29.2331  -23.7708   21.8296 H   0  0  0  0  0  0
  -27.7535  -18.6800   19.8191 H   0  0  0  0  0  0
  -27.4125  -17.8325   21.3324 H   0  0  0  0  0  0
  -27.9958  -16.9582   19.9146 H   0  0  0  0  0  0
  -29.3287  -21.3158   22.1159 H   0  0  0  0  0  0
  -28.0282  -20.4418   21.4024 H   0  0  0  0  0  0
  -28.6698  -25.9171   21.9997 H   0  0  0  0  0  0
  -27.2126  -25.2726   21.3677 H   0  0  0  0  0  0
  -28.9870  -15.4399   21.1179 H   0  0  0  0  0  0
  -28.6485  -21.1282   19.3395 H   0  0  0  0  0  0
  1 25  1  0  0  0
  1 30  2  0  0  0
  1 88  1  0  0  0
  2  3  1  0  0  0
  2 25  1  0  0  0
  2 90  1  0  0  0
  2 91  1  0  0  0
  3  4  1  0  0  0
  3 92  1  0  0  0
  3 93  1  0  0  0
  4  5  1  0  0  0
  4 94  1  0  0  0
  4 95  1  0  0  0
  5  6  1  0  0  0
  5 26  1  0  0  0
  5 96  1  0  0  0
  6 25  1  0  0  0
  6 97  1  0  0  0
  6 98  1  0  0  0
  7  8  2  0  0  0
  7 26  1  0  0  0
  7 29  1  0  0  0
  8  9  1  0  0  0
  8 22  1  0  0  0
  9 10  1  0  0  0
  9 27  2  0  0  0
 10 11  2  0  0  0
 10 15  1  0  0  0
 11 12  1  0  0  0
 11 99  1  0  0  0
 12 13  2  0  0  0
 12100  1  0  0  0
 13 14  1  0  0  0
 13 31  1  0  0  0
 14 15  2  0  0  0
 14101  1  0  0  0
 15102  1  0  0  0
 16 17  2  0  0  0
 16 21  1  0  0  0
 16 31  1  0  0  0
 17 18  1  0  0  0
 17103  1  0  0  0
 18 19  2  0  0  0
 18104  1  0  0  0
 19 20  1  0  0  0
 19 24  1  0  0  0
 20 21  2  0  0  0
 20105  1  0  0  0
 21 23  1  0  0  0
 22 28  1  0  0  0
 22 32  2  0  0  0
 26 27  1  0  0  0
 28106  1  0  0  0
 28107  1  0  0  0
 29108  1  0  0  0
 29109  1  0  0  0
 33 34  1  0  0  0
 33 66  1  0  0  0
 33 70  2  0  0  0
 34 36  1  0  0  0
 34 59  1  0  0  0
 34110  1  0  0  0
 35 44  2  0  0  0
 35 45  1  0  0  0
 35 68  1  0  0  0
 36 56  1  0  0  0
 36111  1  0  0  0
 37 39  1  0  0  0
 37 47  1  0  0  0
 37 66  1  0  0  0
 37112  1  0  0  0
 38 43  2  0  0  0
 38 46  1  0  0  0
 38 47  1  0  0  0
 39 64  1  0  0  0
 39 67  2  0  0  0
 40 52  1  0  0  0
 40 53  2  0  0  0
 40 58  1  0  0  0
 41113  1  0  0  0
 41114  1  0  0  0
 41115  1  0  0  0
 41 48  1  0  0  0
 42 43  1  0  0  0
 42 66  1  0  0  0
 42116  1  0  0  0
 42117  1  0  0  0
 43 44  1  0  0  0
 44118  1  0  0  0
 45 46  2  0  0  0
 45119  1  0  0  0
 46120  1  0  0  0
 47121  1  0  0  0
 47122  1  0  0  0
 48 56  1  0  0  0
 48 65  1  0  0  0
 48123  1  0  0  0
 49 50  1  0  0  0
 49 53  1  0  0  0
 49 64  1  0  0  0
 49124  1  0  0  0
 50 51  1  0  0  0
 50125  1  0  0  0
 50126  1  0  0  0
 51 52  1  0  0  0
 51127  1  0  0  0
 51128  1  0  0  0
 52129  1  0  0  0
 52130  1  0  0  0
 53 54  1  0  0  0
 54 55  2  0  0  0
 54131  1  0  0  0
 55 57  1  0  0  0
 55132  1  0  0  0
 56 69  2  0  0  0
 57 58  2  0  0  0
 57133  1  0  0  0
 58134  1  0  0  0
 59 60  1  0  0  0
 59 61  1  0  0  0
 59 62  1  0  0  0
 60135  1  0  0  0
 60136  1  0  0  0
 60137  1  0  0  0
 61138  1  0  0  0
 61139  1  0  0  0
 61140  1  0  0  0
 62141  1  0  0  0
 62142  1  0  0  0
 62143  1  0  0  0
 63 65  1  0  0  0
 63144  1  0  0  0
 63145  1  0  0  0
 63146  1  0  0  0
 64147  1  0  0  0
 65148  1  0  0  0
 68 87  1  0  0  0
 71 72  2  0  0  0
 71 73  1  0  0  0
 71149  1  0  0  0
 72 74  1  0  0  0
 72150  1  0  0  0
 73 76  2  0  0  0
 73151  1  0  0  0
 74 75  2  0  0  0
 74 86  1  0  0  0
 75 76  1  0  0  0
 75 85  1  0  0  0
 76 88  1  0  0  0
 77 79  2  0  0  0
 77 84  1  0  0  0
 77 89  1  0  0  0
 78 80  2  0  0  0
 78152  1  0  0  0
 78153  1  0  0  0
 79 80  1  0  0  0
 79154  1  0  0  0
 80155  1  0  0  0
 81 82  1  0  0  0
 81 83  1  0  0  0
 81156  1  0  0  0
 81157  1  0  0  0
 82 84  1  0  0  0
 82158  1  0  0  0
 82159  1  0  0  0
 83 89  1  0  0  0
 83160  1  0  0  0
 83161  1  0  0  0
 84 87  1  0  0  0
 84162  1  0  0  0
 85163  1  0  0  0
 85164  1  0  0  0
 85165  1  0  0  0
 86166  1  0  0  0
 86167  1  0  0  0
 86 89  1  0  0  0
 87168  1  0  0  0
 87169  1  0  0  0
 88170  1  0  0  0
 89171  1  0  0  0
M  CHG  1  89   1
M  ISO  4   1 100  68 101  87 101  88 100
M  END
> <chiral flag>
0

> <version>
0

> <s_m_source_file>
/data/baiqing/PycharmProjects/Reinvent-master-3.2/result/LINK_invent/BTK/process_docking_weight1_custom_product_contain_oxygen_bond_distance_aromatic_linkinvent_7_9_3/rearranged_h_0047.sdf

> <i_m_source_file_index>
81

> <r_mmod_Potential_Energy-OPLS-2005>
-73.0516052246094

> <r_mmod_Stretch_Energy-OPLS-2005>
62.8007316589355

> <r_mmod_Bend_Energy-OPLS-2005>
136.701416015625

> <r_mmod_Torsional_Energy-OPLS-2005>
253.61067199707

> <r_mmod_Improper_Torsional_Energy-OPLS-2005>
5.09813928604126

> <r_mmod_Van_der_Waal_Energy-OPLS-2005>
146.655532836914

> <r_mmod_Electrostatic_Energy-OPLS-2005>
-269.984100341797

> <r_mmod_Solvation_Energy-OPLS-2005>
-433.109252929688

> <b_mmod_Minimization_Converged-OPLS-2005>
0

> <r_mmod_RMS_Derivative-OPLS-2005>
0.814088106155396

$$$$
81
                    3D
 Structure written by MMmdl.
158167  0  0  1  0            999 V2000
  -30.5094  -14.9404   20.4479 C   0  0  0  0  0  0
  -30.4546  -12.5850   19.4988 C   0  0  0  0  0  0
  -29.5275  -12.5451   18.2594 C   0  0  0  0  0  0
  -28.0593  -12.3247   18.6744 C   0  0  0  0  0  0
  -27.6361  -13.2430   19.8504 C   0  0  2  0  0  0
  -28.6807  -13.2333   20.9890 C   0  0  0  0  0  0
  -25.2393  -13.8117   20.5545 C   0  0  0  0  0  0
  -24.1747  -13.0361   20.9164 C   0  0  0  0  0  0
  -24.6402  -11.6867   20.8762 C   0  0  0  0  0  0
  -23.9088  -10.4252   21.0421 C   0  0  0  0  0  0
  -24.3629   -9.4173   21.9205 C   0  0  0  0  0  0
  -23.6293   -8.2213   22.0771 C   0  0  0  0  0  0
  -22.4277   -8.0259   21.3547 C   0  0  0  0  0  0
  -21.9920   -9.0236   20.4652 C   0  0  0  0  0  0
  -22.7260  -10.2109   20.3065 C   0  0  0  0  0  0
  -21.6842   -6.0728   22.5282 C   0  0  0  0  0  0
  -21.4012   -6.5633   23.8213 C   0  0  0  0  0  0
  -21.3657   -5.6787   24.9176 C   0  0  0  0  0  0
  -21.6042   -4.3050   24.7227 C   0  0  0  0  0  0
  -21.8819   -3.8141   23.4348 C   0  0  0  0  0  0
  -21.9188   -4.6957   22.3406 C   0  0  0  0  0  0
  -22.7771  -13.5149   21.1846 C   0  0  0  0  0  0
  -22.1655   -4.2146   21.0982 F   0  0  0  0  0  0
  -21.5627   -3.4540   25.7741 F   0  0  0  0  0  0
  -29.9642  -13.6584   20.4086 N   0  0  0  0  0  0
  -26.2915  -12.9394   20.3287 N   0  0  0  0  0  0
  -25.9358  -11.6532   20.5811 N   0  0  0  0  0  0
  -22.0431  -12.8164   22.0432 N   0  0  0  0  0  0
  -25.3850  -15.1793   20.3707 N   0  0  0  0  0  0
  -31.6918  -15.0772   20.1119 O   0  0  0  0  0  0
  -21.6625   -6.8876   21.4245 O   0  0  0  0  0  0
  -22.3448  -14.5457   20.6706 O   0  0  0  0  0  0
  -24.6407  -31.8456   23.1867 C   0  0  0  0  0  0
  -25.9186  -32.4709   23.8259 C   0  0  1  0  0  0
  -27.2233  -27.1562   20.1614 C   0  0  0  0  0  0
  -25.5946  -33.8511   24.2179 N   0  0  0  0  0  0
  -23.4438  -30.4626   21.5326 C   0  0  2  0  0  0
  -24.8955  -28.8850   20.1178 C   0  0  0  0  0  0
  -22.7548  -29.4551   22.4862 C   0  0  0  0  0  0
  -18.0304  -28.1407   22.8460 C   0  0  0  0  0  0
  -24.1490  -36.7262   23.2639 C   0  0  0  0  0  0
  -25.9964  -30.7255   21.3820 C   0  0  0  0  0  0
  -26.0709  -29.3343   20.7342 C   0  0  0  0  0  0
  -27.2385  -28.4857   20.7388 C   0  0  0  0  0  0
  -26.0260  -26.7983   19.5109 C   0  0  0  0  0  0
  -24.8828  -27.6274   19.4939 C   0  0  0  0  0  0
  -23.6719  -29.7871   20.1538 C   0  0  0  0  0  0
  -25.4118  -36.3036   24.0312 C   0  0  1  0  0  0
  -20.5915  -28.3728   23.1244 C   0  0  2  0  0  0
  -20.6800  -26.9433   22.5418 C   0  0  0  0  0  0
  -19.5781  -26.6386   21.5214 C   0  0  0  0  0  0
  -18.1944  -26.7949   22.1595 C   0  0  0  0  0  0
  -19.1560  -28.8879   23.2844 C   0  0  0  0  0  0
  -18.9492  -30.1472   23.8879 C   0  0  0  0  0  0
  -17.6497  -30.6603   24.0561 C   0  0  0  0  0  0
  -25.9068  -34.9421   23.5053 C   0  0  0  0  0  0
  -16.5383  -29.9103   23.6341 C   0  0  0  0  0  0
  -16.7292  -28.6528   23.0346 C   0  0  0  0  0  0
  -26.4507  -31.6570   25.0689 C   0  0  0  0  0  0
  -25.3673  -31.3784   26.1375 C   0  0  0  0  0  0
  -27.0359  -30.2964   24.6239 C   0  0  0  0  0  0
  -27.6048  -32.4324   25.7480 C   0  0  0  0  0  0
  -27.5576  -37.1780   24.8457 C   0  0  0  0  0  0
  -21.4244  -29.3057   22.3615 N   0  0  0  0  0  0
  -26.4279  -37.3750   23.9411 N   0  0  0  0  0  0
  -24.7137  -31.0321   22.0898 N   0  0  0  0  0  0
  -23.4194  -28.8099   23.3008 O   0  0  0  0  0  0
  -28.2921  -26.1964   20.1424 O   0  0  0  0  0  0
  -26.5659  -34.8921   22.4631 O   0  0  0  0  0  0
  -23.5536  -32.1334   23.7094 O   0  0  0  0  0  0
  -30.3955  -18.5945   20.1484 C   0  0  0  0  0  0
  -28.0430  -19.5583   21.1888 C   0  0  0  0  0  0
  -30.1050  -20.0430   20.1786 C   0  0  0  0  0  0
  -28.8824  -20.6287   20.7127 C   0  0  0  0  0  0
  -29.5342  -17.5596   20.6748 C   0  0  0  0  0  0
  -28.3510  -18.1522   21.2098 C   0  0  0  0  0  0
  -28.6744  -23.3576   20.2596 C   0  0  0  0  0  0
  -27.2760  -23.5569   22.7826 C   0  0  0  0  0  0
  -27.0383  -24.7165   21.8248 C   0  0  0  0  0  0
  -27.4357  -22.2224   22.0352 C   0  0  0  0  0  0
  -28.2438  -24.8401   20.8948 C   0  0  2  0  0  0
  -31.1885  -20.9605   19.6423 C   0  0  0  0  0  0
  -28.4523  -22.1170   20.9496 N   0  0  0  0  0  0
  -29.6436  -16.0251   20.7297 N   0  0  0  0  0  0
  -29.2297  -23.3669   19.1575 O   0  0  0  0  0  0
  -27.2119  -17.1224   21.9963 Cl  0  0  0  0  0  0
  -31.4854  -12.7624   19.1885 H   0  0  0  0  0  0
  -30.4593  -11.6222   20.0114 H   0  0  0  0  0  0
  -29.8449  -11.7596   17.5725 H   0  0  0  0  0  0
  -29.6130  -13.4844   17.7103 H   0  0  0  0  0  0
  -27.9556  -11.2800   18.9705 H   0  0  0  0  0  0
  -27.3963  -12.4661   17.8202 H   0  0  0  0  0  0
  -27.6070  -14.2533   19.4411 H   0  0  0  0  0  0
  -28.7629  -12.2410   21.4344 H   0  0  0  0  0  0
  -28.3784  -13.9033   21.7956 H   0  0  0  0  0  0
  -25.2770   -9.5636   22.4792 H   0  0  0  0  0  0
  -23.9983   -7.4603   22.7499 H   0  0  0  0  0  0
  -21.0848   -8.8770   19.8957 H   0  0  0  0  0  0
  -22.3736  -10.9651   19.6177 H   0  0  0  0  0  0
  -21.2005   -7.6143   23.9722 H   0  0  0  0  0  0
  -21.1476   -6.0516   25.9080 H   0  0  0  0  0  0
  -22.0599   -2.7606   23.2852 H   0  0  0  0  0  0
  -22.4042  -11.9823   22.4818 H   0  0  0  0  0  0
  -21.1070  -13.1226   22.2674 H   0  0  0  0  0  0
  -24.6140  -15.8214   20.5120 H   0  0  0  0  0  0
  -26.2491  -15.6507   20.1411 H   0  0  0  0  0  0
  -26.7247  -32.5335   23.0993 H   0  0  0  0  0  0
  -25.0090  -33.9643   25.0330 H   0  0  0  0  0  0
  -22.7447  -31.2869   21.3741 H   0  0  0  0  0  0
  -23.3775  -35.9573   23.3274 H   0  0  0  0  0  0
  -24.3580  -36.8924   22.2058 H   0  0  0  0  0  0
  -23.7242  -37.6442   23.6708 H   0  0  0  0  0  0
  -26.1394  -31.4748   20.6022 H   0  0  0  0  0  0
  -26.8717  -30.7852   22.0170 H   0  0  0  0  0  0
  -28.1399  -28.8287   21.2276 H   0  0  0  0  0  0
  -25.9654  -25.8338   19.0263 H   0  0  0  0  0  0
  -23.9857  -27.2761   19.0041 H   0  0  0  0  0  0
  -23.8094  -30.5607   19.3968 H   0  0  0  0  0  0
  -22.7874  -29.2283   19.8429 H   0  0  0  0  0  0
  -25.1307  -36.1855   25.0806 H   0  0  0  0  0  0
  -20.9985  -28.3337   24.1368 H   0  0  0  0  0  0
  -20.5698  -26.2342   23.3636 H   0  0  0  0  0  0
  -21.6674  -26.7440   22.1218 H   0  0  0  0  0  0
  -19.6955  -25.6283   21.1279 H   0  0  0  0  0  0
  -19.6750  -27.3168   20.6725 H   0  0  0  0  0  0
  -17.4224  -26.6711   21.3981 H   0  0  0  0  0  0
  -18.0314  -26.0082   22.8979 H   0  0  0  0  0  0
  -19.7972  -30.7285   24.2239 H   0  0  0  0  0  0
  -17.5062  -31.6283   24.5169 H   0  0  0  0  0  0
  -15.5392  -30.3017   23.7683 H   0  0  0  0  0  0
  -15.8684  -28.0866   22.7060 H   0  0  0  0  0  0
  -24.5952  -30.6992   25.7744 H   0  0  0  0  0  0
  -24.8735  -32.2960   26.4578 H   0  0  0  0  0  0
  -25.7944  -30.9176   27.0286 H   0  0  0  0  0  0
  -26.2960  -29.6703   24.1232 H   0  0  0  0  0  0
  -27.3989  -29.7241   25.4789 H   0  0  0  0  0  0
  -27.8861  -30.4223   23.9527 H   0  0  0  0  0  0
  -27.2674  -33.3707   26.1900 H   0  0  0  0  0  0
  -28.3943  -32.6729   25.0347 H   0  0  0  0  0  0
  -28.0596  -31.8521   26.5517 H   0  0  0  0  0  0
  -28.2563  -38.0099   24.7503 H   0  0  0  0  0  0
  -28.1096  -36.2630   24.6273 H   0  0  0  0  0  0
  -27.2299  -37.1406   25.8858 H   0  0  0  0  0  0
  -20.9452  -29.8792   21.6812 H   0  0  0  0  0  0
  -26.0147  -38.2811   24.1446 H   0  0  0  0  0  0
  -31.3326  -18.2750   19.7151 H   0  0  0  0  0  0
  -27.0806  -19.7910   21.6140 H   0  0  0  0  0  0
  -26.4375  -23.4843   23.4775 H   0  0  0  0  0  0
  -28.1578  -23.7497   23.3965 H   0  0  0  0  0  0
  -26.9116  -25.6313   22.4049 H   0  0  0  0  0  0
  -26.1192  -24.5707   21.2557 H   0  0  0  0  0  0
  -26.4682  -21.9595   21.6039 H   0  0  0  0  0  0
  -27.6461  -21.4904   22.8149 H   0  0  0  0  0  0
  -29.0851  -24.9978   21.5712 H   0  0  0  0  0  0
  -32.1721  -20.4985   19.7280 H   0  0  0  0  0  0
  -31.2272  -21.8997   20.1927 H   0  0  0  0  0  0
  -31.0123  -21.1824   18.5895 H   0  0  0  0  0  0
  -28.7655  -15.6438   21.0490 H   0  0  0  0  0  0
  1 25  1  0  0  0
  1 30  2  0  0  0
  1 84  1  0  0  0
  2  3  1  0  0  0
  2 25  1  0  0  0
  2 87  1  0  0  0
  2 88  1  0  0  0
  3  4  1  0  0  0
  3 89  1  0  0  0
  3 90  1  0  0  0
  4  5  1  0  0  0
  4 91  1  0  0  0
  4 92  1  0  0  0
  5  6  1  0  0  0
  5 26  1  0  0  0
  5 93  1  0  0  0
  6 25  1  0  0  0
  6 94  1  0  0  0
  6 95  1  0  0  0
  7  8  2  0  0  0
  7 26  1  0  0  0
  7 29  1  0  0  0
  8  9  1  0  0  0
  8 22  1  0  0  0
  9 10  1  0  0  0
  9 27  2  0  0  0
 10 11  2  0  0  0
 10 15  1  0  0  0
 11 12  1  0  0  0
 11 96  1  0  0  0
 12 13  2  0  0  0
 12 97  1  0  0  0
 13 14  1  0  0  0
 13 31  1  0  0  0
 14 15  2  0  0  0
 14 98  1  0  0  0
 15 99  1  0  0  0
 16 17  2  0  0  0
 16 21  1  0  0  0
 16 31  1  0  0  0
 17 18  1  0  0  0
 17100  1  0  0  0
 18 19  2  0  0  0
 18101  1  0  0  0
 19 20  1  0  0  0
 19 24  1  0  0  0
 20 21  2  0  0  0
 20102  1  0  0  0
 21 23  1  0  0  0
 22 28  1  0  0  0
 22 32  2  0  0  0
 26 27  1  0  0  0
 28103  1  0  0  0
 28104  1  0  0  0
 29105  1  0  0  0
 29106  1  0  0  0
 33 34  1  0  0  0
 33 66  1  0  0  0
 33 70  2  0  0  0
 34 36  1  0  0  0
 34 59  1  0  0  0
 34107  1  0  0  0
 35 44  2  0  0  0
 35 45  1  0  0  0
 35 68  1  0  0  0
 36 56  1  0  0  0
 36108  1  0  0  0
 37 39  1  0  0  0
 37 47  1  0  0  0
 37 66  1  0  0  0
 37109  1  0  0  0
 38 43  2  0  0  0
 38 46  1  0  0  0
 38 47  1  0  0  0
 39 64  1  0  0  0
 39 67  2  0  0  0
 40 52  1  0  0  0
 40 53  2  0  0  0
 40 58  1  0  0  0
 41110  1  0  0  0
 41111  1  0  0  0
 41112  1  0  0  0
 41 48  1  0  0  0
 42 43  1  0  0  0
 42 66  1  0  0  0
 42113  1  0  0  0
 42114  1  0  0  0
 43 44  1  0  0  0
 44115  1  0  0  0
 45 46  2  0  0  0
 45116  1  0  0  0
 46117  1  0  0  0
 47118  1  0  0  0
 47119  1  0  0  0
 48 56  1  0  0  0
 48 65  1  0  0  0
 48120  1  0  0  0
 49 50  1  0  0  0
 49 53  1  0  0  0
 49 64  1  0  0  0
 49121  1  0  0  0
 50 51  1  0  0  0
 50122  1  0  0  0
 50123  1  0  0  0
 51 52  1  0  0  0
 51124  1  0  0  0
 51125  1  0  0  0
 52126  1  0  0  0
 52127  1  0  0  0
 53 54  1  0  0  0
 54 55  2  0  0  0
 54128  1  0  0  0
 55 57  1  0  0  0
 55129  1  0  0  0
 56 69  2  0  0  0
 57 58  2  0  0  0
 57130  1  0  0  0
 58131  1  0  0  0
 59 60  1  0  0  0
 59 61  1  0  0  0
 59 62  1  0  0  0
 60132  1  0  0  0
 60133  1  0  0  0
 60134  1  0  0  0
 61135  1  0  0  0
 61136  1  0  0  0
 61137  1  0  0  0
 62138  1  0  0  0
 62139  1  0  0  0
 62140  1  0  0  0
 63 65  1  0  0  0
 63141  1  0  0  0
 63142  1  0  0  0
 63143  1  0  0  0
 64144  1  0  0  0
 65145  1  0  0  0
 68 81  1  0  0  0
 71 73  2  0  0  0
 71 75  1  0  0  0
 71146  1  0  0  0
 72 74  2  0  0  0
 72 76  1  0  0  0
 72147  1  0  0  0
 73 74  1  0  0  0
 73 82  1  0  0  0
 74 83  1  0  0  0
 75 76  2  0  0  0
 75 84  1  0  0  0
 76 86  1  0  0  0
 77 81  1  0  0  0
 77 83  1  0  0  0
 77 85  2  0  0  0
 78 79  1  0  0  0
 78 80  1  0  0  0
 78148  1  0  0  0
 78149  1  0  0  0
 79 81  1  0  0  0
 79150  1  0  0  0
 79151  1  0  0  0
 80 83  1  0  0  0
 80152  1  0  0  0
 80153  1  0  0  0
 81154  1  0  0  0
 82155  1  0  0  0
 82156  1  0  0  0
 82157  1  0  0  0
 84158  1  0  0  0
M  ISO  4   1 100  68 101  81 101  84 100
M  END
> <chiral flag>
0

> <version>
0

> <s_m_source_file>
/data/baiqing/PycharmProjects/Reinvent-master-3.2/result/LINK_invent/BTK/process_docking_weight1_custom_product_contain_oxygen_bond_distance_aromatic_linkinvent_7_9_3/rearranged_h_0047.sdf

> <i_m_source_file_index>
82

> <r_mmod_Potential_Energy-OPLS-2005>
623.042907714844

> <r_mmod_Stretch_Energy-OPLS-2005>
249.109283447266

> <r_mmod_Bend_Energy-OPLS-2005>
317.416412353516

> <r_mmod_Torsional_Energy-OPLS-2005>
281.720062255859

> <r_mmod_Improper_Torsional_Energy-OPLS-2005>
4.04364490509033

> <r_mmod_Van_der_Waal_Energy-OPLS-2005>
146.508605957031

> <r_mmod_Electrostatic_Energy-OPLS-2005>
-339.076629638672

> <r_mmod_Solvation_Energy-OPLS-2005>
-215.964889526367

> <b_mmod_Minimization_Converged-OPLS-2005>
0

> <r_mmod_RMS_Derivative-OPLS-2005>
1.70423805713654

$$$$
82
                    3D
 Structure written by MMmdl.
168177  0  0  1  0            999 V2000
  -30.7700  -14.3759   20.6762 C   0  0  0  0  0  0
  -30.4115  -12.2951   19.3926 C   0  0  0  0  0  0
  -29.4787  -12.5206   18.1885 C   0  0  0  0  0  0
  -28.0040  -12.3756   18.6086 C   0  0  0  0  0  0
  -27.6607  -13.2043   19.8743 C   0  0  2  0  0  0
  -28.7009  -12.9579   20.9888 C   0  0  0  0  0  0
  -25.2579  -13.8159   20.5667 C   0  0  0  0  0  0
  -24.1824  -13.0440   20.9162 C   0  0  0  0  0  0
  -24.6375  -11.6903   20.8721 C   0  0  0  0  0  0
  -23.9047  -10.4289   21.0391 C   0  0  0  0  0  0
  -24.3603   -9.4210   21.9172 C   0  0  0  0  0  0
  -23.6282   -8.2242   22.0746 C   0  0  0  0  0  0
  -22.4264   -8.0275   21.3536 C   0  0  0  0  0  0
  -21.9892   -9.0247   20.4640 C   0  0  0  0  0  0
  -22.7216  -10.2128   20.3046 C   0  0  0  0  0  0
  -21.6853   -6.0728   22.5276 C   0  0  0  0  0  0
  -21.4012   -6.5632   23.8210 C   0  0  0  0  0  0
  -21.3662   -5.6786   24.9173 C   0  0  0  0  0  0
  -21.6046   -4.3047   24.7222 C   0  0  0  0  0  0
  -21.8823   -3.8139   23.4345 C   0  0  0  0  0  0
  -21.9189   -4.6956   22.3399 C   0  0  0  0  0  0
  -22.7850  -13.5237   21.1842 C   0  0  0  0  0  0
  -22.1659   -4.2140   21.0978 F   0  0  0  0  0  0
  -21.5633   -3.4532   25.7736 F   0  0  0  0  0  0
  -30.0384  -13.2539   20.4435 N   0  0  0  0  0  0
  -26.3012  -12.9324   20.3360 N   0  0  0  0  0  0
  -25.9300  -11.6484   20.5750 N   0  0  0  0  0  0
  -22.0502  -12.8227   22.0408 N   0  0  0  0  0  0
  -25.4314  -15.1881   20.4079 N   0  0  0  0  0  0
  -31.8257  -14.6244   20.0856 O   0  0  0  0  0  0
  -21.6631   -6.8872   21.4238 O   0  0  0  0  0  0
  -22.3528  -14.5541   20.6696 O   0  0  0  0  0  0
  -24.6109  -31.8714   23.2093 C   0  0  0  0  0  0
  -25.9023  -32.4840   23.8383 C   0  0  1  0  0  0
  -27.2351  -27.4584   20.0917 C   0  0  0  0  0  0
  -25.5885  -33.8638   24.2335 N   0  0  0  0  0  0
  -23.3971  -30.4969   21.5486 C   0  0  2  0  0  0
  -24.8411  -28.9647   20.1136 C   0  0  0  0  0  0
  -22.7393  -29.4700   22.4980 C   0  0  0  0  0  0
  -18.0285  -28.1393   22.8515 C   0  0  0  0  0  0
  -24.1476  -36.7313   23.2648 C   0  0  0  0  0  0
  -25.9209  -30.8467   21.3542 C   0  0  0  0  0  0
  -25.9979  -29.4818   20.7053 C   0  0  0  0  0  0
  -27.1960  -28.7379   20.6884 C   0  0  0  0  0  0
  -26.0525  -26.9444   19.5078 C   0  0  0  0  0  0
  -24.8616  -27.6938   19.5136 C   0  0  0  0  0  0
  -23.6024  -29.8301   20.1610 C   0  0  0  0  0  0
  -25.4104  -36.3125   24.0349 C   0  0  1  0  0  0
  -20.5874  -28.3676   23.1323 C   0  0  2  0  0  0
  -20.6782  -26.9414   22.5410 C   0  0  0  0  0  0
  -19.5743  -26.6393   21.5225 C   0  0  0  0  0  0
  -18.1923  -26.7947   22.1629 C   0  0  0  0  0  0
  -19.1533  -28.8851   23.2922 C   0  0  0  0  0  0
  -18.9461  -30.1470   23.8916 C   0  0  0  0  0  0
  -17.6467  -30.6597   24.0591 C   0  0  0  0  0  0
  -25.9025  -34.9493   23.5145 C   0  0  0  0  0  0
  -16.5361  -29.9107   23.6327 C   0  0  0  0  0  0
  -16.7275  -28.6527   23.0347 C   0  0  0  0  0  0
  -26.4481  -31.6598   25.0695 C   0  0  0  0  0  0
  -25.3772  -31.3667   26.1451 C   0  0  0  0  0  0
  -27.0313  -30.3067   24.6012 C   0  0  0  0  0  0
  -27.6061  -32.4311   25.7462 C   0  0  0  0  0  0
  -27.5579  -37.1815   24.8482 C   0  0  0  0  0  0
  -21.4126  -29.3039   22.3722 N   0  0  0  0  0  0
  -26.4289  -37.3814   23.9428 N   0  0  0  0  0  0
  -24.6618  -31.0858   22.0958 N   0  0  0  0  0  0
  -23.4180  -28.8247   23.3016 O   0  0  0  0  0  0
  -28.4355  -26.7790   20.1128 O   0  0  0  0  0  0
  -26.5582  -34.8945   22.4699 O   0  0  0  0  0  0
  -23.5310  -32.1440   23.7494 O   0  0  0  0  0  0
  -32.9143  -17.1258   23.4165 C   0  0  0  0  0  0
  -32.2246  -18.3164   23.7096 C   0  0  0  0  0  0
  -32.2787  -16.1058   22.6879 C   0  0  0  0  0  0
  -30.8978  -18.5032   23.2633 C   0  0  0  0  0  0
  -30.9457  -16.2735   22.2417 C   0  0  0  0  0  0
  -30.2567  -17.4747   22.5300 C   0  0  0  0  0  0
  -27.8272  -25.0906   22.2931 C   0  0  0  0  0  0
  -28.0112  -24.5172   21.0819 C   0  0  0  0  0  0
  -27.8653  -23.0589   20.9779 C   0  0  0  0  0  0
  -27.7504  -22.4413   19.7873 C   0  0  0  0  0  0
  -30.2399  -19.7699   23.5919 C   0  0  0  0  0  0
  -27.4238  -24.3579   23.5638 C   0  0  0  0  0  0
  -26.9834  -22.9067   23.3035 C   0  0  0  0  0  0
  -27.8609  -22.2121   22.2509 C   0  0  2  0  0  0
  -28.4617  -25.3665   19.8825 C   0  0  0  0  0  0
  -29.2945  -21.9721   22.7767 C   0  0  0  0  0  0
  -30.2003  -20.1668   24.8655 N   0  0  0  0  0  0
  -30.2543  -15.2267   21.5736 N   0  0  0  0  0  0
  -29.7373  -20.5690   22.6364 N   0  3  0  0  0  0
  -28.9747  -17.6203   22.1094 F   0  0  0  0  0  0
  -31.4546  -12.3897   19.0860 H   0  0  0  0  0  0
  -30.3051  -11.2752   19.7666 H   0  0  0  0  0  0
  -29.7100  -11.8117   17.3922 H   0  0  0  0  0  0
  -29.6475  -13.5155   17.7723 H   0  0  0  0  0  0
  -27.8169  -11.3174   18.7968 H   0  0  0  0  0  0
  -27.3465  -12.6564   17.7850 H   0  0  0  0  0  0
  -27.7134  -14.2568   19.5934 H   0  0  0  0  0  0
  -28.6679  -11.9149   21.3067 H   0  0  0  0  0  0
  -28.4505  -13.5347   21.8789 H   0  0  0  0  0  0
  -25.2759   -9.5683   22.4733 H   0  0  0  0  0  0
  -23.9995   -7.4633   22.7461 H   0  0  0  0  0  0
  -21.0823   -8.8759   19.8946 H   0  0  0  0  0  0
  -22.3676  -10.9657   19.6144 H   0  0  0  0  0  0
  -21.2003   -7.6141   23.9712 H   0  0  0  0  0  0
  -21.1483   -6.0514   25.9077 H   0  0  0  0  0  0
  -22.0597   -2.7600   23.2845 H   0  0  0  0  0  0
  -22.4119  -11.9888   22.4790 H   0  0  0  0  0  0
  -21.1125  -13.1250   22.2623 H   0  0  0  0  0  0
  -24.6682  -15.8470   20.5174 H   0  0  0  0  0  0
  -26.2922  -15.6276   20.1064 H   0  0  0  0  0  0
  -26.7090  -32.5567   23.1144 H   0  0  0  0  0  0
  -25.0116  -33.9816   25.0534 H   0  0  0  0  0  0
  -22.6849  -31.3130   21.4117 H   0  0  0  0  0  0
  -23.3751  -35.9631   23.3331 H   0  0  0  0  0  0
  -24.3565  -36.8885   22.2056 H   0  0  0  0  0  0
  -23.7209  -37.6525   23.6638 H   0  0  0  0  0  0
  -26.0259  -31.6095   20.5809 H   0  0  0  0  0  0
  -26.8114  -30.9035   21.9662 H   0  0  0  0  0  0
  -28.0894  -29.1413   21.1443 H   0  0  0  0  0  0
  -26.0210  -25.9734   19.0398 H   0  0  0  0  0  0
  -23.9695  -27.2894   19.0576 H   0  0  0  0  0  0
  -23.7115  -30.6043   19.3998 H   0  0  0  0  0  0
  -22.7266  -29.2501   19.8660 H   0  0  0  0  0  0
  -25.1278  -36.1994   25.0841 H   0  0  0  0  0  0
  -21.0002  -28.3236   24.1430 H   0  0  0  0  0  0
  -20.5707  -26.2289   23.3592 H   0  0  0  0  0  0
  -21.6651  -26.7465   22.1189 H   0  0  0  0  0  0
  -19.6898  -25.6305   21.1236 H   0  0  0  0  0  0
  -19.6687  -27.3240   20.6781 H   0  0  0  0  0  0
  -17.4208  -26.6743   21.4012 H   0  0  0  0  0  0
  -18.0295  -26.0087   22.9017 H   0  0  0  0  0  0
  -19.7944  -30.7294   24.2277 H   0  0  0  0  0  0
  -17.5025  -31.6279   24.5186 H   0  0  0  0  0  0
  -15.5369  -30.3016   23.7636 H   0  0  0  0  0  0
  -15.8680  -28.0850   22.7028 H   0  0  0  0  0  0
  -24.5973  -30.6978   25.7792 H   0  0  0  0  0  0
  -24.8936  -32.2806   26.4909 H   0  0  0  0  0  0
  -25.8156  -30.8849   27.0192 H   0  0  0  0  0  0
  -26.2809  -29.6794   24.1181 H   0  0  0  0  0  0
  -27.4272  -29.7330   25.4393 H   0  0  0  0  0  0
  -27.8564  -30.4451   23.9018 H   0  0  0  0  0  0
  -27.2701  -33.3620   26.2050 H   0  0  0  0  0  0
  -28.3884  -32.6832   25.0293 H   0  0  0  0  0  0
  -28.0728  -31.8418   26.5367 H   0  0  0  0  0  0
  -28.2628  -38.0085   24.7531 H   0  0  0  0  0  0
  -28.1041  -36.2621   24.6315 H   0  0  0  0  0  0
  -27.2301  -37.1473   25.8885 H   0  0  0  0  0  0
  -20.9260  -29.8751   21.6957 H   0  0  0  0  0  0
  -26.0182  -38.2893   24.1426 H   0  0  0  0  0  0
  -33.9316  -16.9895   23.7557 H   0  0  0  0  0  0
  -32.7240  -19.0961   24.2692 H   0  0  0  0  0  0
  -32.8235  -15.1936   22.4943 H   0  0  0  0  0  0
  -27.9852  -26.1520   22.4176 H   0  0  0  0  0  0
  -27.7444  -22.9713   18.8479 H   0  0  0  0  0  0
  -27.6482  -21.3677   19.7268 H   0  0  0  0  0  0
  -26.6182  -24.9063   24.0547 H   0  0  0  0  0  0
  -28.2712  -24.3819   24.2499 H   0  0  0  0  0  0
  -25.9518  -22.9123   22.9492 H   0  0  0  0  0  0
  -26.9781  -22.3362   24.2351 H   0  0  0  0  0  0
  -27.3919  -21.2521   22.0303 H   0  0  0  0  0  0
  -27.9375  -25.1115   18.9647 H   0  0  0  0  0  0
  -29.5038  -25.1054   19.6919 H   0  0  0  0  0  0
  -29.3621  -22.2913   23.8161 H   0  0  0  0  0  0
  -30.0037  -22.6095   22.2474 H   0  0  0  0  0  0
  -30.5910  -19.5683   25.5781 H   0  0  0  0  0  0
  -29.6842  -20.9785   25.1600 H   0  0  0  0  0  0
  -29.2903  -15.0862   21.8329 H   0  0  0  0  0  0
  -29.8038  -20.2240   21.6858 H   0  0  0  0  0  0
  1 25  1  0  0  0
  1 30  2  0  0  0
  1 88  1  0  0  0
  2  3  1  0  0  0
  2 25  1  0  0  0
  2 91  1  0  0  0
  2 92  1  0  0  0
  3  4  1  0  0  0
  3 93  1  0  0  0
  3 94  1  0  0  0
  4  5  1  0  0  0
  4 95  1  0  0  0
  4 96  1  0  0  0
  5  6  1  0  0  0
  5 26  1  0  0  0
  5 97  1  0  0  0
  6 25  1  0  0  0
  6 98  1  0  0  0
  6 99  1  0  0  0
  7  8  2  0  0  0
  7 26  1  0  0  0
  7 29  1  0  0  0
  8  9  1  0  0  0
  8 22  1  0  0  0
  9 10  1  0  0  0
  9 27  2  0  0  0
 10 11  2  0  0  0
 10 15  1  0  0  0
 11 12  1  0  0  0
 11100  1  0  0  0
 12 13  2  0  0  0
 12101  1  0  0  0
 13 14  1  0  0  0
 13 31  1  0  0  0
 14 15  2  0  0  0
 14102  1  0  0  0
 15103  1  0  0  0
 16 17  2  0  0  0
 16 21  1  0  0  0
 16 31  1  0  0  0
 17 18  1  0  0  0
 17104  1  0  0  0
 18 19  2  0  0  0
 18105  1  0  0  0
 19 20  1  0  0  0
 19 24  1  0  0  0
 20 21  2  0  0  0
 20106  1  0  0  0
 21 23  1  0  0  0
 22 28  1  0  0  0
 22 32  2  0  0  0
 26 27  1  0  0  0
 28107  1  0  0  0
 28108  1  0  0  0
 29109  1  0  0  0
 29110  1  0  0  0
 33 34  1  0  0  0
 33 66  1  0  0  0
 33 70  2  0  0  0
 34 36  1  0  0  0
 34 59  1  0  0  0
 34111  1  0  0  0
 35 44  2  0  0  0
 35 45  1  0  0  0
 35 68  1  0  0  0
 36 56  1  0  0  0
 36112  1  0  0  0
 37 39  1  0  0  0
 37 47  1  0  0  0
 37 66  1  0  0  0
 37113  1  0  0  0
 38 43  2  0  0  0
 38 46  1  0  0  0
 38 47  1  0  0  0
 39 64  1  0  0  0
 39 67  2  0  0  0
 40 52  1  0  0  0
 40 53  2  0  0  0
 40 58  1  0  0  0
 41114  1  0  0  0
 41115  1  0  0  0
 41116  1  0  0  0
 41 48  1  0  0  0
 42 43  1  0  0  0
 42 66  1  0  0  0
 42117  1  0  0  0
 42118  1  0  0  0
 43 44  1  0  0  0
 44119  1  0  0  0
 45 46  2  0  0  0
 45120  1  0  0  0
 46121  1  0  0  0
 47122  1  0  0  0
 47123  1  0  0  0
 48 56  1  0  0  0
 48 65  1  0  0  0
 48124  1  0  0  0
 49 50  1  0  0  0
 49 53  1  0  0  0
 49 64  1  0  0  0
 49125  1  0  0  0
 50 51  1  0  0  0
 50126  1  0  0  0
 50127  1  0  0  0
 51 52  1  0  0  0
 51128  1  0  0  0
 51129  1  0  0  0
 52130  1  0  0  0
 52131  1  0  0  0
 53 54  1  0  0  0
 54 55  2  0  0  0
 54132  1  0  0  0
 55 57  1  0  0  0
 55133  1  0  0  0
 56 69  2  0  0  0
 57 58  2  0  0  0
 57134  1  0  0  0
 58135  1  0  0  0
 59 60  1  0  0  0
 59 61  1  0  0  0
 59 62  1  0  0  0
 60136  1  0  0  0
 60137  1  0  0  0
 60138  1  0  0  0
 61139  1  0  0  0
 61140  1  0  0  0
 61141  1  0  0  0
 62142  1  0  0  0
 62143  1  0  0  0
 62144  1  0  0  0
 63 65  1  0  0  0
 63145  1  0  0  0
 63146  1  0  0  0
 63147  1  0  0  0
 64148  1  0  0  0
 65149  1  0  0  0
 68 85  1  0  0  0
 71 72  2  0  0  0
 71 73  1  0  0  0
 71150  1  0  0  0
 72 74  1  0  0  0
 72151  1  0  0  0
 73 75  2  0  0  0
 73152  1  0  0  0
 74 76  2  0  0  0
 74 81  1  0  0  0
 75 76  1  0  0  0
 75 88  1  0  0  0
 76 90  1  0  0  0
 77 78  2  0  0  0
 77 82  1  0  0  0
 77153  1  0  0  0
 78 79  1  0  0  0
 78 85  1  0  0  0
 79 80  2  0  0  0
 79 84  1  0  0  0
 80154  1  0  0  0
 80155  1  0  0  0
 81 87  1  0  0  0
 81 89  2  0  0  0
 82 83  1  0  0  0
 82156  1  0  0  0
 82157  1  0  0  0
 83 84  1  0  0  0
 83158  1  0  0  0
 83159  1  0  0  0
 84 86  1  0  0  0
 84160  1  0  0  0
 85161  1  0  0  0
 85162  1  0  0  0
 86 89  1  0  0  0
 86163  1  0  0  0
 86164  1  0  0  0
 87165  1  0  0  0
 87166  1  0  0  0
 88167  1  0  0  0
 89168  1  0  0  0
M  CHG  1  89   1
M  ISO  4   1 100  68 101  85 101  88 100
M  END
> <chiral flag>
0

> <version>
0

> <s_m_source_file>
/data/baiqing/PycharmProjects/Reinvent-master-3.2/result/LINK_invent/BTK/process_docking_weight1_custom_product_contain_oxygen_bond_distance_aromatic_linkinvent_7_9_3/rearranged_h_0047.sdf

> <i_m_source_file_index>
83

> <r_mmod_Potential_Energy-OPLS-2005>
-208.836380004883

> <r_mmod_Stretch_Energy-OPLS-2005>
36.4151420593262

> <r_mmod_Bend_Energy-OPLS-2005>
110.085052490234

> <r_mmod_Torsional_Energy-OPLS-2005>
246.035385131836

> <r_mmod_Improper_Torsional_Energy-OPLS-2005>
2.48007535934448

> <r_mmod_Van_der_Waal_Energy-OPLS-2005>
177.277481079102

> <r_mmod_Electrostatic_Energy-OPLS-2005>
-392.459228515625

> <r_mmod_Solvation_Energy-OPLS-2005>
-397.404327392578

> <b_mmod_Minimization_Converged-OPLS-2005>
0

> <r_mmod_RMS_Derivative-OPLS-2005>
2.31487417221069

$$$$
83
                    3D
 Structure written by MMmdl.
157165  0  0  1  0            999 V2000
  -30.6207  -14.7529   20.4880 C   0  0  0  0  0  0
  -30.4370  -12.4680   19.4694 C   0  0  0  0  0  0
  -29.5127  -12.5172   18.2325 C   0  0  0  0  0  0
  -28.0392  -12.3348   18.6483 C   0  0  0  0  0  0
  -27.6426  -13.2321   19.8487 C   0  0  2  0  0  0
  -28.6891  -13.1762   20.9826 C   0  0  0  0  0  0
  -25.2508  -13.8172   20.5708 C   0  0  0  0  0  0
  -24.1793  -13.0422   20.9201 C   0  0  0  0  0  0
  -24.6351  -11.6895   20.8706 C   0  0  0  0  0  0
  -23.9003  -10.4274   21.0371 C   0  0  0  0  0  0
  -24.3560   -9.4221   21.9170 C   0  0  0  0  0  0
  -23.6268   -8.2227   22.0736 C   0  0  0  0  0  0
  -22.4269   -8.0244   21.3523 C   0  0  0  0  0  0
  -21.9880   -9.0208   20.4623 C   0  0  0  0  0  0
  -22.7159  -10.2102   20.3028 C   0  0  0  0  0  0
  -21.6841   -6.0712   22.5260 C   0  0  0  0  0  0
  -21.4016   -6.5632   23.8195 C   0  0  0  0  0  0
  -21.3664   -5.6786   24.9167 C   0  0  0  0  0  0
  -21.6048   -4.3040   24.7213 C   0  0  0  0  0  0
  -21.8826   -3.8121   23.4327 C   0  0  0  0  0  0
  -21.9193   -4.6947   22.3380 C   0  0  0  0  0  0
  -22.7817  -13.5221   21.1863 C   0  0  0  0  0  0
  -22.1656   -4.2132   21.0949 F   0  0  0  0  0  0
  -21.5643   -3.4520   25.7723 F   0  0  0  0  0  0
  -29.9881  -13.5321   20.3980 N   0  0  0  0  0  0
  -26.2927  -12.9385   20.3261 N   0  0  0  0  0  0
  -25.9288  -11.6519   20.5705 N   0  0  0  0  0  0
  -22.0435  -12.8213   22.0407 N   0  0  0  0  0  0
  -25.4216  -15.1897   20.4137 N   0  0  0  0  0  0
  -31.8143  -14.8406   20.1825 O   0  0  0  0  0  0
  -21.6622   -6.8853   21.4218 O   0  0  0  0  0  0
  -22.3515  -14.5527   20.6711 O   0  0  0  0  0  0
  -24.6338  -31.8553   23.1955 C   0  0  0  0  0  0
  -25.9151  -32.4752   23.8322 C   0  0  1  0  0  0
  -27.2286  -27.2622   20.1548 C   0  0  0  0  0  0
  -25.5936  -33.8549   24.2259 N   0  0  0  0  0  0
  -23.4305  -30.4762   21.5399 C   0  0  2  0  0  0
  -24.8798  -28.9140   20.1159 C   0  0  0  0  0  0
  -22.7523  -29.4613   22.4912 C   0  0  0  0  0  0
  -18.0304  -28.1375   22.8486 C   0  0  0  0  0  0
  -24.1496  -36.7292   23.2635 C   0  0  0  0  0  0
  -25.9750  -30.7713   21.3731 C   0  0  0  0  0  0
  -26.0507  -29.3907   20.7200 C   0  0  0  0  0  0
  -27.2312  -28.5817   20.7186 C   0  0  0  0  0  0
  -26.0381  -26.8436   19.5242 C   0  0  0  0  0  0
  -24.8791  -27.6494   19.5021 C   0  0  0  0  0  0
  -23.6498  -29.8024   20.1587 C   0  0  0  0  0  0
  -25.4119  -36.3061   24.0343 C   0  0  1  0  0  0
  -20.5911  -28.3694   23.1264 C   0  0  2  0  0  0
  -20.6788  -26.9406   22.5402 C   0  0  0  0  0  0
  -19.5758  -26.6382   21.5203 C   0  0  0  0  0  0
  -18.1942  -26.7923   22.1618 C   0  0  0  0  0  0
  -19.1552  -28.8850   23.2872 C   0  0  0  0  0  0
  -18.9474  -30.1453   23.8885 C   0  0  0  0  0  0
  -17.6467  -30.6571   24.0553 C   0  0  0  0  0  0
  -25.9065  -34.9435   23.5101 C   0  0  0  0  0  0
  -16.5359  -29.9065   23.6322 C   0  0  0  0  0  0
  -16.7283  -28.6486   23.0344 C   0  0  0  0  0  0
  -26.4502  -31.6561   25.0714 C   0  0  0  0  0  0
  -25.3721  -31.3698   26.1432 C   0  0  0  0  0  0
  -27.0341  -30.2974   24.6188 C   0  0  0  0  0  0
  -27.6074  -32.4288   25.7479 C   0  0  0  0  0  0
  -27.5603  -37.1781   24.8451 C   0  0  0  0  0  0
  -21.4230  -29.3035   22.3648 N   0  0  0  0  0  0
  -26.4280  -37.3777   23.9428 N   0  0  0  0  0  0
  -24.6987  -31.0530   22.0927 N   0  0  0  0  0  0
  -23.4214  -28.8177   23.3030 O   0  0  0  0  0  0
  -28.3298  -26.3796   20.1708 O   0  0  0  0  0  0
  -26.5648  -34.8920   22.4674 O   0  0  0  0  0  0
  -23.5487  -32.1360   23.7256 O   0  0  0  0  0  0
  -31.3684  -17.6036   21.6515 C   0  0  0  0  0  0
  -29.4485  -18.4753   20.4677 C   0  0  0  0  0  0
  -31.7483  -18.9296   21.9704 C   0  0  0  0  0  0
  -29.8137  -19.8635   20.7380 C   0  0  0  0  0  0
  -31.0089  -20.0539   21.4943 C   0  0  0  0  0  0
  -30.2185  -17.3155   20.8900 C   0  0  0  0  0  0
  -28.6656  -23.7159   20.0804 C   0  0  0  0  0  0
  -32.9846  -19.1061   22.8480 C   0  0  0  0  0  0
  -31.5310  -21.4606   21.7754 C   0  0  0  0  0  0
  -28.9830  -21.0935   20.1182 C   0  0  0  0  0  0
  -28.1829  -25.0423   20.8501 C   0  0  0  0  0  0
  -29.8424  -15.8937   20.6559 N   0  0  0  0  0  0
  -28.8562  -22.4972   20.7289 N   0  0  0  0  0  0
  -28.8194  -23.7852   18.8589 O   0  0  0  0  0  0
  -31.4753  -12.5988   19.1649 H   0  0  0  0  0  0
  -30.3847  -11.4902   19.9522 H   0  0  0  0  0  0
  -29.7998  -11.7502   17.5111 H   0  0  0  0  0  0
  -29.6334  -13.4766   17.7258 H   0  0  0  0  0  0
  -27.8950  -11.2869   18.9114 H   0  0  0  0  0  0
  -27.3794  -12.5327   17.8025 H   0  0  0  0  0  0
  -27.6334  -14.2504   19.4612 H   0  0  0  0  0  0
  -28.7298  -12.1814   21.4262 H   0  0  0  0  0  0
  -28.4229  -13.8600   21.7870 H   0  0  0  0  0  0
  -25.2693   -9.5737   22.4764 H   0  0  0  0  0  0
  -24.0007   -7.4625   22.7464 H   0  0  0  0  0  0
  -21.0803   -8.8644   19.8956 H   0  0  0  0  0  0
  -22.3545  -10.9615   19.6138 H   0  0  0  0  0  0
  -21.2001   -7.6151   23.9687 H   0  0  0  0  0  0
  -21.1499   -6.0516   25.9073 H   0  0  0  0  0  0
  -22.0612   -2.7586   23.2782 H   0  0  0  0  0  0
  -22.4033  -11.9875   22.4822 H   0  0  0  0  0  0
  -21.1045  -13.1264   22.2553 H   0  0  0  0  0  0
  -24.6599  -15.8446   20.5557 H   0  0  0  0  0  0
  -26.2541  -15.6278   20.0424 H   0  0  0  0  0  0
  -26.7223  -32.5396   23.1075 H   0  0  0  0  0  0
  -25.0057  -33.9662   25.0380 H   0  0  0  0  0  0
  -22.7271  -31.2979   21.3895 H   0  0  0  0  0  0
  -23.3766  -35.9616   23.3271 H   0  0  0  0  0  0
  -24.3600  -36.8937   22.2062 H   0  0  0  0  0  0
  -23.7237  -37.6482   23.6676 H   0  0  0  0  0  0
  -26.1127  -31.5268   20.5992 H   0  0  0  0  0  0
  -26.8554  -30.8232   22.0030 H   0  0  0  0  0  0
  -28.1337  -28.9504   21.1865 H   0  0  0  0  0  0
  -26.0019  -25.8696   19.0568 H   0  0  0  0  0  0
  -23.9838  -27.2793   19.0216 H   0  0  0  0  0  0
  -23.7765  -30.5748   19.3987 H   0  0  0  0  0  0
  -22.7688  -29.2353   19.8546 H   0  0  0  0  0  0
  -25.1287  -36.1915   25.0830 H   0  0  0  0  0  0
  -21.0006  -28.3259   24.1385 H   0  0  0  0  0  0
  -20.5669  -26.2303   23.3609 H   0  0  0  0  0  0
  -21.6653  -26.7415   22.1209 H   0  0  0  0  0  0
  -19.6920  -25.6289   21.1234 H   0  0  0  0  0  0
  -19.6695  -27.3188   20.6735 H   0  0  0  0  0  0
  -17.4220  -26.6682   21.4008 H   0  0  0  0  0  0
  -18.0328  -26.0051   22.8998 H   0  0  0  0  0  0
  -19.7943  -30.7270   24.2250 H   0  0  0  0  0  0
  -17.5014  -31.6251   24.5159 H   0  0  0  0  0  0
  -15.5355  -30.2955   23.7648 H   0  0  0  0  0  0
  -15.8698  -28.0799   22.7052 H   0  0  0  0  0  0
  -24.5903  -30.7047   25.7748 H   0  0  0  0  0  0
  -24.8894  -32.2853   26.4864 H   0  0  0  0  0  0
  -25.8033  -30.8862   27.0209 H   0  0  0  0  0  0
  -26.2900  -29.6714   24.1252 H   0  0  0  0  0  0
  -27.4060  -29.7252   25.4701 H   0  0  0  0  0  0
  -27.8771  -30.4251   23.9393 H   0  0  0  0  0  0
  -27.2710  -33.3601   26.2054 H   0  0  0  0  0  0
  -28.3882  -32.6830   25.0295 H   0  0  0  0  0  0
  -28.0753  -31.8405   26.5387 H   0  0  0  0  0  0
  -28.2557  -38.0140   24.7586 H   0  0  0  0  0  0
  -28.1154  -36.2676   24.6148 H   0  0  0  0  0  0
  -27.2342  -37.1284   25.8850 H   0  0  0  0  0  0
  -20.9432  -29.8719   21.6818 H   0  0  0  0  0  0
  -26.0169  -38.2849   24.1440 H   0  0  0  0  0  0
  -31.9717  -16.7865   22.0240 H   0  0  0  0  0  0
  -28.5540  -18.3011   19.8856 H   0  0  0  0  0  0
  -33.2749  -18.1749   23.3375 H   0  0  0  0  0  0
  -32.8014  -19.8314   23.6428 H   0  0  0  0  0  0
  -33.8388  -19.4416   22.2591 H   0  0  0  0  0  0
  -32.5920  -21.4839   22.0190 H   0  0  0  0  0  0
  -30.9898  -21.9051   22.6100 H   0  0  0  0  0  0
  -31.4272  -22.1048   20.9037 H   0  0  0  0  0  0
  -27.9575  -20.7424   19.9925 H   0  0  0  0  0  0
  -29.3564  -21.2150   19.1006 H   0  0  0  0  0  0
  -28.7407  -25.0992   21.7857 H   0  0  0  0  0  0
  -27.1436  -24.8858   21.1420 H   0  0  0  0  0  0
  -28.8507  -15.7155   20.6332 H   0  0  0  0  0  0
  -28.7641  -22.5181   21.7354 H   0  0  0  0  0  0
  1 25  1  0  0  0
  1 30  2  0  0  0
  1 82  1  0  0  0
  2  3  1  0  0  0
  2 25  1  0  0  0
  2 85  1  0  0  0
  2 86  1  0  0  0
  3  4  1  0  0  0
  3 87  1  0  0  0
  3 88  1  0  0  0
  4  5  1  0  0  0
  4 89  1  0  0  0
  4 90  1  0  0  0
  5  6  1  0  0  0
  5 26  1  0  0  0
  5 91  1  0  0  0
  6 25  1  0  0  0
  6 92  1  0  0  0
  6 93  1  0  0  0
  7  8  2  0  0  0
  7 26  1  0  0  0
  7 29  1  0  0  0
  8  9  1  0  0  0
  8 22  1  0  0  0
  9 10  1  0  0  0
  9 27  2  0  0  0
 10 11  2  0  0  0
 10 15  1  0  0  0
 11 12  1  0  0  0
 11 94  1  0  0  0
 12 13  2  0  0  0
 12 95  1  0  0  0
 13 14  1  0  0  0
 13 31  1  0  0  0
 14 15  2  0  0  0
 14 96  1  0  0  0
 15 97  1  0  0  0
 16 17  2  0  0  0
 16 21  1  0  0  0
 16 31  1  0  0  0
 17 18  1  0  0  0
 17 98  1  0  0  0
 18 19  2  0  0  0
 18 99  1  0  0  0
 19 20  1  0  0  0
 19 24  1  0  0  0
 20 21  2  0  0  0
 20100  1  0  0  0
 21 23  1  0  0  0
 22 28  1  0  0  0
 22 32  2  0  0  0
 26 27  1  0  0  0
 28101  1  0  0  0
 28102  1  0  0  0
 29103  1  0  0  0
 29104  1  0  0  0
 33 34  1  0  0  0
 33 66  1  0  0  0
 33 70  2  0  0  0
 34 36  1  0  0  0
 34 59  1  0  0  0
 34105  1  0  0  0
 35 44  2  0  0  0
 35 45  1  0  0  0
 35 68  1  0  0  0
 36 56  1  0  0  0
 36106  1  0  0  0
 37 39  1  0  0  0
 37 47  1  0  0  0
 37 66  1  0  0  0
 37107  1  0  0  0
 38 43  2  0  0  0
 38 46  1  0  0  0
 38 47  1  0  0  0
 39 64  1  0  0  0
 39 67  2  0  0  0
 40 52  1  0  0  0
 40 53  2  0  0  0
 40 58  1  0  0  0
 41108  1  0  0  0
 41109  1  0  0  0
 41110  1  0  0  0
 41 48  1  0  0  0
 42 43  1  0  0  0
 42 66  1  0  0  0
 42111  1  0  0  0
 42112  1  0  0  0
 43 44  1  0  0  0
 44113  1  0  0  0
 45 46  2  0  0  0
 45114  1  0  0  0
 46115  1  0  0  0
 47116  1  0  0  0
 47117  1  0  0  0
 48 56  1  0  0  0
 48 65  1  0  0  0
 48118  1  0  0  0
 49 50  1  0  0  0
 49 53  1  0  0  0
 49 64  1  0  0  0
 49119  1  0  0  0
 50 51  1  0  0  0
 50120  1  0  0  0
 50121  1  0  0  0
 51 52  1  0  0  0
 51122  1  0  0  0
 51123  1  0  0  0
 52124  1  0  0  0
 52125  1  0  0  0
 53 54  1  0  0  0
 54 55  2  0  0  0
 54126  1  0  0  0
 55 57  1  0  0  0
 55127  1  0  0  0
 56 69  2  0  0  0
 57 58  2  0  0  0
 57128  1  0  0  0
 58129  1  0  0  0
 59 60  1  0  0  0
 59 61  1  0  0  0
 59 62  1  0  0  0
 60130  1  0  0  0
 60131  1  0  0  0
 60132  1  0  0  0
 61133  1  0  0  0
 61134  1  0  0  0
 61135  1  0  0  0
 62136  1  0  0  0
 62137  1  0  0  0
 62138  1  0  0  0
 63 65  1  0  0  0
 63139  1  0  0  0
 63140  1  0  0  0
 63141  1  0  0  0
 64142  1  0  0  0
 65143  1  0  0  0
 68 81  1  0  0  0
 71 73  2  0  0  0
 71 76  1  0  0  0
 71144  1  0  0  0
 72 74  1  0  0  0
 72 76  2  0  0  0
 72145  1  0  0  0
 73 75  1  0  0  0
 73 78  1  0  0  0
 74 75  2  0  0  0
 74 80  1  0  0  0
 75 79  1  0  0  0
 76 82  1  0  0  0
 77 81  1  0  0  0
 77 83  1  0  0  0
 77 84  2  0  0  0
 78146  1  0  0  0
 78147  1  0  0  0
 78148  1  0  0  0
 79149  1  0  0  0
 79150  1  0  0  0
 79151  1  0  0  0
 80 83  1  0  0  0
 80152  1  0  0  0
 80153  1  0  0  0
 81154  1  0  0  0
 81155  1  0  0  0
 82156  1  0  0  0
 83157  1  0  0  0
M  ISO  4   1 100  68 101  81 101  82 100
M  END
> <chiral flag>
0

> <version>
0

> <s_m_source_file>
/data/baiqing/PycharmProjects/Reinvent-master-3.2/result/LINK_invent/BTK/process_docking_weight1_custom_product_contain_oxygen_bond_distance_aromatic_linkinvent_7_9_3/rearranged_h_0047.sdf

> <i_m_source_file_index>
84

> <r_mmod_Potential_Energy-OPLS-2005>
103.968574523926

> <r_mmod_Stretch_Energy-OPLS-2005>
130.213897705078

> <r_mmod_Bend_Energy-OPLS-2005>
161.319885253906

> <r_mmod_Torsional_Energy-OPLS-2005>
240.704925537109

> <r_mmod_Improper_Torsional_Energy-OPLS-2005>
7.04090309143066

> <r_mmod_Van_der_Waal_Energy-OPLS-2005>
139.657852172852

> <r_mmod_Electrostatic_Energy-OPLS-2005>
-416.556304931641

> <r_mmod_Solvation_Energy-OPLS-2005>
-244.505798339844

> <b_mmod_Minimization_Converged-OPLS-2005>
0

> <r_mmod_RMS_Derivative-OPLS-2005>
3.38411283493042

$$$$
84
                    3D
 Structure written by MMmdl.
161169  0  0  1  0            999 V2000
  -30.6256  -14.7411   20.5516 C   0  0  0  0  0  0
  -30.4344  -12.4530   19.4743 C   0  0  0  0  0  0
  -29.5097  -12.5278   18.2423 C   0  0  0  0  0  0
  -28.0394  -12.3251   18.6576 C   0  0  0  0  0  0
  -27.6457  -13.2187   19.8649 C   0  0  2  0  0  0
  -28.6761  -13.1162   21.0114 C   0  0  0  0  0  0
  -25.2490  -13.8194   20.5610 C   0  0  0  0  0  0
  -24.1775  -13.0432   20.9179 C   0  0  0  0  0  0
  -24.6350  -11.6919   20.8736 C   0  0  0  0  0  0
  -23.9011  -10.4293   21.0376 C   0  0  0  0  0  0
  -24.3568   -9.4229   21.9157 C   0  0  0  0  0  0
  -23.6249   -8.2261   22.0759 C   0  0  0  0  0  0
  -22.4244   -8.0266   21.3534 C   0  0  0  0  0  0
  -21.9835   -9.0246   20.4650 C   0  0  0  0  0  0
  -22.7165  -10.2130   20.3046 C   0  0  0  0  0  0
  -21.6842   -6.0712   22.5271 C   0  0  0  0  0  0
  -21.4015   -6.5621   23.8205 C   0  0  0  0  0  0
  -21.3661   -5.6778   24.9165 C   0  0  0  0  0  0
  -21.6057   -4.3049   24.7220 C   0  0  0  0  0  0
  -21.8817   -3.8123   23.4345 C   0  0  0  0  0  0
  -21.9200   -4.6939   22.3400 C   0  0  0  0  0  0
  -22.7817  -13.5248   21.1836 C   0  0  0  0  0  0
  -22.1660   -4.2109   21.0983 F   0  0  0  0  0  0
  -21.5663   -3.4546   25.7742 F   0  0  0  0  0  0
  -29.9832  -13.4696   20.4532 N   0  0  0  0  0  0
  -26.2921  -12.9366   20.3284 N   0  0  0  0  0  0
  -25.9275  -11.6517   20.5731 N   0  0  0  0  0  0
  -22.0448  -12.8293   22.0434 N   0  0  0  0  0  0
  -25.4161  -15.1876   20.3907 N   0  0  0  0  0  0
  -31.7185  -14.9510   20.0203 O   0  0  0  0  0  0
  -21.6626   -6.8848   21.4228 O   0  0  0  0  0  0
  -22.3514  -14.5541   20.6677 O   0  0  0  0  0  0
  -24.6335  -31.8486   23.1973 C   0  0  0  0  0  0
  -25.9154  -32.4744   23.8263 C   0  0  1  0  0  0
  -27.2158  -27.2053   20.2101 C   0  0  0  0  0  0
  -25.5899  -33.8540   24.2138 N   0  0  0  0  0  0
  -23.4334  -30.4667   21.5384 C   0  0  2  0  0  0
  -24.8908  -28.9056   20.1126 C   0  0  0  0  0  0
  -22.7541  -29.4520   22.4918 C   0  0  0  0  0  0
  -18.0259  -28.1363   22.8470 C   0  0  0  0  0  0
  -24.1483  -36.7283   23.2632 C   0  0  0  0  0  0
  -25.9805  -30.7481   21.3889 C   0  0  0  0  0  0
  -26.0559  -29.3636   20.7422 C   0  0  0  0  0  0
  -27.2231  -28.5283   20.7795 C   0  0  0  0  0  0
  -26.0527  -26.8451   19.5069 C   0  0  0  0  0  0
  -24.8981  -27.6580   19.4719 C   0  0  0  0  0  0
  -23.6600  -29.7966   20.1547 C   0  0  0  0  0  0
  -25.4124  -36.3058   24.0301 C   0  0  1  0  0  0
  -20.5860  -28.3670   23.1215 C   0  0  2  0  0  0
  -20.6782  -26.9391   22.5372 C   0  0  0  0  0  0
  -19.5733  -26.6257   21.5237 C   0  0  0  0  0  0
  -18.1888  -26.7866   22.1665 C   0  0  0  0  0  0
  -19.1521  -28.8836   23.2808 C   0  0  0  0  0  0
  -18.9482  -30.1462   23.8811 C   0  0  0  0  0  0
  -17.6493  -30.6599   24.0540 C   0  0  0  0  0  0
  -25.9091  -34.9439   23.5021 C   0  0  0  0  0  0
  -16.5367  -29.9094   23.6375 C   0  0  0  0  0  0
  -16.7259  -28.6507   23.0389 C   0  0  0  0  0  0
  -26.4570  -31.6630   25.0687 C   0  0  0  0  0  0
  -25.3755  -31.3644   26.1325 C   0  0  0  0  0  0
  -27.0610  -30.3114   24.6248 C   0  0  0  0  0  0
  -27.5966  -32.4549   25.7510 C   0  0  0  0  0  0
  -27.5563  -37.1809   24.8483 C   0  0  0  0  0  0
  -21.4236  -29.3030   22.3662 N   0  0  0  0  0  0
  -26.4285  -37.3788   23.9416 N   0  0  0  0  0  0
  -24.6996  -31.0434   22.0961 N   0  0  0  0  0  0
  -23.4188  -28.8072   23.3046 O   0  0  0  0  0  0
  -28.2894  -26.2760   20.2372 O   0  0  0  0  0  0
  -26.5724  -34.8943   22.4608 O   0  0  0  0  0  0
  -23.5492  -32.1266   23.7316 O   0  0  0  0  0  0
  -27.1135  -17.9737   21.7964 C   0  0  0  0  0  0
  -27.5345  -19.2528   21.3932 C   0  0  0  0  0  0
  -27.9588  -16.8587   21.6960 C   0  0  0  0  0  0
  -28.8254  -19.4919   20.8720 C   0  0  0  0  0  0
  -29.6993  -18.2932   20.7607 C   0  0  0  0  0  0
  -29.2658  -16.9433   21.1785 C   0  0  0  0  0  0
  -29.0192  -20.9750   20.4031 C   0  0  0  0  0  0
  -31.1159  -18.4280   20.2289 C   0  0  0  0  0  0
  -25.2658  -24.2123   21.1372 C   0  0  0  0  0  0
  -26.4140  -23.2065   21.2957 C   0  0  0  0  0  0
  -28.2851  -24.9900   21.0715 C   0  0  0  0  0  0
  -27.8007  -23.4599   20.6237 C   0  0  1  0  0  0
  -29.6027  -21.1577   19.2268 N   0  0  0  0  0  0
  -28.5643  -22.1403   21.0509 N   0  3  0  0  0  0
  -29.9867  -15.7194   21.4134 O   0  0  0  0  0  0
  -31.4735  -12.6073   19.1780 H   0  0  0  0  0  0
  -30.3984  -11.4562   19.9187 H   0  0  0  0  0  0
  -29.8016  -11.7824   17.4993 H   0  0  0  0  0  0
  -29.6197  -13.4999   17.7574 H   0  0  0  0  0  0
  -27.9130  -11.2728   18.9196 H   0  0  0  0  0  0
  -27.3729  -12.5076   17.8132 H   0  0  0  0  0  0
  -27.6565  -14.2455   19.4979 H   0  0  0  0  0  0
  -28.7011  -12.1005   21.4044 H   0  0  0  0  0  0
  -28.4030  -13.7513   21.8543 H   0  0  0  0  0  0
  -25.2716   -9.5705   22.4732 H   0  0  0  0  0  0
  -23.9937   -7.4664   22.7506 H   0  0  0  0  0  0
  -21.0745   -8.8747   19.8980 H   0  0  0  0  0  0
  -22.3580  -10.9649   19.6155 H   0  0  0  0  0  0
  -21.1993   -7.6128   23.9687 H   0  0  0  0  0  0
  -21.1470   -6.0513   25.9067 H   0  0  0  0  0  0
  -22.0577   -2.7568   23.2862 H   0  0  0  0  0  0
  -22.3962  -11.9920   22.4827 H   0  0  0  0  0  0
  -21.1075  -13.1383   22.2630 H   0  0  0  0  0  0
  -24.6321  -15.8281   20.4511 H   0  0  0  0  0  0
  -26.2405  -15.6130   19.9883 H   0  0  0  0  0  0
  -26.7203  -32.5396   23.0970 H   0  0  0  0  0  0
  -24.9890  -33.9641   25.0170 H   0  0  0  0  0  0
  -22.7265  -31.2862   21.3901 H   0  0  0  0  0  0
  -23.3754  -35.9611   23.3360 H   0  0  0  0  0  0
  -24.3563  -36.8859   22.2033 H   0  0  0  0  0  0
  -23.7260  -37.6507   23.6631 H   0  0  0  0  0  0
  -26.1403  -31.5050   20.6193 H   0  0  0  0  0  0
  -26.8484  -30.7928   22.0360 H   0  0  0  0  0  0
  -28.1116  -28.8813   21.2848 H   0  0  0  0  0  0
  -26.0269  -25.8900   19.0055 H   0  0  0  0  0  0
  -24.0189  -27.3103   18.9451 H   0  0  0  0  0  0
  -23.7967  -30.5698   19.3989 H   0  0  0  0  0  0
  -22.7809  -29.2311   19.8424 H   0  0  0  0  0  0
  -25.1311  -36.1869   25.0805 H   0  0  0  0  0  0
  -20.9904  -28.3236   24.1346 H   0  0  0  0  0  0
  -20.5754  -26.2292   23.3560 H   0  0  0  0  0  0
  -21.6636  -26.7426   22.1096 H   0  0  0  0  0  0
  -19.6902  -25.6116   21.1398 H   0  0  0  0  0  0
  -19.6687  -27.2997   20.6726 H   0  0  0  0  0  0
  -17.4165  -26.6551   21.4063 H   0  0  0  0  0  0
  -18.0375  -25.9990   22.9072 H   0  0  0  0  0  0
  -19.7955  -30.7285   24.2156 H   0  0  0  0  0  0
  -17.5086  -31.6299   24.5136 H   0  0  0  0  0  0
  -15.5396  -30.3024   23.7766 H   0  0  0  0  0  0
  -15.8622  -28.0858   22.7162 H   0  0  0  0  0  0
  -25.8194  -31.0147   27.0650 H   0  0  0  0  0  0
  -24.6839  -30.5887   25.8006 H   0  0  0  0  0  0
  -24.7861  -32.2495   26.3716 H   0  0  0  0  0  0
  -26.3368  -29.6789   24.1123 H   0  0  0  0  0  0
  -27.4250  -29.7383   25.4797 H   0  0  0  0  0  0
  -27.9146  -30.4524   23.9609 H   0  0  0  0  0  0
  -27.2420  -33.3890   26.1866 H   0  0  0  0  0  0
  -28.3870  -32.7106   25.0428 H   0  0  0  0  0  0
  -28.0539  -31.8901   26.5638 H   0  0  0  0  0  0
  -28.2632  -38.0058   24.7517 H   0  0  0  0  0  0
  -28.1010  -36.2602   24.6331 H   0  0  0  0  0  0
  -27.2309  -37.1523   25.8899 H   0  0  0  0  0  0
  -20.9469  -29.8814   21.6889 H   0  0  0  0  0  0
  -26.0156  -38.2857   24.1419 H   0  0  0  0  0  0
  -26.1185  -17.8425   22.1998 H   0  0  0  0  0  0
  -26.8251  -20.0651   21.4609 H   0  0  0  0  0  0
  -27.5910  -15.9161   22.0776 H   0  0  0  0  0  0
  -31.7651  -18.8661   20.9846 H   0  0  0  0  0  0
  -31.1560  -19.0402   19.3348 H   0  0  0  0  0  0
  -31.5357  -17.4640   19.9450 H   0  0  0  0  0  0
  -24.4224  -23.8939   21.7492 H   0  0  0  0  0  0
  -24.9179  -24.2842   20.1078 H   0  0  0  0  0  0
  -25.5216  -25.2077   21.5029 H   0  0  0  0  0  0
  -26.0358  -22.2313   20.9850 H   0  0  0  0  0  0
  -26.5825  -23.1240   22.3694 H   0  0  0  0  0  0
  -29.2995  -24.8980   21.4599 H   0  0  0  0  0  0
  -27.7310  -25.2549   21.9760 H   0  0  0  0  0  0
  -27.6988  -23.4483   19.5373 H   0  0  0  0  0  0
  -29.9173  -20.3437   18.7226 H   0  0  0  0  0  0
  -29.9344  -22.0624   18.9352 H   0  0  0  0  0  0
  -28.4689  -21.9739   22.0447 H   0  0  0  0  0  0
  1 25  1  0  0  0
  1 30  2  0  0  0
  1 85  1  0  0  0
  2  3  1  0  0  0
  2 25  1  0  0  0
  2 86  1  0  0  0
  2 87  1  0  0  0
  3  4  1  0  0  0
  3 88  1  0  0  0
  3 89  1  0  0  0
  4  5  1  0  0  0
  4 90  1  0  0  0
  4 91  1  0  0  0
  5  6  1  0  0  0
  5 26  1  0  0  0
  5 92  1  0  0  0
  6 25  1  0  0  0
  6 93  1  0  0  0
  6 94  1  0  0  0
  7  8  2  0  0  0
  7 26  1  0  0  0
  7 29  1  0  0  0
  8  9  1  0  0  0
  8 22  1  0  0  0
  9 10  1  0  0  0
  9 27  2  0  0  0
 10 11  2  0  0  0
 10 15  1  0  0  0
 11 12  1  0  0  0
 11 95  1  0  0  0
 12 13  2  0  0  0
 12 96  1  0  0  0
 13 14  1  0  0  0
 13 31  1  0  0  0
 14 15  2  0  0  0
 14 97  1  0  0  0
 15 98  1  0  0  0
 16 17  2  0  0  0
 16 21  1  0  0  0
 16 31  1  0  0  0
 17 18  1  0  0  0
 17 99  1  0  0  0
 18 19  2  0  0  0
 18100  1  0  0  0
 19 20  1  0  0  0
 19 24  1  0  0  0
 20 21  2  0  0  0
 20101  1  0  0  0
 21 23  1  0  0  0
 22 28  1  0  0  0
 22 32  2  0  0  0
 26 27  1  0  0  0
 28102  1  0  0  0
 28103  1  0  0  0
 29104  1  0  0  0
 29105  1  0  0  0
 33 34  1  0  0  0
 33 66  1  0  0  0
 33 70  2  0  0  0
 34 36  1  0  0  0
 34 59  1  0  0  0
 34106  1  0  0  0
 35 44  2  0  0  0
 35 45  1  0  0  0
 35 68  1  0  0  0
 36 56  1  0  0  0
 36107  1  0  0  0
 37 39  1  0  0  0
 37 47  1  0  0  0
 37 66  1  0  0  0
 37108  1  0  0  0
 38 43  2  0  0  0
 38 46  1  0  0  0
 38 47  1  0  0  0
 39 64  1  0  0  0
 39 67  2  0  0  0
 40 52  1  0  0  0
 40 53  2  0  0  0
 40 58  1  0  0  0
 41109  1  0  0  0
 41110  1  0  0  0
 41111  1  0  0  0
 41 48  1  0  0  0
 42 43  1  0  0  0
 42 66  1  0  0  0
 42112  1  0  0  0
 42113  1  0  0  0
 43 44  1  0  0  0
 44114  1  0  0  0
 45 46  2  0  0  0
 45115  1  0  0  0
 46116  1  0  0  0
 47117  1  0  0  0
 47118  1  0  0  0
 48 56  1  0  0  0
 48 65  1  0  0  0
 48119  1  0  0  0
 49 50  1  0  0  0
 49 53  1  0  0  0
 49 64  1  0  0  0
 49120  1  0  0  0
 50 51  1  0  0  0
 50121  1  0  0  0
 50122  1  0  0  0
 51 52  1  0  0  0
 51123  1  0  0  0
 51124  1  0  0  0
 52125  1  0  0  0
 52126  1  0  0  0
 53 54  1  0  0  0
 54 55  2  0  0  0
 54127  1  0  0  0
 55 57  1  0  0  0
 55128  1  0  0  0
 56 69  2  0  0  0
 57 58  2  0  0  0
 57129  1  0  0  0
 58130  1  0  0  0
 59 60  1  0  0  0
 59 61  1  0  0  0
 59 62  1  0  0  0
 60131  1  0  0  0
 60132  1  0  0  0
 60133  1  0  0  0
 61134  1  0  0  0
 61135  1  0  0  0
 61136  1  0  0  0
 62137  1  0  0  0
 62138  1  0  0  0
 62139  1  0  0  0
 63 65  1  0  0  0
 63140  1  0  0  0
 63141  1  0  0  0
 63142  1  0  0  0
 64143  1  0  0  0
 65144  1  0  0  0
 68 81  1  0  0  0
 71 72  2  0  0  0
 71 73  1  0  0  0
 71145  1  0  0  0
 72 74  1  0  0  0
 72146  1  0  0  0
 73 76  2  0  0  0
 73147  1  0  0  0
 74 75  2  0  0  0
 74 77  1  0  0  0
 75 76  1  0  0  0
 75 78  1  0  0  0
 76 85  1  0  0  0
 77 83  1  0  0  0
 77 84  2  0  0  0
 78148  1  0  0  0
 78149  1  0  0  0
 78150  1  0  0  0
 79 80  1  0  0  0
 79151  1  0  0  0
 79152  1  0  0  0
 79153  1  0  0  0
 80154  1  0  0  0
 80155  1  0  0  0
 80 82  1  0  0  0
 81 82  1  0  0  0
 81156  1  0  0  0
 81157  1  0  0  0
 82 84  1  0  0  0
 82158  1  0  0  0
 83159  1  0  0  0
 83160  1  0  0  0
 84161  1  0  0  0
M  CHG  1  84   1
M  ISO  4   1 100  68 101  81 101  85 100
M  END
> <chiral flag>
0

> <version>
0

> <s_m_source_file>
/data/baiqing/PycharmProjects/Reinvent-master-3.2/result/LINK_invent/BTK/process_docking_weight1_custom_product_contain_oxygen_bond_distance_aromatic_linkinvent_7_9_3/rearranged_h_0047.sdf

> <i_m_source_file_index>
85

> <r_mmod_Potential_Energy-OPLS-2005>
249.660827636719

> <r_mmod_Stretch_Energy-OPLS-2005>
189.84440612793

> <r_mmod_Bend_Energy-OPLS-2005>
282.863983154297

> <r_mmod_Torsional_Energy-OPLS-2005>
274.478637695312

> <r_mmod_Improper_Torsional_Energy-OPLS-2005>
7.37386131286621

> <r_mmod_Van_der_Waal_Energy-OPLS-2005>
121.77326965332

> <r_mmod_Electrostatic_Energy-OPLS-2005>
-335.673767089844

> <r_mmod_Solvation_Energy-OPLS-2005>
-390.884368896484

> <b_mmod_Minimization_Converged-OPLS-2005>
0

> <r_mmod_RMS_Derivative-OPLS-2005>
6.59675216674805

$$$$
85
                    3D
 Structure written by MMmdl.
161170  0  0  1  0            999 V2000
  -30.5778  -14.9116   20.4942 C   0  0  0  0  0  0
  -30.4425  -12.5846   19.4887 C   0  0  0  0  0  0
  -29.5175  -12.5331   18.2525 C   0  0  0  0  0  0
  -28.0499  -12.3125   18.6657 C   0  0  0  0  0  0
  -27.6267  -13.2405   19.8328 C   0  0  2  0  0  0
  -28.6698  -13.2835   20.9683 C   0  0  0  0  0  0
  -25.2442  -13.8171   20.5683 C   0  0  0  0  0  0
  -24.1751  -13.0390   20.9186 C   0  0  0  0  0  0
  -24.6365  -11.6884   20.8717 C   0  0  0  0  0  0
  -23.9036  -10.4277   21.0368 C   0  0  0  0  0  0
  -24.3596   -9.4206   21.9145 C   0  0  0  0  0  0
  -23.6298   -8.2234   22.0732 C   0  0  0  0  0  0
  -22.4290   -8.0237   21.3520 C   0  0  0  0  0  0
  -21.9889   -9.0193   20.4625 C   0  0  0  0  0  0
  -22.7184  -10.2092   20.3038 C   0  0  0  0  0  0
  -21.6868   -6.0689   22.5247 C   0  0  0  0  0  0
  -21.4008   -6.5610   23.8164 C   0  0  0  0  0  0
  -21.3686   -5.6785   24.9142 C   0  0  0  0  0  0
  -21.6061   -4.3049   24.7200 C   0  0  0  0  0  0
  -21.8832   -3.8108   23.4341 C   0  0  0  0  0  0
  -21.9214   -4.6915   22.3392 C   0  0  0  0  0  0
  -22.7771  -13.5144   21.1879 C   0  0  0  0  0  0
  -22.1673   -4.2075   21.0975 F   0  0  0  0  0  0
  -21.5674   -3.4562   25.7749 F   0  0  0  0  0  0
  -29.9491  -13.6791   20.3665 N   0  0  0  0  0  0
  -26.2858  -12.9378   20.3206 N   0  0  0  0  0  0
  -25.9294  -11.6524   20.5701 N   0  0  0  0  0  0
  -22.0515  -12.8066   22.0486 N   0  0  0  0  0  0
  -25.4158  -15.1892   20.4149 N   0  0  0  0  0  0
  -31.7938  -14.9640   20.2827 O   0  0  0  0  0  0
  -21.6662   -6.8814   21.4214 O   0  0  0  0  0  0
  -22.3401  -14.5454   20.6755 O   0  0  0  0  0  0
  -24.6338  -31.8434   23.1880 C   0  0  0  0  0  0
  -25.9130  -32.4687   23.8262 C   0  0  1  0  0  0
  -27.2341  -27.1527   20.2303 C   0  0  0  0  0  0
  -25.5875  -33.8488   24.2163 N   0  0  0  0  0  0
  -23.4411  -30.4533   21.5300 C   0  0  2  0  0  0
  -24.8939  -28.8646   20.1265 C   0  0  0  0  0  0
  -22.7580  -29.4499   22.4931 C   0  0  0  0  0  0
  -18.0305  -28.1399   22.8455 C   0  0  0  0  0  0
  -24.1491  -36.7286   23.2644 C   0  0  0  0  0  0
  -25.9839  -30.7312   21.3725 C   0  0  0  0  0  0
  -26.0595  -29.3356   20.7404 C   0  0  0  0  0  0
  -27.2253  -28.4965   20.7665 C   0  0  0  0  0  0
  -26.0474  -26.7591   19.5747 C   0  0  0  0  0  0
  -24.8991  -27.5933   19.5190 C   0  0  0  0  0  0
  -23.6653  -29.7604   20.1546 C   0  0  0  0  0  0
  -25.4120  -36.3021   24.0303 C   0  0  1  0  0  0
  -20.5903  -28.3747   23.1302 C   0  0  2  0  0  0
  -20.6816  -26.9447   22.5484 C   0  0  0  0  0  0
  -19.5852  -26.6390   21.5239 C   0  0  0  0  0  0
  -18.1995  -26.7936   22.1599 C   0  0  0  0  0  0
  -19.1554  -28.8896   23.2852 C   0  0  0  0  0  0
  -18.9449  -30.1538   23.8839 C   0  0  0  0  0  0
  -17.6422  -30.6581   24.0568 C   0  0  0  0  0  0
  -25.9045  -34.9403   23.5073 C   0  0  0  0  0  0
  -16.5339  -29.9022   23.6338 C   0  0  0  0  0  0
  -16.7282  -28.6443   23.0316 C   0  0  0  0  0  0
  -26.4491  -31.6574   25.0707 C   0  0  0  0  0  0
  -25.3702  -31.3764   26.1433 C   0  0  0  0  0  0
  -27.0346  -30.2971   24.6255 C   0  0  0  0  0  0
  -27.6009  -32.4362   25.7491 C   0  0  0  0  0  0
  -27.5579  -37.1800   24.8459 C   0  0  0  0  0  0
  -21.4264  -29.3044   22.3713 N   0  0  0  0  0  0
  -26.4289  -37.3735   23.9400 N   0  0  0  0  0  0
  -24.7060  -31.0341   22.0842 N   0  0  0  0  0  0
  -23.4272  -28.8093   23.3083 O   0  0  0  0  0  0
  -28.3805  -26.2985   20.3183 O   0  0  0  0  0  0
  -26.5675  -34.8879   22.4659 O   0  0  0  0  0  0
  -23.5492  -32.1262   23.7140 O   0  0  0  0  0  0
  -30.0771  -16.9864   22.6898 C   0  0  0  0  0  0
  -29.1464  -17.3725   23.6716 C   0  0  0  0  0  0
  -28.1369  -18.9277   22.1134 C   0  0  0  0  0  0
  -29.1623  -18.6877   21.1698 C   0  0  0  0  0  0
  -29.9211  -17.3961   21.3428 C   0  0  0  0  0  0
  -28.1048  -18.2576   23.3445 C   0  0  0  0  0  0
  -29.3744  -22.4818   21.6396 C   0  0  0  0  0  0
  -30.4056  -22.1841   22.4593 C   0  0  0  0  0  0
  -28.6135  -23.8857   21.6980 C   0  0  0  0  0  0
  -27.9298  -23.7283   19.3791 C   0  0  0  0  0  0
  -28.6305  -22.2764   19.3043 C   0  0  0  0  0  0
  -28.5728  -24.7545   20.3642 C   0  0  1  0  0  0
  -29.5215  -20.0472   20.3304 C   0  0  0  0  0  0
  -29.8092  -16.1086   20.5373 N   0  0  0  0  0  0
  -28.8455  -21.4741   20.5811 N   0  3  2  0  0  0
  -26.8473  -18.5910   24.4779 Cl  0  0  0  0  0  0
  -31.4703  -12.7595   19.1698 H   0  0  0  0  0  0
  -30.4481  -11.6355   20.0250 H   0  0  0  0  0  0
  -29.8389  -11.7514   17.5654 H   0  0  0  0  0  0
  -29.5990  -13.4724   17.7003 H   0  0  0  0  0  0
  -27.9416  -11.2709   18.9682 H   0  0  0  0  0  0
  -27.3911  -12.4551   17.8076 H   0  0  0  0  0  0
  -27.5834  -14.2370   19.4002 H   0  0  0  0  0  0
  -28.7492  -12.3227   21.4784 H   0  0  0  0  0  0
  -28.3692  -14.0171   21.7170 H   0  0  0  0  0  0
  -25.2752   -9.5684   22.4654 H   0  0  0  0  0  0
  -24.0026   -7.4636   22.7444 H   0  0  0  0  0  0
  -21.0817   -8.8640   19.8934 H   0  0  0  0  0  0
  -22.3597  -10.9578   19.6124 H   0  0  0  0  0  0
  -21.1965   -7.6112   23.9603 H   0  0  0  0  0  0
  -21.1519   -6.0552   25.9030 H   0  0  0  0  0  0
  -22.0608   -2.7561   23.2877 H   0  0  0  0  0  0
  -22.4291  -11.9752   22.4769 H   0  0  0  0  0  0
  -21.1112  -13.0929   22.2808 H   0  0  0  0  0  0
  -24.6549  -15.8528   20.5160 H   0  0  0  0  0  0
  -26.2711  -15.6123   20.0823 H   0  0  0  0  0  0
  -26.7220  -32.5325   23.1021 H   0  0  0  0  0  0
  -24.9873  -33.9613   25.0212 H   0  0  0  0  0  0
  -22.7358  -31.2719   21.3680 H   0  0  0  0  0  0
  -23.3715  -35.9667   23.3312 H   0  0  0  0  0  0
  -24.3565  -36.8920   22.2056 H   0  0  0  0  0  0
  -23.7295  -37.6501   23.6694 H   0  0  0  0  0  0
  -26.1200  -31.4735   20.5842 H   0  0  0  0  0  0
  -26.8598  -30.8030   22.0073 H   0  0  0  0  0  0
  -28.1201  -28.8541   21.2583 H   0  0  0  0  0  0
  -25.9947  -25.7773   19.1256 H   0  0  0  0  0  0
  -24.0105  -27.2267   19.0235 H   0  0  0  0  0  0
  -23.7887  -30.5185   19.3774 H   0  0  0  0  0  0
  -22.7872  -29.1842   19.8575 H   0  0  0  0  0  0
  -25.1330  -36.1851   25.0804 H   0  0  0  0  0  0
  -20.9968  -28.3352   24.1399 H   0  0  0  0  0  0
  -20.5754  -26.2389   23.3697 H   0  0  0  0  0  0
  -21.6687  -26.7522   22.1296 H   0  0  0  0  0  0
  -19.7102  -25.6280   21.1336 H   0  0  0  0  0  0
  -19.6849  -27.3208   20.6779 H   0  0  0  0  0  0
  -17.4332  -26.6644   21.3949 H   0  0  0  0  0  0
  -18.0358  -26.0079   22.8969 H   0  0  0  0  0  0
  -19.7922  -30.7420   24.2118 H   0  0  0  0  0  0
  -17.4881  -31.6246   24.5199 H   0  0  0  0  0  0
  -15.5293  -30.2871   23.7633 H   0  0  0  0  0  0
  -15.8682  -28.0784   22.6970 H   0  0  0  0  0  0
  -24.5869  -30.7109   25.7805 H   0  0  0  0  0  0
  -24.8882  -32.2932   26.4834 H   0  0  0  0  0  0
  -25.7995  -30.8978   27.0236 H   0  0  0  0  0  0
  -26.2952  -29.6717   24.1224 H   0  0  0  0  0  0
  -27.3939  -29.7257   25.4829 H   0  0  0  0  0  0
  -27.8872  -30.4241   23.9573 H   0  0  0  0  0  0
  -27.2578  -33.3673   26.2030 H   0  0  0  0  0  0
  -28.3825  -32.6906   25.0321 H   0  0  0  0  0  0
  -28.0660  -31.8501   26.5439 H   0  0  0  0  0  0
  -28.2594  -38.0094   24.7454 H   0  0  0  0  0  0
  -28.1065  -36.2604   24.6343 H   0  0  0  0  0  0
  -27.2282  -37.1538   25.8859 H   0  0  0  0  0  0
  -20.9527  -29.8694   21.6844 H   0  0  0  0  0  0
  -26.0147  -38.2816   24.1348 H   0  0  0  0  0  0
  -30.7250  -16.1600   22.9430 H   0  0  0  0  0  0
  -29.1674  -16.9106   24.6486 H   0  0  0  0  0  0
  -27.4208  -19.7229   21.9632 H   0  0  0  0  0  0
  -30.7440  -22.9059   23.1925 H   0  0  0  0  0  0
  -30.9457  -21.2438   22.4397 H   0  0  0  0  0  0
  -29.0484  -24.4753   22.5067 H   0  0  0  0  0  0
  -27.5943  -23.6796   22.0250 H   0  0  0  0  0  0
  -26.8765  -23.6119   19.6383 H   0  0  0  0  0  0
  -27.9484  -24.1667   18.3819 H   0  0  0  0  0  0
  -29.6041  -22.3887   18.8266 H   0  0  0  0  0  0
  -28.0419  -21.6576   18.6272 H   0  0  0  0  0  0
  -29.6244  -24.7499   20.0703 H   0  0  0  0  0  0
  -30.6046  -20.1962   20.3583 H   0  0  0  0  0  0
  -29.3101  -19.7868   19.2926 H   0  0  0  0  0  0
  -28.8626  -15.9274   20.2388 H   0  0  0  0  0  0
  -27.9175  -21.2226   20.8717 H   0  0  0  0  0  0
  1 25  1  0  0  0
  1 30  2  0  0  0
  1 84  1  0  0  0
  2  3  1  0  0  0
  2 25  1  0  0  0
  2 87  1  0  0  0
  2 88  1  0  0  0
  3  4  1  0  0  0
  3 89  1  0  0  0
  3 90  1  0  0  0
  4  5  1  0  0  0
  4 91  1  0  0  0
  4 92  1  0  0  0
  5  6  1  0  0  0
  5 26  1  0  0  0
  5 93  1  0  0  0
  6 25  1  0  0  0
  6 94  1  0  0  0
  6 95  1  0  0  0
  7  8  2  0  0  0
  7 26  1  0  0  0
  7 29  1  0  0  0
  8  9  1  0  0  0
  8 22  1  0  0  0
  9 10  1  0  0  0
  9 27  2  0  0  0
 10 11  2  0  0  0
 10 15  1  0  0  0
 11 12  1  0  0  0
 11 96  1  0  0  0
 12 13  2  0  0  0
 12 97  1  0  0  0
 13 14  1  0  0  0
 13 31  1  0  0  0
 14 15  2  0  0  0
 14 98  1  0  0  0
 15 99  1  0  0  0
 16 17  2  0  0  0
 16 21  1  0  0  0
 16 31  1  0  0  0
 17 18  1  0  0  0
 17100  1  0  0  0
 18 19  2  0  0  0
 18101  1  0  0  0
 19 20  1  0  0  0
 19 24  1  0  0  0
 20 21  2  0  0  0
 20102  1  0  0  0
 21 23  1  0  0  0
 22 28  1  0  0  0
 22 32  2  0  0  0
 26 27  1  0  0  0
 28103  1  0  0  0
 28104  1  0  0  0
 29105  1  0  0  0
 29106  1  0  0  0
 33 34  1  0  0  0
 33 66  1  0  0  0
 33 70  2  0  0  0
 34 36  1  0  0  0
 34 59  1  0  0  0
 34107  1  0  0  0
 35 44  2  0  0  0
 35 45  1  0  0  0
 35 68  1  0  0  0
 36 56  1  0  0  0
 36108  1  0  0  0
 37 39  1  0  0  0
 37 47  1  0  0  0
 37 66  1  0  0  0
 37109  1  0  0  0
 38 43  2  0  0  0
 38 46  1  0  0  0
 38 47  1  0  0  0
 39 64  1  0  0  0
 39 67  2  0  0  0
 40 52  1  0  0  0
 40 53  2  0  0  0
 40 58  1  0  0  0
 41110  1  0  0  0
 41111  1  0  0  0
 41112  1  0  0  0
 41 48  1  0  0  0
 42 43  1  0  0  0
 42 66  1  0  0  0
 42113  1  0  0  0
 42114  1  0  0  0
 43 44  1  0  0  0
 44115  1  0  0  0
 45 46  2  0  0  0
 45116  1  0  0  0
 46117  1  0  0  0
 47118  1  0  0  0
 47119  1  0  0  0
 48 56  1  0  0  0
 48 65  1  0  0  0
 48120  1  0  0  0
 49 50  1  0  0  0
 49 53  1  0  0  0
 49 64  1  0  0  0
 49121  1  0  0  0
 50 51  1  0  0  0
 50122  1  0  0  0
 50123  1  0  0  0
 51 52  1  0  0  0
 51124  1  0  0  0
 51125  1  0  0  0
 52126  1  0  0  0
 52127  1  0  0  0
 53 54  1  0  0  0
 54 55  2  0  0  0
 54128  1  0  0  0
 55 57  1  0  0  0
 55129  1  0  0  0
 56 69  2  0  0  0
 57 58  2  0  0  0
 57130  1  0  0  0
 58131  1  0  0  0
 59 60  1  0  0  0
 59 61  1  0  0  0
 59 62  1  0  0  0
 60132  1  0  0  0
 60133  1  0  0  0
 60134  1  0  0  0
 61135  1  0  0  0
 61136  1  0  0  0
 61137  1  0  0  0
 62138  1  0  0  0
 62139  1  0  0  0
 62140  1  0  0  0
 63 65  1  0  0  0
 63141  1  0  0  0
 63142  1  0  0  0
 63143  1  0  0  0
 64144  1  0  0  0
 65145  1  0  0  0
 68 82  1  0  0  0
 71 72  2  0  0  0
 71 75  1  0  0  0
 71146  1  0  0  0
 72 76  1  0  0  0
 72147  1  0  0  0
 73 74  1  0  0  0
 73 76  2  0  0  0
 73148  1  0  0  0
 74 75  2  0  0  0
 74 83  1  0  0  0
 75 84  1  0  0  0
 76 86  1  0  0  0
 77 78  2  0  0  0
 77 79  1  0  0  0
 77 85  1  0  0  0
 78149  1  0  0  0
 78150  1  0  0  0
 79 82  1  0  0  0
 79151  1  0  0  0
 79152  1  0  0  0
 80 81  1  0  0  0
 80 82  1  0  0  0
 80153  1  0  0  0
 80154  1  0  0  0
 81 85  1  0  0  0
 81155  1  0  0  0
 81156  1  0  0  0
 82157  1  0  0  0
 83158  1  0  0  0
 83159  1  0  0  0
 83 85  1  0  0  0
 84160  1  0  0  0
 85161  1  0  0  0
M  CHG  1  85   1
M  ISO  4   1 100  68 101  82 101  84 100
M  END
> <chiral flag>
0

> <version>
0

> <s_m_source_file>
/data/baiqing/PycharmProjects/Reinvent-master-3.2/result/LINK_invent/BTK/process_docking_weight1_custom_product_contain_oxygen_bond_distance_aromatic_linkinvent_7_9_3/rearranged_h_0047.sdf

> <i_m_source_file_index>
86

> <r_mmod_Potential_Energy-OPLS-2005>
555.176635742188

> <r_mmod_Stretch_Energy-OPLS-2005>
227.104446411133

> <r_mmod_Bend_Energy-OPLS-2005>
327.423431396484

> <r_mmod_Torsional_Energy-OPLS-2005>
412.070709228516

> <r_mmod_Improper_Torsional_Energy-OPLS-2005>
26.7867774963379

> <r_mmod_Van_der_Waal_Energy-OPLS-2005>
126.654724121094

> <r_mmod_Electrostatic_Energy-OPLS-2005>
-264.620269775391

> <r_mmod_Solvation_Energy-OPLS-2005>
-472.162963867188

> <b_mmod_Minimization_Converged-OPLS-2005>
0

> <r_mmod_RMS_Derivative-OPLS-2005>
6.88400602340698

$$$$
86
                    3D
 Structure written by MMmdl.
156164  0  0  1  0            999 V2000
  -30.5064  -14.9286   20.4552 C   0  0  0  0  0  0
  -30.4490  -12.5757   19.4975 C   0  0  0  0  0  0
  -29.5284  -12.5405   18.2538 C   0  0  0  0  0  0
  -28.0582  -12.3248   18.6642 C   0  0  0  0  0  0
  -27.6356  -13.2398   19.8431 C   0  0  2  0  0  0
  -28.6749  -13.2256   20.9835 C   0  0  0  0  0  0
  -25.2481  -13.8196   20.5656 C   0  0  0  0  0  0
  -24.1786  -13.0420   20.9192 C   0  0  0  0  0  0
  -24.6384  -11.6905   20.8719 C   0  0  0  0  0  0
  -23.9045  -10.4279   21.0390 C   0  0  0  0  0  0
  -24.3596   -9.4202   21.9168 C   0  0  0  0  0  0
  -23.6276   -8.2241   22.0747 C   0  0  0  0  0  0
  -22.4255   -8.0273   21.3544 C   0  0  0  0  0  0
  -21.9877   -9.0240   20.4643 C   0  0  0  0  0  0
  -22.7203  -10.2123   20.3050 C   0  0  0  0  0  0
  -21.6857   -6.0712   22.5268 C   0  0  0  0  0  0
  -21.4020   -6.5613   23.8202 C   0  0  0  0  0  0
  -21.3671   -5.6771   24.9172 C   0  0  0  0  0  0
  -21.6053   -4.3031   24.7226 C   0  0  0  0  0  0
  -21.8818   -3.8118   23.4341 C   0  0  0  0  0  0
  -21.9191   -4.6940   22.3401 C   0  0  0  0  0  0
  -22.7819  -13.5229   21.1863 C   0  0  0  0  0  0
  -22.1657   -4.2115   21.0980 F   0  0  0  0  0  0
  -21.5652   -3.4514   25.7740 F   0  0  0  0  0  0
  -29.9561  -13.6497   20.4027 N   0  0  0  0  0  0
  -26.2896  -12.9402   20.3203 N   0  0  0  0  0  0
  -25.9307  -11.6541   20.5687 N   0  0  0  0  0  0
  -22.0440  -12.8250   22.0437 N   0  0  0  0  0  0
  -25.4129  -15.1917   20.4076 N   0  0  0  0  0  0
  -31.6989  -15.0566   20.1483 O   0  0  0  0  0  0
  -21.6636   -6.8856   21.4234 O   0  0  0  0  0  0
  -22.3502  -14.5516   20.6678 O   0  0  0  0  0  0
  -24.6440  -31.8422   23.1904 C   0  0  0  0  0  0
  -25.9229  -32.4670   23.8288 C   0  0  1  0  0  0
  -27.2076  -27.1307   20.1951 C   0  0  0  0  0  0
  -25.5995  -33.8466   24.2198 N   0  0  0  0  0  0
  -23.4467  -30.4682   21.5274 C   0  0  2  0  0  0
  -24.9011  -28.8887   20.1205 C   0  0  0  0  0  0
  -22.7552  -29.4558   22.4766 C   0  0  0  0  0  0
  -18.0295  -28.1346   22.8428 C   0  0  0  0  0  0
  -24.1495  -36.7236   23.2642 C   0  0  0  0  0  0
  -26.0047  -30.7227   21.3909 C   0  0  0  0  0  0
  -26.0795  -29.3315   20.7382 C   0  0  0  0  0  0
  -27.2422  -28.4704   20.7550 C   0  0  0  0  0  0
  -26.0047  -26.7837   19.5468 C   0  0  0  0  0  0
  -24.8748  -27.6271   19.5084 C   0  0  0  0  0  0
  -23.6844  -29.7998   20.1470 C   0  0  0  0  0  0
  -25.4133  -36.3013   24.0320 C   0  0  1  0  0  0
  -20.5907  -28.3727   23.1183 C   0  0  2  0  0  0
  -20.6796  -26.9392   22.5456 C   0  0  0  0  0  0
  -19.5798  -26.6235   21.5266 C   0  0  0  0  0  0
  -18.1938  -26.7861   22.1605 C   0  0  0  0  0  0
  -19.1550  -28.8842   23.2799 C   0  0  0  0  0  0
  -18.9454  -30.1413   23.8872 C   0  0  0  0  0  0
  -17.6439  -30.6529   24.0538 C   0  0  0  0  0  0
  -25.9086  -34.9381   23.5067 C   0  0  0  0  0  0
  -16.5339  -29.9034   23.6252 C   0  0  0  0  0  0
  -16.7279  -28.6459   23.0287 C   0  0  0  0  0  0
  -26.4556  -31.6557   25.0739 C   0  0  0  0  0  0
  -25.3746  -31.3784   26.1448 C   0  0  0  0  0  0
  -27.0429  -30.2944   24.6372 C   0  0  0  0  0  0
  -27.6077  -32.4336   25.7527 C   0  0  0  0  0  0
  -27.5575  -37.1792   24.8472 C   0  0  0  0  0  0
  -21.4235  -29.3067   22.3549 N   0  0  0  0  0  0
  -26.4288  -37.3733   23.9415 N   0  0  0  0  0  0
  -24.7168  -31.0331   22.0909 N   0  0  0  0  0  0
  -23.4220  -28.8087   23.2892 O   0  0  0  0  0  0
  -28.2180  -26.1005   20.2385 O   0  0  0  0  0  0
  -26.5624  -34.8886   22.4616 O   0  0  0  0  0  0
  -23.5573  -32.1265   23.7166 O   0  0  0  0  0  0
  -29.8239  -19.8691   21.6928 C   0  0  0  0  0  0
  -30.1204  -18.4437   21.6317 C   0  0  0  0  0  0
  -28.8947  -18.3048   19.6311 C   0  0  0  0  0  0
  -29.0324  -20.6113   20.7431 C   0  0  0  0  0  0
  -28.5979  -19.7380   19.6782 C   0  0  0  0  0  0
  -29.6507  -17.5606   20.6026 C   0  0  0  0  0  0
  -27.9956  -24.8300   20.8818 C   0  0  0  0  0  0
  -26.9237  -24.0101   23.0691 C   0  0  0  0  0  0
  -28.4269  -22.1203   21.0998 C   0  0  0  0  0  0
  -27.6941  -20.3021   18.5867 C   0  0  0  0  0  0
  -29.6370  -16.0280   20.6752 N   0  0  0  0  0  0
  -28.6088  -23.5847   20.4959 N   0  0  0  0  0  0
  -27.1817  -24.9428   21.9602 N   0  3  0  0  0  0
  -27.8629  -19.6458   17.4388 F   0  0  0  0  0  0
  -27.9298  -21.5943   18.3587 F   0  0  0  0  0  0
  -31.4824  -12.7447   19.1947 H   0  0  0  0  0  0
  -30.4427  -11.6127   20.0108 H   0  0  0  0  0  0
  -29.8462  -11.7557   17.5652 H   0  0  0  0  0  0
  -29.6200  -13.4810   17.7077 H   0  0  0  0  0  0
  -27.9508  -11.2793   18.9530 H   0  0  0  0  0  0
  -27.3972  -12.4735   17.8101 H   0  0  0  0  0  0
  -27.6104  -14.2494   19.4316 H   0  0  0  0  0  0
  -28.7544  -12.2323   21.4287 H   0  0  0  0  0  0
  -28.3717  -13.8974   21.7870 H   0  0  0  0  0  0
  -25.2730   -9.5698   22.4744 H   0  0  0  0  0  0
  -23.9982   -7.4636   22.7465 H   0  0  0  0  0  0
  -21.0809   -8.8746   19.8935 H   0  0  0  0  0  0
  -22.3642  -10.9662   19.6158 H   0  0  0  0  0  0
  -21.2005   -7.6115   23.9705 H   0  0  0  0  0  0
  -21.1510   -6.0495   25.9081 H   0  0  0  0  0  0
  -22.0585   -2.7577   23.2849 H   0  0  0  0  0  0
  -22.4029  -11.9926   22.4869 H   0  0  0  0  0  0
  -21.1061  -13.1307   22.2608 H   0  0  0  0  0  0
  -24.6267  -15.8286   20.4771 H   0  0  0  0  0  0
  -26.2474  -15.6341   20.0443 H   0  0  0  0  0  0
  -26.7315  -32.5295   23.1037 H   0  0  0  0  0  0
  -25.0198  -33.9545   25.0394 H   0  0  0  0  0  0
  -22.7533  -31.2976   21.3702 H   0  0  0  0  0  0
  -23.3747  -35.9572   23.3289 H   0  0  0  0  0  0
  -24.3586  -36.8861   22.2057 H   0  0  0  0  0  0
  -23.7266  -37.6447   23.6669 H   0  0  0  0  0  0
  -26.1677  -31.4813   20.6244 H   0  0  0  0  0  0
  -26.8712  -30.7682   22.0399 H   0  0  0  0  0  0
  -28.1423  -28.8099   21.2507 H   0  0  0  0  0  0
  -25.9186  -25.8045   19.0976 H   0  0  0  0  0  0
  -23.9722  -27.2771   19.0266 H   0  0  0  0  0  0
  -23.8484  -30.5742   19.3975 H   0  0  0  0  0  0
  -22.7993  -29.2564   19.8114 H   0  0  0  0  0  0
  -25.1322  -36.1824   25.0812 H   0  0  0  0  0  0
  -21.0003  -28.3364   24.1294 H   0  0  0  0  0  0
  -20.5601  -26.2416   23.3765 H   0  0  0  0  0  0
  -21.6686  -26.7252   22.1327 H   0  0  0  0  0  0
  -19.6981  -25.6082   21.1439 H   0  0  0  0  0  0
  -19.6764  -27.2925   20.6708 H   0  0  0  0  0  0
  -17.4237  -26.6573   21.3974 H   0  0  0  0  0  0
  -18.0277  -26.0013   22.9007 H   0  0  0  0  0  0
  -19.7943  -30.7174   24.2299 H   0  0  0  0  0  0
  -17.4977  -31.6210   24.5151 H   0  0  0  0  0  0
  -15.5343  -30.2948   23.7516 H   0  0  0  0  0  0
  -15.8697  -28.0771   22.6962 H   0  0  0  0  0  0
  -24.5919  -30.7129   25.7815 H   0  0  0  0  0  0
  -24.8954  -32.2970   26.4830 H   0  0  0  0  0  0
  -25.8033  -30.9012   27.0263 H   0  0  0  0  0  0
  -26.3057  -29.6663   24.1365 H   0  0  0  0  0  0
  -27.3995  -29.7283   25.4989 H   0  0  0  0  0  0
  -27.8988  -30.4158   23.9730 H   0  0  0  0  0  0
  -27.2657  -33.3647   26.2060 H   0  0  0  0  0  0
  -28.3918  -32.6882   25.0385 H   0  0  0  0  0  0
  -28.0717  -31.8503   26.5494 H   0  0  0  0  0  0
  -28.2596  -38.0083   24.7490 H   0  0  0  0  0  0
  -28.1061  -36.2606   24.6327 H   0  0  0  0  0  0
  -27.2277  -37.1481   25.8871 H   0  0  0  0  0  0
  -20.9433  -29.8868   21.6803 H   0  0  0  0  0  0
  -26.0132  -38.2794   24.1420 H   0  0  0  0  0  0
  -30.1629  -20.3945   22.5764 H   0  0  0  0  0  0
  -30.6631  -18.0114   22.4613 H   0  0  0  0  0  0
  -28.4538  -17.7312   18.8291 H   0  0  0  0  0  0
  -26.4119  -23.1040   22.7486 H   0  0  0  0  0  0
  -26.3060  -24.4929   23.8303 H   0  0  0  0  0  0
  -27.8647  -23.7365   23.5495 H   0  0  0  0  0  0
  -28.6629  -22.2314   22.1566 H   0  0  0  0  0  0
  -27.3470  -21.9698   21.0808 H   0  0  0  0  0  0
  -26.6444  -20.2029   18.8673 H   0  0  0  0  0  0
  -28.7087  -15.6731   20.8543 H   0  0  0  0  0  0
  -29.2549  -23.6348   19.7232 H   0  0  0  0  0  0
  -26.7156  -25.8335   22.0601 H   0  0  0  0  0  0
  1 25  1  0  0  0
  1 30  2  0  0  0
  1 81  1  0  0  0
  2  3  1  0  0  0
  2 25  1  0  0  0
  2 86  1  0  0  0
  2 87  1  0  0  0
  3  4  1  0  0  0
  3 88  1  0  0  0
  3 89  1  0  0  0
  4  5  1  0  0  0
  4 90  1  0  0  0
  4 91  1  0  0  0
  5  6  1  0  0  0
  5 26  1  0  0  0
  5 92  1  0  0  0
  6 25  1  0  0  0
  6 93  1  0  0  0
  6 94  1  0  0  0
  7  8  2  0  0  0
  7 26  1  0  0  0
  7 29  1  0  0  0
  8  9  1  0  0  0
  8 22  1  0  0  0
  9 10  1  0  0  0
  9 27  2  0  0  0
 10 11  2  0  0  0
 10 15  1  0  0  0
 11 12  1  0  0  0
 11 95  1  0  0  0
 12 13  2  0  0  0
 12 96  1  0  0  0
 13 14  1  0  0  0
 13 31  1  0  0  0
 14 15  2  0  0  0
 14 97  1  0  0  0
 15 98  1  0  0  0
 16 17  2  0  0  0
 16 21  1  0  0  0
 16 31  1  0  0  0
 17 18  1  0  0  0
 17 99  1  0  0  0
 18 19  2  0  0  0
 18100  1  0  0  0
 19 20  1  0  0  0
 19 24  1  0  0  0
 20 21  2  0  0  0
 20101  1  0  0  0
 21 23  1  0  0  0
 22 28  1  0  0  0
 22 32  2  0  0  0
 26 27  1  0  0  0
 28102  1  0  0  0
 28103  1  0  0  0
 29104  1  0  0  0
 29105  1  0  0  0
 33 34  1  0  0  0
 33 66  1  0  0  0
 33 70  2  0  0  0
 34 36  1  0  0  0
 34 59  1  0  0  0
 34106  1  0  0  0
 35 44  2  0  0  0
 35 45  1  0  0  0
 35 68  1  0  0  0
 36 56  1  0  0  0
 36107  1  0  0  0
 37 39  1  0  0  0
 37 47  1  0  0  0
 37 66  1  0  0  0
 37108  1  0  0  0
 38 43  2  0  0  0
 38 46  1  0  0  0
 38 47  1  0  0  0
 39 64  1  0  0  0
 39 67  2  0  0  0
 40 52  1  0  0  0
 40 53  2  0  0  0
 40 58  1  0  0  0
 41109  1  0  0  0
 41110  1  0  0  0
 41111  1  0  0  0
 41 48  1  0  0  0
 42 43  1  0  0  0
 42 66  1  0  0  0
 42112  1  0  0  0
 42113  1  0  0  0
 43 44  1  0  0  0
 44114  1  0  0  0
 45 46  2  0  0  0
 45115  1  0  0  0
 46116  1  0  0  0
 47117  1  0  0  0
 47118  1  0  0  0
 48 56  1  0  0  0
 48 65  1  0  0  0
 48119  1  0  0  0
 49 50  1  0  0  0
 49 53  1  0  0  0
 49 64  1  0  0  0
 49120  1  0  0  0
 50 51  1  0  0  0
 50121  1  0  0  0
 50122  1  0  0  0
 51 52  1  0  0  0
 51123  1  0  0  0
 51124  1  0  0  0
 52125  1  0  0  0
 52126  1  0  0  0
 53 54  1  0  0  0
 54 55  2  0  0  0
 54127  1  0  0  0
 55 57  1  0  0  0
 55128  1  0  0  0
 56 69  2  0  0  0
 57 58  2  0  0  0
 57129  1  0  0  0
 58130  1  0  0  0
 59 60  1  0  0  0
 59 61  1  0  0  0
 59 62  1  0  0  0
 60131  1  0  0  0
 60132  1  0  0  0
 60133  1  0  0  0
 61134  1  0  0  0
 61135  1  0  0  0
 61136  1  0  0  0
 62137  1  0  0  0
 62138  1  0  0  0
 62139  1  0  0  0
 63 65  1  0  0  0
 63140  1  0  0  0
 63141  1  0  0  0
 63142  1  0  0  0
 64143  1  0  0  0
 65144  1  0  0  0
 68 77  1  0  0  0
 71 72  2  0  0  0
 71 74  1  0  0  0
 71145  1  0  0  0
 72 76  1  0  0  0
 72146  1  0  0  0
 73 75  1  0  0  0
 73 76  2  0  0  0
 73147  1  0  0  0
 74 75  2  0  0  0
 74 79  1  0  0  0
 75 80  1  0  0  0
 76 81  1  0  0  0
 77 82  1  0  0  0
 77 83  2  0  0  0
 78 83  1  0  0  0
 78148  1  0  0  0
 78149  1  0  0  0
 78150  1  0  0  0
 79 82  1  0  0  0
 79151  1  0  0  0
 79152  1  0  0  0
 80 84  1  0  0  0
 80 85  1  0  0  0
 80153  1  0  0  0
 81154  1  0  0  0
 82155  1  0  0  0
 83156  1  0  0  0
M  CHG  1  83   1
M  ISO  4   1 100  68 101  77 101  81 100
M  END
> <chiral flag>
0

> <version>
0

> <s_m_source_file>
/data/baiqing/PycharmProjects/Reinvent-master-3.2/result/LINK_invent/BTK/process_docking_weight1_custom_product_contain_oxygen_bond_distance_aromatic_linkinvent_7_9_3/rearranged_h_0047.sdf

> <i_m_source_file_index>
87

> <r_mmod_Potential_Energy-OPLS-2005>
400.451141357422

> <r_mmod_Stretch_Energy-OPLS-2005>
225.583770751953

> <r_mmod_Bend_Energy-OPLS-2005>
264.622131347656

> <r_mmod_Torsional_Energy-OPLS-2005>
268.977294921875

> <r_mmod_Improper_Torsional_Energy-OPLS-2005>
10.4042291641235

> <r_mmod_Van_der_Waal_Energy-OPLS-2005>
136.265899658203

> <r_mmod_Electrostatic_Energy-OPLS-2005>
-282.330810546875

> <r_mmod_Solvation_Energy-OPLS-2005>
-419.687591552734

> <b_mmod_Minimization_Converged-OPLS-2005>
0

> <r_mmod_RMS_Derivative-OPLS-2005>
4.03369855880737

$$$$
87
                    3D
 Structure written by MMmdl.
164173  0  0  1  0            999 V2000
  -30.6333  -14.5727   20.5103 C   0  0  0  0  0  0
  -30.4308  -12.3506   19.4414 C   0  0  0  0  0  0
  -29.4998  -12.5086   18.2186 C   0  0  0  0  0  0
  -28.0223  -12.3541   18.6303 C   0  0  0  0  0  0
  -27.6557  -13.2079   19.8725 C   0  0  2  0  0  0
  -28.6997  -13.0257   20.9990 C   0  0  0  0  0  0
  -25.2566  -13.8149   20.5690 C   0  0  0  0  0  0
  -24.1834  -13.0425   20.9201 C   0  0  0  0  0  0
  -24.6383  -11.6892   20.8747 C   0  0  0  0  0  0
  -23.9044  -10.4287   21.0417 C   0  0  0  0  0  0
  -24.3607   -9.4199   21.9186 C   0  0  0  0  0  0
  -23.6289   -8.2235   22.0753 C   0  0  0  0  0  0
  -22.4269   -8.0272   21.3548 C   0  0  0  0  0  0
  -21.9905   -9.0244   20.4650 C   0  0  0  0  0  0
  -22.7225  -10.2131   20.3064 C   0  0  0  0  0  0
  -21.6854   -6.0727   22.5277 C   0  0  0  0  0  0
  -21.4017   -6.5635   23.8212 C   0  0  0  0  0  0
  -21.3661   -5.6788   24.9175 C   0  0  0  0  0  0
  -21.6045   -4.3050   24.7226 C   0  0  0  0  0  0
  -21.8820   -3.8146   23.4346 C   0  0  0  0  0  0
  -21.9198   -4.6960   22.3399 C   0  0  0  0  0  0
  -22.7860  -13.5215   21.1861 C   0  0  0  0  0  0
  -22.1661   -4.2145   21.0975 F   0  0  0  0  0  0
  -21.5632   -3.4534   25.7742 F   0  0  0  0  0  0
  -30.0213  -13.3531   20.4408 N   0  0  0  0  0  0
  -26.2993  -12.9318   20.3363 N   0  0  0  0  0  0
  -25.9314  -11.6480   20.5791 N   0  0  0  0  0  0
  -22.0511  -12.8211   22.0423 N   0  0  0  0  0  0
  -25.4268  -15.1867   20.4030 N   0  0  0  0  0  0
  -31.7898  -14.7421   20.1135 O   0  0  0  0  0  0
  -21.6635   -6.8868   21.4239 O   0  0  0  0  0  0
  -22.3551  -14.5525   20.6712 O   0  0  0  0  0  0
  -24.6216  -31.8620   23.2050 C   0  0  0  0  0  0
  -25.9084  -32.4791   23.8364 C   0  0  1  0  0  0
  -27.2283  -27.3658   20.0969 C   0  0  0  0  0  0
  -25.5921  -33.8593   24.2298 N   0  0  0  0  0  0
  -23.4123  -30.4863   21.5468 C   0  0  2  0  0  0
  -24.8554  -28.9405   20.1142 C   0  0  0  0  0  0
  -22.7426  -29.4645   22.4959 C   0  0  0  0  0  0
  -18.0279  -28.1383   22.8496 C   0  0  0  0  0  0
  -24.1493  -36.7297   23.2634 C   0  0  0  0  0  0
  -25.9474  -30.8050   21.3677 C   0  0  0  0  0  0
  -26.0197  -29.4350   20.7115 C   0  0  0  0  0  0
  -27.2064  -28.6563   20.6952 C   0  0  0  0  0  0
  -26.0355  -26.8957   19.5032 C   0  0  0  0  0  0
  -24.8610  -27.6732   19.5084 C   0  0  0  0  0  0
  -23.6238  -29.8179   20.1620 C   0  0  0  0  0  0
  -25.4115  -36.3095   24.0336 C   0  0  1  0  0  0
  -20.5868  -28.3690   23.1299 C   0  0  2  0  0  0
  -20.6769  -26.9416   22.5427 C   0  0  0  0  0  0
  -19.5749  -26.6389   21.5218 C   0  0  0  0  0  0
  -18.1922  -26.7934   22.1613 C   0  0  0  0  0  0
  -19.1524  -28.8850   23.2897 C   0  0  0  0  0  0
  -18.9449  -30.1449   23.8922 C   0  0  0  0  0  0
  -17.6451  -30.6588   24.0574 C   0  0  0  0  0  0
  -25.9052  -34.9464   23.5119 C   0  0  0  0  0  0
  -16.5349  -29.9096   23.6325 C   0  0  0  0  0  0
  -16.7266  -28.6504   23.0359 C   0  0  0  0  0  0
  -26.4490  -31.6587   25.0715 C   0  0  0  0  0  0
  -25.3738  -31.3713   26.1451 C   0  0  0  0  0  0
  -27.0313  -30.3007   24.6147 C   0  0  0  0  0  0
  -27.6071  -32.4304   25.7463 C   0  0  0  0  0  0
  -27.5604  -37.1781   24.8444 C   0  0  0  0  0  0
  -21.4144  -29.3047   22.3688 N   0  0  0  0  0  0
  -26.4288  -37.3795   23.9433 N   0  0  0  0  0  0
  -24.6794  -31.0671   22.0981 N   0  0  0  0  0  0
  -23.4162  -28.8185   23.3030 O   0  0  0  0  0  0
  -28.4046  -26.6201   20.1157 O   0  0  0  0  0  0
  -26.5614  -34.8928   22.4678 O   0  0  0  0  0  0
  -23.5391  -32.1399   23.7411 O   0  0  0  0  0  0
  -31.0372  -17.7323   20.2574 C   0  0  0  0  0  0
  -28.6391  -17.7282   20.4319 C   0  0  0  0  0  0
  -31.0096  -19.0844   19.8107 C   0  0  0  0  0  0
  -29.7714  -19.7814   19.6181 C   0  0  0  0  0  0
  -29.8547  -17.0065   20.5265 C   0  0  0  0  0  0
  -28.5948  -19.0732   19.9770 C   0  0  0  0  0  0
  -30.4676  -23.5388   19.2829 C   0  0  0  0  0  0
  -31.7800  -23.2552   19.2711 C   0  0  0  0  0  0
  -29.9446  -24.9848   19.2734 C   0  0  0  0  0  0
  -28.1030  -24.1827   20.7797 C   0  0  0  0  0  0
  -28.3727  -22.6774   20.4019 C   0  0  0  0  0  0
  -28.4754  -25.2232   19.6854 C   0  0  1  0  0  0
  -32.3565  -19.7114   19.5000 C   0  0  0  0  0  0
  -29.6380  -21.1004   18.7703 C   0  0  0  0  0  0
  -29.8243  -15.6019   20.8908 N   0  0  0  0  0  0
  -29.3690  -22.4978   19.3088 N   0  3  2  0  0  0
  -27.3875  -19.6652   19.8142 F   0  0  0  0  0  0
  -31.4747  -12.4654   19.1436 H   0  0  0  0  0  0
  -30.3467  -11.3463   19.8591 H   0  0  0  0  0  0
  -29.7498  -11.7761   17.4500 H   0  0  0  0  0  0
  -29.6534  -13.4905   17.7667 H   0  0  0  0  0  0
  -27.8503  -11.2985   18.8428 H   0  0  0  0  0  0
  -27.3697  -12.6066   17.7938 H   0  0  0  0  0  0
  -27.6851  -14.2493   19.5533 H   0  0  0  0  0  0
  -28.6943  -11.9968   21.3627 H   0  0  0  0  0  0
  -28.4568  -13.6425   21.8664 H   0  0  0  0  0  0
  -25.2762   -9.5666   22.4751 H   0  0  0  0  0  0
  -23.9999   -7.4626   22.7471 H   0  0  0  0  0  0
  -21.0836   -8.8761   19.8960 H   0  0  0  0  0  0
  -22.3684  -10.9666   19.6174 H   0  0  0  0  0  0
  -21.2000   -7.6142   23.9709 H   0  0  0  0  0  0
  -21.1487   -6.0522   25.9072 H   0  0  0  0  0  0
  -22.0599   -2.7606   23.2852 H   0  0  0  0  0  0
  -22.4134  -11.9848   22.4767 H   0  0  0  0  0  0
  -21.1137  -13.1251   22.2671 H   0  0  0  0  0  0
  -24.6448  -15.8292   20.4706 H   0  0  0  0  0  0
  -26.2463  -15.6073   19.9867 H   0  0  0  0  0  0
  -26.7151  -32.5473   23.1115 H   0  0  0  0  0  0
  -25.0082  -33.9741   25.0453 H   0  0  0  0  0  0
  -22.7047  -31.3055   21.4038 H   0  0  0  0  0  0
  -23.3793  -35.9583   23.3215 H   0  0  0  0  0  0
  -24.3599  -36.8995   22.2063 H   0  0  0  0  0  0
  -23.7194  -37.6453   23.6708 H   0  0  0  0  0  0
  -26.0731  -31.5688   20.5993 H   0  0  0  0  0  0
  -26.8300  -30.8532   21.9939 H   0  0  0  0  0  0
  -28.1063  -29.0372   21.1575 H   0  0  0  0  0  0
  -25.9771  -25.9262   19.0341 H   0  0  0  0  0  0
  -23.9635  -27.2851   19.0468 H   0  0  0  0  0  0
  -23.7392  -30.5914   19.4015 H   0  0  0  0  0  0
  -22.7437  -29.2447   19.8666 H   0  0  0  0  0  0
  -25.1284  -36.1947   25.0824 H   0  0  0  0  0  0
  -20.9968  -28.3282   24.1418 H   0  0  0  0  0  0
  -20.5664  -26.2303   23.3625 H   0  0  0  0  0  0
  -21.6642  -26.7442   22.1243 H   0  0  0  0  0  0
  -19.6920  -25.6305   21.1235 H   0  0  0  0  0  0
  -19.6702  -27.3206   20.6754 H   0  0  0  0  0  0
  -17.4207  -26.6717   21.3995 H   0  0  0  0  0  0
  -18.0292  -26.0062   22.8987 H   0  0  0  0  0  0
  -19.7923  -30.7260   24.2310 H   0  0  0  0  0  0
  -17.5006  -31.6265   24.5183 H   0  0  0  0  0  0
  -15.5348  -30.3012   23.7627 H   0  0  0  0  0  0
  -15.8665  -28.0830   22.7070 H   0  0  0  0  0  0
  -24.5959  -30.6992   25.7805 H   0  0  0  0  0  0
  -24.8874  -32.2865   26.4838 H   0  0  0  0  0  0
  -25.8086  -30.8953   27.0247 H   0  0  0  0  0  0
  -26.2864  -29.6754   24.1207 H   0  0  0  0  0  0
  -27.4044  -29.7270   25.4644 H   0  0  0  0  0  0
  -27.8722  -30.4289   23.9325 H   0  0  0  0  0  0
  -27.2718  -33.3611   26.2046 H   0  0  0  0  0  0
  -28.3867  -32.6839   25.0270 H   0  0  0  0  0  0
  -28.0753  -31.8418   26.5359 H   0  0  0  0  0  0
  -28.2561  -38.0144   24.7603 H   0  0  0  0  0  0
  -28.1167  -36.2682   24.6123 H   0  0  0  0  0  0
  -27.2337  -37.1256   25.8845 H   0  0  0  0  0  0
  -20.9314  -29.8761   21.6897 H   0  0  0  0  0  0
  -26.0165  -38.2850   24.1513 H   0  0  0  0  0  0
  -31.9918  -17.2359   20.3636 H   0  0  0  0  0  0
  -27.7037  -17.2365   20.6550 H   0  0  0  0  0  0
  -32.5073  -24.0548   19.2533 H   0  0  0  0  0  0
  -32.1678  -22.2590   19.2641 H   0  0  0  0  0  0
  -30.1223  -25.4176   18.2881 H   0  0  0  0  0  0
  -30.5871  -25.5435   19.9561 H   0  0  0  0  0  0
  -28.6787  -24.4161   21.6762 H   0  0  0  0  0  0
  -27.0572  -24.3007   21.0662 H   0  0  0  0  0  0
  -27.4396  -22.2097   20.0857 H   0  0  0  0  0  0
  -28.7087  -22.1321   21.2845 H   0  0  0  0  0  0
  -27.8686  -25.0566   18.7968 H   0  0  0  0  0  0
  -33.1553  -18.9697   19.5246 H   0  0  0  0  0  0
  -32.6018  -20.4514   20.2607 H   0  0  0  0  0  0
  -32.3855  -20.1592   18.5080 H   0  0  0  0  0  0
  -28.7835  -20.9138   18.1188 H   0  0  0  0  0  0
  -30.4570  -21.1494   18.0544 H   0  0  0  0  0  0
  -28.9315  -15.2768   21.2263 H   0  0  0  0  0  0
  -28.7935  -22.7856   18.5310 H   0  0  0  0  0  0
  1 25  1  0  0  0
  1 30  2  0  0  0
  1 85  1  0  0  0
  2  3  1  0  0  0
  2 25  1  0  0  0
  2 88  1  0  0  0
  2 89  1  0  0  0
  3  4  1  0  0  0
  3 90  1  0  0  0
  3 91  1  0  0  0
  4  5  1  0  0  0
  4 92  1  0  0  0
  4 93  1  0  0  0
  5  6  1  0  0  0
  5 26  1  0  0  0
  5 94  1  0  0  0
  6 25  1  0  0  0
  6 95  1  0  0  0
  6 96  1  0  0  0
  7  8  2  0  0  0
  7 26  1  0  0  0
  7 29  1  0  0  0
  8  9  1  0  0  0
  8 22  1  0  0  0
  9 10  1  0  0  0
  9 27  2  0  0  0
 10 11  2  0  0  0
 10 15  1  0  0  0
 11 12  1  0  0  0
 11 97  1  0  0  0
 12 13  2  0  0  0
 12 98  1  0  0  0
 13 14  1  0  0  0
 13 31  1  0  0  0
 14 15  2  0  0  0
 14 99  1  0  0  0
 15100  1  0  0  0
 16 17  2  0  0  0
 16 21  1  0  0  0
 16 31  1  0  0  0
 17 18  1  0  0  0
 17101  1  0  0  0
 18 19  2  0  0  0
 18102  1  0  0  0
 19 20  1  0  0  0
 19 24  1  0  0  0
 20 21  2  0  0  0
 20103  1  0  0  0
 21 23  1  0  0  0
 22 28  1  0  0  0
 22 32  2  0  0  0
 26 27  1  0  0  0
 28104  1  0  0  0
 28105  1  0  0  0
 29106  1  0  0  0
 29107  1  0  0  0
 33 34  1  0  0  0
 33 66  1  0  0  0
 33 70  2  0  0  0
 34 36  1  0  0  0
 34 59  1  0  0  0
 34108  1  0  0  0
 35 44  2  0  0  0
 35 45  1  0  0  0
 35 68  1  0  0  0
 36 56  1  0  0  0
 36109  1  0  0  0
 37 39  1  0  0  0
 37 47  1  0  0  0
 37 66  1  0  0  0
 37110  1  0  0  0
 38 43  2  0  0  0
 38 46  1  0  0  0
 38 47  1  0  0  0
 39 64  1  0  0  0
 39 67  2  0  0  0
 40 52  1  0  0  0
 40 53  2  0  0  0
 40 58  1  0  0  0
 41111  1  0  0  0
 41112  1  0  0  0
 41113  1  0  0  0
 41 48  1  0  0  0
 42 43  1  0  0  0
 42 66  1  0  0  0
 42114  1  0  0  0
 42115  1  0  0  0
 43 44  1  0  0  0
 44116  1  0  0  0
 45 46  2  0  0  0
 45117  1  0  0  0
 46118  1  0  0  0
 47119  1  0  0  0
 47120  1  0  0  0
 48 56  1  0  0  0
 48 65  1  0  0  0
 48121  1  0  0  0
 49 50  1  0  0  0
 49 53  1  0  0  0
 49 64  1  0  0  0
 49122  1  0  0  0
 50 51  1  0  0  0
 50123  1  0  0  0
 50124  1  0  0  0
 51 52  1  0  0  0
 51125  1  0  0  0
 51126  1  0  0  0
 52127  1  0  0  0
 52128  1  0  0  0
 53 54  1  0  0  0
 54 55  2  0  0  0
 54129  1  0  0  0
 55 57  1  0  0  0
 55130  1  0  0  0
 56 69  2  0  0  0
 57 58  2  0  0  0
 57131  1  0  0  0
 58132  1  0  0  0
 59 60  1  0  0  0
 59 61  1  0  0  0
 59 62  1  0  0  0
 60133  1  0  0  0
 60134  1  0  0  0
 60135  1  0  0  0
 61136  1  0  0  0
 61137  1  0  0  0
 61138  1  0  0  0
 62139  1  0  0  0
 62140  1  0  0  0
 62141  1  0  0  0
 63 65  1  0  0  0
 63142  1  0  0  0
 63143  1  0  0  0
 63144  1  0  0  0
 64145  1  0  0  0
 65146  1  0  0  0
 68 82  1  0  0  0
 71 73  2  0  0  0
 71 75  1  0  0  0
 71147  1  0  0  0
 72 75  2  0  0  0
 72 76  1  0  0  0
 72148  1  0  0  0
 73 74  1  0  0  0
 73 83  1  0  0  0
 74 76  2  0  0  0
 74 84  1  0  0  0
 75 85  1  0  0  0
 76 87  1  0  0  0
 77 78  2  0  0  0
 77 79  1  0  0  0
 77 86  1  0  0  0
 78149  1  0  0  0
 78150  1  0  0  0
 79 82  1  0  0  0
 79151  1  0  0  0
 79152  1  0  0  0
 80 81  1  0  0  0
 80 82  1  0  0  0
 80153  1  0  0  0
 80154  1  0  0  0
 81 86  1  0  0  0
 81155  1  0  0  0
 81156  1  0  0  0
 82157  1  0  0  0
 83158  1  0  0  0
 83159  1  0  0  0
 83160  1  0  0  0
 84161  1  0  0  0
 84162  1  0  0  0
 84 86  1  0  0  0
 85163  1  0  0  0
 86164  1  0  0  0
M  CHG  1  86   1
M  ISO  4   1 100  68 101  82 101  85 100
M  END
> <chiral flag>
0

> <version>
0

> <s_m_source_file>
/data/baiqing/PycharmProjects/Reinvent-master-3.2/result/LINK_invent/BTK/process_docking_weight1_custom_product_contain_oxygen_bond_distance_aromatic_linkinvent_7_9_3/rearranged_h_0047.sdf

> <i_m_source_file_index>
88

> <r_mmod_Potential_Energy-OPLS-2005>
-24.6649303436279

> <r_mmod_Stretch_Energy-OPLS-2005>
64.3330612182617

> <r_mmod_Bend_Energy-OPLS-2005>
182.688720703125

> <r_mmod_Torsional_Energy-OPLS-2005>
246.103500366211

> <r_mmod_Improper_Torsional_Energy-OPLS-2005>
7.61284255981445

> <r_mmod_Van_der_Waal_Energy-OPLS-2005>
152.790603637695

> <r_mmod_Electrostatic_Energy-OPLS-2005>
-272.859649658203

> <r_mmod_Solvation_Energy-OPLS-2005>
-433.191284179688

> <b_mmod_Minimization_Converged-OPLS-2005>
0

> <r_mmod_RMS_Derivative-OPLS-2005>
1.86534476280212

$$$$
88
                    3D
 Structure written by MMmdl.
155163  0  0  1  0            999 V2000
  -30.7086  -14.4437   20.5799 C   0  0  0  0  0  0
  -30.4220  -12.2952   19.4143 C   0  0  0  0  0  0
  -29.4906  -12.5080   18.2028 C   0  0  0  0  0  0
  -28.0097  -12.3746   18.6159 C   0  0  0  0  0  0
  -27.6648  -13.2001   19.8858 C   0  0  2  0  0  0
  -28.7075  -12.9356   20.9941 C   0  0  0  0  0  0
  -25.2602  -13.8141   20.5684 C   0  0  0  0  0  0
  -24.1839  -13.0427   20.9160 C   0  0  0  0  0  0
  -24.6389  -11.6889   20.8742 C   0  0  0  0  0  0
  -23.9072  -10.4283   21.0403 C   0  0  0  0  0  0
  -24.3622   -9.4200   21.9184 C   0  0  0  0  0  0
  -23.6289   -8.2241   22.0760 C   0  0  0  0  0  0
  -22.4271   -8.0284   21.3550 C   0  0  0  0  0  0
  -21.9907   -9.0254   20.4654 C   0  0  0  0  0  0
  -22.7241  -10.2125   20.3056 C   0  0  0  0  0  0
  -21.6854   -6.0741   22.5286 C   0  0  0  0  0  0
  -21.4010   -6.5643   23.8221 C   0  0  0  0  0  0
  -21.3657   -5.6792   24.9182 C   0  0  0  0  0  0
  -21.6048   -4.3057   24.7225 C   0  0  0  0  0  0
  -21.8823   -3.8150   23.4349 C   0  0  0  0  0  0
  -21.9187   -4.6968   22.3406 C   0  0  0  0  0  0
  -22.7864  -13.5231   21.1823 C   0  0  0  0  0  0
  -22.1659   -4.2154   21.0981 F   0  0  0  0  0  0
  -21.5632   -3.4538   25.7742 F   0  0  0  0  0  0
  -30.0295  -13.2710   20.4447 N   0  0  0  0  0  0
  -26.3041  -12.9300   20.3426 N   0  0  0  0  0  0
  -25.9316  -11.6472   20.5806 N   0  0  0  0  0  0
  -22.0511  -12.8223   22.0385 N   0  0  0  0  0  0
  -25.4341  -15.1857   20.4092 N   0  0  0  0  0  0
  -31.8408  -14.6110   20.1240 O   0  0  0  0  0  0
  -21.6635   -6.8877   21.4246 O   0  0  0  0  0  0
  -22.3551  -14.5538   20.6684 O   0  0  0  0  0  0
  -24.6130  -31.8694   23.2095 C   0  0  0  0  0  0
  -25.9042  -32.4814   23.8388 C   0  0  1  0  0  0
  -27.2357  -27.4438   20.0858 C   0  0  0  0  0  0
  -25.5894  -33.8609   24.2312 N   0  0  0  0  0  0
  -23.3994  -30.4915   21.5528 C   0  0  2  0  0  0
  -24.8451  -28.9567   20.1155 C   0  0  0  0  0  0
  -22.7378  -29.4646   22.5003 C   0  0  0  0  0  0
  -18.0261  -28.1336   22.8509 C   0  0  0  0  0  0
  -24.1490  -36.7330   23.2641 C   0  0  0  0  0  0
  -25.9280  -30.8342   21.3633 C   0  0  0  0  0  0
  -26.0044  -29.4698   20.7111 C   0  0  0  0  0  0
  -27.1998  -28.7183   20.6959 C   0  0  0  0  0  0
  -26.0548  -26.9408   19.4895 C   0  0  0  0  0  0
  -24.8632  -27.6899   19.5051 C   0  0  0  0  0  0
  -23.6078  -29.8235   20.1674 C   0  0  0  0  0  0
  -25.4107  -36.3099   24.0329 C   0  0  1  0  0  0
  -20.5848  -28.3643   23.1313 C   0  0  2  0  0  0
  -20.6770  -26.9386   22.5416 C   0  0  0  0  0  0
  -19.5752  -26.6362   21.5211 C   0  0  0  0  0  0
  -18.1925  -26.7883   22.1651 C   0  0  0  0  0  0
  -19.1514  -28.8800   23.2904 C   0  0  0  0  0  0
  -18.9461  -30.1406   23.8922 C   0  0  0  0  0  0
  -17.6479  -30.6580   24.0537 C   0  0  0  0  0  0
  -25.9033  -34.9468   23.5115 C   0  0  0  0  0  0
  -16.5364  -29.9093   23.6307 C   0  0  0  0  0  0
  -16.7255  -28.6484   23.0357 C   0  0  0  0  0  0
  -26.4470  -31.6582   25.0708 C   0  0  0  0  0  0
  -25.3744  -31.3703   26.1459 C   0  0  0  0  0  0
  -27.0295  -30.3020   24.6068 C   0  0  0  0  0  0
  -27.6026  -32.4308   25.7487 C   0  0  0  0  0  0
  -27.5571  -37.1811   24.8455 C   0  0  0  0  0  0
  -21.4107  -29.3050   22.3761 N   0  0  0  0  0  0
  -26.4288  -37.3776   23.9397 N   0  0  0  0  0  0
  -24.6660  -31.0779   22.1012 N   0  0  0  0  0  0
  -23.4149  -28.8173   23.3033 O   0  0  0  0  0  0
  -28.4228  -26.7409   20.1030 O   0  0  0  0  0  0
  -26.5600  -34.8912   22.4677 O   0  0  0  0  0  0
  -23.5325  -32.1463   23.7489 O   0  0  0  0  0  0
  -28.8456  -18.2973   21.3617 C   0  0  0  0  0  0
  -29.3312  -20.1538   22.8614 C   0  0  0  0  0  0
  -29.7479  -17.8575   23.5806 C   0  0  0  0  0  0
  -28.8558  -19.6895   21.6142 C   0  0  0  0  0  0
  -29.2886  -17.3761   22.3369 C   0  0  0  0  0  0
  -29.7717  -19.2406   23.8399 C   0  0  0  0  0  0
  -28.5064  -24.3744   20.4573 C   0  0  0  0  0  0
  -28.4565  -25.4484   19.6423 C   0  0  0  0  0  0
  -28.5541  -23.0311   19.8980 C   0  0  0  0  0  0
  -28.3425  -20.6374   20.5295 C   0  0  0  0  0  0
  -29.2512  -15.8793   22.0553 C   0  0  0  0  0  0
  -28.4254  -22.0712   20.8260 N   0  0  0  0  0  0
  -29.9867  -15.5441   20.8405 N   0  0  0  0  0  0
  -28.6857  -22.7716   18.6992 O   0  0  0  0  0  0
  -30.3385  -19.8191   25.3639 Cl  0  0  0  0  0  0
  -31.4665  -12.3916   19.1116 H   0  0  0  0  0  0
  -30.3216  -11.2800   19.7997 H   0  0  0  0  0  0
  -29.7238  -11.7929   17.4133 H   0  0  0  0  0  0
  -29.6632  -13.4971   17.7769 H   0  0  0  0  0  0
  -27.8104  -11.3179   18.7986 H   0  0  0  0  0  0
  -27.3584  -12.6652   17.7901 H   0  0  0  0  0  0
  -27.7203  -14.2545   19.6115 H   0  0  0  0  0  0
  -28.6897  -11.8817   21.2750 H   0  0  0  0  0  0
  -28.4763  -13.4565   21.9194 H   0  0  0  0  0  0
  -25.2768   -9.5665   22.4757 H   0  0  0  0  0  0
  -24.0003   -7.4623   22.7475 H   0  0  0  0  0  0
  -21.0848   -8.8772   19.8956 H   0  0  0  0  0  0
  -22.3709  -10.9664   19.6164 H   0  0  0  0  0  0
  -21.2010   -7.6147   23.9725 H   0  0  0  0  0  0
  -21.1474   -6.0522   25.9083 H   0  0  0  0  0  0
  -22.0604   -2.7612   23.2847 H   0  0  0  0  0  0
  -22.4130  -11.9863   22.4742 H   0  0  0  0  0  0
  -21.1145  -13.1254   22.2645 H   0  0  0  0  0  0
  -24.6684  -15.8419   20.5216 H   0  0  0  0  0  0
  -26.2938  -15.6226   20.1013 H   0  0  0  0  0  0
  -26.7116  -32.5510   23.1153 H   0  0  0  0  0  0
  -25.0005  -33.9764   25.0428 H   0  0  0  0  0  0
  -22.6889  -31.3096   21.4150 H   0  0  0  0  0  0
  -23.3724  -35.9692   23.3319 H   0  0  0  0  0  0
  -24.3592  -36.8937   22.2054 H   0  0  0  0  0  0
  -23.7278  -37.6551   23.6654 H   0  0  0  0  0  0
  -26.0367  -31.6001   20.5944 H   0  0  0  0  0  0
  -26.8183  -30.8871   21.9783 H   0  0  0  0  0  0
  -28.0998  -29.1098   21.1497 H   0  0  0  0  0  0
  -26.0405  -25.9717   19.0130 H   0  0  0  0  0  0
  -23.9729  -27.2857   19.0420 H   0  0  0  0  0  0
  -23.7201  -30.5984   19.4104 H   0  0  0  0  0  0
  -22.7312  -29.2473   19.8656 H   0  0  0  0  0  0
  -25.1288  -36.1965   25.0821 H   0  0  0  0  0  0
  -20.9908  -28.3174   24.1445 H   0  0  0  0  0  0
  -20.5654  -26.2262   23.3599 H   0  0  0  0  0  0
  -21.6655  -26.7432   22.1241 H   0  0  0  0  0  0
  -19.6938  -25.6259   21.1255 H   0  0  0  0  0  0
  -19.6683  -27.3175   20.6746 H   0  0  0  0  0  0
  -17.4198  -26.6603   21.4055 H   0  0  0  0  0  0
  -18.0364  -26.0014   22.9058 H   0  0  0  0  0  0
  -19.7962  -30.7192   24.2306 H   0  0  0  0  0  0
  -17.5048  -31.6301   24.5087 H   0  0  0  0  0  0
  -15.5387  -30.3055   23.7577 H   0  0  0  0  0  0
  -15.8636  -28.0819   22.7068 H   0  0  0  0  0  0
  -24.5891  -30.7074   25.7808 H   0  0  0  0  0  0
  -24.8979  -32.2880   26.4920 H   0  0  0  0  0  0
  -25.8104  -30.8857   27.0211 H   0  0  0  0  0  0
  -26.2831  -29.6785   24.1120 H   0  0  0  0  0  0
  -27.4080  -29.7229   25.4514 H   0  0  0  0  0  0
  -27.8665  -30.4345   23.9201 H   0  0  0  0  0  0
  -27.2597  -33.3573   26.2108 H   0  0  0  0  0  0
  -28.3810  -32.6930   25.0310 H   0  0  0  0  0  0
  -28.0719  -31.8419   26.5378 H   0  0  0  0  0  0
  -28.2583  -38.0109   24.7468 H   0  0  0  0  0  0
  -28.1065  -36.2630   24.6318 H   0  0  0  0  0  0
  -27.2278  -37.1509   25.8854 H   0  0  0  0  0  0
  -20.9252  -29.8796   21.7005 H   0  0  0  0  0  0
  -26.0180  -38.2850   24.1407 H   0  0  0  0  0  0
  -28.4813  -17.9316   20.4103 H   0  0  0  0  0  0
  -29.3614  -21.2091   23.0875 H   0  0  0  0  0  0
  -30.0808  -17.1719   24.3459 H   0  0  0  0  0  0
  -28.5125  -24.5195   21.5288 H   0  0  0  0  0  0
  -28.4480  -25.3997   18.5614 H   0  0  0  0  0  0
  -27.2966  -20.3993   20.3343 H   0  0  0  0  0  0
  -28.8865  -20.4061   19.6116 H   0  0  0  0  0  0
  -28.2024  -15.6099   21.9360 H   0  0  0  0  0  0
  -29.6371  -15.3148   22.9065 H   0  0  0  0  0  0
  -28.2790  -22.3572   21.7829 H   0  0  0  0  0  0
  -30.4495  -16.3597   20.4700 H   0  0  0  0  0  0
  1 25  1  0  0  0
  1 30  2  0  0  0
  1 83  1  0  0  0
  2  3  1  0  0  0
  2 25  1  0  0  0
  2 86  1  0  0  0
  2 87  1  0  0  0
  3  4  1  0  0  0
  3 88  1  0  0  0
  3 89  1  0  0  0
  4  5  1  0  0  0
  4 90  1  0  0  0
  4 91  1  0  0  0
  5  6  1  0  0  0
  5 26  1  0  0  0
  5 92  1  0  0  0
  6 25  1  0  0  0
  6 93  1  0  0  0
  6 94  1  0  0  0
  7  8  2  0  0  0
  7 26  1  0  0  0
  7 29  1  0  0  0
  8  9  1  0  0  0
  8 22  1  0  0  0
  9 10  1  0  0  0
  9 27  2  0  0  0
 10 11  2  0  0  0
 10 15  1  0  0  0
 11 12  1  0  0  0
 11 95  1  0  0  0
 12 13  2  0  0  0
 12 96  1  0  0  0
 13 14  1  0  0  0
 13 31  1  0  0  0
 14 15  2  0  0  0
 14 97  1  0  0  0
 15 98  1  0  0  0
 16 17  2  0  0  0
 16 21  1  0  0  0
 16 31  1  0  0  0
 17 18  1  0  0  0
 17 99  1  0  0  0
 18 19  2  0  0  0
 18100  1  0  0  0
 19 20  1  0  0  0
 19 24  1  0  0  0
 20 21  2  0  0  0
 20101  1  0  0  0
 21 23  1  0  0  0
 22 28  1  0  0  0
 22 32  2  0  0  0
 26 27  1  0  0  0
 28102  1  0  0  0
 28103  1  0  0  0
 29104  1  0  0  0
 29105  1  0  0  0
 33 34  1  0  0  0
 33 66  1  0  0  0
 33 70  2  0  0  0
 34 36  1  0  0  0
 34 59  1  0  0  0
 34106  1  0  0  0
 35 44  2  0  0  0
 35 45  1  0  0  0
 35 68  1  0  0  0
 36 56  1  0  0  0
 36107  1  0  0  0
 37 39  1  0  0  0
 37 47  1  0  0  0
 37 66  1  0  0  0
 37108  1  0  0  0
 38 43  2  0  0  0
 38 46  1  0  0  0
 38 47  1  0  0  0
 39 64  1  0  0  0
 39 67  2  0  0  0
 40 52  1  0  0  0
 40 53  2  0  0  0
 40 58  1  0  0  0
 41109  1  0  0  0
 41110  1  0  0  0
 41111  1  0  0  0
 41 48  1  0  0  0
 42 43  1  0  0  0
 42 66  1  0  0  0
 42112  1  0  0  0
 42113  1  0  0  0
 43 44  1  0  0  0
 44114  1  0  0  0
 45 46  2  0  0  0
 45115  1  0  0  0
 46116  1  0  0  0
 47117  1  0  0  0
 47118  1  0  0  0
 48 56  1  0  0  0
 48 65  1  0  0  0
 48119  1  0  0  0
 49 50  1  0  0  0
 49 53  1  0  0  0
 49 64  1  0  0  0
 49120  1  0  0  0
 50 51  1  0  0  0
 50121  1  0  0  0
 50122  1  0  0  0
 51 52  1  0  0  0
 51123  1  0  0  0
 51124  1  0  0  0
 52125  1  0  0  0
 52126  1  0  0  0
 53 54  1  0  0  0
 54 55  2  0  0  0
 54127  1  0  0  0
 55 57  1  0  0  0
 55128  1  0  0  0
 56 69  2  0  0  0
 57 58  2  0  0  0
 57129  1  0  0  0
 58130  1  0  0  0
 59 60  1  0  0  0
 59 61  1  0  0  0
 59 62  1  0  0  0
 60131  1  0  0  0
 60132  1  0  0  0
 60133  1  0  0  0
 61134  1  0  0  0
 61135  1  0  0  0
 61136  1  0  0  0
 62137  1  0  0  0
 62138  1  0  0  0
 62139  1  0  0  0
 63 65  1  0  0  0
 63140  1  0  0  0
 63141  1  0  0  0
 63142  1  0  0  0
 64143  1  0  0  0
 65144  1  0  0  0
 68 78  1  0  0  0
 71 74  2  0  0  0
 71 75  1  0  0  0
 71145  1  0  0  0
 72 74  1  0  0  0
 72 76  2  0  0  0
 72146  1  0  0  0
 73 75  2  0  0  0
 73 76  1  0  0  0
 73147  1  0  0  0
 74 80  1  0  0  0
 75 81  1  0  0  0
 76 85  1  0  0  0
 77 78  2  0  0  0
 77 79  1  0  0  0
 77148  1  0  0  0
 78149  1  0  0  0
 79 82  1  0  0  0
 79 84  2  0  0  0
 80 82  1  0  0  0
 80150  1  0  0  0
 80151  1  0  0  0
 81 83  1  0  0  0
 81152  1  0  0  0
 81153  1  0  0  0
 82154  1  0  0  0
 83155  1  0  0  0
M  ISO  4   1 100  68 101  78 101  83 100
M  END
> <chiral flag>
0

> <version>
0

> <s_m_source_file>
/data/baiqing/PycharmProjects/Reinvent-master-3.2/result/LINK_invent/BTK/process_docking_weight1_custom_product_contain_oxygen_bond_distance_aromatic_linkinvent_7_9_3/rearranged_h_0047.sdf

> <i_m_source_file_index>
89

> <r_mmod_Potential_Energy-OPLS-2005>
-162.300674438477

> <r_mmod_Stretch_Energy-OPLS-2005>
33.2746887207031

> <r_mmod_Bend_Energy-OPLS-2005>
106.382919311523

> <r_mmod_Torsional_Energy-OPLS-2005>
248.051879882812

> <r_mmod_Improper_Torsional_Energy-OPLS-2005>
15.1115131378174

> <r_mmod_Van_der_Waal_Energy-OPLS-2005>
155.371231079102

> <r_mmod_Electrostatic_Energy-OPLS-2005>
-502.013397216797

> <r_mmod_Solvation_Energy-OPLS-2005>
-229.954452514648

> <b_mmod_Minimization_Converged-OPLS-2005>
0

> <r_mmod_RMS_Derivative-OPLS-2005>
2.6053032875061

$$$$
89
                    3D
 Structure written by MMmdl.
166175  0  0  1  0            999 V2000
  -30.5694  -14.7769   20.4132 C   0  0  0  0  0  0
  -30.4184  -12.4638   19.4978 C   0  0  0  0  0  0
  -29.5140  -12.5452   18.2529 C   0  0  0  0  0  0
  -28.0412  -12.3495   18.6497 C   0  0  0  0  0  0
  -27.6363  -13.2418   19.8535 C   0  0  2  0  0  0
  -28.6696  -13.1870   20.9977 C   0  0  0  0  0  0
  -25.2449  -13.8206   20.5648 C   0  0  0  0  0  0
  -24.1748  -13.0431   20.9138 C   0  0  0  0  0  0
  -24.6355  -11.6918   20.8681 C   0  0  0  0  0  0
  -23.9033  -10.4295   21.0360 C   0  0  0  0  0  0
  -24.3608   -9.4248   21.9166 C   0  0  0  0  0  0
  -23.6305   -8.2277   22.0753 C   0  0  0  0  0  0
  -22.4285   -8.0279   21.3543 C   0  0  0  0  0  0
  -21.9897   -9.0236   20.4632 C   0  0  0  0  0  0
  -22.7198  -10.2124   20.3029 C   0  0  0  0  0  0
  -21.6891   -6.0700   22.5264 C   0  0  0  0  0  0
  -21.4049   -6.5611   23.8191 C   0  0  0  0  0  0
  -21.3681   -5.6772   24.9160 C   0  0  0  0  0  0
  -21.6062   -4.3030   24.7233 C   0  0  0  0  0  0
  -21.8819   -3.8111   23.4351 C   0  0  0  0  0  0
  -21.9207   -4.6924   22.3398 C   0  0  0  0  0  0
  -22.7776  -13.5243   21.1834 C   0  0  0  0  0  0
  -22.1660   -4.2103   21.0978 F   0  0  0  0  0  0
  -21.5648   -3.4522   25.7751 F   0  0  0  0  0  0
  -29.9753  -13.5319   20.4241 N   0  0  0  0  0  0
  -26.2888  -12.9423   20.3246 N   0  0  0  0  0  0
  -25.9299  -11.6556   20.5698 N   0  0  0  0  0  0
  -22.0431  -12.8225   22.0380 N   0  0  0  0  0  0
  -25.4141  -15.1920   20.4078 N   0  0  0  0  0  0
  -31.7582  -14.8695   20.0897 O   0  0  0  0  0  0
  -21.6683   -6.8842   21.4216 O   0  0  0  0  0  0
  -22.3441  -14.5546   20.6664 O   0  0  0  0  0  0
  -24.6321  -31.8541   23.1940 C   0  0  0  0  0  0
  -25.9126  -32.4768   23.8286 C   0  0  1  0  0  0
  -27.2165  -27.2571   20.1304 C   0  0  0  0  0  0
  -25.5887  -33.8562   24.2244 N   0  0  0  0  0  0
  -23.4274  -30.4722   21.5454 C   0  0  2  0  0  0
  -24.8678  -28.9034   20.1255 C   0  0  0  0  0  0
  -22.7490  -29.4607   22.4982 C   0  0  0  0  0  0
  -18.0281  -28.1412   22.8490 C   0  0  0  0  0  0
  -24.1483  -36.7332   23.2639 C   0  0  0  0  0  0
  -25.9660  -30.7721   21.3547 C   0  0  0  0  0  0
  -26.0406  -29.3820   20.7241 C   0  0  0  0  0  0
  -27.2243  -28.5737   20.7073 C   0  0  0  0  0  0
  -26.0220  -26.8419   19.5148 C   0  0  0  0  0  0
  -24.8618  -27.6422   19.5111 C   0  0  0  0  0  0
  -23.6393  -29.7909   20.1668 C   0  0  0  0  0  0
  -25.4102  -36.3108   24.0339 C   0  0  1  0  0  0
  -20.5890  -28.3693   23.1299 C   0  0  2  0  0  0
  -20.6764  -26.9419   22.5411 C   0  0  0  0  0  0
  -19.5739  -26.6407   21.5222 C   0  0  0  0  0  0
  -18.1925  -26.7960   22.1643 C   0  0  0  0  0  0
  -19.1530  -28.8871   23.2909 C   0  0  0  0  0  0
  -18.9456  -30.1465   23.8915 C   0  0  0  0  0  0
  -17.6448  -30.6609   24.0568 C   0  0  0  0  0  0
  -25.9029  -34.9459   23.5114 C   0  0  0  0  0  0
  -16.5348  -29.9096   23.6341 C   0  0  0  0  0  0
  -16.7259  -28.6538   23.0349 C   0  0  0  0  0  0
  -26.4476  -31.6550   25.0646 C   0  0  0  0  0  0
  -25.3665  -31.3653   26.1337 C   0  0  0  0  0  0
  -27.0229  -30.2969   24.5990 C   0  0  0  0  0  0
  -27.6071  -32.4199   25.7431 C   0  0  0  0  0  0
  -27.5607  -37.1817   24.8470 C   0  0  0  0  0  0
  -21.4207  -29.3047   22.3720 N   0  0  0  0  0  0
  -26.4310  -37.3782   23.9430 N   0  0  0  0  0  0
  -24.6982  -31.0495   22.0936 N   0  0  0  0  0  0
  -23.4199  -28.8146   23.3089 O   0  0  0  0  0  0
  -28.3274  -26.3921   20.0515 O   0  0  0  0  0  0
  -26.5650  -34.8946   22.4709 O   0  0  0  0  0  0
  -23.5467  -32.1356   23.7253 O   0  0  0  0  0  0
  -30.4622  -17.4050   18.7326 C   0  0  0  0  0  0
  -29.1935  -18.4888   20.4811 C   0  0  0  0  0  0
  -30.5126  -18.6313   18.0279 C   0  0  0  0  0  0
  -29.1935  -19.7758   19.7829 C   0  0  0  0  0  0
  -29.8786  -19.8121   18.5358 C   0  0  0  0  0  0
  -29.8346  -17.2708   19.9858 C   0  0  0  0  0  0
  -28.1137  -23.6703   20.0267 C   0  0  0  0  0  0
  -31.1721  -18.5584   16.6952 C   0  0  0  0  0  0
  -30.0199  -23.6996   22.1743 C   0  0  0  0  0  0
  -29.7365  -25.0560   21.5103 C   0  0  0  0  0  0
  -30.0699  -22.5949   21.1106 C   0  0  0  0  0  0
  -28.3744  -25.0801   20.7909 C   0  0  1  0  0  0
  -29.8424  -21.1067   17.7190 C   0  0  0  0  0  0
  -32.3314  -19.5084   16.4353 C   0  0  0  0  0  0
  -28.3080  -21.0438   20.2416 C   0  0  0  0  0  0
  -28.8075  -22.4971   20.3681 N   0  0  0  0  0  0
  -29.7730  -15.9108   20.6064 N   0  0  0  0  0  0
  -27.1801  -23.6215   19.2191 O   0  0  0  0  0  0
  -30.8617  -17.7272   15.8361 O   0  0  0  0  0  0
  -31.4665  -12.5648   19.2129 H   0  0  0  0  0  0
  -30.3261  -11.4858   19.9742 H   0  0  0  0  0  0
  -29.8176  -11.8045   17.5141 H   0  0  0  0  0  0
  -29.6305  -13.5227   17.7800 H   0  0  0  0  0  0
  -27.9039  -11.2940   18.8958 H   0  0  0  0  0  0
  -27.3956  -12.5529   17.7932 H   0  0  0  0  0  0
  -27.6289  -14.2683   19.4832 H   0  0  0  0  0  0
  -28.6912  -12.1916   21.4482 H   0  0  0  0  0  0
  -28.3913  -13.8823   21.7912 H   0  0  0  0  0  0
  -25.2745   -9.5773   22.4735 H   0  0  0  0  0  0
  -24.0025   -7.4697   22.7499 H   0  0  0  0  0  0
  -21.0841   -8.8724   19.8945 H   0  0  0  0  0  0
  -22.3625  -10.9654   19.6147 H   0  0  0  0  0  0
  -21.2029   -7.6118   23.9678 H   0  0  0  0  0  0
  -21.1528   -6.0510   25.9066 H   0  0  0  0  0  0
  -22.0574   -2.7570   23.2876 H   0  0  0  0  0  0
  -22.4080  -11.9904   22.4783 H   0  0  0  0  0  0
  -21.1022  -13.1194   22.2575 H   0  0  0  0  0  0
  -24.6436  -15.8442   20.5085 H   0  0  0  0  0  0
  -26.2684  -15.6336   20.0921 H   0  0  0  0  0  0
  -26.7193  -32.5423   23.1039 H   0  0  0  0  0  0
  -24.9887  -33.9649   25.0288 H   0  0  0  0  0  0
  -22.7264  -31.2988   21.3958 H   0  0  0  0  0  0
  -23.3753  -35.9649   23.3223 H   0  0  0  0  0  0
  -24.3580  -36.9027   22.2065 H   0  0  0  0  0  0
  -23.7195  -37.6506   23.6676 H   0  0  0  0  0  0
  -26.0559  -31.5074   20.5522 H   0  0  0  0  0  0
  -26.8673  -30.8674   21.9496 H   0  0  0  0  0  0
  -28.1350  -28.9491   21.1485 H   0  0  0  0  0  0
  -25.9831  -25.8804   19.0199 H   0  0  0  0  0  0
  -23.9675  -27.2781   19.0254 H   0  0  0  0  0  0
  -23.7518  -30.5560   19.3972 H   0  0  0  0  0  0
  -22.7566  -29.2176   19.8765 H   0  0  0  0  0  0
  -25.1270  -36.1975   25.0820 H   0  0  0  0  0  0
  -20.9977  -28.3240   24.1428 H   0  0  0  0  0  0
  -20.5675  -26.2294   23.3606 H   0  0  0  0  0  0
  -21.6622  -26.7458   22.1193 H   0  0  0  0  0  0
  -19.6898  -25.6327   21.1245 H   0  0  0  0  0  0
  -19.6677  -27.3215   20.6759 H   0  0  0  0  0  0
  -17.4189  -26.6696   21.4052 H   0  0  0  0  0  0
  -18.0334  -26.0104   22.9036 H   0  0  0  0  0  0
  -19.7906  -30.7300   24.2295 H   0  0  0  0  0  0
  -17.4982  -31.6277   24.5168 H   0  0  0  0  0  0
  -15.5339  -30.3001   23.7666 H   0  0  0  0  0  0
  -15.8668  -28.0862   22.7055 H   0  0  0  0  0  0
  -24.5914  -30.6941   25.7636 H   0  0  0  0  0  0
  -24.8742  -32.2765   26.4707 H   0  0  0  0  0  0
  -25.7935  -30.8862   27.0148 H   0  0  0  0  0  0
  -26.2694  -29.6775   24.1098 H   0  0  0  0  0  0
  -27.4067  -29.7159   25.4396 H   0  0  0  0  0  0
  -27.8512  -30.4291   23.9025 H   0  0  0  0  0  0
  -27.2776  -33.3561   26.1928 H   0  0  0  0  0  0
  -28.3919  -32.6618   25.0254 H   0  0  0  0  0  0
  -28.0641  -31.8304   26.5388 H   0  0  0  0  0  0
  -28.2605  -38.0145   24.7542 H   0  0  0  0  0  0
  -28.1135  -36.2672   24.6242 H   0  0  0  0  0  0
  -27.2325  -37.1389   25.8878 H   0  0  0  0  0  0
  -20.9426  -29.8703   21.6844 H   0  0  0  0  0  0
  -26.0217  -38.2878   24.1391 H   0  0  0  0  0  0
  -30.8990  -16.5302   18.2667 H   0  0  0  0  0  0
  -28.6436  -18.4322   21.4109 H   0  0  0  0  0  0
  -29.2379  -23.4757   22.9030 H   0  0  0  0  0  0
  -30.9634  -23.7188   22.7231 H   0  0  0  0  0  0
  -30.5294  -25.2662   20.7932 H   0  0  0  0  0  0
  -29.7773  -25.8581   22.2504 H   0  0  0  0  0  0
  -30.3291  -21.6438   21.5795 H   0  0  0  0  0  0
  -30.8715  -22.7928   20.3962 H   0  0  0  0  0  0
  -27.6094  -25.1337   21.5664 H   0  0  0  0  0  0
  -30.2819  -21.0347   16.7297 H   0  0  0  0  0  0
  -30.3737  -21.9020   18.2362 H   0  0  0  0  0  0
  -28.8159  -21.4268   17.5498 H   0  0  0  0  0  0
  -32.6544  -19.9912   17.3594 H   0  0  0  0  0  0
  -32.0523  -20.2738   15.7140 H   0  0  0  0  0  0
  -33.1623  -18.9493   16.0103 H   0  0  0  0  0  0
  -27.8910  -20.8067   21.2209 H   0  0  0  0  0  0
  -27.4368  -21.0534   19.5828 H   0  0  0  0  0  0
  -28.9064  -15.7090   21.0812 H   0  0  0  0  0  0
  1 25  1  0  0  0
  1 30  2  0  0  0
  1 87  1  0  0  0
  2  3  1  0  0  0
  2 25  1  0  0  0
  2 90  1  0  0  0
  2 91  1  0  0  0
  3  4  1  0  0  0
  3 92  1  0  0  0
  3 93  1  0  0  0
  4  5  1  0  0  0
  4 94  1  0  0  0
  4 95  1  0  0  0
  5  6  1  0  0  0
  5 26  1  0  0  0
  5 96  1  0  0  0
  6 25  1  0  0  0
  6 97  1  0  0  0
  6 98  1  0  0  0
  7  8  2  0  0  0
  7 26  1  0  0  0
  7 29  1  0  0  0
  8  9  1  0  0  0
  8 22  1  0  0  0
  9 10  1  0  0  0
  9 27  2  0  0  0
 10 11  2  0  0  0
 10 15  1  0  0  0
 11 12  1  0  0  0
 11 99  1  0  0  0
 12 13  2  0  0  0
 12100  1  0  0  0
 13 14  1  0  0  0
 13 31  1  0  0  0
 14 15  2  0  0  0
 14101  1  0  0  0
 15102  1  0  0  0
 16 17  2  0  0  0
 16 21  1  0  0  0
 16 31  1  0  0  0
 17 18  1  0  0  0
 17103  1  0  0  0
 18 19  2  0  0  0
 18104  1  0  0  0
 19 20  1  0  0  0
 19 24  1  0  0  0
 20 21  2  0  0  0
 20105  1  0  0  0
 21 23  1  0  0  0
 22 28  1  0  0  0
 22 32  2  0  0  0
 26 27  1  0  0  0
 28106  1  0  0  0
 28107  1  0  0  0
 29108  1  0  0  0
 29109  1  0  0  0
 33 34  1  0  0  0
 33 66  1  0  0  0
 33 70  2  0  0  0
 34 36  1  0  0  0
 34 59  1  0  0  0
 34110  1  0  0  0
 35 44  2  0  0  0
 35 45  1  0  0  0
 35 68  1  0  0  0
 36 56  1  0  0  0
 36111  1  0  0  0
 37 39  1  0  0  0
 37 47  1  0  0  0
 37 66  1  0  0  0
 37112  1  0  0  0
 38 43  2  0  0  0
 38 46  1  0  0  0
 38 47  1  0  0  0
 39 64  1  0  0  0
 39 67  2  0  0  0
 40 52  1  0  0  0
 40 53  2  0  0  0
 40 58  1  0  0  0
 41113  1  0  0  0
 41114  1  0  0  0
 41115  1  0  0  0
 41 48  1  0  0  0
 42 43  1  0  0  0
 42 66  1  0  0  0
 42116  1  0  0  0
 42117  1  0  0  0
 43 44  1  0  0  0
 44118  1  0  0  0
 45 46  2  0  0  0
 45119  1  0  0  0
 46120  1  0  0  0
 47121  1  0  0  0
 47122  1  0  0  0
 48 56  1  0  0  0
 48 65  1  0  0  0
 48123  1  0  0  0
 49 50  1  0  0  0
 49 53  1  0  0  0
 49 64  1  0  0  0
 49124  1  0  0  0
 50 51  1  0  0  0
 50125  1  0  0  0
 50126  1  0  0  0
 51 52  1  0  0  0
 51127  1  0  0  0
 51128  1  0  0  0
 52129  1  0  0  0
 52130  1  0  0  0
 53 54  1  0  0  0
 54 55  2  0  0  0
 54131  1  0  0  0
 55 57  1  0  0  0
 55132  1  0  0  0
 56 69  2  0  0  0
 57 58  2  0  0  0
 57133  1  0  0  0
 58134  1  0  0  0
 59 60  1  0  0  0
 59 61  1  0  0  0
 59 62  1  0  0  0
 60135  1  0  0  0
 60136  1  0  0  0
 60137  1  0  0  0
 61138  1  0  0  0
 61139  1  0  0  0
 61140  1  0  0  0
 62141  1  0  0  0
 62142  1  0  0  0
 62143  1  0  0  0
 63 65  1  0  0  0
 63144  1  0  0  0
 63145  1  0  0  0
 63146  1  0  0  0
 64147  1  0  0  0
 65148  1  0  0  0
 68 82  1  0  0  0
 71 73  2  0  0  0
 71 76  1  0  0  0
 71149  1  0  0  0
 72 74  1  0  0  0
 72 76  2  0  0  0
 72150  1  0  0  0
 73 75  1  0  0  0
 73 78  1  0  0  0
 74 75  2  0  0  0
 74 85  1  0  0  0
 75 83  1  0  0  0
 76 87  1  0  0  0
 77 82  1  0  0  0
 77 86  1  0  0  0
 77 88  2  0  0  0
 78 84  1  0  0  0
 78 89  2  0  0  0
 79 80  1  0  0  0
 79 81  1  0  0  0
 79151  1  0  0  0
 79152  1  0  0  0
 80 82  1  0  0  0
 80153  1  0  0  0
 80154  1  0  0  0
 81 86  1  0  0  0
 81155  1  0  0  0
 81156  1  0  0  0
 82157  1  0  0  0
 83158  1  0  0  0
 83159  1  0  0  0
 83160  1  0  0  0
 84161  1  0  0  0
 84162  1  0  0  0
 84163  1  0  0  0
 85 86  1  0  0  0
 85164  1  0  0  0
 85165  1  0  0  0
 87166  1  0  0  0
M  ISO  4   1 100  68 101  82 101  87 100
M  END
> <chiral flag>
0

> <version>
0

> <s_m_source_file>
/data/baiqing/PycharmProjects/Reinvent-master-3.2/result/LINK_invent/BTK/process_docking_weight1_custom_product_contain_oxygen_bond_distance_aromatic_linkinvent_7_9_3/rearranged_h_0047.sdf

> <i_m_source_file_index>
90

> <r_mmod_Potential_Energy-OPLS-2005>
308.013732910156

> <r_mmod_Stretch_Energy-OPLS-2005>
148.256942749023

> <r_mmod_Bend_Energy-OPLS-2005>
184.064041137695

> <r_mmod_Torsional_Energy-OPLS-2005>
324.260559082031

> <r_mmod_Improper_Torsional_Energy-OPLS-2005>
8.28293991088867

> <r_mmod_Van_der_Waal_Energy-OPLS-2005>
146.718826293945

> <r_mmod_Electrostatic_Energy-OPLS-2005>
-358.336975097656

> <r_mmod_Solvation_Energy-OPLS-2005>
-235.899719238281

> <b_mmod_Minimization_Converged-OPLS-2005>
0

> <r_mmod_RMS_Derivative-OPLS-2005>
5.43677186965942

$$$$
90
                    3D
 Structure written by MMmdl.
161169  0  0  1  0            999 V2000
  -30.6880  -14.5370   20.4653 C   0  0  0  0  0  0
  -30.4083  -12.3203   19.4397 C   0  0  0  0  0  0
  -29.4923  -12.4727   18.2086 C   0  0  0  0  0  0
  -28.0136  -12.3404   18.6249 C   0  0  0  0  0  0
  -27.6476  -13.2144   19.8557 C   0  0  2  0  0  0
  -28.6948  -13.0797   20.9845 C   0  0  0  0  0  0
  -25.2561  -13.8171   20.5698 C   0  0  0  0  0  0
  -24.1821  -13.0441   20.9213 C   0  0  0  0  0  0
  -24.6382  -11.6909   20.8739 C   0  0  0  0  0  0
  -23.9044  -10.4301   21.0409 C   0  0  0  0  0  0
  -24.3604   -9.4212   21.9179 C   0  0  0  0  0  0
  -23.6290   -8.2245   22.0744 C   0  0  0  0  0  0
  -22.4273   -8.0282   21.3539 C   0  0  0  0  0  0
  -21.9903   -9.0250   20.4635 C   0  0  0  0  0  0
  -22.7216  -10.2141   20.3049 C   0  0  0  0  0  0
  -21.6853   -6.0727   22.5280 C   0  0  0  0  0  0
  -21.4012   -6.5633   23.8214 C   0  0  0  0  0  0
  -21.3661   -5.6789   24.9178 C   0  0  0  0  0  0
  -21.6053   -4.3054   24.7233 C   0  0  0  0  0  0
  -21.8811   -3.8138   23.4354 C   0  0  0  0  0  0
  -21.9194   -4.6954   22.3408 C   0  0  0  0  0  0
  -22.7845  -13.5241   21.1885 C   0  0  0  0  0  0
  -22.1662   -4.2134   21.0990 F   0  0  0  0  0  0
  -21.5636   -3.4539   25.7752 F   0  0  0  0  0  0
  -30.0088  -13.3604   20.3993 N   0  0  0  0  0  0
  -26.2970  -12.9341   20.3290 N   0  0  0  0  0  0
  -25.9310  -11.6500   20.5740 N   0  0  0  0  0  0
  -22.0479  -12.8235   22.0434 N   0  0  0  0  0  0
  -25.4298  -15.1884   20.4130 N   0  0  0  0  0  0
  -31.8882  -14.6118   20.2053 O   0  0  0  0  0  0
  -21.6640   -6.8868   21.4241 O   0  0  0  0  0  0
  -22.3542  -14.5547   20.6726 O   0  0  0  0  0  0
  -24.6144  -31.8690   23.2117 C   0  0  0  0  0  0
  -25.9053  -32.4819   23.8397 C   0  0  1  0  0  0
  -27.2182  -27.4154   20.1090 C   0  0  0  0  0  0
  -25.5916  -33.8618   24.2333 N   0  0  0  0  0  0
  -23.3997  -30.4964   21.5522 C   0  0  2  0  0  0
  -24.8435  -28.9573   20.1164 C   0  0  0  0  0  0
  -22.7376  -29.4711   22.5008 C   0  0  0  0  0  0
  -18.0283  -28.1361   22.8479 C   0  0  0  0  0  0
  -24.1487  -36.7296   23.2641 C   0  0  0  0  0  0
  -25.9322  -30.8277   21.3664 C   0  0  0  0  0  0
  -26.0081  -29.4626   20.7116 C   0  0  0  0  0  0
  -27.2017  -28.7026   20.7010 C   0  0  0  0  0  0
  -26.0421  -26.9325   19.4987 C   0  0  0  0  0  0
  -24.8562  -27.6907   19.5068 C   0  0  0  0  0  0
  -23.6069  -29.8276   20.1664 C   0  0  0  0  0  0
  -25.4105  -36.3106   24.0341 C   0  0  1  0  0  0
  -20.5842  -28.3694   23.1321 C   0  0  2  0  0  0
  -20.6776  -26.9429   22.5448 C   0  0  0  0  0  0
  -19.5785  -26.6425   21.5204 C   0  0  0  0  0  0
  -18.1949  -26.7923   22.1600 C   0  0  0  0  0  0
  -19.1516  -28.8859   23.2908 C   0  0  0  0  0  0
  -18.9431  -30.1448   23.8936 C   0  0  0  0  0  0
  -17.6426  -30.6549   24.0600 C   0  0  0  0  0  0
  -25.9039  -34.9477   23.5128 C   0  0  0  0  0  0
  -16.5333  -29.9033   23.6360 C   0  0  0  0  0  0
  -16.7265  -28.6462   23.0382 C   0  0  0  0  0  0
  -26.4473  -31.6598   25.0728 C   0  0  0  0  0  0
  -25.3755  -31.3698   26.1484 C   0  0  0  0  0  0
  -27.0310  -30.3042   24.6115 C   0  0  0  0  0  0
  -27.6035  -32.4328   25.7493 C   0  0  0  0  0  0
  -27.5573  -37.1802   24.8471 C   0  0  0  0  0  0
  -21.4103  -29.3070   22.3734 N   0  0  0  0  0  0
  -26.4290  -37.3785   23.9414 N   0  0  0  0  0  0
  -24.6670  -31.0793   22.1018 N   0  0  0  0  0  0
  -23.4157  -28.8261   23.3061 O   0  0  0  0  0  0
  -28.3504  -26.6246   20.1271 O   0  0  0  0  0  0
  -26.5592  -34.8924   22.4690 O   0  0  0  0  0  0
  -23.5340  -32.1482   23.7505 O   0  0  0  0  0  0
  -30.6963  -20.1363   21.8681 C   0  0  0  0  0  0
  -31.8590  -19.7557   22.5549 C   0  0  0  0  0  0
  -31.2652  -17.4263   22.2242 C   0  0  0  0  0  0
  -29.7888  -19.1810   21.3488 C   0  0  0  0  0  0
  -30.0893  -17.7779   21.5181 C   0  0  0  0  0  0
  -32.1453  -18.3960   22.7330 C   0  0  0  0  0  0
  -28.6170  -22.8144   20.1949 C   0  0  0  0  0  0
  -28.7426  -24.1564   19.9750 C   0  0  0  0  0  0
  -27.8587  -22.2106   21.2991 C   0  0  0  0  0  0
  -27.1089  -20.2726   22.5579 C   0  0  0  0  0  0
  -28.5533  -19.7791   20.6415 C   0  0  0  0  0  0
  -29.2359  -16.5810   21.0353 C   0  0  0  0  0  0
  -28.1867  -25.3424   20.7780 C   0  0  0  0  0  0
  -29.9699  -15.6385   20.1660 N   0  0  0  0  0  0
  -27.8645  -20.8417   21.4295 N   0  0  0  0  0  0
  -27.2223  -22.8997   22.1024 O   0  0  0  0  0  0
  -33.5730  -17.9192   23.5720 Cl  0  0  0  0  0  0
  -31.4558  -12.3965   19.1454 H   0  0  0  0  0  0
  -30.2911  -11.3304   19.8845 H   0  0  0  0  0  0
  -29.7416  -11.7183   17.4611 H   0  0  0  0  0  0
  -29.6625  -13.4401   17.7337 H   0  0  0  0  0  0
  -27.8366  -11.2886   18.8501 H   0  0  0  0  0  0
  -27.3630  -12.5821   17.7825 H   0  0  0  0  0  0
  -27.6641  -14.2489   19.5145 H   0  0  0  0  0  0
  -28.6816  -12.0732   21.4053 H   0  0  0  0  0  0
  -28.4714  -13.7598   21.8084 H   0  0  0  0  0  0
  -25.2744   -9.5705   22.4757 H   0  0  0  0  0  0
  -24.0002   -7.4633   22.7468 H   0  0  0  0  0  0
  -21.0821   -8.8758   19.8941 H   0  0  0  0  0  0
  -22.3649  -10.9683   19.6166 H   0  0  0  0  0  0
  -21.1987   -7.6138   23.9715 H   0  0  0  0  0  0
  -21.1500   -6.0520   25.9084 H   0  0  0  0  0  0
  -22.0585   -2.7598   23.2864 H   0  0  0  0  0  0
  -22.4093  -11.9901   22.4825 H   0  0  0  0  0  0
  -21.1085  -13.1252   22.2618 H   0  0  0  0  0  0
  -24.6663  -15.8450   20.5263 H   0  0  0  0  0  0
  -26.2820  -15.6201   20.0798 H   0  0  0  0  0  0
  -26.7107  -32.5516   23.1134 H   0  0  0  0  0  0
  -25.0072  -33.9776   25.0482 H   0  0  0  0  0  0
  -22.6912  -31.3160   21.4134 H   0  0  0  0  0  0
  -23.3750  -35.9630   23.3321 H   0  0  0  0  0  0
  -24.3586  -36.8892   22.2055 H   0  0  0  0  0  0
  -23.7240  -37.6507   23.6638 H   0  0  0  0  0  0
  -26.0530  -31.5974   20.6029 H   0  0  0  0  0  0
  -26.8172  -30.8757   21.9887 H   0  0  0  0  0  0
  -28.0960  -29.0845   21.1730 H   0  0  0  0  0  0
  -26.0386  -25.9568   19.0324 H   0  0  0  0  0  0
  -23.9602  -27.2940   19.0481 H   0  0  0  0  0  0
  -23.7127  -30.6040   19.4071 H   0  0  0  0  0  0
  -22.7288  -29.2499   19.8705 H   0  0  0  0  0  0
  -25.1284  -36.1956   25.0831 H   0  0  0  0  0  0
  -20.9906  -28.3287   24.1454 H   0  0  0  0  0  0
  -20.5630  -26.2312   23.3636 H   0  0  0  0  0  0
  -21.6657  -26.7465   22.1270 H   0  0  0  0  0  0
  -19.6971  -25.6360   21.1211 H   0  0  0  0  0  0
  -19.6728  -27.3269   20.6783 H   0  0  0  0  0  0
  -17.4254  -26.6677   21.3965 H   0  0  0  0  0  0
  -18.0336  -25.9996   22.8939 H   0  0  0  0  0  0
  -19.7907  -30.7268   24.2330 H   0  0  0  0  0  0
  -17.4941  -31.6210   24.5241 H   0  0  0  0  0  0
  -15.5329  -30.2898   23.7737 H   0  0  0  0  0  0
  -15.8660  -28.0740   22.7154 H   0  0  0  0  0  0
  -24.5920  -30.7034   25.7847 H   0  0  0  0  0  0
  -24.8951  -32.2862   26.4937 H   0  0  0  0  0  0
  -25.8135  -30.8884   27.0240 H   0  0  0  0  0  0
  -26.2869  -29.6799   24.1146 H   0  0  0  0  0  0
  -27.4066  -29.7255   25.4566 H   0  0  0  0  0  0
  -27.8708  -30.4358   23.9283 H   0  0  0  0  0  0
  -27.2631  -33.3609   26.2085 H   0  0  0  0  0  0
  -28.3835  -32.6919   25.0325 H   0  0  0  0  0  0
  -28.0709  -31.8453   26.5405 H   0  0  0  0  0  0
  -28.2603  -38.0085   24.7502 H   0  0  0  0  0  0
  -28.1052  -36.2619   24.6310 H   0  0  0  0  0  0
  -27.2295  -37.1470   25.8875 H   0  0  0  0  0  0
  -20.9272  -29.8770   21.6940 H   0  0  0  0  0  0
  -26.0175  -38.2863   24.1409 H   0  0  0  0  0  0
  -30.5081  -21.1926   21.7431 H   0  0  0  0  0  0
  -32.5295  -20.5077   22.9448 H   0  0  0  0  0  0
  -31.5107  -16.3878   22.3884 H   0  0  0  0  0  0
  -29.1269  -22.1814   19.4901 H   0  0  0  0  0  0
  -29.3354  -24.4590   19.1229 H   0  0  0  0  0  0
  -27.1711  -19.1855   22.6090 H   0  0  0  0  0  0
  -26.0522  -20.5395   22.4925 H   0  0  0  0  0  0
  -27.4957  -20.6543   23.5042 H   0  0  0  0  0  0
  -28.8548  -20.1304   19.6560 H   0  0  0  0  0  0
  -27.8192  -19.0028   20.4256 H   0  0  0  0  0  0
  -28.8520  -16.0541   21.9088 H   0  0  0  0  0  0
  -28.3616  -16.9141   20.4822 H   0  0  0  0  0  0
  -28.7312  -25.3893   21.7222 H   0  0  0  0  0  0
  -27.1483  -25.1477   21.0414 H   0  0  0  0  0  0
  -30.4979  -16.1777   19.4950 H   0  0  0  0  0  0
  1 25  1  0  0  0
  1 30  2  0  0  0
  1 84  1  0  0  0
  2  3  1  0  0  0
  2 25  1  0  0  0
  2 88  1  0  0  0
  2 89  1  0  0  0
  3  4  1  0  0  0
  3 90  1  0  0  0
  3 91  1  0  0  0
  4  5  1  0  0  0
  4 92  1  0  0  0
  4 93  1  0  0  0
  5  6  1  0  0  0
  5 26  1  0  0  0
  5 94  1  0  0  0
  6 25  1  0  0  0
  6 95  1  0  0  0
  6 96  1  0  0  0
  7  8  2  0  0  0
  7 26  1  0  0  0
  7 29  1  0  0  0
  8  9  1  0  0  0
  8 22  1  0  0  0
  9 10  1  0  0  0
  9 27  2  0  0  0
 10 11  2  0  0  0
 10 15  1  0  0  0
 11 12  1  0  0  0
 11 97  1  0  0  0
 12 13  2  0  0  0
 12 98  1  0  0  0
 13 14  1  0  0  0
 13 31  1  0  0  0
 14 15  2  0  0  0
 14 99  1  0  0  0
 15100  1  0  0  0
 16 17  2  0  0  0
 16 21  1  0  0  0
 16 31  1  0  0  0
 17 18  1  0  0  0
 17101  1  0  0  0
 18 19  2  0  0  0
 18102  1  0  0  0
 19 20  1  0  0  0
 19 24  1  0  0  0
 20 21  2  0  0  0
 20103  1  0  0  0
 21 23  1  0  0  0
 22 28  1  0  0  0
 22 32  2  0  0  0
 26 27  1  0  0  0
 28104  1  0  0  0
 28105  1  0  0  0
 29106  1  0  0  0
 29107  1  0  0  0
 33 34  1  0  0  0
 33 66  1  0  0  0
 33 70  2  0  0  0
 34 36  1  0  0  0
 34 59  1  0  0  0
 34108  1  0  0  0
 35 44  2  0  0  0
 35 45  1  0  0  0
 35 68  1  0  0  0
 36 56  1  0  0  0
 36109  1  0  0  0
 37 39  1  0  0  0
 37 47  1  0  0  0
 37 66  1  0  0  0
 37110  1  0  0  0
 38 43  2  0  0  0
 38 46  1  0  0  0
 38 47  1  0  0  0
 39 64  1  0  0  0
 39 67  2  0  0  0
 40 52  1  0  0  0
 40 53  2  0  0  0
 40 58  1  0  0  0
 41111  1  0  0  0
 41112  1  0  0  0
 41113  1  0  0  0
 41 48  1  0  0  0
 42 43  1  0  0  0
 42 66  1  0  0  0
 42114  1  0  0  0
 42115  1  0  0  0
 43 44  1  0  0  0
 44116  1  0  0  0
 45 46  2  0  0  0
 45117  1  0  0  0
 46118  1  0  0  0
 47119  1  0  0  0
 47120  1  0  0  0
 48 56  1  0  0  0
 48 65  1  0  0  0
 48121  1  0  0  0
 49 50  1  0  0  0
 49 53  1  0  0  0
 49 64  1  0  0  0
 49122  1  0  0  0
 50 51  1  0  0  0
 50123  1  0  0  0
 50124  1  0  0  0
 51 52  1  0  0  0
 51125  1  0  0  0
 51126  1  0  0  0
 52127  1  0  0  0
 52128  1  0  0  0
 53 54  1  0  0  0
 54 55  2  0  0  0
 54129  1  0  0  0
 55 57  1  0  0  0
 55130  1  0  0  0
 56 69  2  0  0  0
 57 58  2  0  0  0
 57131  1  0  0  0
 58132  1  0  0  0
 59 60  1  0  0  0
 59 61  1  0  0  0
 59 62  1  0  0  0
 60133  1  0  0  0
 60134  1  0  0  0
 60135  1  0  0  0
 61136  1  0  0  0
 61137  1  0  0  0
 61138  1  0  0  0
 62139  1  0  0  0
 62140  1  0  0  0
 62141  1  0  0  0
 63 65  1  0  0  0
 63142  1  0  0  0
 63143  1  0  0  0
 63144  1  0  0  0
 64145  1  0  0  0
 65146  1  0  0  0
 68 83  1  0  0  0
 71 72  2  0  0  0
 71 74  1  0  0  0
 71147  1  0  0  0
 72 76  1  0  0  0
 72148  1  0  0  0
 73 75  1  0  0  0
 73 76  2  0  0  0
 73149  1  0  0  0
 74 75  2  0  0  0
 74 81  1  0  0  0
 75 82  1  0  0  0
 76 87  1  0  0  0
 77 78  2  0  0  0
 77 79  1  0  0  0
 77150  1  0  0  0
 78 83  1  0  0  0
 78151  1  0  0  0
 79 85  1  0  0  0
 79 86  2  0  0  0
 80 85  1  0  0  0
 80152  1  0  0  0
 80153  1  0  0  0
 80154  1  0  0  0
 81 85  1  0  0  0
 81155  1  0  0  0
 81156  1  0  0  0
 82 84  1  0  0  0
 82157  1  0  0  0
 82158  1  0  0  0
 83159  1  0  0  0
 83160  1  0  0  0
 84161  1  0  0  0
M  ISO  4   1 100  68 101  83 101  84 100
M  END
> <chiral flag>
0

> <version>
0

> <s_m_source_file>
/data/baiqing/PycharmProjects/Reinvent-master-3.2/result/LINK_invent/BTK/process_docking_weight1_custom_product_contain_oxygen_bond_distance_aromatic_linkinvent_7_9_3/rearranged_h_0047.sdf

> <i_m_source_file_index>
91

> <r_mmod_Potential_Energy-OPLS-2005>
25.0069789886475

> <r_mmod_Stretch_Energy-OPLS-2005>
51.4255332946777

> <r_mmod_Bend_Energy-OPLS-2005>
146.240356445312

> <r_mmod_Torsional_Energy-OPLS-2005>
295.406066894531

> <r_mmod_Improper_Torsional_Energy-OPLS-2005>
27.4995918273926

> <r_mmod_Van_der_Waal_Energy-OPLS-2005>
157.026992797852

> <r_mmod_Electrostatic_Energy-OPLS-2005>
-449.687530517578

> <r_mmod_Solvation_Energy-OPLS-2005>
-231.146331787109

> <b_mmod_Minimization_Converged-OPLS-2005>
0

> <r_mmod_RMS_Derivative-OPLS-2005>
3.87308955192566

$$$$
91
                    3D
 Structure written by MMmdl.
171180  0  0  1  0            999 V2000
  -30.6739  -14.5560   20.4606 C   0  0  0  0  0  0
  -30.4196  -12.3337   19.4397 C   0  0  0  0  0  0
  -29.4967  -12.4868   18.2122 C   0  0  0  0  0  0
  -28.0185  -12.3444   18.6251 C   0  0  0  0  0  0
  -27.6504  -13.2162   19.8559 C   0  0  2  0  0  0
  -28.6963  -13.0745   20.9843 C   0  0  0  0  0  0
  -25.2556  -13.8181   20.5675 C   0  0  0  0  0  0
  -24.1829  -13.0446   20.9199 C   0  0  0  0  0  0
  -24.6396  -11.6916   20.8749 C   0  0  0  0  0  0
  -23.9068  -10.4296   21.0410 C   0  0  0  0  0  0
  -24.3618   -9.4210   21.9185 C   0  0  0  0  0  0
  -23.6293   -8.2245   22.0753 C   0  0  0  0  0  0
  -22.4278   -8.0283   21.3541 C   0  0  0  0  0  0
  -21.9915   -9.0258   20.4644 C   0  0  0  0  0  0
  -22.7244  -10.2138   20.3055 C   0  0  0  0  0  0
  -21.6853   -6.0736   22.5277 C   0  0  0  0  0  0
  -21.4014   -6.5639   23.8211 C   0  0  0  0  0  0
  -21.3659   -5.6793   24.9174 C   0  0  0  0  0  0
  -21.6045   -4.3055   24.7226 C   0  0  0  0  0  0
  -21.8820   -3.8148   23.4346 C   0  0  0  0  0  0
  -21.9193   -4.6963   22.3403 C   0  0  0  0  0  0
  -22.7850  -13.5236   21.1859 C   0  0  0  0  0  0
  -22.1662   -4.2149   21.0980 F   0  0  0  0  0  0
  -21.5630   -3.4539   25.7739 F   0  0  0  0  0  0
  -30.0173  -13.3635   20.4110 N   0  0  0  0  0  0
  -26.2977  -12.9361   20.3297 N   0  0  0  0  0  0
  -25.9321  -11.6516   20.5757 N   0  0  0  0  0  0
  -22.0488  -12.8218   22.0403 N   0  0  0  0  0  0
  -25.4269  -15.1900   20.4056 N   0  0  0  0  0  0
  -31.8820  -14.6331   20.2351 O   0  0  0  0  0  0
  -21.6641   -6.8880   21.4238 O   0  0  0  0  0  0
  -22.3540  -14.5545   20.6713 O   0  0  0  0  0  0
  -24.6188  -31.8646   23.2079 C   0  0  0  0  0  0
  -25.9067  -32.4802   23.8378 C   0  0  1  0  0  0
  -27.2323  -27.3941   20.0900 C   0  0  0  0  0  0
  -25.5909  -33.8601   24.2307 N   0  0  0  0  0  0
  -23.4078  -30.4890   21.5500 C   0  0  2  0  0  0
  -24.8527  -28.9496   20.1170 C   0  0  0  0  0  0
  -22.7428  -29.4639   22.4979 C   0  0  0  0  0  0
  -18.0271  -28.1370   22.8488 C   0  0  0  0  0  0
  -24.1484  -36.7305   23.2636 C   0  0  0  0  0  0
  -25.9419  -30.8151   21.3686 C   0  0  0  0  0  0
  -26.0168  -29.4455   20.7171 C   0  0  0  0  0  0
  -27.2063  -28.6722   20.7080 C   0  0  0  0  0  0
  -26.0351  -26.9130   19.5109 C   0  0  0  0  0  0
  -24.8573  -27.6816   19.5145 C   0  0  0  0  0  0
  -23.6184  -29.8233   20.1645 C   0  0  0  0  0  0
  -25.4106  -36.3097   24.0331 C   0  0  1  0  0  0
  -20.5864  -28.3658   23.1306 C   0  0  2  0  0  0
  -20.6760  -26.9388   22.5415 C   0  0  0  0  0  0
  -19.5742  -26.6375   21.5205 C   0  0  0  0  0  0
  -18.1918  -26.7916   22.1617 C   0  0  0  0  0  0
  -19.1522  -28.8831   23.2894 C   0  0  0  0  0  0
  -18.9453  -30.1439   23.8903 C   0  0  0  0  0  0
  -17.6455  -30.6575   24.0563 C   0  0  0  0  0  0
  -25.9037  -34.9464   23.5117 C   0  0  0  0  0  0
  -16.5346  -29.9075   23.6330 C   0  0  0  0  0  0
  -16.7261  -28.6493   23.0347 C   0  0  0  0  0  0
  -26.4481  -31.6590   25.0719 C   0  0  0  0  0  0
  -25.3744  -31.3697   26.1465 C   0  0  0  0  0  0
  -27.0322  -30.3032   24.6116 C   0  0  0  0  0  0
  -27.6041  -32.4320   25.7495 C   0  0  0  0  0  0
  -27.5580  -37.1806   24.8458 C   0  0  0  0  0  0
  -21.4150  -29.3027   22.3719 N   0  0  0  0  0  0
  -26.4285  -37.3789   23.9411 N   0  0  0  0  0  0
  -24.6748  -31.0713   22.1000 N   0  0  0  0  0  0
  -23.4182  -28.8177   23.3031 O   0  0  0  0  0  0
  -28.3886  -26.6206   20.0907 O   0  0  0  0  0  0
  -26.5604  -34.8920   22.4682 O   0  0  0  0  0  0
  -23.5372  -32.1414   23.7453 O   0  0  0  0  0  0
  -30.7090  -19.6917   19.2802 C   0  0  0  0  0  0
  -31.3510  -18.6017   18.6761 C   0  0  0  0  0  0
  -29.6985  -19.4925   20.2474 C   0  0  0  0  0  0
  -29.4567  -18.1459   20.7031 C   0  0  0  0  0  0
  -30.1557  -17.0238   20.1312 C   0  0  0  0  0  0
  -31.0492  -17.2850   19.0549 C   0  0  0  0  0  0
  -28.3565  -23.2988   20.0840 C   0  0  0  0  0  0
  -26.3752  -23.4841   23.2353 C   0  0  0  0  0  0
  -27.6226  -23.7122   21.1444 C   0  0  0  0  0  0
  -26.9933  -22.9196   22.1864 C   0  0  0  0  0  0
  -28.5239  -22.2036   17.3262 C   0  0  0  0  0  0
  -28.3668  -23.7118   17.5647 C   0  0  0  0  0  0
  -27.9924  -21.4040   18.5183 C   0  0  0  0  0  0
  -28.8773  -24.2261   18.9429 C   0  0  1  0  0  0
  -28.4333  -17.9001   21.8065 C   0  0  0  0  0  0
  -28.8960  -20.7414   20.7430 C   0  0  0  0  0  0
  -28.6443  -25.8003   18.9277 C   0  0  0  0  0  0
  -29.8889  -15.6630   20.5741 N   0  0  0  0  0  0
  -28.7238  -21.8430   19.7264 N   0  3  2  0  0  0
  -31.5990  -16.2910   18.3186 F   0  0  0  0  0  0
  -31.4648  -12.4274   19.1399 H   0  0  0  0  0  0
  -30.3196  -11.3395   19.8779 H   0  0  0  0  0  0
  -29.7460  -11.7412   17.4559 H   0  0  0  0  0  0
  -29.6577  -13.4604   17.7461 H   0  0  0  0  0  0
  -27.8421  -11.2923   18.8515 H   0  0  0  0  0  0
  -27.3672  -12.5862   17.7844 H   0  0  0  0  0  0
  -27.6682  -14.2504   19.5123 H   0  0  0  0  0  0
  -28.6841  -12.0651   21.3980 H   0  0  0  0  0  0
  -28.4684  -13.7451   21.8142 H   0  0  0  0  0  0
  -25.2761   -9.5684   22.4764 H   0  0  0  0  0  0
  -24.0000   -7.4637   22.7474 H   0  0  0  0  0  0
  -21.0847   -8.8779   19.8948 H   0  0  0  0  0  0
  -22.3703  -10.9679   19.6167 H   0  0  0  0  0  0
  -21.2004   -7.6146   23.9715 H   0  0  0  0  0  0
  -21.1480   -6.0522   25.9076 H   0  0  0  0  0  0
  -22.0598   -2.7610   23.2849 H   0  0  0  0  0  0
  -22.4096  -11.9869   22.4778 H   0  0  0  0  0  0
  -21.1103  -13.1238   22.2601 H   0  0  0  0  0  0
  -24.6535  -15.8391   20.4989 H   0  0  0  0  0  0
  -26.2620  -15.6228   20.0335 H   0  0  0  0  0  0
  -26.7133  -32.5499   23.1132 H   0  0  0  0  0  0
  -25.0076  -33.9757   25.0466 H   0  0  0  0  0  0
  -22.6982  -31.3072   21.4104 H   0  0  0  0  0  0
  -23.3746  -35.9636   23.3287 H   0  0  0  0  0  0
  -24.3583  -36.8938   22.2054 H   0  0  0  0  0  0
  -23.7230  -37.6500   23.6666 H   0  0  0  0  0  0
  -26.0609  -31.5781   20.5980 H   0  0  0  0  0  0
  -26.8273  -30.8679   21.9903 H   0  0  0  0  0  0
  -28.1053  -29.0530   21.1727 H   0  0  0  0  0  0
  -25.9910  -25.9285   19.0678 H   0  0  0  0  0  0
  -23.9584  -27.2856   19.0623 H   0  0  0  0  0  0
  -23.7318  -30.5985   19.4058 H   0  0  0  0  0  0
  -22.7404  -29.2481   19.8660 H   0  0  0  0  0  0
  -25.1281  -36.1957   25.0823 H   0  0  0  0  0  0
  -20.9953  -28.3221   24.1428 H   0  0  0  0  0  0
  -20.5649  -26.2263   23.3602 H   0  0  0  0  0  0
  -21.6633  -26.7418   22.1219 H   0  0  0  0  0  0
  -19.6902  -25.6289   21.1225 H   0  0  0  0  0  0
  -19.6685  -27.3194   20.6743 H   0  0  0  0  0  0
  -17.4189  -26.6668   21.4016 H   0  0  0  0  0  0
  -18.0317  -26.0047   22.9002 H   0  0  0  0  0  0
  -19.7928  -30.7256   24.2271 H   0  0  0  0  0  0
  -17.5007  -31.6255   24.5161 H   0  0  0  0  0  0
  -15.5347  -30.2981   23.7648 H   0  0  0  0  0  0
  -15.8659  -28.0821   22.7054 H   0  0  0  0  0  0
  -24.5921  -30.7036   25.7805 H   0  0  0  0  0  0
  -24.8932  -32.2852   26.4915 H   0  0  0  0  0  0
  -25.8100  -30.8869   27.0223 H   0  0  0  0  0  0
  -26.2877  -29.6788   24.1162 H   0  0  0  0  0  0
  -27.4078  -29.7273   25.4583 H   0  0  0  0  0  0
  -27.8716  -30.4347   23.9283 H   0  0  0  0  0  0
  -27.2646  -33.3619   26.2070 H   0  0  0  0  0  0
  -28.3857  -32.6882   25.0331 H   0  0  0  0  0  0
  -28.0696  -31.8445   26.5418 H   0  0  0  0  0  0
  -28.2575  -38.0125   24.7531 H   0  0  0  0  0  0
  -28.1098  -36.2656   24.6248 H   0  0  0  0  0  0
  -27.2306  -37.1413   25.8862 H   0  0  0  0  0  0
  -20.9308  -29.8779   21.6970 H   0  0  0  0  0  0
  -26.0167  -38.2861   24.1429 H   0  0  0  0  0  0
  -30.9755  -20.6798   18.9345 H   0  0  0  0  0  0
  -32.0626  -18.7730   17.8814 H   0  0  0  0  0  0
  -25.9035  -22.8765   23.9952 H   0  0  0  0  0  0
  -26.3263  -24.5574   23.3579 H   0  0  0  0  0  0
  -27.4327  -24.7706   21.2114 H   0  0  0  0  0  0
  -26.9778  -21.8462   22.1530 H   0  0  0  0  0  0
  -29.5719  -21.9596   17.1470 H   0  0  0  0  0  0
  -27.9893  -21.9159   16.4201 H   0  0  0  0  0  0
  -27.3057  -23.9531   17.4720 H   0  0  0  0  0  0
  -28.8654  -24.2505   16.7566 H   0  0  0  0  0  0
  -28.1200  -20.3399   18.3188 H   0  0  0  0  0  0
  -26.9220  -21.5635   18.6577 H   0  0  0  0  0  0
  -29.9605  -24.0951   18.9725 H   0  0  0  0  0  0
  -28.4226  -18.7147   22.5300 H   0  0  0  0  0  0
  -28.6467  -16.9974   22.3783 H   0  0  0  0  0  0
  -27.4346  -17.8018   21.3804 H   0  0  0  0  0  0
  -29.3798  -21.1388   21.6362 H   0  0  0  0  0  0
  -27.9040  -20.3975   21.0249 H   0  0  0  0  0  0
  -27.9569  -26.0612   18.1230 H   0  0  0  0  0  0
  -29.5740  -26.2177   18.5392 H   0  0  0  0  0  0
  -28.9537  -15.4864   20.9023 H   0  0  0  0  0  0
  -29.6737  -21.9006   19.3978 H   0  0  0  0  0  0
  1 25  1  0  0  0
  1 30  2  0  0  0
  1 88  1  0  0  0
  2  3  1  0  0  0
  2 25  1  0  0  0
  2 91  1  0  0  0
  2 92  1  0  0  0
  3  4  1  0  0  0
  3 93  1  0  0  0
  3 94  1  0  0  0
  4  5  1  0  0  0
  4 95  1  0  0  0
  4 96  1  0  0  0
  5  6  1  0  0  0
  5 26  1  0  0  0
  5 97  1  0  0  0
  6 25  1  0  0  0
  6 98  1  0  0  0
  6 99  1  0  0  0
  7  8  2  0  0  0
  7 26  1  0  0  0
  7 29  1  0  0  0
  8  9  1  0  0  0
  8 22  1  0  0  0
  9 10  1  0  0  0
  9 27  2  0  0  0
 10 11  2  0  0  0
 10 15  1  0  0  0
 11 12  1  0  0  0
 11100  1  0  0  0
 12 13  2  0  0  0
 12101  1  0  0  0
 13 14  1  0  0  0
 13 31  1  0  0  0
 14 15  2  0  0  0
 14102  1  0  0  0
 15103  1  0  0  0
 16 17  2  0  0  0
 16 21  1  0  0  0
 16 31  1  0  0  0
 17 18  1  0  0  0
 17104  1  0  0  0
 18 19  2  0  0  0
 18105  1  0  0  0
 19 20  1  0  0  0
 19 24  1  0  0  0
 20 21  2  0  0  0
 20106  1  0  0  0
 21 23  1  0  0  0
 22 28  1  0  0  0
 22 32  2  0  0  0
 26 27  1  0  0  0
 28107  1  0  0  0
 28108  1  0  0  0
 29109  1  0  0  0
 29110  1  0  0  0
 33 34  1  0  0  0
 33 66  1  0  0  0
 33 70  2  0  0  0
 34 36  1  0  0  0
 34 59  1  0  0  0
 34111  1  0  0  0
 35 44  2  0  0  0
 35 45  1  0  0  0
 35 68  1  0  0  0
 36 56  1  0  0  0
 36112  1  0  0  0
 37 39  1  0  0  0
 37 47  1  0  0  0
 37 66  1  0  0  0
 37113  1  0  0  0
 38 43  2  0  0  0
 38 46  1  0  0  0
 38 47  1  0  0  0
 39 64  1  0  0  0
 39 67  2  0  0  0
 40 52  1  0  0  0
 40 53  2  0  0  0
 40 58  1  0  0  0
 41114  1  0  0  0
 41115  1  0  0  0
 41116  1  0  0  0
 41 48  1  0  0  0
 42 43  1  0  0  0
 42 66  1  0  0  0
 42117  1  0  0  0
 42118  1  0  0  0
 43 44  1  0  0  0
 44119  1  0  0  0
 45 46  2  0  0  0
 45120  1  0  0  0
 46121  1  0  0  0
 47122  1  0  0  0
 47123  1  0  0  0
 48 56  1  0  0  0
 48 65  1  0  0  0
 48124  1  0  0  0
 49 50  1  0  0  0
 49 53  1  0  0  0
 49 64  1  0  0  0
 49125  1  0  0  0
 50 51  1  0  0  0
 50126  1  0  0  0
 50127  1  0  0  0
 51 52  1  0  0  0
 51128  1  0  0  0
 51129  1  0  0  0
 52130  1  0  0  0
 52131  1  0  0  0
 53 54  1  0  0  0
 54 55  2  0  0  0
 54132  1  0  0  0
 55 57  1  0  0  0
 55133  1  0  0  0
 56 69  2  0  0  0
 57 58  2  0  0  0
 57134  1  0  0  0
 58135  1  0  0  0
 59 60  1  0  0  0
 59 61  1  0  0  0
 59 62  1  0  0  0
 60136  1  0  0  0
 60137  1  0  0  0
 60138  1  0  0  0
 61139  1  0  0  0
 61140  1  0  0  0
 61141  1  0  0  0
 62142  1  0  0  0
 62143  1  0  0  0
 62144  1  0  0  0
 63 65  1  0  0  0
 63145  1  0  0  0
 63146  1  0  0  0
 63147  1  0  0  0
 64148  1  0  0  0
 65149  1  0  0  0
 68 87  1  0  0  0
 71 72  2  0  0  0
 71 73  1  0  0  0
 71150  1  0  0  0
 72 76  1  0  0  0
 72151  1  0  0  0
 73 74  2  0  0  0
 73 86  1  0  0  0
 74 75  1  0  0  0
 74 85  1  0  0  0
 75 76  2  0  0  0
 75 88  1  0  0  0
 76 90  1  0  0  0
 77 79  2  0  0  0
 77 84  1  0  0  0
 77 89  1  0  0  0
 78 80  2  0  0  0
 78152  1  0  0  0
 78153  1  0  0  0
 79 80  1  0  0  0
 79154  1  0  0  0
 80155  1  0  0  0
 81 82  1  0  0  0
 81 83  1  0  0  0
 81156  1  0  0  0
 81157  1  0  0  0
 82 84  1  0  0  0
 82158  1  0  0  0
 82159  1  0  0  0
 83 89  1  0  0  0
 83160  1  0  0  0
 83161  1  0  0  0
 84 87  1  0  0  0
 84162  1  0  0  0
 85163  1  0  0  0
 85164  1  0  0  0
 85165  1  0  0  0
 86166  1  0  0  0
 86167  1  0  0  0
 86 89  1  0  0  0
 87168  1  0  0  0
 87169  1  0  0  0
 88170  1  0  0  0
 89171  1  0  0  0
M  CHG  1  89   1
M  ISO  4   1 100  68 101  87 101  88 100
M  END
> <chiral flag>
0

> <version>
0

> <s_m_source_file>
/data/baiqing/PycharmProjects/Reinvent-master-3.2/result/LINK_invent/BTK/process_docking_weight1_custom_product_contain_oxygen_bond_distance_aromatic_linkinvent_7_9_3/rearranged_h_0047.sdf

> <i_m_source_file_index>
92

> <r_mmod_Potential_Energy-OPLS-2005>
-8.1198263168335

> <r_mmod_Stretch_Energy-OPLS-2005>
68.5240249633789

> <r_mmod_Bend_Energy-OPLS-2005>
170.322113037109

> <r_mmod_Torsional_Energy-OPLS-2005>
262.223754882812

> <r_mmod_Improper_Torsional_Energy-OPLS-2005>
5.2222056388855

> <r_mmod_Van_der_Waal_Energy-OPLS-2005>
168.046691894531

> <r_mmod_Electrostatic_Energy-OPLS-2005>
-266.46630859375

> <r_mmod_Solvation_Energy-OPLS-2005>
-446.488220214844

> <b_mmod_Minimization_Converged-OPLS-2005>
0

> <r_mmod_RMS_Derivative-OPLS-2005>
0.625808000564575

$$$$
92
                    3D
 Structure written by MMmdl.
161170  0  0  1  0            999 V2000
  -30.7922  -14.4831   20.5723 C   0  0  0  0  0  0
  -30.4114  -12.3064   19.4572 C   0  0  0  0  0  0
  -29.5158  -12.5238   18.2253 C   0  0  0  0  0  0
  -28.0337  -12.3739   18.6204 C   0  0  0  0  0  0
  -27.6648  -13.2285   19.8647 C   0  0  2  0  0  0
  -28.7064  -13.0898   21.0049 C   0  0  0  0  0  0
  -25.2623  -13.8195   20.5697 C   0  0  0  0  0  0
  -24.1881  -13.0437   20.9149 C   0  0  0  0  0  0
  -24.6463  -11.6913   20.8637 C   0  0  0  0  0  0
  -23.9106  -10.4299   21.0324 C   0  0  0  0  0  0
  -24.3629   -9.4221   21.9127 C   0  0  0  0  0  0
  -23.6325   -8.2250   22.0734 C   0  0  0  0  0  0
  -22.4312   -8.0250   21.3520 C   0  0  0  0  0  0
  -21.9933   -9.0226   20.4637 C   0  0  0  0  0  0
  -22.7241  -10.2129   20.3014 C   0  0  0  0  0  0
  -21.6883   -6.0721   22.5269 C   0  0  0  0  0  0
  -21.3993   -6.5625   23.8215 C   0  0  0  0  0  0
  -21.3669   -5.6785   24.9166 C   0  0  0  0  0  0
  -21.6068   -4.3043   24.7202 C   0  0  0  0  0  0
  -21.8813   -3.8141   23.4324 C   0  0  0  0  0  0
  -21.9183   -4.6951   22.3365 C   0  0  0  0  0  0
  -22.7879  -13.5209   21.1789 C   0  0  0  0  0  0
  -22.1680   -4.2145   21.0954 F   0  0  0  0  0  0
  -21.5647   -3.4526   25.7698 F   0  0  0  0  0  0
  -30.0535  -13.3389   20.4529 N   0  0  0  0  0  0
  -26.3076  -12.9424   20.3299 N   0  0  0  0  0  0
  -25.9403  -11.6544   20.5702 N   0  0  0  0  0  0
  -22.0522  -12.8233   22.0374 N   0  0  0  0  0  0
  -25.4297  -15.1929   20.4220 N   0  0  0  0  0  0
  -31.8844  -14.6083   20.0124 O   0  0  0  0  0  0
  -21.6666   -6.8854   21.4240 O   0  0  0  0  0  0
  -22.3553  -14.5507   20.6618 O   0  0  0  0  0  0
  -24.6235  -31.8670   23.2075 C   0  0  0  0  0  0
  -25.9086  -32.4816   23.8407 C   0  0  1  0  0  0
  -27.2296  -27.4047   20.1116 C   0  0  0  0  0  0
  -25.5892  -33.8598   24.2350 N   0  0  0  0  0  0
  -23.4143  -30.5004   21.5450 C   0  0  2  0  0  0
  -24.8581  -28.9630   20.1146 C   0  0  0  0  0  0
  -22.7508  -29.4690   22.4892 C   0  0  0  0  0  0
  -18.0325  -28.1382   22.8542 C   0  0  0  0  0  0
  -24.1465  -36.7309   23.2645 C   0  0  0  0  0  0
  -25.9500  -30.8341   21.3606 C   0  0  0  0  0  0
  -26.0240  -29.4676   20.7002 C   0  0  0  0  0  0
  -27.2158  -28.7034   20.6801 C   0  0  0  0  0  0
  -26.0359  -26.9231   19.5204 C   0  0  0  0  0  0
  -24.8571  -27.6883   19.5258 C   0  0  0  0  0  0
  -23.6281  -29.8386   20.1584 C   0  0  0  0  0  0
  -25.4081  -36.3125   24.0376 C   0  0  1  0  0  0
  -20.5941  -28.3710   23.1263 C   0  0  2  0  0  0
  -20.6795  -26.9418   22.5413 C   0  0  0  0  0  0
  -19.5729  -26.6380   21.5253 C   0  0  0  0  0  0
  -18.1921  -26.7933   22.1677 C   0  0  0  0  0  0
  -19.1581  -28.8860   23.2920 C   0  0  0  0  0  0
  -18.9493  -30.1450   23.8948 C   0  0  0  0  0  0
  -17.6485  -30.6585   24.0567 C   0  0  0  0  0  0
  -25.9044  -34.9479   23.5192 C   0  0  0  0  0  0
  -16.5387  -29.9101   23.6270 C   0  0  0  0  0  0
  -16.7314  -28.6504   23.0353 C   0  0  0  0  0  0
  -26.4434  -31.6613   25.0765 C   0  0  0  0  0  0
  -25.3636  -31.3818   26.1499 C   0  0  0  0  0  0
  -27.0287  -30.3048   24.6211 C   0  0  0  0  0  0
  -27.6039  -32.4319   25.7506 C   0  0  0  0  0  0
  -27.5592  -37.1808   24.8469 C   0  0  0  0  0  0
  -21.4239  -29.3080   22.3649 N   0  0  0  0  0  0
  -26.4273  -37.3816   23.9445 N   0  0  0  0  0  0
  -24.6813  -31.0821   22.0953 N   0  0  0  0  0  0
  -23.4285  -28.8191   23.2891 O   0  0  0  0  0  0
  -28.3835  -26.6327   20.1599 O   0  0  0  0  0  0
  -26.5628  -34.8948   22.4759 O   0  0  0  0  0  0
  -23.5415  -32.1371   23.7476 O   0  0  0  0  0  0
  -32.5533  -18.5238   21.6104 C   0  0  0  0  0  0
  -31.6503  -19.5916   21.4146 C   0  0  0  0  0  0
  -32.1159  -17.1829   21.5274 C   0  0  0  0  0  0
  -29.8515  -17.9637   21.1444 C   0  0  0  0  0  0
  -30.2877  -19.3198   21.1556 C   0  0  0  0  0  0
  -30.7477  -16.8787   21.3016 C   0  0  0  0  0  0
  -29.4208  -22.8673   20.2693 C   0  0  0  0  0  0
  -29.9741  -23.4879   22.9949 C   0  0  0  0  0  0
  -29.1234  -24.5121   22.2482 C   0  0  0  0  0  0
  -29.4584  -22.0834   22.6378 C   0  0  0  0  0  0
  -29.3299  -24.3649   20.7313 C   0  0  2  0  0  0
  -29.2678  -20.4192   20.7976 C   0  0  0  0  0  0
  -28.2597  -25.1986   19.9685 C   0  0  0  0  0  0
  -29.4850  -21.8446   21.1841 N   0  0  0  0  0  0
  -30.2475  -15.5262   21.2407 N   0  0  0  0  0  0
  -29.4366  -22.6532   19.0533 O   0  0  0  0  0  0
  -31.4673  -12.3340   19.1794 H   0  0  0  0  0  0
  -30.2483  -11.3111   19.8677 H   0  0  0  0  0  0
  -29.7765  -11.8166   17.4378 H   0  0  0  0  0  0
  -29.6940  -13.5203   17.8206 H   0  0  0  0  0  0
  -27.8614  -11.3174   18.8340 H   0  0  0  0  0  0
  -27.3866  -12.6303   17.7786 H   0  0  0  0  0  0
  -27.6951  -14.2662   19.5306 H   0  0  0  0  0  0
  -28.6772  -12.1001   21.4602 H   0  0  0  0  0  0
  -28.4658  -13.7872   21.8038 H   0  0  0  0  0  0
  -25.2764   -9.5745   22.4693 H   0  0  0  0  0  0
  -24.0039   -7.4663   22.7487 H   0  0  0  0  0  0
  -21.0844   -8.8741   19.8968 H   0  0  0  0  0  0
  -22.3673  -10.9636   19.6124 H   0  0  0  0  0  0
  -21.2014   -7.6138   23.9709 H   0  0  0  0  0  0
  -21.1518   -6.0504   25.9082 H   0  0  0  0  0  0
  -22.0600   -2.7596   23.2801 H   0  0  0  0  0  0
  -22.4112  -11.9910   22.4781 H   0  0  0  0  0  0
  -21.1121  -13.1299   22.2508 H   0  0  0  0  0  0
  -24.6595  -15.8399   20.5517 H   0  0  0  0  0  0
  -26.2863  -15.6496   20.1344 H   0  0  0  0  0  0
  -26.7210  -32.5532   23.1229 H   0  0  0  0  0  0
  -24.9929  -33.9710   25.0427 H   0  0  0  0  0  0
  -22.7084  -31.3216   21.4038 H   0  0  0  0  0  0
  -23.3762  -35.9609   23.3273 H   0  0  0  0  0  0
  -24.3590  -36.8941   22.2074 H   0  0  0  0  0  0
  -23.7168  -37.6489   23.6658 H   0  0  0  0  0  0
  -26.0812  -31.6019   20.5955 H   0  0  0  0  0  0
  -26.8357  -30.8768   21.9859 H   0  0  0  0  0  0
  -28.1203  -29.1048   21.1189 H   0  0  0  0  0  0
  -25.9876  -25.9448   19.0679 H   0  0  0  0  0  0
  -23.9509  -27.2935   19.0908 H   0  0  0  0  0  0
  -23.7660  -30.6147   19.4044 H   0  0  0  0  0  0
  -22.7495  -29.2759   19.8395 H   0  0  0  0  0  0
  -25.1236  -36.2000   25.0870 H   0  0  0  0  0  0
  -21.0114  -28.3302   24.1348 H   0  0  0  0  0  0
  -20.5705  -26.2342   23.3645 H   0  0  0  0  0  0
  -21.6640  -26.7403   22.1158 H   0  0  0  0  0  0
  -19.6844  -25.6293   21.1257 H   0  0  0  0  0  0
  -19.6604  -27.3216   20.6797 H   0  0  0  0  0  0
  -17.4193  -26.6770   21.4060 H   0  0  0  0  0  0
  -18.0250  -26.0053   22.9036 H   0  0  0  0  0  0
  -19.7975  -30.7237   24.2365 H   0  0  0  0  0  0
  -17.5045  -31.6257   24.5173 H   0  0  0  0  0  0
  -15.5387  -30.3019   23.7513 H   0  0  0  0  0  0
  -15.8744  -28.0807   22.7036 H   0  0  0  0  0  0
  -24.5722  -30.7279   25.7815 H   0  0  0  0  0  0
  -24.8904  -32.3026   26.4936 H   0  0  0  0  0  0
  -25.7858  -30.8931   27.0289 H   0  0  0  0  0  0
  -26.2899  -29.6833   24.1144 H   0  0  0  0  0  0
  -27.3925  -29.7270   25.4721 H   0  0  0  0  0  0
  -27.8778  -30.4392   23.9505 H   0  0  0  0  0  0
  -27.2705  -33.3632   26.2120 H   0  0  0  0  0  0
  -28.3806  -32.6867   25.0272 H   0  0  0  0  0  0
  -28.0769  -31.8408   26.5374 H   0  0  0  0  0  0
  -28.2597  -38.0121   24.7560 H   0  0  0  0  0  0
  -28.1102  -36.2662   24.6211 H   0  0  0  0  0  0
  -27.2349  -37.1384   25.8883 H   0  0  0  0  0  0
  -20.9433  -29.8865   21.6902 H   0  0  0  0  0  0
  -26.0180  -38.2907   24.1428 H   0  0  0  0  0  0
  -33.5997  -18.7399   21.7979 H   0  0  0  0  0  0
  -32.0165  -20.6089   21.4415 H   0  0  0  0  0  0
  -32.8430  -16.3891   21.6384 H   0  0  0  0  0  0
  -28.8070  -17.7511   20.9798 H   0  0  0  0  0  0
  -29.9293  -23.6698   24.0692 H   0  0  0  0  0  0
  -31.0182  -23.5876   22.6846 H   0  0  0  0  0  0
  -29.3764  -25.5269   22.5602 H   0  0  0  0  0  0
  -28.0734  -24.3714   22.5184 H   0  0  0  0  0  0
  -28.4230  -21.9804   22.9792 H   0  0  0  0  0  0
  -30.0347  -21.3224   23.1736 H   0  0  0  0  0  0
  -30.3060  -24.7903   20.5003 H   0  0  0  0  0  0
  -28.3336  -20.1075   21.2601 H   0  0  0  0  0  0
  -29.1151  -20.3324   19.7209 H   0  0  0  0  0  0
  -27.2987  -24.8433   20.3414 H   0  0  0  0  0  0
  -28.2842  -24.9847   18.8973 H   0  0  0  0  0  0
  -29.3090  -15.3702   21.5874 H   0  0  0  0  0  0
  1 25  1  0  0  0
  1 30  2  0  0  0
  1 85  1  0  0  0
  2  3  1  0  0  0
  2 25  1  0  0  0
  2 87  1  0  0  0
  2 88  1  0  0  0
  3  4  1  0  0  0
  3 89  1  0  0  0
  3 90  1  0  0  0
  4  5  1  0  0  0
  4 91  1  0  0  0
  4 92  1  0  0  0
  5  6  1  0  0  0
  5 26  1  0  0  0
  5 93  1  0  0  0
  6 25  1  0  0  0
  6 94  1  0  0  0
  6 95  1  0  0  0
  7  8  2  0  0  0
  7 26  1  0  0  0
  7 29  1  0  0  0
  8  9  1  0  0  0
  8 22  1  0  0  0
  9 10  1  0  0  0
  9 27  2  0  0  0
 10 11  2  0  0  0
 10 15  1  0  0  0
 11 12  1  0  0  0
 11 96  1  0  0  0
 12 13  2  0  0  0
 12 97  1  0  0  0
 13 14  1  0  0  0
 13 31  1  0  0  0
 14 15  2  0  0  0
 14 98  1  0  0  0
 15 99  1  0  0  0
 16 17  2  0  0  0
 16 21  1  0  0  0
 16 31  1  0  0  0
 17 18  1  0  0  0
 17100  1  0  0  0
 18 19  2  0  0  0
 18101  1  0  0  0
 19 20  1  0  0  0
 19 24  1  0  0  0
 20 21  2  0  0  0
 20102  1  0  0  0
 21 23  1  0  0  0
 22 28  1  0  0  0
 22 32  2  0  0  0
 26 27  1  0  0  0
 28103  1  0  0  0
 28104  1  0  0  0
 29105  1  0  0  0
 29106  1  0  0  0
 33 34  1  0  0  0
 33 66  1  0  0  0
 33 70  2  0  0  0
 34 36  1  0  0  0
 34 59  1  0  0  0
 34107  1  0  0  0
 35 44  2  0  0  0
 35 45  1  0  0  0
 35 68  1  0  0  0
 36 56  1  0  0  0
 36108  1  0  0  0
 37 39  1  0  0  0
 37 47  1  0  0  0
 37 66  1  0  0  0
 37109  1  0  0  0
 38 43  2  0  0  0
 38 46  1  0  0  0
 38 47  1  0  0  0
 39 64  1  0  0  0
 39 67  2  0  0  0
 40 52  1  0  0  0
 40 53  2  0  0  0
 40 58  1  0  0  0
 41110  1  0  0  0
 41111  1  0  0  0
 41112  1  0  0  0
 41 48  1  0  0  0
 42 43  1  0  0  0
 42 66  1  0  0  0
 42113  1  0  0  0
 42114  1  0  0  0
 43 44  1  0  0  0
 44115  1  0  0  0
 45 46  2  0  0  0
 45116  1  0  0  0
 46117  1  0  0  0
 47118  1  0  0  0
 47119  1  0  0  0
 48 56  1  0  0  0
 48 65  1  0  0  0
 48120  1  0  0  0
 49 50  1  0  0  0
 49 53  1  0  0  0
 49 64  1  0  0  0
 49121  1  0  0  0
 50 51  1  0  0  0
 50122  1  0  0  0
 50123  1  0  0  0
 51 52  1  0  0  0
 51124  1  0  0  0
 51125  1  0  0  0
 52126  1  0  0  0
 52127  1  0  0  0
 53 54  1  0  0  0
 54 55  2  0  0  0
 54128  1  0  0  0
 55 57  1  0  0  0
 55129  1  0  0  0
 56 69  2  0  0  0
 57 58  2  0  0  0
 57130  1  0  0  0
 58131  1  0  0  0
 59 60  1  0  0  0
 59 61  1  0  0  0
 59 62  1  0  0  0
 60132  1  0  0  0
 60133  1  0  0  0
 60134  1  0  0  0
 61135  1  0  0  0
 61136  1  0  0  0
 61137  1  0  0  0
 62138  1  0  0  0
 62139  1  0  0  0
 62140  1  0  0  0
 63 65  1  0  0  0
 63141  1  0  0  0
 63142  1  0  0  0
 63143  1  0  0  0
 64144  1  0  0  0
 65145  1  0  0  0
 68 83  1  0  0  0
 71 72  2  0  0  0
 71 73  1  0  0  0
 71146  1  0  0  0
 72 75  1  0  0  0
 72147  1  0  0  0
 73 76  2  0  0  0
 73148  1  0  0  0
 74 75  2  0  0  0
 74 76  1  0  0  0
 74149  1  0  0  0
 75 82  1  0  0  0
 76 85  1  0  0  0
 77 81  1  0  0  0
 77 84  1  0  0  0
 77 86  2  0  0  0
 78 79  1  0  0  0
 78 80  1  0  0  0
 78150  1  0  0  0
 78151  1  0  0  0
 79 81  1  0  0  0
 79152  1  0  0  0
 79153  1  0  0  0
 80 84  1  0  0  0
 80154  1  0  0  0
 80155  1  0  0  0
 81 83  1  0  0  0
 81156  1  0  0  0
 82 84  1  0  0  0
 82157  1  0  0  0
 82158  1  0  0  0
 83159  1  0  0  0
 83160  1  0  0  0
 85161  1  0  0  0
M  ISO  4   1 100  68 101  83 101  85 100
M  END
> <chiral flag>
0

> <version>
0

> <s_m_source_file>
/data/baiqing/PycharmProjects/Reinvent-master-3.2/result/LINK_invent/BTK/process_docking_weight1_custom_product_contain_oxygen_bond_distance_aromatic_linkinvent_7_9_3/rearranged_h_0047.sdf

> <i_m_source_file_index>
93

> <r_mmod_Potential_Energy-OPLS-2005>
21.7418766021729

> <r_mmod_Stretch_Energy-OPLS-2005>
54.6318511962891

> <r_mmod_Bend_Energy-OPLS-2005>
119.023284912109

> <r_mmod_Torsional_Energy-OPLS-2005>
235.689086914062

> <r_mmod_Improper_Torsional_Energy-OPLS-2005>
3.48209238052368

> <r_mmod_Van_der_Waal_Energy-OPLS-2005>
169.178985595703

> <r_mmod_Electrostatic_Energy-OPLS-2005>
-355.898071289062

> <r_mmod_Solvation_Energy-OPLS-2005>
-225.938217163086

> <b_mmod_Minimization_Converged-OPLS-2005>
0

> <r_mmod_RMS_Derivative-OPLS-2005>
7.49440813064575

$$$$
93
                    3D
 Structure written by MMmdl.
160168  0  0  1  0            999 V2000
  -30.6078  -14.6224   20.5930 C   0  0  0  0  0  0
  -30.4308  -12.4211   19.4218 C   0  0  0  0  0  0
  -29.4863  -12.5231   18.2046 C   0  0  0  0  0  0
  -28.0165  -12.3314   18.6334 C   0  0  0  0  0  0
  -27.6412  -13.2081   19.8585 C   0  0  2  0  0  0
  -28.6809  -13.0496   20.9834 C   0  0  0  0  0  0
  -25.2506  -13.8148   20.5736 C   0  0  0  0  0  0
  -24.1773  -13.0418   20.9179 C   0  0  0  0  0  0
  -24.6346  -11.6889   20.8734 C   0  0  0  0  0  0
  -23.9024  -10.4283   21.0383 C   0  0  0  0  0  0
  -24.3566   -9.4220   21.9171 C   0  0  0  0  0  0
  -23.6273   -8.2241   22.0751 C   0  0  0  0  0  0
  -22.4255   -8.0263   21.3536 C   0  0  0  0  0  0
  -21.9868   -9.0237   20.4642 C   0  0  0  0  0  0
  -22.7188  -10.2120   20.3067 C   0  0  0  0  0  0
  -21.6859   -6.0722   22.5293 C   0  0  0  0  0  0
  -21.4017   -6.5632   23.8209 C   0  0  0  0  0  0
  -21.3653   -5.6799   24.9172 C   0  0  0  0  0  0
  -21.6035   -4.3063   24.7242 C   0  0  0  0  0  0
  -21.8823   -3.8150   23.4371 C   0  0  0  0  0  0
  -21.9192   -4.6961   22.3424 C   0  0  0  0  0  0
  -22.7804  -13.5203   21.1889 C   0  0  0  0  0  0
  -22.1676   -4.2159   21.1002 F   0  0  0  0  0  0
  -21.5622   -3.4536   25.7736 F   0  0  0  0  0  0
  -29.9811  -13.4229   20.4143 N   0  0  0  0  0  0
  -26.2897  -12.9323   20.3289 N   0  0  0  0  0  0
  -25.9260  -11.6485   20.5724 N   0  0  0  0  0  0
  -22.0479  -12.8144   22.0421 N   0  0  0  0  0  0
  -25.4245  -15.1862   20.4257 N   0  0  0  0  0  0
  -31.7850  -14.7914   20.2676 O   0  0  0  0  0  0
  -21.6636   -6.8843   21.4236 O   0  0  0  0  0  0
  -22.3474  -14.5549   20.6816 O   0  0  0  0  0  0
  -24.6308  -31.8555   23.1966 C   0  0  0  0  0  0
  -25.9138  -32.4752   23.8316 C   0  0  1  0  0  0
  -27.2144  -27.2763   20.1353 C   0  0  0  0  0  0
  -25.5938  -33.8546   24.2260 N   0  0  0  0  0  0
  -23.4302  -30.4760   21.5416 C   0  0  2  0  0  0
  -24.8745  -28.9248   20.1184 C   0  0  0  0  0  0
  -22.7481  -29.4613   22.4922 C   0  0  0  0  0  0
  -18.0275  -28.1386   22.8486 C   0  0  0  0  0  0
  -24.1490  -36.7270   23.2660 C   0  0  0  0  0  0
  -25.9762  -30.7703   21.3853 C   0  0  0  0  0  0
  -26.0467  -29.3955   20.7260 C   0  0  0  0  0  0
  -27.2249  -28.5827   20.7211 C   0  0  0  0  0  0
  -26.0267  -26.8721   19.4884 C   0  0  0  0  0  0
  -24.8679  -27.6701   19.4893 C   0  0  0  0  0  0
  -23.6461  -29.8107   20.1583 C   0  0  0  0  0  0
  -25.4121  -36.3076   24.0339 C   0  0  1  0  0  0
  -20.5884  -28.3728   23.1285 C   0  0  2  0  0  0
  -20.6786  -26.9452   22.5420 C   0  0  0  0  0  0
  -19.5752  -26.6352   21.5262 C   0  0  0  0  0  0
  -18.1920  -26.7900   22.1670 C   0  0  0  0  0  0
  -19.1525  -28.8863   23.2887 C   0  0  0  0  0  0
  -18.9450  -30.1466   23.8878 C   0  0  0  0  0  0
  -17.6450  -30.6590   24.0540 C   0  0  0  0  0  0
  -25.9050  -34.9442   23.5114 C   0  0  0  0  0  0
  -16.5335  -29.9079   23.6328 C   0  0  0  0  0  0
  -16.7254  -28.6495   23.0361 C   0  0  0  0  0  0
  -26.4499  -31.6593   25.0735 C   0  0  0  0  0  0
  -25.3709  -31.3735   26.1451 C   0  0  0  0  0  0
  -27.0393  -30.2999   24.6285 C   0  0  0  0  0  0
  -27.6051  -32.4345   25.7501 C   0  0  0  0  0  0
  -27.5570  -37.1809   24.8479 C   0  0  0  0  0  0
  -21.4197  -29.3052   22.3626 N   0  0  0  0  0  0
  -26.4304  -37.3770   23.9402 N   0  0  0  0  0  0
  -24.6964  -31.0532   22.0947 N   0  0  0  0  0  0
  -23.4163  -28.8136   23.3021 O   0  0  0  0  0  0
  -28.3043  -26.3878   20.1630 O   0  0  0  0  0  0
  -26.5638  -34.8912   22.4687 O   0  0  0  0  0  0
  -23.5453  -32.1335   23.7264 O   0  0  0  0  0  0
  -29.9046  -16.4595   24.5226 C   0  0  0  0  0  0
  -29.6768  -17.8345   24.5887 C   0  0  0  0  0  0
  -29.9924  -15.8358   23.2725 C   0  0  0  0  0  0
  -29.5628  -18.5980   23.4108 C   0  0  0  0  0  0
  -29.5877  -17.9925   22.1127 C   0  0  0  0  0  0
  -29.8385  -16.5477   22.0559 C   0  0  0  0  0  0
  -28.0648  -21.2112   20.5021 C   0  0  0  0  0  0
  -29.4804  -20.0986   23.6169 C   0  0  0  0  0  0
  -29.4480  -18.9664   20.8822 C   0  0  0  0  0  0
  -29.1010  -22.3615   20.7740 C   0  0  0  0  0  0
  -29.0046  -23.8000   20.0477 C   0  0  0  0  0  0
  -28.0465  -24.9686   20.5669 C   0  0  0  0  0  0
  -29.7917  -15.6942   20.8865 N   0  0  0  0  0  0
  -28.2578  -19.8783   20.8004 N   0  0  0  0  0  0
  -26.9613  -21.5446   20.0747 O   0  0  0  0  0  0
  -31.4622  -12.5970   19.1076 H   0  0  0  0  0  0
  -30.4026  -11.4229   19.8564 H   0  0  0  0  0  0
  -29.7539  -11.7907   17.4435 H   0  0  0  0  0  0
  -29.6050  -13.5019   17.7403 H   0  0  0  0  0  0
  -27.8754  -11.2741   18.8738 H   0  0  0  0  0  0
  -27.3468  -12.5371   17.7988 H   0  0  0  0  0  0
  -27.6621  -14.2433   19.5231 H   0  0  0  0  0  0
  -28.6989  -12.0194   21.3432 H   0  0  0  0  0  0
  -28.4148  -13.6585   21.8470 H   0  0  0  0  0  0
  -25.2710   -9.5718   22.4724 H   0  0  0  0  0  0
  -24.0024   -7.4628   22.7454 H   0  0  0  0  0  0
  -21.0802   -8.8728   19.8931 H   0  0  0  0  0  0
  -22.3637  -10.9647   19.6183 H   0  0  0  0  0  0
  -21.2023   -7.6147   23.9707 H   0  0  0  0  0  0
  -21.1462   -6.0530   25.9058 H   0  0  0  0  0  0
  -22.0604   -2.7630   23.2871 H   0  0  0  0  0  0
  -22.4126  -11.9782   22.4756 H   0  0  0  0  0  0
  -21.1142  -13.1174   22.2776 H   0  0  0  0  0  0
  -24.6624  -15.8384   20.5800 H   0  0  0  0  0  0
  -26.2822  -15.6401   20.1437 H   0  0  0  0  0  0
  -26.7215  -32.5376   23.1061 H   0  0  0  0  0  0
  -25.0059  -33.9679   25.0378 H   0  0  0  0  0  0
  -22.7321  -31.3009   21.3917 H   0  0  0  0  0  0
  -23.3745  -35.9616   23.3345 H   0  0  0  0  0  0
  -24.3569  -36.8835   22.2069 H   0  0  0  0  0  0
  -23.7231  -37.6478   23.6639 H   0  0  0  0  0  0
  -26.1372  -31.5344   20.6240 H   0  0  0  0  0  0
  -26.8440  -30.7988   22.0309 H   0  0  0  0  0  0
  -28.1258  -28.9358   21.2048 H   0  0  0  0  0  0
  -25.9799  -25.9198   18.9771 H   0  0  0  0  0  0
  -23.9724  -27.3047   19.0024 H   0  0  0  0  0  0
  -23.7826  -30.5870   19.4027 H   0  0  0  0  0  0
  -22.7651  -29.2474   19.8404 H   0  0  0  0  0  0
  -25.1299  -36.1951   25.0830 H   0  0  0  0  0  0
  -20.9979  -28.3306   24.1403 H   0  0  0  0  0  0
  -20.5720  -26.2338   23.3631 H   0  0  0  0  0  0
  -21.6657  -26.7473   22.1228 H   0  0  0  0  0  0
  -19.6934  -25.6245   21.1325 H   0  0  0  0  0  0
  -19.6666  -27.3119   20.6767 H   0  0  0  0  0  0
  -17.4176  -26.6581   21.4063 H   0  0  0  0  0  0
  -18.0353  -26.0079   22.9113 H   0  0  0  0  0  0
  -19.7922  -30.7290   24.2230 H   0  0  0  0  0  0
  -17.5013  -31.6279   24.5132 H   0  0  0  0  0  0
  -15.5330  -30.2978   23.7693 H   0  0  0  0  0  0
  -15.8642  -28.0815   22.7116 H   0  0  0  0  0  0
  -24.5887  -30.7105   25.7724 H   0  0  0  0  0  0
  -24.8935  -32.2919   26.4871 H   0  0  0  0  0  0
  -25.8034  -30.8891   27.0220 H   0  0  0  0  0  0
  -26.3020  -29.6709   24.1298 H   0  0  0  0  0  0
  -27.4003  -29.7302   25.4856 H   0  0  0  0  0  0
  -27.8912  -30.4232   23.9609 H   0  0  0  0  0  0
  -27.2635  -33.3618   26.2088 H   0  0  0  0  0  0
  -28.3853  -32.6926   25.0340 H   0  0  0  0  0  0
  -28.0741  -31.8475   26.5401 H   0  0  0  0  0  0
  -28.2638  -38.0065   24.7478 H   0  0  0  0  0  0
  -28.1035  -36.2591   24.6383 H   0  0  0  0  0  0
  -27.2301  -37.1528   25.8897 H   0  0  0  0  0  0
  -20.9394  -29.8713   21.6769 H   0  0  0  0  0  0
  -26.0191  -38.2860   24.1358 H   0  0  0  0  0  0
  -30.0095  -15.8840   25.4331 H   0  0  0  0  0  0
  -29.6260  -18.3083   25.5562 H   0  0  0  0  0  0
  -30.1513  -14.7664   23.2903 H   0  0  0  0  0  0
  -29.8715  -20.3793   24.5971 H   0  0  0  0  0  0
  -28.4499  -20.4392   23.5618 H   0  0  0  0  0  0
  -30.0867  -20.6241   22.8816 H   0  0  0  0  0  0
  -29.4909  -18.3832   19.9635 H   0  0  0  0  0  0
  -30.3425  -19.5846   20.8513 H   0  0  0  0  0  0
  -30.0808  -21.9390   20.5355 H   0  0  0  0  0  0
  -29.1026  -22.5406   21.8481 H   0  0  0  0  0  0
  -28.8428  -23.6445   18.9787 H   0  0  0  0  0  0
  -30.0147  -24.2094   20.1159 H   0  0  0  0  0  0
  -28.0905  -24.9608   21.6561 H   0  0  0  0  0  0
  -27.0304  -24.6599   20.3327 H   0  0  0  0  0  0
  -28.8419  -15.4807   20.6385 H   0  0  0  0  0  0
  -27.3935  -19.3520   20.7627 H   0  0  0  0  0  0
  1 25  1  0  0  0
  1 30  2  0  0  0
  1 83  1  0  0  0
  2  3  1  0  0  0
  2 25  1  0  0  0
  2 86  1  0  0  0
  2 87  1  0  0  0
  3  4  1  0  0  0
  3 88  1  0  0  0
  3 89  1  0  0  0
  4  5  1  0  0  0
  4 90  1  0  0  0
  4 91  1  0  0  0
  5  6  1  0  0  0
  5 26  1  0  0  0
  5 92  1  0  0  0
  6 25  1  0  0  0
  6 93  1  0  0  0
  6 94  1  0  0  0
  7  8  2  0  0  0
  7 26  1  0  0  0
  7 29  1  0  0  0
  8  9  1  0  0  0
  8 22  1  0  0  0
  9 10  1  0  0  0
  9 27  2  0  0  0
 10 11  2  0  0  0
 10 15  1  0  0  0
 11 12  1  0  0  0
 11 95  1  0  0  0
 12 13  2  0  0  0
 12 96  1  0  0  0
 13 14  1  0  0  0
 13 31  1  0  0  0
 14 15  2  0  0  0
 14 97  1  0  0  0
 15 98  1  0  0  0
 16 17  2  0  0  0
 16 21  1  0  0  0
 16 31  1  0  0  0
 17 18  1  0  0  0
 17 99  1  0  0  0
 18 19  2  0  0  0
 18100  1  0  0  0
 19 20  1  0  0  0
 19 24  1  0  0  0
 20 21  2  0  0  0
 20101  1  0  0  0
 21 23  1  0  0  0
 22 28  1  0  0  0
 22 32  2  0  0  0
 26 27  1  0  0  0
 28102  1  0  0  0
 28103  1  0  0  0
 29104  1  0  0  0
 29105  1  0  0  0
 33 34  1  0  0  0
 33 66  1  0  0  0
 33 70  2  0  0  0
 34 36  1  0  0  0
 34 59  1  0  0  0
 34106  1  0  0  0
 35 44  2  0  0  0
 35 45  1  0  0  0
 35 68  1  0  0  0
 36 56  1  0  0  0
 36107  1  0  0  0
 37 39  1  0  0  0
 37 47  1  0  0  0
 37 66  1  0  0  0
 37108  1  0  0  0
 38 43  2  0  0  0
 38 46  1  0  0  0
 38 47  1  0  0  0
 39 64  1  0  0  0
 39 67  2  0  0  0
 40 52  1  0  0  0
 40 53  2  0  0  0
 40 58  1  0  0  0
 41109  1  0  0  0
 41110  1  0  0  0
 41111  1  0  0  0
 41 48  1  0  0  0
 42 43  1  0  0  0
 42 66  1  0  0  0
 42112  1  0  0  0
 42113  1  0  0  0
 43 44  1  0  0  0
 44114  1  0  0  0
 45 46  2  0  0  0
 45115  1  0  0  0
 46116  1  0  0  0
 47117  1  0  0  0
 47118  1  0  0  0
 48 56  1  0  0  0
 48 65  1  0  0  0
 48119  1  0  0  0
 49 50  1  0  0  0
 49 53  1  0  0  0
 49 64  1  0  0  0
 49120  1  0  0  0
 50 51  1  0  0  0
 50121  1  0  0  0
 50122  1  0  0  0
 51 52  1  0  0  0
 51123  1  0  0  0
 51124  1  0  0  0
 52125  1  0  0  0
 52126  1  0  0  0
 53 54  1  0  0  0
 54 55  2  0  0  0
 54127  1  0  0  0
 55 57  1  0  0  0
 55128  1  0  0  0
 56 69  2  0  0  0
 57 58  2  0  0  0
 57129  1  0  0  0
 58130  1  0  0  0
 59 60  1  0  0  0
 59 61  1  0  0  0
 59 62  1  0  0  0
 60131  1  0  0  0
 60132  1  0  0  0
 60133  1  0  0  0
 61134  1  0  0  0
 61135  1  0  0  0
 61136  1  0  0  0
 62137  1  0  0  0
 62138  1  0  0  0
 62139  1  0  0  0
 63 65  1  0  0  0
 63140  1  0  0  0
 63141  1  0  0  0
 63142  1  0  0  0
 64143  1  0  0  0
 65144  1  0  0  0
 68 82  1  0  0  0
 71 72  2  0  0  0
 71 73  1  0  0  0
 71145  1  0  0  0
 72 74  1  0  0  0
 72146  1  0  0  0
 73 76  2  0  0  0
 73147  1  0  0  0
 74 75  2  0  0  0
 74 78  1  0  0  0
 75 76  1  0  0  0
 75 79  1  0  0  0
 76 83  1  0  0  0
 77 80  1  0  0  0
 77 84  1  0  0  0
 77 85  2  0  0  0
 78148  1  0  0  0
 78149  1  0  0  0
 78150  1  0  0  0
 79 84  1  0  0  0
 79151  1  0  0  0
 79152  1  0  0  0
 80 81  1  0  0  0
 80153  1  0  0  0
 80154  1  0  0  0
 81 82  1  0  0  0
 81155  1  0  0  0
 81156  1  0  0  0
 82157  1  0  0  0
 82158  1  0  0  0
 83159  1  0  0  0
 84160  1  0  0  0
M  ISO  4   1 100  68 101  82 101  83 100
M  END
> <chiral flag>
0

> <version>
0

> <s_m_source_file>
/data/baiqing/PycharmProjects/Reinvent-master-3.2/result/LINK_invent/BTK/process_docking_weight1_custom_product_contain_oxygen_bond_distance_aromatic_linkinvent_7_9_3/rearranged_h_0047.sdf

> <i_m_source_file_index>
94

> <r_mmod_Potential_Energy-OPLS-2005>
96.4026260375977

> <r_mmod_Stretch_Energy-OPLS-2005>
97.3175659179688

> <r_mmod_Bend_Energy-OPLS-2005>
182.395935058594

> <r_mmod_Torsional_Energy-OPLS-2005>
283.351043701172

> <r_mmod_Improper_Torsional_Energy-OPLS-2005>
11.7829313278198

> <r_mmod_Van_der_Waal_Energy-OPLS-2005>
140.408355712891

> <r_mmod_Electrostatic_Energy-OPLS-2005>
-447.273590087891

> <r_mmod_Solvation_Energy-OPLS-2005>
-233.291290283203

> <b_mmod_Minimization_Converged-OPLS-2005>
0

> <r_mmod_RMS_Derivative-OPLS-2005>
6.97539520263672

$$$$
94
                    3D
 Structure written by MMmdl.
154162  0  0  1  0            999 V2000
  -30.6686  -14.5885   20.5097 C   0  0  0  0  0  0
  -30.4213  -12.3663   19.4507 C   0  0  0  0  0  0
  -29.5005  -12.4984   18.2203 C   0  0  0  0  0  0
  -28.0228  -12.3462   18.6339 C   0  0  0  0  0  0
  -27.6523  -13.2136   19.8691 C   0  0  2  0  0  0
  -28.6983  -13.0486   20.9931 C   0  0  0  0  0  0
  -25.2564  -13.8165   20.5697 C   0  0  0  0  0  0
  -24.1829  -13.0436   20.9199 C   0  0  0  0  0  0
  -24.6394  -11.6903   20.8738 C   0  0  0  0  0  0
  -23.9059  -10.4294   21.0401 C   0  0  0  0  0  0
  -24.3618   -9.4212   21.9179 C   0  0  0  0  0  0
  -23.6304   -8.2242   22.0750 C   0  0  0  0  0  0
  -22.4283   -8.0284   21.3546 C   0  0  0  0  0  0
  -21.9911   -9.0249   20.4640 C   0  0  0  0  0  0
  -22.7226  -10.2136   20.3051 C   0  0  0  0  0  0
  -21.6849   -6.0742   22.5285 C   0  0  0  0  0  0
  -21.4007   -6.5646   23.8218 C   0  0  0  0  0  0
  -21.3664   -5.6794   24.9176 C   0  0  0  0  0  0
  -21.6057   -4.3060   24.7224 C   0  0  0  0  0  0
  -21.8816   -3.8157   23.4340 C   0  0  0  0  0  0
  -21.9190   -4.6974   22.3401 C   0  0  0  0  0  0
  -22.7860  -13.5238   21.1869 C   0  0  0  0  0  0
  -22.1664   -4.2162   21.0979 F   0  0  0  0  0  0
  -21.5634   -3.4545   25.7736 F   0  0  0  0  0  0
  -30.0020  -13.3979   20.4185 N   0  0  0  0  0  0
  -26.2992  -12.9339   20.3354 N   0  0  0  0  0  0
  -25.9321  -11.6493   20.5775 N   0  0  0  0  0  0
  -22.0509  -12.8221   22.0417 N   0  0  0  0  0  0
  -25.4297  -15.1867   20.4107 N   0  0  0  0  0  0
  -31.8459  -14.6836   20.1634 O   0  0  0  0  0  0
  -21.6637   -6.8883   21.4249 O   0  0  0  0  0  0
  -22.3551  -14.5553   20.6731 O   0  0  0  0  0  0
  -24.6195  -31.8633   23.2095 C   0  0  0  0  0  0
  -25.9065  -32.4798   23.8398 C   0  0  1  0  0  0
  -27.2192  -27.3742   20.1115 C   0  0  0  0  0  0
  -25.5930  -33.8605   24.2321 N   0  0  0  0  0  0
  -23.4103  -30.4886   21.5513 C   0  0  2  0  0  0
  -24.8558  -28.9514   20.1105 C   0  0  0  0  0  0
  -22.7438  -29.4639   22.4986 C   0  0  0  0  0  0
  -18.0311  -28.1386   22.8502 C   0  0  0  0  0  0
  -24.1490  -36.7299   23.2646 C   0  0  0  0  0  0
  -25.9469  -30.8114   21.3701 C   0  0  0  0  0  0
  -26.0221  -29.4455   20.7093 C   0  0  0  0  0  0
  -27.2117  -28.6687   20.6973 C   0  0  0  0  0  0
  -26.0384  -26.9163   19.4928 C   0  0  0  0  0  0
  -24.8627  -27.6892   19.4946 C   0  0  0  0  0  0
  -23.6212  -29.8286   20.1641 C   0  0  0  0  0  0
  -25.4114  -36.3108   24.0343 C   0  0  1  0  0  0
  -20.5873  -28.3717   23.1367 C   0  0  2  0  0  0
  -20.6779  -26.9432   22.5521 C   0  0  0  0  0  0
  -19.5788  -26.6366   21.5299 C   0  0  0  0  0  0
  -18.1961  -26.7934   22.1664 C   0  0  0  0  0  0
  -19.1541  -28.8861   23.2928 C   0  0  0  0  0  0
  -18.9460  -30.1466   23.8938 C   0  0  0  0  0  0
  -17.6467  -30.6579   24.0637 C   0  0  0  0  0  0
  -25.9051  -34.9468   23.5127 C   0  0  0  0  0  0
  -16.5377  -29.9042   23.6422 C   0  0  0  0  0  0
  -16.7309  -28.6477   23.0409 C   0  0  0  0  0  0
  -26.4485  -31.6590   25.0733 C   0  0  0  0  0  0
  -25.3736  -31.3712   26.1473 C   0  0  0  0  0  0
  -27.0331  -30.3034   24.6136 C   0  0  0  0  0  0
  -27.6062  -32.4324   25.7485 C   0  0  0  0  0  0
  -27.5579  -37.1811   24.8467 C   0  0  0  0  0  0
  -21.4141  -29.3117   22.3801 N   0  0  0  0  0  0
  -26.4301  -37.3789   23.9413 N   0  0  0  0  0  0
  -24.6778  -31.0687   22.1022 N   0  0  0  0  0  0
  -23.4186  -28.8099   23.2969 O   0  0  0  0  0  0
  -28.3314  -26.5430   20.1345 O   0  0  0  0  0  0
  -26.5607  -34.8935   22.4682 O   0  0  0  0  0  0
  -23.5382  -32.1422   23.7444 O   0  0  0  0  0  0
  -27.6948  -20.4327   22.1245 C   0  0  0  0  0  0
  -27.3315  -19.3805   22.9790 C   0  0  0  0  0  0
  -29.0809  -18.8795   20.8363 C   0  0  0  0  0  0
  -28.5810  -20.2174   21.0453 C   0  0  0  0  0  0
  -28.7164  -17.7949   21.7083 C   0  0  0  0  0  0
  -27.8406  -18.0898   22.7797 C   0  0  0  0  0  0
  -28.5832  -23.9871   20.0146 C   0  0  0  0  0  0
  -28.9422  -21.4329   20.1329 C   0  0  0  0  0  0
  -29.1458  -16.2918   21.6321 C   0  0  0  0  0  0
  -28.1325  -25.2584   20.8147 C   0  0  0  0  0  0
  -28.5830  -22.7864   20.6583 N   0  0  0  0  0  0
  -29.9437  -15.7424   20.5153 N   0  0  0  0  0  0
  -28.9211  -24.0863   18.8341 O   0  0  0  0  0  0
  -27.4708  -17.1114   23.6410 F   0  0  0  0  0  0
  -31.4659  -12.4686   19.1524 H   0  0  0  0  0  0
  -30.3376  -11.3741   19.8958 H   0  0  0  0  0  0
  -29.7612  -11.7455   17.4763 H   0  0  0  0  0  0
  -29.6525  -13.4688   17.7448 H   0  0  0  0  0  0
  -27.8546  -11.2910   18.8584 H   0  0  0  0  0  0
  -27.3670  -12.5848   17.7972 H   0  0  0  0  0  0
  -27.6775  -14.2534   19.5398 H   0  0  0  0  0  0
  -28.7140  -12.0176   21.3495 H   0  0  0  0  0  0
  -28.4580  -13.6441   21.8705 H   0  0  0  0  0  0
  -25.2773   -9.5698   22.4734 H   0  0  0  0  0  0
  -24.0030   -7.4632   22.7469 H   0  0  0  0  0  0
  -21.0835   -8.8762   19.8937 H   0  0  0  0  0  0
  -22.3688  -10.9677   19.6157 H   0  0  0  0  0  0
  -21.1986   -7.6152   23.9728 H   0  0  0  0  0  0
  -21.1495   -6.0520   25.9080 H   0  0  0  0  0  0
  -22.0588   -2.7624   23.2833 H   0  0  0  0  0  0
  -22.4145  -11.9888   22.4791 H   0  0  0  0  0  0
  -21.1125  -13.1234   22.2627 H   0  0  0  0  0  0
  -24.6667  -15.8434   20.5270 H   0  0  0  0  0  0
  -26.2840  -15.6262   20.0940 H   0  0  0  0  0  0
  -26.7121  -32.5481   23.1141 H   0  0  0  0  0  0
  -25.0073  -33.9754   25.0469 H   0  0  0  0  0  0
  -22.7023  -31.3104   21.4170 H   0  0  0  0  0  0
  -23.3751  -35.9630   23.3305 H   0  0  0  0  0  0
  -24.3590  -36.8907   22.2060 H   0  0  0  0  0  0
  -23.7232  -37.6508   23.6647 H   0  0  0  0  0  0
  -26.0752  -31.5782   20.6058 H   0  0  0  0  0  0
  -26.8289  -30.8571   21.9976 H   0  0  0  0  0  0
  -28.1094  -29.0419   21.1691 H   0  0  0  0  0  0
  -26.0254  -25.9458   19.0187 H   0  0  0  0  0  0
  -23.9663  -27.3034   19.0290 H   0  0  0  0  0  0
  -23.7424  -30.6143   19.4169 H   0  0  0  0  0  0
  -22.7396  -29.2637   19.8571 H   0  0  0  0  0  0
  -25.1283  -36.1977   25.0838 H   0  0  0  0  0  0
  -20.9921  -28.3308   24.1504 H   0  0  0  0  0  0
  -20.5620  -26.2350   23.3735 H   0  0  0  0  0  0
  -21.6674  -26.7445   22.1381 H   0  0  0  0  0  0
  -19.6968  -25.6265   21.1372 H   0  0  0  0  0  0
  -19.6722  -27.3156   20.6824 H   0  0  0  0  0  0
  -17.4258  -26.6638   21.4050 H   0  0  0  0  0  0
  -18.0353  -26.0113   22.9093 H   0  0  0  0  0  0
  -19.7917  -30.7317   24.2307 H   0  0  0  0  0  0
  -17.4986  -31.6226   24.5291 H   0  0  0  0  0  0
  -15.5375  -30.2883   23.7854 H   0  0  0  0  0  0
  -15.8745  -28.0758   22.7129 H   0  0  0  0  0  0
  -24.5911  -30.7058   25.7801 H   0  0  0  0  0  0
  -24.8926  -32.2876   26.4913 H   0  0  0  0  0  0
  -25.8077  -30.8886   27.0234 H   0  0  0  0  0  0
  -26.2891  -29.6787   24.1182 H   0  0  0  0  0  0
  -27.4089  -29.7285   25.4606 H   0  0  0  0  0  0
  -27.8730  -30.4353   23.9311 H   0  0  0  0  0  0
  -27.2682  -33.3620   26.2076 H   0  0  0  0  0  0
  -28.3852  -32.6887   25.0289 H   0  0  0  0  0  0
  -28.0745  -31.8441   26.5382 H   0  0  0  0  0  0
  -28.2612  -38.0099   24.7518 H   0  0  0  0  0  0
  -28.1068  -36.2631   24.6289 H   0  0  0  0  0  0
  -27.2305  -37.1458   25.8878 H   0  0  0  0  0  0
  -20.9267  -29.9037   21.7221 H   0  0  0  0  0  0
  -26.0181  -38.2873   24.1402 H   0  0  0  0  0  0
  -27.2709  -21.4062   22.3183 H   0  0  0  0  0  0
  -26.6536  -19.5635   23.8009 H   0  0  0  0  0  0
  -29.7431  -18.6929   20.0025 H   0  0  0  0  0  0
  -28.4400  -21.2874   19.1739 H   0  0  0  0  0  0
  -30.0140  -21.4133   19.9267 H   0  0  0  0  0  0
  -28.2125  -15.7343   21.6665 H   0  0  0  0  0  0
  -29.6710  -16.0604   22.5609 H   0  0  0  0  0  0
  -28.7067  -25.2932   21.7401 H   0  0  0  0  0  0
  -27.0952  -25.1141   21.1215 H   0  0  0  0  0  0
  -28.3077  -22.8110   21.6291 H   0  0  0  0  0  0
  -30.4438  -16.4718   20.0296 H   0  0  0  0  0  0
  1 25  1  0  0  0
  1 30  2  0  0  0
  1 82  1  0  0  0
  2  3  1  0  0  0
  2 25  1  0  0  0
  2 85  1  0  0  0
  2 86  1  0  0  0
  3  4  1  0  0  0
  3 87  1  0  0  0
  3 88  1  0  0  0
  4  5  1  0  0  0
  4 89  1  0  0  0
  4 90  1  0  0  0
  5  6  1  0  0  0
  5 26  1  0  0  0
  5 91  1  0  0  0
  6 25  1  0  0  0
  6 92  1  0  0  0
  6 93  1  0  0  0
  7  8  2  0  0  0
  7 26  1  0  0  0
  7 29  1  0  0  0
  8  9  1  0  0  0
  8 22  1  0  0  0
  9 10  1  0  0  0
  9 27  2  0  0  0
 10 11  2  0  0  0
 10 15  1  0  0  0
 11 12  1  0  0  0
 11 94  1  0  0  0
 12 13  2  0  0  0
 12 95  1  0  0  0
 13 14  1  0  0  0
 13 31  1  0  0  0
 14 15  2  0  0  0
 14 96  1  0  0  0
 15 97  1  0  0  0
 16 17  2  0  0  0
 16 21  1  0  0  0
 16 31  1  0  0  0
 17 18  1  0  0  0
 17 98  1  0  0  0
 18 19  2  0  0  0
 18 99  1  0  0  0
 19 20  1  0  0  0
 19 24  1  0  0  0
 20 21  2  0  0  0
 20100  1  0  0  0
 21 23  1  0  0  0
 22 28  1  0  0  0
 22 32  2  0  0  0
 26 27  1  0  0  0
 28101  1  0  0  0
 28102  1  0  0  0
 29103  1  0  0  0
 29104  1  0  0  0
 33 34  1  0  0  0
 33 66  1  0  0  0
 33 70  2  0  0  0
 34 36  1  0  0  0
 34 59  1  0  0  0
 34105  1  0  0  0
 35 44  2  0  0  0
 35 45  1  0  0  0
 35 68  1  0  0  0
 36 56  1  0  0  0
 36106  1  0  0  0
 37 39  1  0  0  0
 37 47  1  0  0  0
 37 66  1  0  0  0
 37107  1  0  0  0
 38 43  2  0  0  0
 38 46  1  0  0  0
 38 47  1  0  0  0
 39 64  1  0  0  0
 39 67  2  0  0  0
 40 52  1  0  0  0
 40 53  2  0  0  0
 40 58  1  0  0  0
 41108  1  0  0  0
 41109  1  0  0  0
 41110  1  0  0  0
 41 48  1  0  0  0
 42 43  1  0  0  0
 42 66  1  0  0  0
 42111  1  0  0  0
 42112  1  0  0  0
 43 44  1  0  0  0
 44113  1  0  0  0
 45 46  2  0  0  0
 45114  1  0  0  0
 46115  1  0  0  0
 47116  1  0  0  0
 47117  1  0  0  0
 48 56  1  0  0  0
 48 65  1  0  0  0
 48118  1  0  0  0
 49 50  1  0  0  0
 49 53  1  0  0  0
 49 64  1  0  0  0
 49119  1  0  0  0
 50 51  1  0  0  0
 50120  1  0  0  0
 50121  1  0  0  0
 51 52  1  0  0  0
 51122  1  0  0  0
 51123  1  0  0  0
 52124  1  0  0  0
 52125  1  0  0  0
 53 54  1  0  0  0
 54 55  2  0  0  0
 54126  1  0  0  0
 55 57  1  0  0  0
 55127  1  0  0  0
 56 69  2  0  0  0
 57 58  2  0  0  0
 57128  1  0  0  0
 58129  1  0  0  0
 59 60  1  0  0  0
 59 61  1  0  0  0
 59 62  1  0  0  0
 60130  1  0  0  0
 60131  1  0  0  0
 60132  1  0  0  0
 61133  1  0  0  0
 61134  1  0  0  0
 61135  1  0  0  0
 62136  1  0  0  0
 62137  1  0  0  0
 62138  1  0  0  0
 63 65  1  0  0  0
 63139  1  0  0  0
 63140  1  0  0  0
 63141  1  0  0  0
 64142  1  0  0  0
 65143  1  0  0  0
 68 80  1  0  0  0
 71 72  2  0  0  0
 71 74  1  0  0  0
 71144  1  0  0  0
 72 76  1  0  0  0
 72145  1  0  0  0
 73 74  2  0  0  0
 73 75  1  0  0  0
 73146  1  0  0  0
 74 78  1  0  0  0
 75 76  2  0  0  0
 75 79  1  0  0  0
 76 84  1  0  0  0
 77 80  1  0  0  0
 77 81  1  0  0  0
 77 83  2  0  0  0
 78 81  1  0  0  0
 78147  1  0  0  0
 78148  1  0  0  0
 79 82  1  0  0  0
 79149  1  0  0  0
 79150  1  0  0  0
 80151  1  0  0  0
 80152  1  0  0  0
 81153  1  0  0  0
 82154  1  0  0  0
M  ISO  4   1 100  68 101  80 101  82 100
M  END
> <chiral flag>
0

> <version>
0

> <s_m_source_file>
/data/baiqing/PycharmProjects/Reinvent-master-3.2/result/LINK_invent/BTK/process_docking_weight1_custom_product_contain_oxygen_bond_distance_aromatic_linkinvent_7_9_3/rearranged_h_0047.sdf

> <i_m_source_file_index>
95

> <r_mmod_Potential_Energy-OPLS-2005>
-16.4812335968018

> <r_mmod_Stretch_Energy-OPLS-2005>
61.6293907165527

> <r_mmod_Bend_Energy-OPLS-2005>
139.321243286133

> <r_mmod_Torsional_Energy-OPLS-2005>
264.912567138672

> <r_mmod_Improper_Torsional_Energy-OPLS-2005>
17.8800582885742

> <r_mmod_Van_der_Waal_Energy-OPLS-2005>
141.586059570312

> <r_mmod_Electrostatic_Energy-OPLS-2005>
-438.970367431641

> <r_mmod_Solvation_Energy-OPLS-2005>
-236.377471923828

> <b_mmod_Minimization_Converged-OPLS-2005>
0

> <r_mmod_RMS_Derivative-OPLS-2005>
3.51965689659119

$$$$
95
                    3D
 Structure written by MMmdl.
167176  0  0  1  0            999 V2000
  -30.6031  -14.7908   20.3952 C   0  0  0  0  0  0
  -30.4363  -12.4963   19.4314 C   0  0  0  0  0  0
  -29.4958  -12.4963   18.2132 C   0  0  0  0  0  0
  -28.0235  -12.3205   18.6465 C   0  0  0  0  0  0
  -27.6340  -13.2373   19.8342 C   0  0  2  0  0  0
  -28.6944  -13.2186   20.9555 C   0  0  0  0  0  0
  -25.2418  -13.8124   20.5564 C   0  0  0  0  0  0
  -24.1759  -13.0398   20.9145 C   0  0  0  0  0  0
  -24.6387  -11.6901   20.8770 C   0  0  0  0  0  0
  -23.9049  -10.4301   21.0412 C   0  0  0  0  0  0
  -24.3600   -9.4255   21.9243 C   0  0  0  0  0  0
  -23.6316   -8.2271   22.0758 C   0  0  0  0  0  0
  -22.4330   -8.0285   21.3497 C   0  0  0  0  0  0
  -21.9922   -9.0267   20.4639 C   0  0  0  0  0  0
  -22.7180  -10.2173   20.3075 C   0  0  0  0  0  0
  -21.6895   -6.0774   22.5272 C   0  0  0  0  0  0
  -21.4022   -6.5660   23.8199 C   0  0  0  0  0  0
  -21.3630   -5.6790   24.9156 C   0  0  0  0  0  0
  -21.6030   -4.3060   24.7207 C   0  0  0  0  0  0
  -21.8818   -3.8167   23.4327 C   0  0  0  0  0  0
  -21.9209   -4.7004   22.3385 C   0  0  0  0  0  0
  -22.7749  -13.5234   21.1802 C   0  0  0  0  0  0
  -22.1674   -4.2162   21.0975 F   0  0  0  0  0  0
  -21.5625   -3.4548   25.7724 F   0  0  0  0  0  0
  -29.9716  -13.5748   20.3227 N   0  0  0  0  0  0
  -26.2918  -12.9396   20.3300 N   0  0  0  0  0  0
  -25.9327  -11.6546   20.5834 N   0  0  0  0  0  0
  -22.0418  -12.8250   22.0369 N   0  0  0  0  0  0
  -25.4122  -15.1799   20.3756 N   0  0  0  0  0  0
  -31.8299  -14.8489   20.2558 O   0  0  0  0  0  0
  -21.6639   -6.8934   21.4239 O   0  0  0  0  0  0
  -22.3457  -14.5562   20.6714 O   0  0  0  0  0  0
  -24.6376  -31.8482   23.2000 C   0  0  0  0  0  0
  -25.9190  -32.4703   23.8336 C   0  0  1  0  0  0
  -27.2078  -27.2513   20.0846 C   0  0  0  0  0  0
  -25.5960  -33.8505   24.2223 N   0  0  0  0  0  0
  -23.4269  -30.4720   21.5432 C   0  0  2  0  0  0
  -24.8715  -28.9216   20.0998 C   0  0  0  0  0  0
  -22.7476  -29.4531   22.4870 C   0  0  0  0  0  0
  -18.0430  -28.1316   22.8310 C   0  0  0  0  0  0
  -24.1492  -36.7284   23.2646 C   0  0  0  0  0  0
  -25.9759  -30.7512   21.3856 C   0  0  0  0  0  0
  -26.0357  -29.3708   20.7267 C   0  0  0  0  0  0
  -27.2024  -28.5382   20.7283 C   0  0  0  0  0  0
  -26.0298  -26.8863   19.4094 C   0  0  0  0  0  0
  -24.8688  -27.6869   19.4345 C   0  0  0  0  0  0
  -23.6445  -29.8114   20.1530 C   0  0  0  0  0  0
  -25.4123  -36.3018   24.0332 C   0  0  1  0  0  0
  -20.5961  -28.3596   23.1332 C   0  0  2  0  0  0
  -20.6960  -26.9293   22.5454 C   0  0  0  0  0  0
  -19.5987  -26.6272   21.5133 C   0  0  0  0  0  0
  -18.2122  -26.7943   22.1404 C   0  0  0  0  0  0
  -19.1642  -28.8814   23.2779 C   0  0  0  0  0  0
  -18.9493  -30.1318   23.8848 C   0  0  0  0  0  0
  -17.6476  -30.6400   24.0395 C   0  0  0  0  0  0
  -25.9045  -34.9380   23.5058 C   0  0  0  0  0  0
  -16.5371  -29.8912   23.6084 C   0  0  0  0  0  0
  -16.7396  -28.6298   23.0138 C   0  0  0  0  0  0
  -26.4504  -31.6553   25.0759 C   0  0  0  0  0  0
  -25.3754  -31.3735   26.1522 C   0  0  0  0  0  0
  -27.0347  -30.2980   24.6261 C   0  0  0  0  0  0
  -27.6006  -32.4332   25.7551 C   0  0  0  0  0  0
  -27.5559  -37.1810   24.8460 C   0  0  0  0  0  0
  -21.4218  -29.2883   22.3583 N   0  0  0  0  0  0
  -26.4264  -37.3759   23.9413 N   0  0  0  0  0  0
  -24.6963  -31.0452   22.0977 N   0  0  0  0  0  0
  -23.4174  -28.8227   23.3118 O   0  0  0  0  0  0
  -28.2981  -26.3521   20.1837 O   0  0  0  0  0  0
  -26.5603  -34.8876   22.4625 O   0  0  0  0  0  0
  -23.5522  -32.1358   23.7237 O   0  0  0  0  0  0
  -28.2011  -17.0305   22.9562 C   0  0  0  0  0  0
  -27.3963  -18.1140   20.9610 C   0  0  0  0  0  0
  -27.1290  -17.5019   22.1940 C   0  0  0  0  0  0
  -29.4668  -16.8620   22.3637 C   0  0  0  0  0  0
  -28.7243  -18.2461   20.4948 C   0  0  0  0  0  0
  -29.6330  -17.1832   20.9818 C   0  0  0  0  0  0
  -28.7990  -22.2375   19.8530 C   0  0  0  0  0  0
  -26.0463  -21.8872   18.9025 C   0  0  0  0  0  0
  -26.7671  -23.2201   18.7255 C   0  0  0  0  0  0
  -26.8659  -20.7640   19.5624 C   0  0  0  0  0  0
  -27.8371  -23.5400   19.7959 C   0  0  2  0  0  0
  -25.7149  -17.4166   22.7195 C   0  0  0  0  0  0
  -30.5544  -16.2897   23.2640 C   0  0  0  0  0  0
  -29.1156  -19.5878   19.6807 C   0  0  0  0  0  0
  -28.4499  -25.0334   19.4524 C   0  0  0  0  0  0
  -28.3097  -20.9264   19.7461 N   0  0  0  0  0  0
  -29.8498  -15.9444   20.1820 N   0  0  0  0  0  0
  -30.0094  -22.4217   19.9663 O   0  0  0  0  0  0
  -31.4629  -12.6613   19.0803 H   0  0  0  0  0  0
  -30.4418  -11.5364   19.9471 H   0  0  0  0  0  0
  -29.7763  -11.6976   17.5237 H   0  0  0  0  0  0
  -29.5935  -13.4372   17.6625 H   0  0  0  0  0  0
  -27.8955  -11.2818   18.9349 H   0  0  0  0  0  0
  -27.3491  -12.5013   17.8016 H   0  0  0  0  0  0
  -27.6143  -14.2536   19.4360 H   0  0  0  0  0  0
  -28.7449  -12.2369   21.4356 H   0  0  0  0  0  0
  -28.4298  -13.9381   21.7401 H   0  0  0  0  0  0
  -25.2754   -9.5769   22.4806 H   0  0  0  0  0  0
  -24.0019   -7.4691   22.7457 H   0  0  0  0  0  0
  -21.0881   -8.8837   19.8937 H   0  0  0  0  0  0
  -22.3692  -10.9756   19.6208 H   0  0  0  0  0  0
  -21.1995   -7.6165   23.9712 H   0  0  0  0  0  0
  -21.1440   -6.0527   25.9061 H   0  0  0  0  0  0
  -22.0627   -2.7629   23.2823 H   0  0  0  0  0  0
  -22.4041  -11.9931   22.4791 H   0  0  0  0  0  0
  -21.1055  -13.1290   22.2548 H   0  0  0  0  0  0
  -24.6728  -15.8557   20.5255 H   0  0  0  0  0  0
  -26.3081  -15.6152   20.2044 H   0  0  0  0  0  0
  -26.7236  -32.5297   23.1041 H   0  0  0  0  0  0
  -25.0113  -33.9659   25.0351 H   0  0  0  0  0  0
  -22.7213  -31.2922   21.3925 H   0  0  0  0  0  0
  -23.3695  -35.9648   23.3278 H   0  0  0  0  0  0
  -24.3570  -36.8976   22.2053 H   0  0  0  0  0  0
  -23.7275  -37.6512   23.6678 H   0  0  0  0  0  0
  -26.1271  -31.5038   20.6057 H   0  0  0  0  0  0
  -26.8580  -30.7996   22.0189 H   0  0  0  0  0  0
  -28.0934  -28.8660   21.2484 H   0  0  0  0  0  0
  -25.9859  -25.9691   18.8502 H   0  0  0  0  0  0
  -23.9867  -27.3524   18.9080 H   0  0  0  0  0  0
  -23.7705  -30.5914   19.3956 H   0  0  0  0  0  0
  -22.7598  -29.2462   19.8447 H   0  0  0  0  0  0
  -25.1270  -36.1852   25.0822 H   0  0  0  0  0  0
  -20.9895  -28.3344   24.1539 H   0  0  0  0  0  0
  -20.5864  -26.2078   23.3513 H   0  0  0  0  0  0
  -21.6913  -26.7361   22.1530 H   0  0  0  0  0  0
  -19.7014  -25.6173   21.1132 H   0  0  0  0  0  0
  -19.7087  -27.3062   20.6668 H   0  0  0  0  0  0
  -17.4400  -26.6702   21.3875 H   0  0  0  0  0  0
  -18.0374  -26.0076   22.8763 H   0  0  0  0  0  0
  -19.7923  -30.7134   24.2300 H   0  0  0  0  0  0
  -17.4977  -31.6019   24.5086 H   0  0  0  0  0  0
  -15.5312  -30.2672   23.7493 H   0  0  0  0  0  0
  -15.8987  -28.0331   22.6926 H   0  0  0  0  0  0
  -24.5926  -30.7060   25.7950 H   0  0  0  0  0  0
  -24.8954  -32.2906   26.4941 H   0  0  0  0  0  0
  -25.8186  -30.8991   27.0294 H   0  0  0  0  0  0
  -26.2962  -29.6770   24.1247 H   0  0  0  0  0  0
  -27.3960  -29.7232   25.4783 H   0  0  0  0  0  0
  -27.8814  -30.4254   23.9540 H   0  0  0  0  0  0
  -27.2537  -33.3621   26.2086 H   0  0  0  0  0  0
  -28.3839  -32.6983   25.0429 H   0  0  0  0  0  0
  -28.0608  -31.8519   26.5556 H   0  0  0  0  0  0
  -28.2554  -38.0131   24.7461 H   0  0  0  0  0  0
  -28.1082  -36.2654   24.6270 H   0  0  0  0  0  0
  -27.2281  -37.1429   25.8874 H   0  0  0  0  0  0
  -20.9470  -29.8205   21.6411 H   0  0  0  0  0  0
  -26.0111  -38.2822   24.1438 H   0  0  0  0  0  0
  -28.0353  -16.7182   23.9792 H   0  0  0  0  0  0
  -26.5489  -18.5471   20.4683 H   0  0  0  0  0  0
  -25.6624  -21.5688   17.9260 H   0  0  0  0  0  0
  -25.1581  -22.0405   19.5180 H   0  0  0  0  0  0
  -25.9970  -23.9766   18.7044 H   0  0  0  0  0  0
  -27.2263  -23.2331   17.7346 H   0  0  0  0  0  0
  -26.6865  -19.8811   18.9616 H   0  0  0  0  0  0
  -26.4389  -20.6112   20.5529 H   0  0  0  0  0  0
  -27.3563  -23.6076   20.7742 H   0  0  0  0  0  0
  -25.5656  -18.1033   23.5579 H   0  0  0  0  0  0
  -25.5266  -16.4118   23.0860 H   0  0  0  0  0  0
  -24.9774  -17.6301   21.9461 H   0  0  0  0  0  0
  -31.2610  -15.6229   22.7838 H   0  0  0  0  0  0
  -31.1280  -17.1144   23.6829 H   0  0  0  0  0  0
  -30.1075  -15.7234   24.0927 H   0  0  0  0  0  0
  -29.1383  -19.3097   18.6295 H   0  0  0  0  0  0
  -30.1488  -19.8185   19.9258 H   0  0  0  0  0  0
  -28.2623  -25.2648   18.4023 H   0  0  0  0  0  0
  -29.5321  -24.9026   19.4721 H   0  0  0  0  0  0
  -29.2170  -15.8316   19.3945 H   0  0  0  0  0  0
  1 25  1  0  0  0
  1 30  2  0  0  0
  1 87  1  0  0  0
  2  3  1  0  0  0
  2 25  1  0  0  0
  2 89  1  0  0  0
  2 90  1  0  0  0
  3  4  1  0  0  0
  3 91  1  0  0  0
  3 92  1  0  0  0
  4  5  1  0  0  0
  4 93  1  0  0  0
  4 94  1  0  0  0
  5  6  1  0  0  0
  5 26  1  0  0  0
  5 95  1  0  0  0
  6 25  1  0  0  0
  6 96  1  0  0  0
  6 97  1  0  0  0
  7  8  2  0  0  0
  7 26  1  0  0  0
  7 29  1  0  0  0
  8  9  1  0  0  0
  8 22  1  0  0  0
  9 10  1  0  0  0
  9 27  2  0  0  0
 10 11  2  0  0  0
 10 15  1  0  0  0
 11 12  1  0  0  0
 11 98  1  0  0  0
 12 13  2  0  0  0
 12 99  1  0  0  0
 13 14  1  0  0  0
 13 31  1  0  0  0
 14 15  2  0  0  0
 14100  1  0  0  0
 15101  1  0  0  0
 16 17  2  0  0  0
 16 21  1  0  0  0
 16 31  1  0  0  0
 17 18  1  0  0  0
 17102  1  0  0  0
 18 19  2  0  0  0
 18103  1  0  0  0
 19 20  1  0  0  0
 19 24  1  0  0  0
 20 21  2  0  0  0
 20104  1  0  0  0
 21 23  1  0  0  0
 22 28  1  0  0  0
 22 32  2  0  0  0
 26 27  1  0  0  0
 28105  1  0  0  0
 28106  1  0  0  0
 29107  1  0  0  0
 29108  1  0  0  0
 33 34  1  0  0  0
 33 66  1  0  0  0
 33 70  2  0  0  0
 34 36  1  0  0  0
 34 59  1  0  0  0
 34109  1  0  0  0
 35 44  2  0  0  0
 35 45  1  0  0  0
 35 68  1  0  0  0
 36 56  1  0  0  0
 36110  1  0  0  0
 37 39  1  0  0  0
 37 47  1  0  0  0
 37 66  1  0  0  0
 37111  1  0  0  0
 38 43  2  0  0  0
 38 46  1  0  0  0
 38 47  1  0  0  0
 39 64  1  0  0  0
 39 67  2  0  0  0
 40 52  1  0  0  0
 40 53  2  0  0  0
 40 58  1  0  0  0
 41112  1  0  0  0
 41113  1  0  0  0
 41114  1  0  0  0
 41 48  1  0  0  0
 42 43  1  0  0  0
 42 66  1  0  0  0
 42115  1  0  0  0
 42116  1  0  0  0
 43 44  1  0  0  0
 44117  1  0  0  0
 45 46  2  0  0  0
 45118  1  0  0  0
 46119  1  0  0  0
 47120  1  0  0  0
 47121  1  0  0  0
 48 56  1  0  0  0
 48 65  1  0  0  0
 48122  1  0  0  0
 49 50  1  0  0  0
 49 53  1  0  0  0
 49 64  1  0  0  0
 49123  1  0  0  0
 50 51  1  0  0  0
 50124  1  0  0  0
 50125  1  0  0  0
 51 52  1  0  0  0
 51126  1  0  0  0
 51127  1  0  0  0
 52128  1  0  0  0
 52129  1  0  0  0
 53 54  1  0  0  0
 54 55  2  0  0  0
 54130  1  0  0  0
 55 57  1  0  0  0
 55131  1  0  0  0
 56 69  2  0  0  0
 57 58  2  0  0  0
 57132  1  0  0  0
 58133  1  0  0  0
 59 60  1  0  0  0
 59 61  1  0  0  0
 59 62  1  0  0  0
 60134  1  0  0  0
 60135  1  0  0  0
 60136  1  0  0  0
 61137  1  0  0  0
 61138  1  0  0  0
 61139  1  0  0  0
 62140  1  0  0  0
 62141  1  0  0  0
 62142  1  0  0  0
 63 65  1  0  0  0
 63143  1  0  0  0
 63144  1  0  0  0
 63145  1  0  0  0
 64146  1  0  0  0
 65147  1  0  0  0
 68 85  1  0  0  0
 71 73  2  0  0  0
 71 74  1  0  0  0
 71148  1  0  0  0
 72 73  1  0  0  0
 72 75  2  0  0  0
 72149  1  0  0  0
 73 82  1  0  0  0
 74 76  2  0  0  0
 74 83  1  0  0  0
 75 76  1  0  0  0
 75 84  1  0  0  0
 76 87  1  0  0  0
 77 81  1  0  0  0
 77 86  1  0  0  0
 77 88  2  0  0  0
 78 79  1  0  0  0
 78 80  1  0  0  0
 78150  1  0  0  0
 78151  1  0  0  0
 79 81  1  0  0  0
 79152  1  0  0  0
 79153  1  0  0  0
 80 86  1  0  0  0
 80154  1  0  0  0
 80155  1  0  0  0
 81 85  1  0  0  0
 81156  1  0  0  0
 82157  1  0  0  0
 82158  1  0  0  0
 82159  1  0  0  0
 83160  1  0  0  0
 83161  1  0  0  0
 83162  1  0  0  0
 84 86  1  0  0  0
 84163  1  0  0  0
 84164  1  0  0  0
 85165  1  0  0  0
 85166  1  0  0  0
 87167  1  0  0  0
M  ISO  4   1 100  68 101  85 101  87 100
M  END
> <chiral flag>
0

> <version>
0

> <s_m_source_file>
/data/baiqing/PycharmProjects/Reinvent-master-3.2/result/LINK_invent/BTK/process_docking_weight1_custom_product_contain_oxygen_bond_distance_aromatic_linkinvent_7_9_3/rearranged_h_0047.sdf

> <i_m_source_file_index>
96

> <r_mmod_Potential_Energy-OPLS-2005>
575.093078613281

> <r_mmod_Stretch_Energy-OPLS-2005>
165.442153930664

> <r_mmod_Bend_Energy-OPLS-2005>
242.428649902344

> <r_mmod_Torsional_Energy-OPLS-2005>
488.601989746094

> <r_mmod_Improper_Torsional_Energy-OPLS-2005>
30.1268463134766

> <r_mmod_Van_der_Waal_Energy-OPLS-2005>
155.850509643555

> <r_mmod_Electrostatic_Energy-OPLS-2005>
-395.948608398438

> <r_mmod_Solvation_Energy-OPLS-2005>
-224.563003540039

> <b_mmod_Minimization_Converged-OPLS-2005>
0

> <r_mmod_RMS_Derivative-OPLS-2005>
12.5219964981079

$$$$
