0
                    3D
 Structure written by MMmdl.
166175  0  0  1  0            999 V2000
  -30.7042  -14.5258   20.4131 C   0  0  0  0  0  0
  -30.4300  -12.2930   19.4316 C   0  0  0  0  0  0
  -29.4857  -12.3475   18.2107 C   0  0  0  0  0  0
  -28.0052  -12.2908   18.6338 C   0  0  0  0  0  0
  -27.6502  -13.2058   19.8372 C   0  0  2  0  0  0
  -28.7058  -13.0983   20.9589 C   0  0  0  0  0  0
  -25.2582  -13.8192   20.5695 C   0  0  0  0  0  0
  -24.1840  -13.0471   20.9209 C   0  0  0  0  0  0
  -24.6387  -11.6931   20.8765 C   0  0  0  0  0  0
  -23.9061  -10.4307   21.0416 C   0  0  0  0  0  0
  -24.3617   -9.4217   21.9188 C   0  0  0  0  0  0
  -23.6295   -8.2253   22.0753 C   0  0  0  0  0  0
  -22.4278   -8.0290   21.3548 C   0  0  0  0  0  0
  -21.9912   -9.0263   20.4652 C   0  0  0  0  0  0
  -22.7234  -10.2146   20.3063 C   0  0  0  0  0  0
  -21.6857   -6.0738   22.5282 C   0  0  0  0  0  0
  -21.4008   -6.5638   23.8215 C   0  0  0  0  0  0
  -21.3652   -5.6789   24.9176 C   0  0  0  0  0  0
  -21.6048   -4.3055   24.7225 C   0  0  0  0  0  0
  -21.8817   -3.8146   23.4347 C   0  0  0  0  0  0
  -21.9195   -4.6964   22.3401 C   0  0  0  0  0  0
  -22.7853  -13.5261   21.1842 C   0  0  0  0  0  0
  -22.1670   -4.2151   21.0980 F   0  0  0  0  0  0
  -21.5628   -3.4532   25.7734 F   0  0  0  0  0  0
  -30.0220  -13.3517   20.3633 N   0  0  0  0  0  0
  -26.2996  -12.9354   20.3290 N   0  0  0  0  0  0
  -25.9312  -11.6526   20.5816 N   0  0  0  0  0  0
  -22.0472  -12.8271   22.0401 N   0  0  0  0  0  0
  -25.4320  -15.1909   20.4105 N   0  0  0  0  0  0
  -31.9281  -14.5851   20.2829 O   0  0  0  0  0  0
  -21.6641   -6.8885   21.4249 O   0  0  0  0  0  0
  -22.3534  -14.5550   20.6656 O   0  0  0  0  0  0
  -24.6132  -31.8708   23.2119 C   0  0  0  0  0  0
  -25.9027  -32.4847   23.8419 C   0  0  1  0  0  0
  -27.2240  -27.4476   20.1050 C   0  0  0  0  0  0
  -25.5891  -33.8652   24.2350 N   0  0  0  0  0  0
  -23.4017  -30.4928   21.5519 C   0  0  2  0  0  0
  -24.8474  -28.9647   20.1105 C   0  0  0  0  0  0
  -22.7410  -29.4666   22.5000 C   0  0  0  0  0  0
  -18.0278  -28.1390   22.8490 C   0  0  0  0  0  0
  -24.1487  -36.7328   23.2630 C   0  0  0  0  0  0
  -25.9270  -30.8389   21.3651 C   0  0  0  0  0  0
  -26.0030  -29.4735   20.7173 C   0  0  0  0  0  0
  -27.1948  -28.7177   20.7230 C   0  0  0  0  0  0
  -26.0681  -26.9649   19.4622 C   0  0  0  0  0  0
  -24.8737  -27.7084   19.4791 C   0  0  0  0  0  0
  -23.6079  -29.8271   20.1644 C   0  0  0  0  0  0
  -25.4105  -36.3130   24.0339 C   0  0  1  0  0  0
  -20.5867  -28.3667   23.1324 C   0  0  2  0  0  0
  -20.6785  -26.9413   22.5403 C   0  0  0  0  0  0
  -19.5747  -26.6387   21.5221 C   0  0  0  0  0  0
  -18.1924  -26.7939   22.1629 C   0  0  0  0  0  0
  -19.1528  -28.8847   23.2902 C   0  0  0  0  0  0
  -18.9456  -30.1456   23.8904 C   0  0  0  0  0  0
  -17.6457  -30.6589   24.0576 C   0  0  0  0  0  0
  -25.9022  -34.9493   23.5130 C   0  0  0  0  0  0
  -16.5348  -29.9086   23.6338 C   0  0  0  0  0  0
  -16.7267  -28.6513   23.0343 C   0  0  0  0  0  0
  -26.4456  -31.6625   25.0744 C   0  0  0  0  0  0
  -25.3719  -31.3759   26.1495 C   0  0  0  0  0  0
  -27.0278  -30.3063   24.6119 C   0  0  0  0  0  0
  -27.6028  -32.4342   25.7519 C   0  0  0  0  0  0
  -27.5586  -37.1822   24.8460 C   0  0  0  0  0  0
  -21.4139  -29.3038   22.3737 N   0  0  0  0  0  0
  -26.4299  -37.3807   23.9407 N   0  0  0  0  0  0
  -24.6656  -31.0814   22.1016 N   0  0  0  0  0  0
  -23.4185  -28.8211   23.3045 O   0  0  0  0  0  0
  -28.3480  -26.6595   20.1200 O   0  0  0  0  0  0
  -26.5575  -34.8936   22.4687 O   0  0  0  0  0  0
  -23.5321  -32.1466   23.7503 O   0  0  0  0  0  0
  -30.3510  -20.6577   20.5641 C   0  0  0  0  0  0
  -29.0452  -19.4429   22.2039 C   0  0  0  0  0  0
  -30.2089  -21.8413   21.3101 C   0  0  0  0  0  0
  -28.8747  -20.6393   22.9365 C   0  0  0  0  0  0
  -29.8009  -19.4302   21.0091 C   0  0  0  0  0  0
  -29.4547  -21.8517   22.5011 C   0  0  0  0  0  0
  -29.0103  -24.1501   22.9318 C   0  0  0  0  0  0
  -31.2794  -16.9842   18.3521 C   0  0  0  0  0  0
  -31.3339  -18.0401   19.4600 C   0  0  0  0  0  0
  -30.1438  -15.9646   18.5701 C   0  0  0  0  0  0
  -29.6752  -16.7714   20.8563 C   0  0  0  0  0  0
  -29.9612  -18.1544   20.1593 C   0  0  1  0  0  0
  -27.0234  -24.1857   21.3993 C   0  0  0  0  0  0
  -28.6911  -26.1584   21.4206 C   0  0  0  0  0  0
  -28.4900  -24.6218   21.5674 C   0  0  1  0  0  0
  -29.3652  -22.9820   23.3235 N   0  0  0  0  0  0
  -29.9761  -15.5945   19.9910 N   0  0  0  0  0  0
  -31.4667  -12.4054   19.1064 H   0  0  0  0  0  0
  -30.3759  -11.3211   19.9244 H   0  0  0  0  0  0
  -29.7023  -11.5033   17.5547 H   0  0  0  0  0  0
  -29.6608  -13.2239   17.5980 H   0  0  0  0  0  0
  -27.7994  -11.2524   18.8937 H   0  0  0  0  0  0
  -27.3609  -12.5164   17.7838 H   0  0  0  0  0  0
  -27.6622  -14.2274   19.4579 H   0  0  0  0  0  0
  -28.6848  -12.1106   21.4180 H   0  0  0  0  0  0
  -28.4987  -13.8197   21.7515 H   0  0  0  0  0  0
  -25.2767   -9.5698   22.4756 H   0  0  0  0  0  0
  -24.0012   -7.4642   22.7463 H   0  0  0  0  0  0
  -21.0849   -8.8781   19.8949 H   0  0  0  0  0  0
  -22.3698  -10.9686   19.6169 H   0  0  0  0  0  0
  -21.1998   -7.6144   23.9724 H   0  0  0  0  0  0
  -21.1474   -6.0514   25.9083 H   0  0  0  0  0  0
  -22.0601   -2.7612   23.2845 H   0  0  0  0  0  0
  -22.4078  -11.9961   22.4857 H   0  0  0  0  0  0
  -21.1066  -13.1280   22.2519 H   0  0  0  0  0  0
  -24.6691  -15.8488   20.5264 H   0  0  0  0  0  0
  -26.2930  -15.6317   20.1124 H   0  0  0  0  0  0
  -26.7110  -32.5568   23.1200 H   0  0  0  0  0  0
  -25.0095  -33.9844   25.0531 H   0  0  0  0  0  0
  -22.6891  -31.3080   21.4136 H   0  0  0  0  0  0
  -23.3748  -35.9660   23.3308 H   0  0  0  0  0  0
  -24.3578  -36.8923   22.2039 H   0  0  0  0  0  0
  -23.7251  -37.6545   23.6629 H   0  0  0  0  0  0
  -26.0302  -31.6006   20.5908 H   0  0  0  0  0  0
  -26.8185  -30.8999   21.9776 H   0  0  0  0  0  0
  -28.0830  -29.0996   21.2066 H   0  0  0  0  0  0
  -26.0849  -26.0080   18.9608 H   0  0  0  0  0  0
  -23.9889  -27.3165   18.9961 H   0  0  0  0  0  0
  -23.7093  -30.6022   19.4034 H   0  0  0  0  0  0
  -22.7346  -29.2399   19.8747 H   0  0  0  0  0  0
  -25.1287  -36.1999   25.0836 H   0  0  0  0  0  0
  -20.9957  -28.3224   24.1447 H   0  0  0  0  0  0
  -20.5747  -26.2266   23.3581 H   0  0  0  0  0  0
  -21.6651  -26.7495   22.1165 H   0  0  0  0  0  0
  -19.6903  -25.6294   21.1259 H   0  0  0  0  0  0
  -19.6693  -27.3192   20.6750 H   0  0  0  0  0  0
  -17.4204  -26.6692   21.4021 H   0  0  0  0  0  0
  -18.0300  -26.0090   22.9029 H   0  0  0  0  0  0
  -19.7928  -30.7284   24.2266 H   0  0  0  0  0  0
  -17.5006  -31.6268   24.5178 H   0  0  0  0  0  0
  -15.5343  -30.2983   23.7669 H   0  0  0  0  0  0
  -15.8671  -28.0841   22.7038 H   0  0  0  0  0  0
  -24.5865  -30.7133   25.7850 H   0  0  0  0  0  0
  -24.8941  -32.2933   26.4946 H   0  0  0  0  0  0
  -25.8059  -30.8933   27.0260 H   0  0  0  0  0  0
  -26.2842  -29.6863   24.1098 H   0  0  0  0  0  0
  -27.3967  -29.7267   25.4594 H   0  0  0  0  0  0
  -27.8709  -30.4394   23.9334 H   0  0  0  0  0  0
  -27.2639  -33.3620   26.2149 H   0  0  0  0  0  0
  -28.3820  -32.6946   25.0342 H   0  0  0  0  0  0
  -28.0720  -31.8441   26.5404 H   0  0  0  0  0  0
  -28.2610  -38.0112   24.7504 H   0  0  0  0  0  0
  -28.1082  -36.2647   24.6293 H   0  0  0  0  0  0
  -27.2303  -37.1484   25.8862 H   0  0  0  0  0  0
  -20.9289  -29.8745   21.6951 H   0  0  0  0  0  0
  -26.0193  -38.2889   24.1399 H   0  0  0  0  0  0
  -30.9030  -20.7350   19.6405 H   0  0  0  0  0  0
  -28.5847  -18.5397   22.5763 H   0  0  0  0  0  0
  -30.7033  -22.7357   20.9566 H   0  0  0  0  0  0
  -28.3031  -20.6136   23.8539 H   0  0  0  0  0  0
  -29.0275  -24.9622   23.6628 H   0  0  0  0  0  0
  -32.2438  -16.4789   18.2907 H   0  0  0  0  0  0
  -31.1338  -17.4697   17.3860 H   0  0  0  0  0  0
  -31.6746  -18.9599   18.9937 H   0  0  0  0  0  0
  -32.0938  -17.7816   20.1981 H   0  0  0  0  0  0
  -30.3686  -15.1101   17.9398 H   0  0  0  0  0  0
  -29.1955  -16.3544   18.1973 H   0  0  0  0  0  0
  -28.6291  -16.7098   21.1574 H   0  0  0  0  0  0
  -30.2665  -16.7044   21.7714 H   0  0  0  0  0  0
  -29.2086  -18.2991   19.3827 H   0  0  0  0  0  0
  -26.3735  -24.6793   22.1219 H   0  0  0  0  0  0
  -26.9143  -23.1095   21.5347 H   0  0  0  0  0  0
  -26.6550  -24.4089   20.4017 H   0  0  0  0  0  0
  -29.7415  -26.4005   21.5819 H   0  0  0  0  0  0
  -28.1449  -26.6755   22.2134 H   0  0  0  0  0  0
  -29.0678  -24.1511   20.7774 H   0  0  0  0  0  0
  1 25  1  0  0  0
  1 30  2  0  0  0
  1 87  1  0  0  0
  2  3  1  0  0  0
  2 25  1  0  0  0
  2 88  1  0  0  0
  2 89  1  0  0  0
  3  4  1  0  0  0
  3 90  1  0  0  0
  3 91  1  0  0  0
  4  5  1  0  0  0
  4 92  1  0  0  0
  4 93  1  0  0  0
  5  6  1  0  0  0
  5 26  1  0  0  0
  5 94  1  0  0  0
  6 25  1  0  0  0
  6 95  1  0  0  0
  6 96  1  0  0  0
  7  8  2  0  0  0
  7 26  1  0  0  0
  7 29  1  0  0  0
  8  9  1  0  0  0
  8 22  1  0  0  0
  9 10  1  0  0  0
  9 27  2  0  0  0
 10 11  2  0  0  0
 10 15  1  0  0  0
 11 12  1  0  0  0
 11 97  1  0  0  0
 12 13  2  0  0  0
 12 98  1  0  0  0
 13 14  1  0  0  0
 13 31  1  0  0  0
 14 15  2  0  0  0
 14 99  1  0  0  0
 15100  1  0  0  0
 16 17  2  0  0  0
 16 21  1  0  0  0
 16 31  1  0  0  0
 17 18  1  0  0  0
 17101  1  0  0  0
 18 19  2  0  0  0
 18102  1  0  0  0
 19 20  1  0  0  0
 19 24  1  0  0  0
 20 21  2  0  0  0
 20103  1  0  0  0
 21 23  1  0  0  0
 22 28  1  0  0  0
 22 32  2  0  0  0
 26 27  1  0  0  0
 28104  1  0  0  0
 28105  1  0  0  0
 29106  1  0  0  0
 29107  1  0  0  0
 33 34  1  0  0  0
 33 66  1  0  0  0
 33 70  2  0  0  0
 34 36  1  0  0  0
 34 59  1  0  0  0
 34108  1  0  0  0
 35 44  2  0  0  0
 35 45  1  0  0  0
 35 68  1  0  0  0
 36 56  1  0  0  0
 36109  1  0  0  0
 37 39  1  0  0  0
 37 47  1  0  0  0
 37 66  1  0  0  0
 37110  1  0  0  0
 38 43  2  0  0  0
 38 46  1  0  0  0
 38 47  1  0  0  0
 39 64  1  0  0  0
 39 67  2  0  0  0
 40 52  1  0  0  0
 40 53  2  0  0  0
 40 58  1  0  0  0
 41111  1  0  0  0
 41112  1  0  0  0
 41113  1  0  0  0
 41 48  1  0  0  0
 42 43  1  0  0  0
 42 66  1  0  0  0
 42114  1  0  0  0
 42115  1  0  0  0
 43 44  1  0  0  0
 44116  1  0  0  0
 45 46  2  0  0  0
 45117  1  0  0  0
 46118  1  0  0  0
 47119  1  0  0  0
 47120  1  0  0  0
 48 56  1  0  0  0
 48 65  1  0  0  0
 48121  1  0  0  0
 49 50  1  0  0  0
 49 53  1  0  0  0
 49 64  1  0  0  0
 49122  1  0  0  0
 50 51  1  0  0  0
 50123  1  0  0  0
 50124  1  0  0  0
 51 52  1  0  0  0
 51125  1  0  0  0
 51126  1  0  0  0
 52127  1  0  0  0
 52128  1  0  0  0
 53 54  1  0  0  0
 54 55  2  0  0  0
 54129  1  0  0  0
 55 57  1  0  0  0
 55130  1  0  0  0
 56 69  2  0  0  0
 57 58  2  0  0  0
 57131  1  0  0  0
 58132  1  0  0  0
 59 60  1  0  0  0
 59 61  1  0  0  0
 59 62  1  0  0  0
 60133  1  0  0  0
 60134  1  0  0  0
 60135  1  0  0  0
 61136  1  0  0  0
 61137  1  0  0  0
 61138  1  0  0  0
 62139  1  0  0  0
 62140  1  0  0  0
 62141  1  0  0  0
 63 65  1  0  0  0
 63142  1  0  0  0
 63143  1  0  0  0
 63144  1  0  0  0
 64145  1  0  0  0
 65146  1  0  0  0
 68 84  1  0  0  0
 71 73  2  0  0  0
 71 75  1  0  0  0
 71147  1  0  0  0
 72 74  1  0  0  0
 72 75  2  0  0  0
 72148  1  0  0  0
 73 76  1  0  0  0
 73149  1  0  0  0
 74 76  2  0  0  0
 74150  1  0  0  0
 75 82  1  0  0  0
 76 86  1  0  0  0
 77 85  1  0  0  0
 77 86  2  0  0  0
 77151  1  0  0  0
 78 79  1  0  0  0
 78 80  1  0  0  0
 78152  1  0  0  0
 78153  1  0  0  0
 79 82  1  0  0  0
 79154  1  0  0  0
 79155  1  0  0  0
 80 87  1  0  0  0
 80156  1  0  0  0
 80157  1  0  0  0
 81 82  1  0  0  0
 81 87  1  0  0  0
 81158  1  0  0  0
 81159  1  0  0  0
 82160  1  0  0  0
 83161  1  0  0  0
 83162  1  0  0  0
 83163  1  0  0  0
 83 85  1  0  0  0
 84 85  1  0  0  0
 84164  1  0  0  0
 84165  1  0  0  0
 85166  1  0  0  0
M  ISO  4   1 100  68 101  84 101  87 100
M  END
> <chiral flag>
0

> <version>
0

> <s_m_source_file>
/data/baiqing/PycharmProjects/Reinvent-master-3.2/result/LINK_invent/BTK/process_docking_weight1_custom_product_contain_oxygen_bond_distance_aromatic_linkinvent_7_9_3/rearranged_h_0157.sdf

> <i_m_source_file_index>
1

> <r_mmod_Potential_Energy-OPLS-2005>
266.815124511719

> <r_mmod_Stretch_Energy-OPLS-2005>
43.0839004516602

> <r_mmod_Bend_Energy-OPLS-2005>
120.292976379395

> <r_mmod_Torsional_Energy-OPLS-2005>
385.541320800781

> <r_mmod_Improper_Torsional_Energy-OPLS-2005>
24.0362873077393

> <r_mmod_Van_der_Waal_Energy-OPLS-2005>
168.649932861328

> <r_mmod_Electrostatic_Energy-OPLS-2005>
-315.178894042969

> <r_mmod_Solvation_Energy-OPLS-2005>
-196.516647338867

> <b_mmod_Minimization_Converged-OPLS-2005>
0

> <r_mmod_RMS_Derivative-OPLS-2005>
1.9078574180603

$$$$
1
                    3D
 Structure written by MMmdl.
162171  0  0  1  0            999 V2000
  -30.6094  -14.7801   20.4271 C   0  0  0  0  0  0
  -30.4244  -12.4767   19.4729 C   0  0  0  0  0  0
  -29.5103  -12.5185   18.2277 C   0  0  0  0  0  0
  -28.0297  -12.3556   18.6314 C   0  0  0  0  0  0
  -27.6359  -13.2434   19.8413 C   0  0  2  0  0  0
  -28.6819  -13.1962   20.9775 C   0  0  0  0  0  0
  -25.2496  -13.8203   20.5670 C   0  0  0  0  0  0
  -24.1817  -13.0447   20.9198 C   0  0  0  0  0  0
  -24.6420  -11.6926   20.8719 C   0  0  0  0  0  0
  -23.9081  -10.4275   21.0379 C   0  0  0  0  0  0
  -24.3621   -9.4198   21.9170 C   0  0  0  0  0  0
  -23.6294   -8.2241   22.0749 C   0  0  0  0  0  0
  -22.4288   -8.0243   21.3523 C   0  0  0  0  0  0
  -21.9897   -9.0228   20.4652 C   0  0  0  0  0  0
  -22.7233  -10.2114   20.3051 C   0  0  0  0  0  0
  -21.6869   -6.0696   22.5256 C   0  0  0  0  0  0
  -21.4042   -6.5611   23.8183 C   0  0  0  0  0  0
  -21.3657   -5.6776   24.9135 C   0  0  0  0  0  0
  -21.6046   -4.3029   24.7219 C   0  0  0  0  0  0
  -21.8830   -3.8118   23.4334 C   0  0  0  0  0  0
  -21.9206   -4.6924   22.3386 C   0  0  0  0  0  0
  -22.7825  -13.5202   21.1810 C   0  0  0  0  0  0
  -22.1680   -4.2100   21.0973 F   0  0  0  0  0  0
  -21.5606   -3.4531   25.7734 F   0  0  0  0  0  0
  -29.9757  -13.5554   20.3857 N   0  0  0  0  0  0
  -26.2911  -12.9441   20.3222 N   0  0  0  0  0  0
  -25.9354  -11.6565   20.5745 N   0  0  0  0  0  0
  -22.0517  -12.8213   22.0399 N   0  0  0  0  0  0
  -25.4112  -15.1941   20.4061 N   0  0  0  0  0  0
  -31.8116  -14.8209   20.1567 O   0  0  0  0  0  0
  -21.6656   -6.8837   21.4209 O   0  0  0  0  0  0
  -22.3507  -14.5476   20.6592 O   0  0  0  0  0  0
  -24.6274  -31.8567   23.2004 C   0  0  0  0  0  0
  -25.9134  -32.4747   23.8313 C   0  0  1  0  0  0
  -27.2345  -27.2882   20.0934 C   0  0  0  0  0  0
  -25.5954  -33.8556   24.2211 N   0  0  0  0  0  0
  -23.4212  -30.4747   21.5466 C   0  0  2  0  0  0
  -24.8660  -28.9114   20.1238 C   0  0  0  0  0  0
  -22.7471  -29.4624   22.4996 C   0  0  0  0  0  0
  -18.0287  -28.1426   22.8471 C   0  0  0  0  0  0
  -24.1501  -36.7263   23.2623 C   0  0  0  0  0  0
  -25.9672  -30.7659   21.3838 C   0  0  0  0  0  0
  -26.0402  -29.3943   20.7152 C   0  0  0  0  0  0
  -27.2229  -28.5926   20.6887 C   0  0  0  0  0  0
  -26.0344  -26.8614   19.4853 C   0  0  0  0  0  0
  -24.8651  -27.6496   19.5057 C   0  0  0  0  0  0
  -23.6381  -29.7945   20.1699 C   0  0  0  0  0  0
  -25.4142  -36.3034   24.0281 C   0  0  1  0  0  0
  -20.5867  -28.3741   23.1278 C   0  0  2  0  0  0
  -20.6805  -26.9485   22.5373 C   0  0  0  0  0  0
  -19.5798  -26.6430   21.5181 C   0  0  0  0  0  0
  -18.1963  -26.7969   22.1595 C   0  0  0  0  0  0
  -19.1530  -28.8908   23.2861 C   0  0  0  0  0  0
  -18.9451  -30.1496   23.8900 C   0  0  0  0  0  0
  -17.6453  -30.6627   24.0574 C   0  0  0  0  0  0
  -25.9081  -34.9423   23.5034 C   0  0  0  0  0  0
  -16.5352  -29.9112   23.6349 C   0  0  0  0  0  0
  -16.7265  -28.6524   23.0360 C   0  0  0  0  0  0
  -26.4487  -31.6599   25.0723 C   0  0  0  0  0  0
  -25.3693  -31.3814   26.1430 C   0  0  0  0  0  0
  -27.0314  -30.2981   24.6276 C   0  0  0  0  0  0
  -27.6011  -32.4382   25.7503 C   0  0  0  0  0  0
  -27.5583  -37.1799   24.8460 C   0  0  0  0  0  0
  -21.4190  -29.3075   22.3691 N   0  0  0  0  0  0
  -26.4314  -37.3748   23.9375 N   0  0  0  0  0  0
  -24.6906  -31.0516   22.0987 N   0  0  0  0  0  0
  -23.4161  -28.8173   23.3107 O   0  0  0  0  0  0
  -28.3760  -26.4638   20.1432 O   0  0  0  0  0  0
  -26.5625  -34.8888   22.4580 O   0  0  0  0  0  0
  -23.5436  -32.1387   23.7328 O   0  0  0  0  0  0
  -30.7651  -20.0927   19.3361 C   0  0  0  0  0  0
  -29.3074  -18.5357   20.5266 C   0  0  0  0  0  0
  -31.3140  -17.6984   19.4505 C   0  0  0  0  0  0
  -29.5895  -19.9058   20.0913 C   0  0  0  0  0  0
  -31.6100  -19.0158   19.0265 C   0  0  0  0  0  0
  -30.1575  -17.3814   20.2123 C   0  0  0  0  0  0
  -28.6762  -21.1377   20.2397 C   0  0  0  0  0  0
  -30.0986  -23.7394   22.1105 C   0  0  0  0  0  0
  -28.6036  -24.1245   22.0240 C   0  0  0  0  0  0
  -30.3812  -22.8394   20.8972 C   0  0  0  0  0  0
  -28.1917  -23.7628   20.5956 C   0  0  2  0  0  0
  -28.4586  -25.0504   19.6407 C   0  0  0  0  0  0
  -29.0408  -22.4816   20.4084 N   0  0  0  0  0  0
  -32.7579  -19.2635   18.2690 N   0  0  0  0  0  0
  -29.8583  -15.9505   20.5778 N   0  0  0  0  0  0
  -27.3717  -20.8955   20.1643 N   0  3  0  0  0  0
  -31.4654  -12.5993   19.1705 H   0  0  0  0  0  0
  -30.3663  -11.5054   19.9674 H   0  0  0  0  0  0
  -29.7957  -11.7439   17.5127 H   0  0  0  0  0  0
  -29.6458  -13.4690   17.7063 H   0  0  0  0  0  0
  -27.8605  -11.3044   18.8711 H   0  0  0  0  0  0
  -27.3873  -12.5741   17.7769 H   0  0  0  0  0  0
  -27.6210  -14.2634   19.4576 H   0  0  0  0  0  0
  -28.7341  -12.2071   21.4382 H   0  0  0  0  0  0
  -28.4193  -13.8925   21.7773 H   0  0  0  0  0  0
  -25.2770   -9.5681   22.4745 H   0  0  0  0  0  0
  -23.9994   -7.4641   22.7499 H   0  0  0  0  0  0
  -21.0812   -8.8748   19.9000 H   0  0  0  0  0  0
  -22.3670  -10.9629   19.6169 H   0  0  0  0  0  0
  -21.2080   -7.6133   23.9656 H   0  0  0  0  0  0
  -21.1463   -6.0520   25.9037 H   0  0  0  0  0  0
  -22.0629   -2.7574   23.2859 H   0  0  0  0  0  0
  -22.4155  -11.9929   22.4845 H   0  0  0  0  0  0
  -21.1107  -13.1215   22.2571 H   0  0  0  0  0  0
  -24.6324  -15.8351   20.5050 H   0  0  0  0  0  0
  -26.2436  -15.6352   20.0361 H   0  0  0  0  0  0
  -26.7198  -32.5352   23.1041 H   0  0  0  0  0  0
  -25.0173  -33.9723   25.0394 H   0  0  0  0  0  0
  -22.7209  -31.2995   21.3983 H   0  0  0  0  0  0
  -23.3755  -35.9612   23.3309 H   0  0  0  0  0  0
  -24.3552  -36.8875   22.2033 H   0  0  0  0  0  0
  -23.7303  -37.6475   23.6660 H   0  0  0  0  0  0
  -26.1197  -31.5349   20.6272 H   0  0  0  0  0  0
  -26.8411  -30.8000   22.0228 H   0  0  0  0  0  0
  -28.1284  -28.9634   21.1508 H   0  0  0  0  0  0
  -25.9703  -25.9033   18.9961 H   0  0  0  0  0  0
  -23.9591  -27.2672   19.0574 H   0  0  0  0  0  0
  -23.7766  -30.5656   19.4143 H   0  0  0  0  0  0
  -22.7541  -29.2332   19.8597 H   0  0  0  0  0  0
  -25.1351  -36.1847   25.0785 H   0  0  0  0  0  0
  -20.9940  -28.3336   24.1411 H   0  0  0  0  0  0
  -20.5782  -26.2355   23.3560 H   0  0  0  0  0  0
  -21.6659  -26.7605   22.1124 H   0  0  0  0  0  0
  -19.6980  -25.6329   21.1234 H   0  0  0  0  0  0
  -19.6716  -27.3215   20.6692 H   0  0  0  0  0  0
  -17.4219  -26.6675   21.4011 H   0  0  0  0  0  0
  -18.0429  -26.0111   22.9011 H   0  0  0  0  0  0
  -19.7911  -30.7307   24.2273 H   0  0  0  0  0  0
  -17.5005  -31.6296   24.5188 H   0  0  0  0  0  0
  -15.5351  -30.3020   23.7698 H   0  0  0  0  0  0
  -15.8648  -28.0846   22.7108 H   0  0  0  0  0  0
  -24.5842  -30.7188   25.7781 H   0  0  0  0  0  0
  -24.8897  -32.3018   26.4799 H   0  0  0  0  0  0
  -25.7966  -30.9022   27.0254 H   0  0  0  0  0  0
  -26.2907  -29.6759   24.1241 H   0  0  0  0  0  0
  -27.3870  -29.7241   25.4858 H   0  0  0  0  0  0
  -27.8862  -30.4199   23.9611 H   0  0  0  0  0  0
  -27.2575  -33.3707   26.2008 H   0  0  0  0  0  0
  -28.3848  -32.6934   25.0356 H   0  0  0  0  0  0
  -28.0648  -31.8568   26.5483 H   0  0  0  0  0  0
  -28.2600  -38.0093   24.7471 H   0  0  0  0  0  0
  -28.1072  -36.2612   24.6348 H   0  0  0  0  0  0
  -27.2257  -37.1516   25.8850 H   0  0  0  0  0  0
  -20.9444  -29.8689   21.6756 H   0  0  0  0  0  0
  -26.0154  -38.2805   24.1377 H   0  0  0  0  0  0
  -31.0139  -21.0757   18.9628 H   0  0  0  0  0  0
  -28.3980  -18.3717   21.0876 H   0  0  0  0  0  0
  -31.9947  -16.9248   19.1376 H   0  0  0  0  0  0
  -30.3131  -23.2060   23.0390 H   0  0  0  0  0  0
  -30.7291  -24.6278   22.0804 H   0  0  0  0  0  0
  -28.4271  -25.1705   22.2776 H   0  0  0  0  0  0
  -28.0141  -23.5335   22.7227 H   0  0  0  0  0  0
  -31.0016  -21.9884   21.1812 H   0  0  0  0  0  0
  -30.9165  -23.3916   20.1245 H   0  0  0  0  0  0
  -27.1241  -23.5440   20.5693 H   0  0  0  0  0  0
  -27.8563  -24.9489   18.7385 H   0  0  0  0  0  0
  -29.4771  -24.9681   19.2599 H   0  0  0  0  0  0
  -33.2210  -18.4670   17.8406 H   0  0  0  0  0  0
  -32.7683  -20.0867   17.6755 H   0  0  0  0  0  0
  -28.9147  -15.7893   20.8979 H   0  0  0  0  0  0
  -27.0673  -19.9433   20.0493 H   0  0  0  0  0  0
  -26.6703  -21.6110   20.2402 H   0  0  0  0  0  0
  1 25  1  0  0  0
  1 30  2  0  0  0
  1 85  1  0  0  0
  2  3  1  0  0  0
  2 25  1  0  0  0
  2 87  1  0  0  0
  2 88  1  0  0  0
  3  4  1  0  0  0
  3 89  1  0  0  0
  3 90  1  0  0  0
  4  5  1  0  0  0
  4 91  1  0  0  0
  4 92  1  0  0  0
  5  6  1  0  0  0
  5 26  1  0  0  0
  5 93  1  0  0  0
  6 25  1  0  0  0
  6 94  1  0  0  0
  6 95  1  0  0  0
  7  8  2  0  0  0
  7 26  1  0  0  0
  7 29  1  0  0  0
  8  9  1  0  0  0
  8 22  1  0  0  0
  9 10  1  0  0  0
  9 27  2  0  0  0
 10 11  2  0  0  0
 10 15  1  0  0  0
 11 12  1  0  0  0
 11 96  1  0  0  0
 12 13  2  0  0  0
 12 97  1  0  0  0
 13 14  1  0  0  0
 13 31  1  0  0  0
 14 15  2  0  0  0
 14 98  1  0  0  0
 15 99  1  0  0  0
 16 17  2  0  0  0
 16 21  1  0  0  0
 16 31  1  0  0  0
 17 18  1  0  0  0
 17100  1  0  0  0
 18 19  2  0  0  0
 18101  1  0  0  0
 19 20  1  0  0  0
 19 24  1  0  0  0
 20 21  2  0  0  0
 20102  1  0  0  0
 21 23  1  0  0  0
 22 28  1  0  0  0
 22 32  2  0  0  0
 26 27  1  0  0  0
 28103  1  0  0  0
 28104  1  0  0  0
 29105  1  0  0  0
 29106  1  0  0  0
 33 34  1  0  0  0
 33 66  1  0  0  0
 33 70  2  0  0  0
 34 36  1  0  0  0
 34 59  1  0  0  0
 34107  1  0  0  0
 35 44  2  0  0  0
 35 45  1  0  0  0
 35 68  1  0  0  0
 36 56  1  0  0  0
 36108  1  0  0  0
 37 39  1  0  0  0
 37 47  1  0  0  0
 37 66  1  0  0  0
 37109  1  0  0  0
 38 43  2  0  0  0
 38 46  1  0  0  0
 38 47  1  0  0  0
 39 64  1  0  0  0
 39 67  2  0  0  0
 40 52  1  0  0  0
 40 53  2  0  0  0
 40 58  1  0  0  0
 41110  1  0  0  0
 41111  1  0  0  0
 41112  1  0  0  0
 41 48  1  0  0  0
 42 43  1  0  0  0
 42 66  1  0  0  0
 42113  1  0  0  0
 42114  1  0  0  0
 43 44  1  0  0  0
 44115  1  0  0  0
 45 46  2  0  0  0
 45116  1  0  0  0
 46117  1  0  0  0
 47118  1  0  0  0
 47119  1  0  0  0
 48 56  1  0  0  0
 48 65  1  0  0  0
 48120  1  0  0  0
 49 50  1  0  0  0
 49 53  1  0  0  0
 49 64  1  0  0  0
 49121  1  0  0  0
 50 51  1  0  0  0
 50122  1  0  0  0
 50123  1  0  0  0
 51 52  1  0  0  0
 51124  1  0  0  0
 51125  1  0  0  0
 52126  1  0  0  0
 52127  1  0  0  0
 53 54  1  0  0  0
 54 55  2  0  0  0
 54128  1  0  0  0
 55 57  1  0  0  0
 55129  1  0  0  0
 56 69  2  0  0  0
 57 58  2  0  0  0
 57130  1  0  0  0
 58131  1  0  0  0
 59 60  1  0  0  0
 59 61  1  0  0  0
 59 62  1  0  0  0
 60132  1  0  0  0
 60133  1  0  0  0
 60134  1  0  0  0
 61135  1  0  0  0
 61136  1  0  0  0
 61137  1  0  0  0
 62138  1  0  0  0
 62139  1  0  0  0
 62140  1  0  0  0
 63 65  1  0  0  0
 63141  1  0  0  0
 63142  1  0  0  0
 63143  1  0  0  0
 64144  1  0  0  0
 65145  1  0  0  0
 68 82  1  0  0  0
 71 74  2  0  0  0
 71 75  1  0  0  0
 71146  1  0  0  0
 72 74  1  0  0  0
 72 76  2  0  0  0
 72147  1  0  0  0
 73 75  2  0  0  0
 73 76  1  0  0  0
 73148  1  0  0  0
 74 77  1  0  0  0
 75 84  1  0  0  0
 76 85  1  0  0  0
 77 83  1  0  0  0
 77 86  2  0  0  0
 78 79  1  0  0  0
 78 80  1  0  0  0
 78149  1  0  0  0
 78150  1  0  0  0
 79 81  1  0  0  0
 79151  1  0  0  0
 79152  1  0  0  0
 80 83  1  0  0  0
 80153  1  0  0  0
 80154  1  0  0  0
 81 82  1  0  0  0
 81 83  1  0  0  0
 81155  1  0  0  0
 82156  1  0  0  0
 82157  1  0  0  0
 84158  1  0  0  0
 84159  1  0  0  0
 85160  1  0  0  0
 86161  1  0  0  0
 86162  1  0  0  0
M  CHG  1  86   1
M  ISO  4   1 100  68 101  82 101  85 100
M  END
> <chiral flag>
0

> <version>
0

> <s_m_source_file>
/data/baiqing/PycharmProjects/Reinvent-master-3.2/result/LINK_invent/BTK/process_docking_weight1_custom_product_contain_oxygen_bond_distance_aromatic_linkinvent_7_9_3/rearranged_h_0157.sdf

> <i_m_source_file_index>
2

> <r_mmod_Potential_Energy-OPLS-2005>
94.3344345092773

> <r_mmod_Stretch_Energy-OPLS-2005>
136.25178527832

> <r_mmod_Bend_Energy-OPLS-2005>
229.474822998047

> <r_mmod_Torsional_Energy-OPLS-2005>
295.032409667969

> <r_mmod_Improper_Torsional_Energy-OPLS-2005>
9.65689086914062

> <r_mmod_Van_der_Waal_Energy-OPLS-2005>
144.053482055664

> <r_mmod_Electrostatic_Energy-OPLS-2005>
-389.770385742188

> <r_mmod_Solvation_Energy-OPLS-2005>
-414.670227050781

> <b_mmod_Minimization_Converged-OPLS-2005>
0

> <r_mmod_RMS_Derivative-OPLS-2005>
5.64206075668335

$$$$
2
                    3D
 Structure written by MMmdl.
156165  0  0  1  0            999 V2000
  -30.5752  -14.7175   20.4700 C   0  0  0  0  0  0
  -30.4499  -12.4388   19.4560 C   0  0  0  0  0  0
  -29.5137  -12.5116   18.2277 C   0  0  0  0  0  0
  -28.0377  -12.3332   18.6410 C   0  0  0  0  0  0
  -27.6489  -13.2162   19.8557 C   0  0  2  0  0  0
  -28.6965  -13.1019   20.9863 C   0  0  0  0  0  0
  -25.2549  -13.8159   20.5677 C   0  0  0  0  0  0
  -24.1820  -13.0428   20.9195 C   0  0  0  0  0  0
  -24.6391  -11.6902   20.8742 C   0  0  0  0  0  0
  -23.9058  -10.4288   21.0409 C   0  0  0  0  0  0
  -24.3610   -9.4203   21.9183 C   0  0  0  0  0  0
  -23.6286   -8.2240   22.0754 C   0  0  0  0  0  0
  -22.4264   -8.0280   21.3548 C   0  0  0  0  0  0
  -21.9897   -9.0255   20.4649 C   0  0  0  0  0  0
  -22.7230  -10.2132   20.3059 C   0  0  0  0  0  0
  -21.6855   -6.0729   22.5275 C   0  0  0  0  0  0
  -21.4016   -6.5631   23.8209 C   0  0  0  0  0  0
  -21.3660   -5.6784   24.9172 C   0  0  0  0  0  0
  -21.6046   -4.3048   24.7221 C   0  0  0  0  0  0
  -21.8820   -3.8140   23.4342 C   0  0  0  0  0  0
  -21.9194   -4.6957   22.3398 C   0  0  0  0  0  0
  -22.7844  -13.5229   21.1855 C   0  0  0  0  0  0
  -22.1663   -4.2146   21.0975 F   0  0  0  0  0  0
  -21.5630   -3.4531   25.7734 F   0  0  0  0  0  0
  -30.0026  -13.4691   20.4159 N   0  0  0  0  0  0
  -26.2970  -12.9334   20.3285 N   0  0  0  0  0  0
  -25.9316  -11.6493   20.5745 N   0  0  0  0  0  0
  -22.0479  -12.8236   22.0412 N   0  0  0  0  0  0
  -25.4248  -15.1883   20.4077 N   0  0  0  0  0  0
  -31.7540  -14.8956   20.1515 O   0  0  0  0  0  0
  -21.6635   -6.8873   21.4238 O   0  0  0  0  0  0
  -22.3538  -14.5536   20.6697 O   0  0  0  0  0  0
  -24.6308  -31.8558   23.1990 C   0  0  0  0  0  0
  -25.9141  -32.4754   23.8333 C   0  0  1  0  0  0
  -27.2353  -27.2867   20.1076 C   0  0  0  0  0  0
  -25.5939  -33.8553   24.2260 N   0  0  0  0  0  0
  -23.4261  -30.4782   21.5427 C   0  0  2  0  0  0
  -24.8733  -28.9262   20.1117 C   0  0  0  0  0  0
  -22.7508  -29.4600   22.4928 C   0  0  0  0  0  0
  -18.0291  -28.1393   22.8480 C   0  0  0  0  0  0
  -24.1487  -36.7284   23.2637 C   0  0  0  0  0  0
  -25.9716  -30.7754   21.3743 C   0  0  0  0  0  0
  -26.0458  -29.4010   20.7128 C   0  0  0  0  0  0
  -27.2268  -28.5939   20.6981 C   0  0  0  0  0  0
  -26.0230  -26.8605   19.5154 C   0  0  0  0  0  0
  -24.8650  -27.6613   19.5060 C   0  0  0  0  0  0
  -23.6427  -29.8105   20.1596 C   0  0  0  0  0  0
  -25.4109  -36.3060   24.0327 C   0  0  1  0  0  0
  -20.5897  -28.3694   23.1275 C   0  0  2  0  0  0
  -20.6784  -26.9412   22.5406 C   0  0  0  0  0  0
  -19.5755  -26.6381   21.5215 C   0  0  0  0  0  0
  -18.1934  -26.7934   22.1624 C   0  0  0  0  0  0
  -19.1547  -28.8862   23.2868 C   0  0  0  0  0  0
  -18.9463  -30.1467   23.8880 C   0  0  0  0  0  0
  -17.6463  -30.6587   24.0561 C   0  0  0  0  0  0
  -25.9054  -34.9434   23.5091 C   0  0  0  0  0  0
  -16.5354  -29.9080   23.6338 C   0  0  0  0  0  0
  -16.7280  -28.6505   23.0343 C   0  0  0  0  0  0
  -26.4509  -31.6583   25.0724 C   0  0  0  0  0  0
  -25.3736  -31.3753   26.1455 C   0  0  0  0  0  0
  -27.0361  -30.2994   24.6216 C   0  0  0  0  0  0
  -27.6050  -32.4345   25.7496 C   0  0  0  0  0  0
  -27.5581  -37.1786   24.8455 C   0  0  0  0  0  0
  -21.4215  -29.3041   22.3673 N   0  0  0  0  0  0
  -26.4279  -37.3762   23.9418 N   0  0  0  0  0  0
  -24.6954  -31.0544   22.0947 N   0  0  0  0  0  0
  -23.4215  -28.8140   23.3016 O   0  0  0  0  0  0
  -28.3579  -26.4261   20.1694 O   0  0  0  0  0  0
  -26.5624  -34.8914   22.4657 O   0  0  0  0  0  0
  -23.5465  -32.1366   23.7300 O   0  0  0  0  0  0
  -28.8995  -17.8836   19.5875 C   0  0  0  0  0  0
  -28.7826  -19.3077   19.5578 C   0  0  0  0  0  0
  -30.4806  -18.1159   21.3462 C   0  0  0  0  0  0
  -29.7629  -17.2239   20.5039 C   0  0  0  0  0  0
  -29.4954  -20.1165   20.4739 C   0  0  0  0  0  0
  -28.6915  -23.9368   20.1984 C   0  0  0  0  0  0
  -28.3968  -25.1359   19.5676 C   0  0  0  0  0  0
  -29.0585  -23.7346   21.6524 C   0  0  0  0  0  0
  -28.7628  -22.5059   19.5725 C   0  0  0  0  0  0
  -29.7061  -22.3194   21.7577 C   0  0  0  0  0  0
  -28.2310  -25.1944   18.0567 C   0  0  0  0  0  0
  -30.3401  -19.4871   21.3404 N   0  0  0  0  0  0
  -29.3403  -21.5561   20.5628 N   0  0  0  0  0  0
  -29.6972  -15.7588   20.6868 N   0  0  0  0  0  0
  -31.4868  -12.5899   19.1503 H   0  0  0  0  0  0
  -30.4120  -11.4498   19.9146 H   0  0  0  0  0  0
  -29.7907  -11.7515   17.4960 H   0  0  0  0  0  0
  -29.6393  -13.4737   17.7293 H   0  0  0  0  0  0
  -27.8877  -11.2815   18.8871 H   0  0  0  0  0  0
  -27.3817  -12.5437   17.7960 H   0  0  0  0  0  0
  -27.6533  -14.2437   19.4931 H   0  0  0  0  0  0
  -28.7275  -12.0857   21.3812 H   0  0  0  0  0  0
  -28.4336  -13.7427   21.8304 H   0  0  0  0  0  0
  -25.2753   -9.5681   22.4753 H   0  0  0  0  0  0
  -24.0000   -7.4627   22.7468 H   0  0  0  0  0  0
  -21.0829   -8.8772   19.8951 H   0  0  0  0  0  0
  -22.3685  -10.9672   19.6168 H   0  0  0  0  0  0
  -21.2007   -7.6137   23.9708 H   0  0  0  0  0  0
  -21.1483   -6.0515   25.9074 H   0  0  0  0  0  0
  -22.0600   -2.7603   23.2842 H   0  0  0  0  0  0
  -22.4081  -11.9898   22.4814 H   0  0  0  0  0  0
  -21.1103  -13.1280   22.2612 H   0  0  0  0  0  0
  -24.6536  -15.8386   20.5113 H   0  0  0  0  0  0
  -26.2620  -15.6273   20.0486 H   0  0  0  0  0  0
  -26.7206  -32.5405   23.1076 H   0  0  0  0  0  0
  -25.0089  -33.9683   25.0410 H   0  0  0  0  0  0
  -22.7195  -31.2982   21.3976 H   0  0  0  0  0  0
  -23.3751  -35.9611   23.3273 H   0  0  0  0  0  0
  -24.3584  -36.8937   22.2055 H   0  0  0  0  0  0
  -23.7239  -37.6473   23.6688 H   0  0  0  0  0  0
  -26.1102  -31.5386   20.6073 H   0  0  0  0  0  0
  -26.8492  -30.8216   22.0081 H   0  0  0  0  0  0
  -28.1268  -28.9553   21.1756 H   0  0  0  0  0  0
  -25.9383  -25.8783   19.0779 H   0  0  0  0  0  0
  -23.9622  -27.2820   19.0472 H   0  0  0  0  0  0
  -23.7634  -30.5852   19.4017 H   0  0  0  0  0  0
  -22.7620  -29.2411   19.8567 H   0  0  0  0  0  0
  -25.1286  -36.1891   25.0816 H   0  0  0  0  0  0
  -20.9979  -28.3271   24.1403 H   0  0  0  0  0  0
  -20.5692  -26.2301   23.3610 H   0  0  0  0  0  0
  -21.6650  -26.7447   22.1194 H   0  0  0  0  0  0
  -19.6909  -25.6290   21.1248 H   0  0  0  0  0  0
  -19.6684  -27.3187   20.6741 H   0  0  0  0  0  0
  -17.4203  -26.6682   21.4028 H   0  0  0  0  0  0
  -18.0324  -26.0083   22.9024 H   0  0  0  0  0  0
  -19.7936  -30.7294   24.2234 H   0  0  0  0  0  0
  -17.5009  -31.6265   24.5168 H   0  0  0  0  0  0
  -15.5350  -30.2965   23.7676 H   0  0  0  0  0  0
  -15.8683  -28.0819   22.7056 H   0  0  0  0  0  0
  -24.5858  -30.7163   25.7794 H   0  0  0  0  0  0
  -24.8994  -32.2942   26.4913 H   0  0  0  0  0  0
  -25.8044  -30.8890   27.0216 H   0  0  0  0  0  0
  -26.2948  -29.6731   24.1234 H   0  0  0  0  0  0
  -27.4036  -29.7265   25.4745 H   0  0  0  0  0  0
  -27.8828  -30.4268   23.9464 H   0  0  0  0  0  0
  -27.2627  -33.3634   26.2072 H   0  0  0  0  0  0
  -28.3847  -32.6938   25.0322 H   0  0  0  0  0  0
  -28.0737  -31.8486   26.5415 H   0  0  0  0  0  0
  -28.2566  -38.0112   24.7533 H   0  0  0  0  0  0
  -28.1107  -36.2648   24.6228 H   0  0  0  0  0  0
  -27.2317  -37.1371   25.8859 H   0  0  0  0  0  0
  -20.9412  -29.8753   21.6866 H   0  0  0  0  0  0
  -26.0154  -38.2827   24.1432 H   0  0  0  0  0  0
  -28.2853  -17.2969   18.9201 H   0  0  0  0  0  0
  -28.0966  -19.7599   18.8559 H   0  0  0  0  0  0
  -31.1330  -17.7220   22.1112 H   0  0  0  0  0  0
  -28.1430  -23.7731   22.2435 H   0  0  0  0  0  0
  -29.7212  -24.5216   22.0147 H   0  0  0  0  0  0
  -29.3668  -22.5189   18.6650 H   0  0  0  0  0  0
  -27.7570  -22.1845   19.3005 H   0  0  0  0  0  0
  -29.3832  -21.8081   22.6654 H   0  0  0  0  0  0
  -30.7930  -22.4010   21.7976 H   0  0  0  0  0  0
  -29.1111  -24.7744   17.5682 H   0  0  0  0  0  0
  -28.1183  -26.2180   17.6982 H   0  0  0  0  0  0
  -27.3628  -24.6172   17.7391 H   0  0  0  0  0  0
  -28.7631  -15.4096   20.8385 H   0  0  0  0  0  0
  1 25  1  0  0  0
  1 30  2  0  0  0
  1 84  1  0  0  0
  2  3  1  0  0  0
  2 25  1  0  0  0
  2 85  1  0  0  0
  2 86  1  0  0  0
  3  4  1  0  0  0
  3 87  1  0  0  0
  3 88  1  0  0  0
  4  5  1  0  0  0
  4 89  1  0  0  0
  4 90  1  0  0  0
  5  6  1  0  0  0
  5 26  1  0  0  0
  5 91  1  0  0  0
  6 25  1  0  0  0
  6 92  1  0  0  0
  6 93  1  0  0  0
  7  8  2  0  0  0
  7 26  1  0  0  0
  7 29  1  0  0  0
  8  9  1  0  0  0
  8 22  1  0  0  0
  9 10  1  0  0  0
  9 27  2  0  0  0
 10 11  2  0  0  0
 10 15  1  0  0  0
 11 12  1  0  0  0
 11 94  1  0  0  0
 12 13  2  0  0  0
 12 95  1  0  0  0
 13 14  1  0  0  0
 13 31  1  0  0  0
 14 15  2  0  0  0
 14 96  1  0  0  0
 15 97  1  0  0  0
 16 17  2  0  0  0
 16 21  1  0  0  0
 16 31  1  0  0  0
 17 18  1  0  0  0
 17 98  1  0  0  0
 18 19  2  0  0  0
 18 99  1  0  0  0
 19 20  1  0  0  0
 19 24  1  0  0  0
 20 21  2  0  0  0
 20100  1  0  0  0
 21 23  1  0  0  0
 22 28  1  0  0  0
 22 32  2  0  0  0
 26 27  1  0  0  0
 28101  1  0  0  0
 28102  1  0  0  0
 29103  1  0  0  0
 29104  1  0  0  0
 33 34  1  0  0  0
 33 66  1  0  0  0
 33 70  2  0  0  0
 34 36  1  0  0  0
 34 59  1  0  0  0
 34105  1  0  0  0
 35 44  2  0  0  0
 35 45  1  0  0  0
 35 68  1  0  0  0
 36 56  1  0  0  0
 36106  1  0  0  0
 37 39  1  0  0  0
 37 47  1  0  0  0
 37 66  1  0  0  0
 37107  1  0  0  0
 38 43  2  0  0  0
 38 46  1  0  0  0
 38 47  1  0  0  0
 39 64  1  0  0  0
 39 67  2  0  0  0
 40 52  1  0  0  0
 40 53  2  0  0  0
 40 58  1  0  0  0
 41108  1  0  0  0
 41109  1  0  0  0
 41110  1  0  0  0
 41 48  1  0  0  0
 42 43  1  0  0  0
 42 66  1  0  0  0
 42111  1  0  0  0
 42112  1  0  0  0
 43 44  1  0  0  0
 44113  1  0  0  0
 45 46  2  0  0  0
 45114  1  0  0  0
 46115  1  0  0  0
 47116  1  0  0  0
 47117  1  0  0  0
 48 56  1  0  0  0
 48 65  1  0  0  0
 48118  1  0  0  0
 49 50  1  0  0  0
 49 53  1  0  0  0
 49 64  1  0  0  0
 49119  1  0  0  0
 50 51  1  0  0  0
 50120  1  0  0  0
 50121  1  0  0  0
 51 52  1  0  0  0
 51122  1  0  0  0
 51123  1  0  0  0
 52124  1  0  0  0
 52125  1  0  0  0
 53 54  1  0  0  0
 54 55  2  0  0  0
 54126  1  0  0  0
 55 57  1  0  0  0
 55127  1  0  0  0
 56 69  2  0  0  0
 57 58  2  0  0  0
 57128  1  0  0  0
 58129  1  0  0  0
 59 60  1  0  0  0
 59 61  1  0  0  0
 59 62  1  0  0  0
 60130  1  0  0  0
 60131  1  0  0  0
 60132  1  0  0  0
 61133  1  0  0  0
 61134  1  0  0  0
 61135  1  0  0  0
 62136  1  0  0  0
 62137  1  0  0  0
 62138  1  0  0  0
 63 65  1  0  0  0
 63139  1  0  0  0
 63140  1  0  0  0
 63141  1  0  0  0
 64142  1  0  0  0
 65143  1  0  0  0
 68 77  1  0  0  0
 71 72  2  0  0  0
 71 74  1  0  0  0
 71144  1  0  0  0
 72 75  1  0  0  0
 72145  1  0  0  0
 73 74  2  0  0  0
 73 82  1  0  0  0
 73146  1  0  0  0
 74 84  1  0  0  0
 75 82  2  0  0  0
 75 83  1  0  0  0
 76 77  2  0  0  0
 76 78  1  0  0  0
 76 79  1  0  0  0
 77 81  1  0  0  0
 78 80  1  0  0  0
 78147  1  0  0  0
 78148  1  0  0  0
 79 83  1  0  0  0
 79149  1  0  0  0
 79150  1  0  0  0
 80 83  1  0  0  0
 80151  1  0  0  0
 80152  1  0  0  0
 81153  1  0  0  0
 81154  1  0  0  0
 81155  1  0  0  0
 84156  1  0  0  0
M  ISO  4   1 100  68 101  77 101  84 100
M  END
> <chiral flag>
0

> <version>
0

> <s_m_source_file>
/data/baiqing/PycharmProjects/Reinvent-master-3.2/result/LINK_invent/BTK/process_docking_weight1_custom_product_contain_oxygen_bond_distance_aromatic_linkinvent_7_9_3/rearranged_h_0157.sdf

> <i_m_source_file_index>
3

> <r_mmod_Potential_Energy-OPLS-2005>
-63.7239265441895

> <r_mmod_Stretch_Energy-OPLS-2005>
89.8306427001953

> <r_mmod_Bend_Energy-OPLS-2005>
188.173278808594

> <r_mmod_Torsional_Energy-OPLS-2005>
259.8779296875

> <r_mmod_Improper_Torsional_Energy-OPLS-2005>
7.12738561630249

> <r_mmod_Van_der_Waal_Energy-OPLS-2005>
138.819000244141

> <r_mmod_Electrostatic_Energy-OPLS-2005>
-583.776794433594

> <r_mmod_Solvation_Energy-OPLS-2005>
-236.376876831055

> <b_mmod_Minimization_Converged-OPLS-2005>
0

> <r_mmod_RMS_Derivative-OPLS-2005>
1.16780626773834

$$$$
3
                    3D
 Structure written by MMmdl.
148156  0  0  1  0            999 V2000
  -30.6032  -14.7508   20.4482 C   0  0  0  0  0  0
  -30.4349  -12.4464   19.4867 C   0  0  0  0  0  0
  -29.5189  -12.5136   18.2445 C   0  0  0  0  0  0
  -28.0403  -12.3437   18.6451 C   0  0  0  0  0  0
  -27.6437  -13.2361   19.8499 C   0  0  2  0  0  0
  -28.6855  -13.1645   20.9854 C   0  0  0  0  0  0
  -25.2515  -13.8203   20.5687 C   0  0  0  0  0  0
  -24.1801  -13.0448   20.9182 C   0  0  0  0  0  0
  -24.6395  -11.6923   20.8733 C   0  0  0  0  0  0
  -23.9071  -10.4299   21.0395 C   0  0  0  0  0  0
  -24.3622   -9.4214   21.9180 C   0  0  0  0  0  0
  -23.6297   -8.2253   22.0757 C   0  0  0  0  0  0
  -22.4276   -8.0288   21.3550 C   0  0  0  0  0  0
  -21.9915   -9.0252   20.4647 C   0  0  0  0  0  0
  -22.7241  -10.2132   20.3047 C   0  0  0  0  0  0
  -21.6855   -6.0743   22.5281 C   0  0  0  0  0  0
  -21.4017   -6.5644   23.8213 C   0  0  0  0  0  0
  -21.3659   -5.6795   24.9176 C   0  0  0  0  0  0
  -21.6042   -4.3057   24.7221 C   0  0  0  0  0  0
  -21.8819   -3.8153   23.4339 C   0  0  0  0  0  0
  -21.9192   -4.6974   22.3402 C   0  0  0  0  0  0
  -22.7821  -13.5230   21.1858 C   0  0  0  0  0  0
  -22.1659   -4.2158   21.0980 F   0  0  0  0  0  0
  -21.5626   -3.4542   25.7734 F   0  0  0  0  0  0
  -29.9969  -13.5111   20.4210 N   0  0  0  0  0  0
  -26.2948  -12.9416   20.3262 N   0  0  0  0  0  0
  -25.9324  -11.6543   20.5723 N   0  0  0  0  0  0
  -22.0475  -12.8210   22.0409 N   0  0  0  0  0  0
  -25.4238  -15.1920   20.4144 N   0  0  0  0  0  0
  -31.7938  -14.8171   20.1315 O   0  0  0  0  0  0
  -21.6640   -6.8880   21.4239 O   0  0  0  0  0  0
  -22.3500  -14.5547   20.6727 O   0  0  0  0  0  0
  -24.6339  -31.8551   23.1998 C   0  0  0  0  0  0
  -25.9163  -32.4754   23.8344 C   0  0  1  0  0  0
  -27.2132  -27.2455   20.1177 C   0  0  0  0  0  0
  -25.5956  -33.8559   24.2262 N   0  0  0  0  0  0
  -23.4301  -30.4811   21.5446 C   0  0  2  0  0  0
  -24.8771  -28.9364   20.1090 C   0  0  0  0  0  0
  -22.7512  -29.4608   22.4905 C   0  0  0  0  0  0
  -18.0298  -28.1391   22.8487 C   0  0  0  0  0  0
  -24.1486  -36.7276   23.2636 C   0  0  0  0  0  0
  -25.9817  -30.7622   21.3858 C   0  0  0  0  0  0
  -26.0527  -29.3862   20.7231 C   0  0  0  0  0  0
  -27.2238  -28.5538   20.7189 C   0  0  0  0  0  0
  -26.0106  -26.8860   19.4596 C   0  0  0  0  0  0
  -24.8625  -27.6941   19.4668 C   0  0  0  0  0  0
  -23.6495  -29.8237   20.1595 C   0  0  0  0  0  0
  -25.4121  -36.3067   24.0318 C   0  0  1  0  0  0
  -20.5905  -28.3711   23.1257 C   0  0  2  0  0  0
  -20.6784  -26.9422   22.5408 C   0  0  0  0  0  0
  -19.5754  -26.6385   21.5217 C   0  0  0  0  0  0
  -18.1936  -26.7934   22.1625 C   0  0  0  0  0  0
  -19.1551  -28.8868   23.2868 C   0  0  0  0  0  0
  -18.9470  -30.1469   23.8882 C   0  0  0  0  0  0
  -17.6469  -30.6590   24.0565 C   0  0  0  0  0  0
  -25.9063  -34.9438   23.5089 C   0  0  0  0  0  0
  -16.5363  -29.9083   23.6334 C   0  0  0  0  0  0
  -16.7286  -28.6502   23.0356 C   0  0  0  0  0  0
  -26.4517  -31.6580   25.0738 C   0  0  0  0  0  0
  -25.3725  -31.3741   26.1445 C   0  0  0  0  0  0
  -27.0372  -30.2990   24.6251 C   0  0  0  0  0  0
  -27.6065  -32.4328   25.7511 C   0  0  0  0  0  0
  -27.5583  -37.1801   24.8468 C   0  0  0  0  0  0
  -21.4219  -29.3051   22.3640 N   0  0  0  0  0  0
  -26.4297  -37.3771   23.9408 N   0  0  0  0  0  0
  -24.7010  -31.0509   22.0983 N   0  0  0  0  0  0
  -23.4203  -28.8139   23.3002 O   0  0  0  0  0  0
  -28.2776  -26.3011   20.1880 O   0  0  0  0  0  0
  -26.5623  -34.8912   22.4650 O   0  0  0  0  0  0
  -23.5485  -32.1387   23.7285 O   0  0  0  0  0  0
  -28.0827  -18.6462   20.4537 C   0  0  0  0  0  0
  -27.6483  -20.0211   20.3417 C   0  0  0  0  0  0
  -29.4424  -18.4580   20.4724 C   0  0  0  0  0  0
  -28.6278  -20.9971   20.3213 C   0  0  0  0  0  0
  -30.2029  -17.1320   20.4782 C   0  0  0  0  0  0
  -28.8702  -23.6101   20.2665 C   0  0  0  0  0  0
  -27.9124  -24.8562   19.9239 C   0  0  0  0  0  0
  -29.7558  -15.8996   20.6594 N   0  0  0  0  0  0
  -26.2777  -20.3035   20.2429 N   0  0  0  0  0  0
  -28.2891  -22.3566   20.1920 N   0  0  0  0  0  0
  -30.0562  -23.7796   20.5609 O   0  0  0  0  0  0
  -30.1870  -20.1065   20.4156 S   0  0  0  0  0  0
  -31.4787  -12.5547   19.1879 H   0  0  0  0  0  0
  -30.3628  -11.4663   19.9613 H   0  0  0  0  0  0
  -29.8017  -11.7460   17.5233 H   0  0  0  0  0  0
  -29.6555  -13.4723   17.7413 H   0  0  0  0  0  0
  -27.8851  -11.2940   18.8951 H   0  0  0  0  0  0
  -27.3923  -12.5505   17.7930 H   0  0  0  0  0  0
  -27.6411  -14.2609   19.4787 H   0  0  0  0  0  0
  -28.7102  -12.1670   21.4262 H   0  0  0  0  0  0
  -28.4188  -13.8481   21.7933 H   0  0  0  0  0  0
  -25.2764   -9.5695   22.4753 H   0  0  0  0  0  0
  -24.0005   -7.4648   22.7481 H   0  0  0  0  0  0
  -21.0845   -8.8764   19.8949 H   0  0  0  0  0  0
  -22.3698  -10.9665   19.6154 H   0  0  0  0  0  0
  -21.2011   -7.6153   23.9721 H   0  0  0  0  0  0
  -21.1482   -6.0526   25.9079 H   0  0  0  0  0  0
  -22.0600   -2.7615   23.2840 H   0  0  0  0  0  0
  -22.4103  -11.9864   22.4770 H   0  0  0  0  0  0
  -21.1100  -13.1231   22.2648 H   0  0  0  0  0  0
  -24.6692  -15.8578   20.5386 H   0  0  0  0  0  0
  -26.2972  -15.6186   20.1337 H   0  0  0  0  0  0
  -26.7235  -32.5394   23.1089 H   0  0  0  0  0  0
  -25.0120  -33.9696   25.0418 H   0  0  0  0  0  0
  -22.7261  -31.3036   21.4011 H   0  0  0  0  0  0
  -23.3759  -35.9599   23.3299 H   0  0  0  0  0  0
  -24.3575  -36.8901   22.2052 H   0  0  0  0  0  0
  -23.7232  -37.6472   23.6663 H   0  0  0  0  0  0
  -26.1292  -31.5248   20.6197 H   0  0  0  0  0  0
  -26.8554  -30.8052   22.0246 H   0  0  0  0  0  0
  -28.1198  -28.8906   21.2219 H   0  0  0  0  0  0
  -25.9031  -25.9492   18.9367 H   0  0  0  0  0  0
  -23.9651  -27.3480   18.9730 H   0  0  0  0  0  0
  -23.7755  -30.6041   19.4078 H   0  0  0  0  0  0
  -22.7674  -29.2599   19.8499 H   0  0  0  0  0  0
  -25.1313  -36.1912   25.0814 H   0  0  0  0  0  0
  -21.0003  -28.3298   24.1375 H   0  0  0  0  0  0
  -20.5688  -26.2323   23.3620 H   0  0  0  0  0  0
  -21.6647  -26.7437   22.1196 H   0  0  0  0  0  0
  -19.6905  -25.6293   21.1248 H   0  0  0  0  0  0
  -19.6686  -27.3192   20.6743 H   0  0  0  0  0  0
  -17.4208  -26.6695   21.4025 H   0  0  0  0  0  0
  -18.0327  -26.0079   22.9019 H   0  0  0  0  0  0
  -19.7948  -30.7294   24.2236 H   0  0  0  0  0  0
  -17.5021  -31.6262   24.5174 H   0  0  0  0  0  0
  -15.5361  -30.2975   23.7664 H   0  0  0  0  0  0
  -15.8692  -28.0812   22.7073 H   0  0  0  0  0  0
  -24.5928  -30.7059   25.7775 H   0  0  0  0  0  0
  -24.8882  -32.2908   26.4821 H   0  0  0  0  0  0
  -25.8028  -30.8962   27.0255 H   0  0  0  0  0  0
  -26.2966  -29.6735   24.1255 H   0  0  0  0  0  0
  -27.4018  -29.7266   25.4793 H   0  0  0  0  0  0
  -27.8863  -30.4262   23.9532 H   0  0  0  0  0  0
  -27.2685  -33.3658   26.2037 H   0  0  0  0  0  0
  -28.3901  -32.6842   25.0350 H   0  0  0  0  0  0
  -28.0704  -31.8485   26.5469 H   0  0  0  0  0  0
  -28.2601  -38.0097   24.7521 H   0  0  0  0  0  0
  -28.1076  -36.2630   24.6293 H   0  0  0  0  0  0
  -27.2293  -37.1451   25.8867 H   0  0  0  0  0  0
  -20.9396  -29.8793   21.6868 H   0  0  0  0  0  0
  -26.0168  -38.2841   24.1417 H   0  0  0  0  0  0
  -27.3777  -17.8274   20.4746 H   0  0  0  0  0  0
  -31.2682  -17.2758   20.2722 H   0  0  0  0  0  0
  -26.9817  -24.6418   20.4517 H   0  0  0  0  0  0
  -27.7055  -24.7606   18.8574 H   0  0  0  0  0  0
  -25.6725  -19.5050   20.0809 H   0  0  0  0  0  0
  -26.0017  -21.0818   19.6557 H   0  0  0  0  0  0
  -27.2987  -22.4479   20.0165 H   0  0  0  0  0  0
  1 25  1  0  0  0
  1 30  2  0  0  0
  1 78  1  0  0  0
  2  3  1  0  0  0
  2 25  1  0  0  0
  2 83  1  0  0  0
  2 84  1  0  0  0
  3  4  1  0  0  0
  3 85  1  0  0  0
  3 86  1  0  0  0
  4  5  1  0  0  0
  4 87  1  0  0  0
  4 88  1  0  0  0
  5  6  1  0  0  0
  5 26  1  0  0  0
  5 89  1  0  0  0
  6 25  1  0  0  0
  6 90  1  0  0  0
  6 91  1  0  0  0
  7  8  2  0  0  0
  7 26  1  0  0  0
  7 29  1  0  0  0
  8  9  1  0  0  0
  8 22  1  0  0  0
  9 10  1  0  0  0
  9 27  2  0  0  0
 10 11  2  0  0  0
 10 15  1  0  0  0
 11 12  1  0  0  0
 11 92  1  0  0  0
 12 13  2  0  0  0
 12 93  1  0  0  0
 13 14  1  0  0  0
 13 31  1  0  0  0
 14 15  2  0  0  0
 14 94  1  0  0  0
 15 95  1  0  0  0
 16 17  2  0  0  0
 16 21  1  0  0  0
 16 31  1  0  0  0
 17 18  1  0  0  0
 17 96  1  0  0  0
 18 19  2  0  0  0
 18 97  1  0  0  0
 19 20  1  0  0  0
 19 24  1  0  0  0
 20 21  2  0  0  0
 20 98  1  0  0  0
 21 23  1  0  0  0
 22 28  1  0  0  0
 22 32  2  0  0  0
 26 27  1  0  0  0
 28 99  1  0  0  0
 28100  1  0  0  0
 29101  1  0  0  0
 29102  1  0  0  0
 33 34  1  0  0  0
 33 66  1  0  0  0
 33 70  2  0  0  0
 34 36  1  0  0  0
 34 59  1  0  0  0
 34103  1  0  0  0
 35 44  2  0  0  0
 35 45  1  0  0  0
 35 68  1  0  0  0
 36 56  1  0  0  0
 36104  1  0  0  0
 37 39  1  0  0  0
 37 47  1  0  0  0
 37 66  1  0  0  0
 37105  1  0  0  0
 38 43  2  0  0  0
 38 46  1  0  0  0
 38 47  1  0  0  0
 39 64  1  0  0  0
 39 67  2  0  0  0
 40 52  1  0  0  0
 40 53  2  0  0  0
 40 58  1  0  0  0
 41106  1  0  0  0
 41107  1  0  0  0
 41108  1  0  0  0
 41 48  1  0  0  0
 42 43  1  0  0  0
 42 66  1  0  0  0
 42109  1  0  0  0
 42110  1  0  0  0
 43 44  1  0  0  0
 44111  1  0  0  0
 45 46  2  0  0  0
 45112  1  0  0  0
 46113  1  0  0  0
 47114  1  0  0  0
 47115  1  0  0  0
 48 56  1  0  0  0
 48 65  1  0  0  0
 48116  1  0  0  0
 49 50  1  0  0  0
 49 53  1  0  0  0
 49 64  1  0  0  0
 49117  1  0  0  0
 50 51  1  0  0  0
 50118  1  0  0  0
 50119  1  0  0  0
 51 52  1  0  0  0
 51120  1  0  0  0
 51121  1  0  0  0
 52122  1  0  0  0
 52123  1  0  0  0
 53 54  1  0  0  0
 54 55  2  0  0  0
 54124  1  0  0  0
 55 57  1  0  0  0
 55125  1  0  0  0
 56 69  2  0  0  0
 57 58  2  0  0  0
 57126  1  0  0  0
 58127  1  0  0  0
 59 60  1  0  0  0
 59 61  1  0  0  0
 59 62  1  0  0  0
 60128  1  0  0  0
 60129  1  0  0  0
 60130  1  0  0  0
 61131  1  0  0  0
 61132  1  0  0  0
 61133  1  0  0  0
 62134  1  0  0  0
 62135  1  0  0  0
 62136  1  0  0  0
 63 65  1  0  0  0
 63137  1  0  0  0
 63138  1  0  0  0
 63139  1  0  0  0
 64140  1  0  0  0
 65141  1  0  0  0
 68 77  1  0  0  0
 71 72  1  0  0  0
 71 73  2  0  0  0
 71142  1  0  0  0
 72 74  2  0  0  0
 72 79  1  0  0  0
 73 75  1  0  0  0
 73 82  1  0  0  0
 74 80  1  0  0  0
 74 82  1  0  0  0
 75 78  2  0  0  0
 75143  1  0  0  0
 76 77  1  0  0  0
 76 80  1  0  0  0
 76 81  2  0  0  0
 77144  1  0  0  0
 77145  1  0  0  0
 79146  1  0  0  0
 79147  1  0  0  0
 80148  1  0  0  0
M  ISO  4   1 100  68 101  77 101  78 100
M  END
> <chiral flag>
0

> <version>
0

> <s_m_source_file>
/data/baiqing/PycharmProjects/Reinvent-master-3.2/result/LINK_invent/BTK/process_docking_weight1_custom_product_contain_oxygen_bond_distance_aromatic_linkinvent_7_9_3/rearranged_h_0157.sdf

> <i_m_source_file_index>
4

> <r_mmod_Potential_Energy-OPLS-2005>
46.8183135986328

> <r_mmod_Stretch_Energy-OPLS-2005>
120.405319213867

> <r_mmod_Bend_Energy-OPLS-2005>
206.826431274414

> <r_mmod_Torsional_Energy-OPLS-2005>
174.575347900391

> <r_mmod_Improper_Torsional_Energy-OPLS-2005>
8.82364368438721

> <r_mmod_Van_der_Waal_Energy-OPLS-2005>
130.805374145508

> <r_mmod_Electrostatic_Energy-OPLS-2005>
-450.593353271484

> <r_mmod_Solvation_Energy-OPLS-2005>
-237.433822631836

> <b_mmod_Minimization_Converged-OPLS-2005>
0

> <r_mmod_RMS_Derivative-OPLS-2005>
1.46614634990692

$$$$
4
                    3D
 Structure written by MMmdl.
158167  0  0  1  0            999 V2000
  -30.6575  -14.7140   20.3977 C   0  0  0  0  0  0
  -30.4080  -12.4316   19.4756 C   0  0  0  0  0  0
  -29.4906  -12.4959   18.2372 C   0  0  0  0  0  0
  -28.0295  -12.2813   18.6718 C   0  0  0  0  0  0
  -27.6284  -13.1884   19.8723 C   0  0  2  0  0  0
  -28.6880  -13.1883   20.9951 C   0  0  0  0  0  0
  -25.2507  -13.8091   20.5885 C   0  0  0  0  0  0
  -24.1795  -13.0380   20.9335 C   0  0  0  0  0  0
  -24.6336  -11.6834   20.8856 C   0  0  0  0  0  0
  -23.9037  -10.4257   21.0445 C   0  0  0  0  0  0
  -24.3587   -9.4167   21.9245 C   0  0  0  0  0  0
  -23.6242   -8.2214   22.0763 C   0  0  0  0  0  0
  -22.4230   -8.0290   21.3551 C   0  0  0  0  0  0
  -21.9855   -9.0248   20.4654 C   0  0  0  0  0  0
  -22.7187  -10.2132   20.3088 C   0  0  0  0  0  0
  -21.6792   -6.0741   22.5272 C   0  0  0  0  0  0
  -21.3991   -6.5658   23.8222 C   0  0  0  0  0  0
  -21.3706   -5.6818   24.9191 C   0  0  0  0  0  0
  -21.6046   -4.3071   24.7240 C   0  0  0  0  0  0
  -21.8772   -3.8160   23.4368 C   0  0  0  0  0  0
  -21.9150   -4.6968   22.3417 C   0  0  0  0  0  0
  -22.7817  -13.5126   21.1984 C   0  0  0  0  0  0
  -22.1639   -4.2139   21.0995 F   0  0  0  0  0  0
  -21.5669   -3.4573   25.7790 F   0  0  0  0  0  0
  -29.9718  -13.5237   20.3654 N   0  0  0  0  0  0
  -26.2886  -12.9186   20.3500 N   0  0  0  0  0  0
  -25.9252  -11.6409   20.5896 N   0  0  0  0  0  0
  -22.0441  -12.8122   22.0494 N   0  0  0  0  0  0
  -25.4153  -15.1867   20.4294 N   0  0  0  0  0  0
  -31.8888  -14.6875   20.3022 O   0  0  0  0  0  0
  -21.6618   -6.8875   21.4237 O   0  0  0  0  0  0
  -22.3541  -14.5430   20.6759 O   0  0  0  0  0  0
  -24.6144  -31.8643   23.2239 C   0  0  0  0  0  0
  -25.9035  -32.4791   23.8504 C   0  0  1  0  0  0
  -27.2112  -27.4015   20.0739 C   0  0  0  0  0  0
  -25.5868  -33.8620   24.2327 N   0  0  0  0  0  0
  -23.4014  -30.4992   21.5590 C   0  0  2  0  0  0
  -24.8496  -28.9855   20.1043 C   0  0  0  0  0  0
  -22.7427  -29.4605   22.4988 C   0  0  0  0  0  0
  -18.0276  -28.1347   22.8442 C   0  0  0  0  0  0
  -24.1520  -36.7385   23.2638 C   0  0  0  0  0  0
  -25.9468  -30.8098   21.4037 C   0  0  0  0  0  0
  -26.0159  -29.4566   20.7196 C   0  0  0  0  0  0
  -27.1998  -28.6734   20.7074 C   0  0  0  0  0  0
  -26.0212  -26.9792   19.4299 C   0  0  0  0  0  0
  -24.8525  -27.7490   19.4534 C   0  0  0  0  0  0
  -23.6153  -29.8548   20.1641 C   0  0  0  0  0  0
  -25.4146  -36.3118   24.0304 C   0  0  1  0  0  0
  -20.5863  -28.3629   23.1332 C   0  0  2  0  0  0
  -20.6791  -26.9383   22.5433 C   0  0  0  0  0  0
  -19.5804  -26.6363   21.5195 C   0  0  0  0  0  0
  -18.1958  -26.7890   22.1581 C   0  0  0  0  0  0
  -19.1521  -28.8811   23.2853 C   0  0  0  0  0  0
  -18.9449  -30.1409   23.8900 C   0  0  0  0  0  0
  -17.6457  -30.6566   24.0534 C   0  0  0  0  0  0
  -25.9042  -34.9453   23.5105 C   0  0  0  0  0  0
  -16.5347  -29.9055   23.6316 C   0  0  0  0  0  0
  -16.7261  -28.6449   23.0355 C   0  0  0  0  0  0
  -26.4480  -31.6668   25.0889 C   0  0  0  0  0  0
  -25.3765  -31.3797   26.1649 C   0  0  0  0  0  0
  -27.0335  -30.3093   24.6416 C   0  0  0  0  0  0
  -27.6015  -32.4478   25.7604 C   0  0  0  0  0  0
  -27.5597  -37.1907   24.8425 C   0  0  0  0  0  0
  -21.4158  -29.2972   22.3739 N   0  0  0  0  0  0
  -26.4322  -37.3810   23.9325 N   0  0  0  0  0  0
  -24.6703  -31.0733   22.1158 N   0  0  0  0  0  0
  -23.4199  -28.8106   23.2989 O   0  0  0  0  0  0
  -28.3380  -26.5823   20.1015 O   0  0  0  0  0  0
  -26.5621  -34.8882   22.4681 O   0  0  0  0  0  0
  -23.5344  -32.1392   23.7638 O   0  0  0  0  0  0
  -29.5916  -19.0931   20.5604 C   0  0  0  0  0  0
  -27.7843  -20.1705   21.5704 C   0  0  0  0  0  0
  -28.9956  -20.3556   20.9637 C   0  0  0  0  0  0
  -28.7560  -17.9893   20.7118 C   0  0  0  0  0  0
  -29.1542  -24.1620   20.2054 C   0  0  0  0  0  0
  -29.4258  -17.0895   17.8594 C   0  0  0  0  0  0
  -28.2065  -16.6788   18.6696 C   0  0  0  0  0  0
  -30.5888  -16.4196   18.6045 C   0  0  0  0  0  0
  -28.7596  -16.5574   20.1099 C   0  0  1  0  0  0
  -28.7940  -22.6622   19.9902 C   0  0  0  0  0  0
  -28.0623  -25.1834   19.8049 C   0  0  0  0  0  0
  -30.0448  -15.8394   19.8544 N   0  0  0  0  0  0
  -29.5718  -21.6423   20.7372 N   0  0  0  0  0  0
  -30.2549  -24.5109   20.6402 O   0  0  0  0  0  0
  -27.3180  -18.4890   21.5881 S   0  0  0  0  0  0
  -31.4564  -12.5165   19.1880 H   0  0  0  0  0  0
  -30.3190  -11.4682   19.9808 H   0  0  0  0  0  0
  -29.7822  -11.7429   17.5032 H   0  0  0  0  0  0
  -29.5745  -13.4713   17.7476 H   0  0  0  0  0  0
  -27.9365  -11.2345   18.9677 H   0  0  0  0  0  0
  -27.3479  -12.4180   17.8289 H   0  0  0  0  0  0
  -27.5797  -14.1901   19.4894 H   0  0  0  0  0  0
  -28.7359  -12.2115   21.4804 H   0  0  0  0  0  0
  -28.4391  -13.9147   21.7745 H   0  0  0  0  0  0
  -25.2700   -9.5642   22.4869 H   0  0  0  0  0  0
  -23.9952   -7.4540   22.7422 H   0  0  0  0  0  0
  -21.0807   -8.8752   19.8932 H   0  0  0  0  0  0
  -22.3618  -10.9724   19.6245 H   0  0  0  0  0  0
  -21.1990   -7.6146   23.9761 H   0  0  0  0  0  0
  -21.1611   -6.0570   25.9109 H   0  0  0  0  0  0
  -22.0503   -2.7624   23.2890 H   0  0  0  0  0  0
  -22.3979  -11.9710   22.4849 H   0  0  0  0  0  0
  -21.1089  -13.1168   22.2811 H   0  0  0  0  0  0
  -24.6519  -15.8330   20.5878 H   0  0  0  0  0  0
  -26.2307  -15.6284   20.0316 H   0  0  0  0  0  0
  -26.7074  -32.5453   23.1221 H   0  0  0  0  0  0
  -24.9944  -33.9806   25.0414 H   0  0  0  0  0  0
  -22.6829  -31.3164   21.4321 H   0  0  0  0  0  0
  -23.3720  -35.9778   23.3308 H   0  0  0  0  0  0
  -24.3618  -36.9022   22.2048 H   0  0  0  0  0  0
  -23.7338  -37.6621   23.6684 H   0  0  0  0  0  0
  -26.1204  -31.6016   20.6756 H   0  0  0  0  0  0
  -26.8035  -30.8113   22.0661 H   0  0  0  0  0  0
  -28.0875  -29.0253   21.2129 H   0  0  0  0  0  0
  -25.9485  -26.0525   18.8831 H   0  0  0  0  0  0
  -23.9599  -27.4085   18.9512 H   0  0  0  0  0  0
  -23.7426  -30.6459   19.4237 H   0  0  0  0  0  0
  -22.7315  -29.2946   19.8467 H   0  0  0  0  0  0
  -25.1360  -36.1973   25.0808 H   0  0  0  0  0  0
  -20.9893  -28.3196   24.1483 H   0  0  0  0  0  0
  -20.5720  -26.2231   23.3609 H   0  0  0  0  0  0
  -21.6662  -26.7485   22.1233 H   0  0  0  0  0  0
  -19.6988  -25.6266   21.1239 H   0  0  0  0  0  0
  -19.6768  -27.3152   20.6710 H   0  0  0  0  0  0
  -17.4253  -26.6599   21.3963 H   0  0  0  0  0  0
  -18.0378  -26.0052   22.9006 H   0  0  0  0  0  0
  -19.7932  -30.7170   24.2342 H   0  0  0  0  0  0
  -17.5029  -31.6268   24.5087 H   0  0  0  0  0  0
  -15.5342  -30.2940   23.7680 H   0  0  0  0  0  0
  -15.8659  -28.0740   22.7139 H   0  0  0  0  0  0
  -24.5891  -30.7151   25.8062 H   0  0  0  0  0  0
  -24.9012  -32.2962   26.5160 H   0  0  0  0  0  0
  -25.8159  -30.8958   27.0384 H   0  0  0  0  0  0
  -26.2905  -29.6806   24.1487 H   0  0  0  0  0  0
  -27.4005  -29.7408   25.4975 H   0  0  0  0  0  0
  -27.8827  -30.4351   23.9695 H   0  0  0  0  0  0
  -27.2562  -33.3760   26.2189 H   0  0  0  0  0  0
  -28.3817  -32.7098   25.0435 H   0  0  0  0  0  0
  -28.0740  -31.8654   26.5528 H   0  0  0  0  0  0
  -28.2624  -38.0198   24.7425 H   0  0  0  0  0  0
  -28.1101  -36.2722   24.6317 H   0  0  0  0  0  0
  -27.2326  -37.1633   25.8839 H   0  0  0  0  0  0
  -20.9349  -29.8680   21.6938 H   0  0  0  0  0  0
  -26.0199  -38.2911   24.1217 H   0  0  0  0  0  0
  -30.5489  -19.0611   20.0628 H   0  0  0  0  0  0
  -27.1315  -20.9242   22.0001 H   0  0  0  0  0  0
  -29.5388  -18.1730   17.8707 H   0  0  0  0  0  0
  -29.3446  -16.7809   16.8171 H   0  0  0  0  0  0
  -27.9048  -15.7299   18.2400 H   0  0  0  0  0  0
  -27.3392  -17.3355   18.5532 H   0  0  0  0  0  0
  -31.3785  -17.1420   18.8117 H   0  0  0  0  0  0
  -31.0141  -15.6383   17.9670 H   0  0  0  0  0  0
  -28.1075  -15.9447   20.7307 H   0  0  0  0  0  0
  -27.7298  -22.5466   20.1864 H   0  0  0  0  0  0
  -28.9136  -22.4558   18.9237 H   0  0  0  0  0  0
  -27.1713  -24.8878   20.3607 H   0  0  0  0  0  0
  -27.8510  -25.0622   18.7425 H   0  0  0  0  0  0
  -30.5704  -21.6796   20.5392 H   0  0  0  0  0  0
  1 25  1  0  0  0
  1 30  2  0  0  0
  1 82  1  0  0  0
  2  3  1  0  0  0
  2 25  1  0  0  0
  2 86  1  0  0  0
  2 87  1  0  0  0
  3  4  1  0  0  0
  3 88  1  0  0  0
  3 89  1  0  0  0
  4  5  1  0  0  0
  4 90  1  0  0  0
  4 91  1  0  0  0
  5  6  1  0  0  0
  5 26  1  0  0  0
  5 92  1  0  0  0
  6 25  1  0  0  0
  6 93  1  0  0  0
  6 94  1  0  0  0
  7  8  2  0  0  0
  7 26  1  0  0  0
  7 29  1  0  0  0
  8  9  1  0  0  0
  8 22  1  0  0  0
  9 10  1  0  0  0
  9 27  2  0  0  0
 10 11  2  0  0  0
 10 15  1  0  0  0
 11 12  1  0  0  0
 11 95  1  0  0  0
 12 13  2  0  0  0
 12 96  1  0  0  0
 13 14  1  0  0  0
 13 31  1  0  0  0
 14 15  2  0  0  0
 14 97  1  0  0  0
 15 98  1  0  0  0
 16 17  2  0  0  0
 16 21  1  0  0  0
 16 31  1  0  0  0
 17 18  1  0  0  0
 17 99  1  0  0  0
 18 19  2  0  0  0
 18100  1  0  0  0
 19 20  1  0  0  0
 19 24  1  0  0  0
 20 21  2  0  0  0
 20101  1  0  0  0
 21 23  1  0  0  0
 22 28  1  0  0  0
 22 32  2  0  0  0
 26 27  1  0  0  0
 28102  1  0  0  0
 28103  1  0  0  0
 29104  1  0  0  0
 29105  1  0  0  0
 33 34  1  0  0  0
 33 66  1  0  0  0
 33 70  2  0  0  0
 34 36  1  0  0  0
 34 59  1  0  0  0
 34106  1  0  0  0
 35 44  2  0  0  0
 35 45  1  0  0  0
 35 68  1  0  0  0
 36 56  1  0  0  0
 36107  1  0  0  0
 37 39  1  0  0  0
 37 47  1  0  0  0
 37 66  1  0  0  0
 37108  1  0  0  0
 38 43  2  0  0  0
 38 46  1  0  0  0
 38 47  1  0  0  0
 39 64  1  0  0  0
 39 67  2  0  0  0
 40 52  1  0  0  0
 40 53  2  0  0  0
 40 58  1  0  0  0
 41109  1  0  0  0
 41110  1  0  0  0
 41111  1  0  0  0
 41 48  1  0  0  0
 42 43  1  0  0  0
 42 66  1  0  0  0
 42112  1  0  0  0
 42113  1  0  0  0
 43 44  1  0  0  0
 44114  1  0  0  0
 45 46  2  0  0  0
 45115  1  0  0  0
 46116  1  0  0  0
 47117  1  0  0  0
 47118  1  0  0  0
 48 56  1  0  0  0
 48 65  1  0  0  0
 48119  1  0  0  0
 49 50  1  0  0  0
 49 53  1  0  0  0
 49 64  1  0  0  0
 49120  1  0  0  0
 50 51  1  0  0  0
 50121  1  0  0  0
 50122  1  0  0  0
 51 52  1  0  0  0
 51123  1  0  0  0
 51124  1  0  0  0
 52125  1  0  0  0
 52126  1  0  0  0
 53 54  1  0  0  0
 54 55  2  0  0  0
 54127  1  0  0  0
 55 57  1  0  0  0
 55128  1  0  0  0
 56 69  2  0  0  0
 57 58  2  0  0  0
 57129  1  0  0  0
 58130  1  0  0  0
 59 60  1  0  0  0
 59 61  1  0  0  0
 59 62  1  0  0  0
 60131  1  0  0  0
 60132  1  0  0  0
 60133  1  0  0  0
 61134  1  0  0  0
 61135  1  0  0  0
 61136  1  0  0  0
 62137  1  0  0  0
 62138  1  0  0  0
 62139  1  0  0  0
 63 65  1  0  0  0
 63140  1  0  0  0
 63141  1  0  0  0
 63142  1  0  0  0
 64143  1  0  0  0
 65144  1  0  0  0
 68 81  1  0  0  0
 71 73  1  0  0  0
 71 74  2  0  0  0
 71145  1  0  0  0
 72 73  2  0  0  0
 72 85  1  0  0  0
 72146  1  0  0  0
 73 83  1  0  0  0
 74 85  1  0  0  0
 74 79  1  0  0  0
 75 80  1  0  0  0
 75 81  1  0  0  0
 75 84  2  0  0  0
 76 77  1  0  0  0
 76 78  1  0  0  0
 76147  1  0  0  0
 76148  1  0  0  0
 77 79  1  0  0  0
 77149  1  0  0  0
 77150  1  0  0  0
 78 82  1  0  0  0
 78151  1  0  0  0
 78152  1  0  0  0
 79 82  1  0  0  0
 79153  1  0  0  0
 80 83  1  0  0  0
 80154  1  0  0  0
 80155  1  0  0  0
 81156  1  0  0  0
 81157  1  0  0  0
 83158  1  0  0  0
M  ISO  4   1 100  68 101  81 101  82 100
M  END
> <chiral flag>
0

> <version>
0

> <s_m_source_file>
/data/baiqing/PycharmProjects/Reinvent-master-3.2/result/LINK_invent/BTK/process_docking_weight1_custom_product_contain_oxygen_bond_distance_aromatic_linkinvent_7_9_3/rearranged_h_0157.sdf

> <i_m_source_file_index>
5

> <r_mmod_Potential_Energy-OPLS-2005>
307.706939697266

> <r_mmod_Stretch_Energy-OPLS-2005>
62.4285888671875

> <r_mmod_Bend_Energy-OPLS-2005>
182.149765014648

> <r_mmod_Torsional_Energy-OPLS-2005>
343.603851318359

> <r_mmod_Improper_Torsional_Energy-OPLS-2005>
30.880823135376

> <r_mmod_Van_der_Waal_Energy-OPLS-2005>
125.535652160645

> <r_mmod_Electrostatic_Energy-OPLS-2005>
-264.173034667969

> <r_mmod_Solvation_Energy-OPLS-2005>
-240.078842163086

> <b_mmod_Minimization_Converged-OPLS-2005>
0

> <r_mmod_RMS_Derivative-OPLS-2005>
8.18310642242432

$$$$
5
                    3D
 Structure written by MMmdl.
170179  0  0  1  0            999 V2000
  -30.6563  -14.5389   20.6457 C   0  0  0  0  0  0
  -30.4389  -12.3704   19.4304 C   0  0  0  0  0  0
  -29.5015  -12.5424   18.2142 C   0  0  0  0  0  0
  -28.0244  -12.3748   18.6201 C   0  0  0  0  0  0
  -27.6636  -13.2070   19.8771 C   0  0  2  0  0  0
  -28.7007  -12.9816   21.0010 C   0  0  0  0  0  0
  -25.2614  -13.8176   20.5684 C   0  0  0  0  0  0
  -24.1849  -13.0461   20.9173 C   0  0  0  0  0  0
  -24.6393  -11.6919   20.8731 C   0  0  0  0  0  0
  -23.9050  -10.4307   21.0407 C   0  0  0  0  0  0
  -24.3604   -9.4224   21.9192 C   0  0  0  0  0  0
  -23.6274   -8.2260   22.0776 C   0  0  0  0  0  0
  -22.4264   -8.0287   21.3552 C   0  0  0  0  0  0
  -21.9892   -9.0269   20.4668 C   0  0  0  0  0  0
  -22.7219  -10.2152   20.3063 C   0  0  0  0  0  0
  -21.6857   -6.0731   22.5274 C   0  0  0  0  0  0
  -21.4019   -6.5642   23.8202 C   0  0  0  0  0  0
  -21.3654   -5.6806   24.9166 C   0  0  0  0  0  0
  -21.6042   -4.3064   24.7220 C   0  0  0  0  0  0
  -21.8821   -3.8142   23.4345 C   0  0  0  0  0  0
  -21.9189   -4.6956   22.3402 C   0  0  0  0  0  0
  -22.7870  -13.5270   21.1816 C   0  0  0  0  0  0
  -22.1660   -4.2137   21.0978 F   0  0  0  0  0  0
  -21.5616   -3.4553   25.7731 F   0  0  0  0  0  0
  -30.0366  -13.3289   20.4781 N   0  0  0  0  0  0
  -26.3028  -12.9330   20.3337 N   0  0  0  0  0  0
  -25.9316  -11.6493   20.5747 N   0  0  0  0  0  0
  -22.0478  -12.8296   22.0375 N   0  0  0  0  0  0
  -25.4395  -15.1895   20.4131 N   0  0  0  0  0  0
  -31.6836  -14.8489   20.0331 O   0  0  0  0  0  0
  -21.6638   -6.8873   21.4237 O   0  0  0  0  0  0
  -22.3562  -14.5568   20.6638 O   0  0  0  0  0  0
  -24.6226  -31.8616   23.2035 C   0  0  0  0  0  0
  -25.9091  -32.4784   23.8358 C   0  0  1  0  0  0
  -27.2280  -27.3433   20.1261 C   0  0  0  0  0  0
  -25.5926  -33.8583   24.2293 N   0  0  0  0  0  0
  -23.4142  -30.4838   21.5450 C   0  0  2  0  0  0
  -24.8624  -28.9386   20.1132 C   0  0  0  0  0  0
  -22.7451  -29.4629   22.4948 C   0  0  0  0  0  0
  -18.0283  -28.1380   22.8495 C   0  0  0  0  0  0
  -24.1484  -36.7295   23.2635 C   0  0  0  0  0  0
  -25.9516  -30.8013   21.3692 C   0  0  0  0  0  0
  -26.0269  -29.4288   20.7165 C   0  0  0  0  0  0
  -27.2116  -28.6406   20.7157 C   0  0  0  0  0  0
  -26.0431  -26.8981   19.4964 C   0  0  0  0  0  0
  -24.8697  -27.6771   19.4975 C   0  0  0  0  0  0
  -23.6280  -29.8156   20.1610 C   0  0  0  0  0  0
  -25.4106  -36.3086   24.0335 C   0  0  1  0  0  0
  -20.5880  -28.3684   23.1295 C   0  0  2  0  0  0
  -20.6769  -26.9411   22.5411 C   0  0  0  0  0  0
  -19.5740  -26.6379   21.5221 C   0  0  0  0  0  0
  -18.1923  -26.7926   22.1635 C   0  0  0  0  0  0
  -19.1537  -28.8848   23.2889 C   0  0  0  0  0  0
  -18.9460  -30.1456   23.8897 C   0  0  0  0  0  0
  -17.6460  -30.6586   24.0559 C   0  0  0  0  0  0
  -25.9042  -34.9453   23.5110 C   0  0  0  0  0  0
  -16.5352  -29.9082   23.6333 C   0  0  0  0  0  0
  -16.7271  -28.6500   23.0356 C   0  0  0  0  0  0
  -26.4488  -31.6586   25.0715 C   0  0  0  0  0  0
  -25.3736  -31.3728   26.1456 C   0  0  0  0  0  0
  -27.0326  -30.3015   24.6143 C   0  0  0  0  0  0
  -27.6051  -32.4317   25.7484 C   0  0  0  0  0  0
  -27.5583  -37.1790   24.8456 C   0  0  0  0  0  0
  -21.4168  -29.3039   22.3688 N   0  0  0  0  0  0
  -26.4282  -37.3783   23.9418 N   0  0  0  0  0  0
  -24.6810  -31.0657   22.0968 N   0  0  0  0  0  0
  -23.4190  -28.8172   23.3018 O   0  0  0  0  0  0
  -28.3663  -26.5349   20.1949 O   0  0  0  0  0  0
  -26.5600  -34.8923   22.4670 O   0  0  0  0  0  0
  -23.5397  -32.1407   23.7383 O   0  0  0  0  0  0
  -29.9251  -17.8014   20.8442 C   0  0  0  0  0  0
  -28.0345  -19.0822   21.7246 C   0  0  0  0  0  0
  -28.3808  -16.7714   22.4186 C   0  0  0  0  0  0
  -29.1876  -19.0448   20.9118 C   0  0  0  0  0  0
  -29.5089  -16.6401   21.5783 C   0  0  0  0  0  0
  -27.6504  -17.9694   22.4893 C   0  0  0  0  0  0
  -29.5319  -20.2415   20.0669 C   0  0  0  0  0  0
  -29.3294  -23.5409   21.8245 C   0  0  0  0  0  0
  -28.8277  -22.0988   21.6468 C   0  0  0  0  0  0
  -29.4896  -24.1541   20.4100 C   0  0  1  0  0  0
  -29.8360  -22.8126   19.5730 C   0  0  0  0  0  0
  -31.3766  -22.7280   19.3804 C   0  0  0  0  0  0
  -29.1808  -22.8260   18.1718 C   0  0  0  0  0  0
  -30.9390  -25.8592   21.4499 C   0  0  0  0  0  0
  -28.2552  -25.0823   19.9615 C   0  0  0  0  0  0
  -29.3970  -21.5969   20.3789 N   0  0  0  0  0  0
  -30.1205  -15.3230   21.6129 N   0  0  0  0  0  0
  -29.9957  -19.9236   18.8632 N   0  3  0  0  0  0
  -30.6216  -25.0416   20.3226 O   0  0  0  0  0  0
  -26.5597  -18.0491   23.2882 F   0  0  0  0  0  0
  -31.4785  -12.5075   19.1297 H   0  0  0  0  0  0
  -30.3752  -11.3511   19.8171 H   0  0  0  0  0  0
  -29.7580  -11.8216   17.4373 H   0  0  0  0  0  0
  -29.6487  -13.5293   17.7731 H   0  0  0  0  0  0
  -27.8520  -11.3158   18.8148 H   0  0  0  0  0  0
  -27.3696  -12.6422   17.7884 H   0  0  0  0  0  0
  -27.7086  -14.2572   19.5860 H   0  0  0  0  0  0
  -28.6950  -11.9377   21.3181 H   0  0  0  0  0  0
  -28.4170  -13.5468   21.8881 H   0  0  0  0  0  0
  -25.2761   -9.5700   22.4751 H   0  0  0  0  0  0
  -23.9980   -7.4677   22.7528 H   0  0  0  0  0  0
  -21.0803   -8.8804   19.8996 H   0  0  0  0  0  0
  -22.3688  -10.9691   19.6164 H   0  0  0  0  0  0
  -21.2028   -7.6159   23.9702 H   0  0  0  0  0  0
  -21.1466   -6.0536   25.9066 H   0  0  0  0  0  0
  -22.0596   -2.7597   23.2864 H   0  0  0  0  0  0
  -22.4053  -11.9960   22.4802 H   0  0  0  0  0  0
  -21.1102  -13.1371   22.2535 H   0  0  0  0  0  0
  -24.6796  -15.8511   20.5266 H   0  0  0  0  0  0
  -26.2876  -15.6147   20.0627 H   0  0  0  0  0  0
  -26.7161  -32.5473   23.1112 H   0  0  0  0  0  0
  -25.0094  -33.9727   25.0451 H   0  0  0  0  0  0
  -22.7061  -31.3024   21.4014 H   0  0  0  0  0  0
  -23.3739  -35.9635   23.3297 H   0  0  0  0  0  0
  -24.3573  -36.8903   22.2048 H   0  0  0  0  0  0
  -23.7240  -37.6503   23.6641 H   0  0  0  0  0  0
  -26.0752  -31.5625   20.5975 H   0  0  0  0  0  0
  -26.8351  -30.8545   21.9937 H   0  0  0  0  0  0
  -28.1038  -29.0097   21.2015 H   0  0  0  0  0  0
  -25.9986  -25.9359   19.0093 H   0  0  0  0  0  0
  -23.9740  -27.2938   19.0284 H   0  0  0  0  0  0
  -23.7450  -30.5917   19.4040 H   0  0  0  0  0  0
  -22.7501  -29.2417   19.8589 H   0  0  0  0  0  0
  -25.1279  -36.1930   25.0827 H   0  0  0  0  0  0
  -20.9977  -28.3258   24.1414 H   0  0  0  0  0  0
  -20.5690  -26.2290   23.3603 H   0  0  0  0  0  0
  -21.6631  -26.7445   22.1185 H   0  0  0  0  0  0
  -19.6890  -25.6293   21.1239 H   0  0  0  0  0  0
  -19.6672  -27.3201   20.6761 H   0  0  0  0  0  0
  -17.4188  -26.6688   21.4037 H   0  0  0  0  0  0
  -18.0318  -26.0065   22.9030 H   0  0  0  0  0  0
  -19.7932  -30.7279   24.2261 H   0  0  0  0  0  0
  -17.5009  -31.6269   24.5155 H   0  0  0  0  0  0
  -15.5350  -30.2982   23.7653 H   0  0  0  0  0  0
  -15.8673  -28.0819   22.7067 H   0  0  0  0  0  0
  -24.5893  -30.7093   25.7797 H   0  0  0  0  0  0
  -24.8955  -32.2905   26.4897 H   0  0  0  0  0  0
  -25.8075  -30.8896   27.0218 H   0  0  0  0  0  0
  -26.2893  -29.6769   24.1173 H   0  0  0  0  0  0
  -27.4044  -29.7263   25.4631 H   0  0  0  0  0  0
  -27.8751  -30.4312   23.9346 H   0  0  0  0  0  0
  -27.2658  -33.3610   26.2072 H   0  0  0  0  0  0
  -28.3860  -32.6886   25.0315 H   0  0  0  0  0  0
  -28.0717  -31.8433   26.5393 H   0  0  0  0  0  0
  -28.2571  -38.0119   24.7545 H   0  0  0  0  0  0
  -28.1108  -36.2649   24.6217 H   0  0  0  0  0  0
  -27.2305  -37.1356   25.8859 H   0  0  0  0  0  0
  -20.9331  -29.8778   21.6923 H   0  0  0  0  0  0
  -26.0160  -38.2851   24.1443 H   0  0  0  0  0  0
  -30.8042  -17.7321   20.2184 H   0  0  0  0  0  0
  -27.4057  -19.9556   21.7660 H   0  0  0  0  0  0
  -28.0429  -15.9390   23.0171 H   0  0  0  0  0  0
  -30.2816  -23.4728   22.3487 H   0  0  0  0  0  0
  -28.6580  -24.1278   22.4517 H   0  0  0  0  0  0
  -27.7384  -22.0975   21.5844 H   0  0  0  0  0  0
  -29.1184  -21.4904   22.5050 H   0  0  0  0  0  0
  -31.7402  -23.5327   18.7406 H   0  0  0  0  0  0
  -31.7138  -21.8045   18.9158 H   0  0  0  0  0  0
  -31.8992  -22.8090   20.3343 H   0  0  0  0  0  0
  -29.3970  -23.7595   17.6528 H   0  0  0  0  0  0
  -28.0980  -22.7130   18.2311 H   0  0  0  0  0  0
  -29.5535  -22.0459   17.5117 H   0  0  0  0  0  0
  -31.5802  -26.6793   21.1288 H   0  0  0  0  0  0
  -31.4953  -25.3015   22.2039 H   0  0  0  0  0  0
  -30.0598  -26.2928   21.9274 H   0  0  0  0  0  0
  -27.3464  -24.6949   20.4230 H   0  0  0  0  0  0
  -28.0951  -25.0058   18.8889 H   0  0  0  0  0  0
  -29.6510  -14.7213   22.2721 H   0  0  0  0  0  0
  -30.0381  -18.9514   18.5970 H   0  0  0  0  0  0
  -30.2030  -20.6221   18.1726 H   0  0  0  0  0  0
  1 25  1  0  0  0
  1 30  2  0  0  0
  1 87  1  0  0  0
  2  3  1  0  0  0
  2 25  1  0  0  0
  2 91  1  0  0  0
  2 92  1  0  0  0
  3  4  1  0  0  0
  3 93  1  0  0  0
  3 94  1  0  0  0
  4  5  1  0  0  0
  4 95  1  0  0  0
  4 96  1  0  0  0
  5  6  1  0  0  0
  5 26  1  0  0  0
  5 97  1  0  0  0
  6 25  1  0  0  0
  6 98  1  0  0  0
  6 99  1  0  0  0
  7  8  2  0  0  0
  7 26  1  0  0  0
  7 29  1  0  0  0
  8  9  1  0  0  0
  8 22  1  0  0  0
  9 10  1  0  0  0
  9 27  2  0  0  0
 10 11  2  0  0  0
 10 15  1  0  0  0
 11 12  1  0  0  0
 11100  1  0  0  0
 12 13  2  0  0  0
 12101  1  0  0  0
 13 14  1  0  0  0
 13 31  1  0  0  0
 14 15  2  0  0  0
 14102  1  0  0  0
 15103  1  0  0  0
 16 17  2  0  0  0
 16 21  1  0  0  0
 16 31  1  0  0  0
 17 18  1  0  0  0
 17104  1  0  0  0
 18 19  2  0  0  0
 18105  1  0  0  0
 19 20  1  0  0  0
 19 24  1  0  0  0
 20 21  2  0  0  0
 20106  1  0  0  0
 21 23  1  0  0  0
 22 28  1  0  0  0
 22 32  2  0  0  0
 26 27  1  0  0  0
 28107  1  0  0  0
 28108  1  0  0  0
 29109  1  0  0  0
 29110  1  0  0  0
 33 34  1  0  0  0
 33 66  1  0  0  0
 33 70  2  0  0  0
 34 36  1  0  0  0
 34 59  1  0  0  0
 34111  1  0  0  0
 35 44  2  0  0  0
 35 45  1  0  0  0
 35 68  1  0  0  0
 36 56  1  0  0  0
 36112  1  0  0  0
 37 39  1  0  0  0
 37 47  1  0  0  0
 37 66  1  0  0  0
 37113  1  0  0  0
 38 43  2  0  0  0
 38 46  1  0  0  0
 38 47  1  0  0  0
 39 64  1  0  0  0
 39 67  2  0  0  0
 40 52  1  0  0  0
 40 53  2  0  0  0
 40 58  1  0  0  0
 41114  1  0  0  0
 41115  1  0  0  0
 41116  1  0  0  0
 41 48  1  0  0  0
 42 43  1  0  0  0
 42 66  1  0  0  0
 42117  1  0  0  0
 42118  1  0  0  0
 43 44  1  0  0  0
 44119  1  0  0  0
 45 46  2  0  0  0
 45120  1  0  0  0
 46121  1  0  0  0
 47122  1  0  0  0
 47123  1  0  0  0
 48 56  1  0  0  0
 48 65  1  0  0  0
 48124  1  0  0  0
 49 50  1  0  0  0
 49 53  1  0  0  0
 49 64  1  0  0  0
 49125  1  0  0  0
 50 51  1  0  0  0
 50126  1  0  0  0
 50127  1  0  0  0
 51 52  1  0  0  0
 51128  1  0  0  0
 51129  1  0  0  0
 52130  1  0  0  0
 52131  1  0  0  0
 53 54  1  0  0  0
 54 55  2  0  0  0
 54132  1  0  0  0
 55 57  1  0  0  0
 55133  1  0  0  0
 56 69  2  0  0  0
 57 58  2  0  0  0
 57134  1  0  0  0
 58135  1  0  0  0
 59 60  1  0  0  0
 59 61  1  0  0  0
 59 62  1  0  0  0
 60136  1  0  0  0
 60137  1  0  0  0
 60138  1  0  0  0
 61139  1  0  0  0
 61140  1  0  0  0
 61141  1  0  0  0
 62142  1  0  0  0
 62143  1  0  0  0
 62144  1  0  0  0
 63 65  1  0  0  0
 63145  1  0  0  0
 63146  1  0  0  0
 63147  1  0  0  0
 64148  1  0  0  0
 65149  1  0  0  0
 68 85  1  0  0  0
 71 74  2  0  0  0
 71 75  1  0  0  0
 71150  1  0  0  0
 72 74  1  0  0  0
 72 76  2  0  0  0
 72151  1  0  0  0
 73 75  2  0  0  0
 73 76  1  0  0  0
 73152  1  0  0  0
 74 77  1  0  0  0
 75 87  1  0  0  0
 76 90  1  0  0  0
 77 86  1  0  0  0
 77 88  2  0  0  0
 78 79  1  0  0  0
 78 80  1  0  0  0
 78153  1  0  0  0
 78154  1  0  0  0
 79 86  1  0  0  0
 79155  1  0  0  0
 79156  1  0  0  0
 80 81  1  0  0  0
 80 85  1  0  0  0
 80 89  1  0  0  0
 81 82  1  0  0  0
 81 83  1  0  0  0
 81 86  1  0  0  0
 82157  1  0  0  0
 82158  1  0  0  0
 82159  1  0  0  0
 83160  1  0  0  0
 83161  1  0  0  0
 83162  1  0  0  0
 84 89  1  0  0  0
 84163  1  0  0  0
 84164  1  0  0  0
 84165  1  0  0  0
 85166  1  0  0  0
 85167  1  0  0  0
 87168  1  0  0  0
 88169  1  0  0  0
 88170  1  0  0  0
M  CHG  1  88   1
M  ISO  4   1 100  68 101  85 101  87 100
M  END
> <chiral flag>
0

> <version>
0

> <s_m_source_file>
/data/baiqing/PycharmProjects/Reinvent-master-3.2/result/LINK_invent/BTK/process_docking_weight1_custom_product_contain_oxygen_bond_distance_aromatic_linkinvent_7_9_3/rearranged_h_0157.sdf

> <i_m_source_file_index>
6

> <r_mmod_Potential_Energy-OPLS-2005>
20.8240489959717

> <r_mmod_Stretch_Energy-OPLS-2005>
89.0893173217773

> <r_mmod_Bend_Energy-OPLS-2005>
190.222534179688

> <r_mmod_Torsional_Energy-OPLS-2005>
357.653778076172

> <r_mmod_Improper_Torsional_Energy-OPLS-2005>
6.39197397232056

> <r_mmod_Van_der_Waal_Energy-OPLS-2005>
168.045272827148

> <r_mmod_Electrostatic_Energy-OPLS-2005>
-416.879791259766

> <r_mmod_Solvation_Energy-OPLS-2005>
-406.02783203125

> <b_mmod_Minimization_Converged-OPLS-2005>
0

> <r_mmod_RMS_Derivative-OPLS-2005>
2.09997367858887

$$$$
6
                    3D
 Structure written by MMmdl.
161170  0  0  1  0            999 V2000
  -30.6377  -14.5509   20.5592 C   0  0  0  0  0  0
  -30.4364  -12.3492   19.4314 C   0  0  0  0  0  0
  -29.4992  -12.5176   18.2148 C   0  0  0  0  0  0
  -28.0212  -12.3607   18.6273 C   0  0  0  0  0  0
  -27.6604  -13.2035   19.8789 C   0  0  2  0  0  0
  -28.7039  -12.9905   20.9996 C   0  0  0  0  0  0
  -25.2576  -13.8130   20.5642 C   0  0  0  0  0  0
  -24.1841  -13.0416   20.9190 C   0  0  0  0  0  0
  -24.6400  -11.6882   20.8755 C   0  0  0  0  0  0
  -23.9065  -10.4273   21.0427 C   0  0  0  0  0  0
  -24.3612   -9.4189   21.9204 C   0  0  0  0  0  0
  -23.6279   -8.2229   22.0761 C   0  0  0  0  0  0
  -22.4264   -8.0278   21.3545 C   0  0  0  0  0  0
  -21.9911   -9.0257   20.4647 C   0  0  0  0  0  0
  -22.7244  -10.2130   20.3070 C   0  0  0  0  0  0
  -21.6839   -6.0739   22.5279 C   0  0  0  0  0  0
  -21.4003   -6.5639   23.8217 C   0  0  0  0  0  0
  -21.3672   -5.6795   24.9173 C   0  0  0  0  0  0
  -21.6055   -4.3063   24.7224 C   0  0  0  0  0  0
  -21.8816   -3.8154   23.4348 C   0  0  0  0  0  0
  -21.9185   -4.6967   22.3402 C   0  0  0  0  0  0
  -22.7866  -13.5220   21.1861 C   0  0  0  0  0  0
  -22.1644   -4.2156   21.0976 F   0  0  0  0  0  0
  -21.5647   -3.4552   25.7745 F   0  0  0  0  0  0
  -30.0285  -13.3333   20.4488 N   0  0  0  0  0  0
  -26.3017  -12.9291   20.3374 N   0  0  0  0  0  0
  -25.9331  -11.6458   20.5803 N   0  0  0  0  0  0
  -22.0508  -12.8204   22.0411 N   0  0  0  0  0  0
  -25.4261  -15.1839   20.3930 N   0  0  0  0  0  0
  -31.7779  -14.7614   20.1303 O   0  0  0  0  0  0
  -21.6624   -6.8882   21.4240 O   0  0  0  0  0  0
  -22.3562  -14.5540   20.6730 O   0  0  0  0  0  0
  -24.6208  -31.8633   23.2111 C   0  0  0  0  0  0
  -25.9083  -32.4791   23.8431 C   0  0  1  0  0  0
  -27.2364  -27.3859   20.1211 C   0  0  0  0  0  0
  -25.5929  -33.8592   24.2344 N   0  0  0  0  0  0
  -23.4139  -30.4852   21.5493 C   0  0  2  0  0  0
  -24.8649  -28.9438   20.1213 C   0  0  0  0  0  0
  -22.7453  -29.4631   22.4972 C   0  0  0  0  0  0
  -18.0277  -28.1404   22.8499 C   0  0  0  0  0  0
  -24.1479  -36.7271   23.2646 C   0  0  0  0  0  0
  -25.9481  -30.8140   21.3746 C   0  0  0  0  0  0
  -26.0267  -29.4436   20.7251 C   0  0  0  0  0  0
  -27.2188  -28.6718   20.7233 C   0  0  0  0  0  0
  -26.0612  -26.9142   19.5055 C   0  0  0  0  0  0
  -24.8788  -27.6791   19.5088 C   0  0  0  0  0  0
  -23.6287  -29.8163   20.1656 C   0  0  0  0  0  0
  -25.4105  -36.3078   24.0342 C   0  0  1  0  0  0
  -20.5876  -28.3687   23.1291 C   0  0  2  0  0  0
  -20.6764  -26.9406   22.5417 C   0  0  0  0  0  0
  -19.5738  -26.6396   21.5219 C   0  0  0  0  0  0
  -18.1915  -26.7960   22.1617 C   0  0  0  0  0  0
  -19.1533  -28.8865   23.2896 C   0  0  0  0  0  0
  -18.9456  -30.1477   23.8902 C   0  0  0  0  0  0
  -17.6450  -30.6604   24.0573 C   0  0  0  0  0  0
  -25.9034  -34.9447   23.5130 C   0  0  0  0  0  0
  -16.5341  -29.9099   23.6350 C   0  0  0  0  0  0
  -16.7264  -28.6518   23.0369 C   0  0  0  0  0  0
  -26.4510  -31.6593   25.0775 C   0  0  0  0  0  0
  -25.3769  -31.3661   26.1504 C   0  0  0  0  0  0
  -27.0392  -30.3047   24.6200 C   0  0  0  0  0  0
  -27.6091  -32.4338   25.7506 C   0  0  0  0  0  0
  -27.5576  -37.1773   24.8464 C   0  0  0  0  0  0
  -21.4177  -29.3039   22.3688 N   0  0  0  0  0  0
  -26.4276  -37.3782   23.9434 N   0  0  0  0  0  0
  -24.6787  -31.0699   22.1029 N   0  0  0  0  0  0
  -23.4186  -28.8177   23.3051 O   0  0  0  0  0  0
  -28.3604  -26.5784   20.0733 O   0  0  0  0  0  0
  -26.5586  -34.8894   22.4689 O   0  0  0  0  0  0
  -23.5380  -32.1406   23.7457 O   0  0  0  0  0  0
  -28.6569  -19.1073   20.9561 C   0  0  0  0  0  0
  -28.6871  -17.6920   20.9326 C   0  0  0  0  0  0
  -31.0962  -17.7298   21.0675 C   0  0  0  0  0  0
  -29.8371  -19.8795   21.0754 C   0  0  0  0  0  0
  -31.0712  -19.1553   21.1232 C   0  0  0  0  0  0
  -29.9020  -16.9715   20.9883 C   0  0  0  0  0  0
  -28.4498  -23.4735   22.1415 C   0  0  0  0  0  0
  -28.8395  -24.3046   21.1485 C   0  0  0  0  0  0
  -28.6814  -21.9565   22.1878 C   0  0  0  0  0  0
  -29.5656  -23.7263   19.9318 C   0  0  0  0  0  0
  -29.5230  -22.1653   19.8293 C   0  0  0  0  0  0
  -29.7486  -21.4421   21.1803 C   0  0  2  0  0  0
  -32.4021  -19.8764   21.2670 C   0  0  0  0  0  0
  -28.6790  -25.8463   21.2789 C   0  0  0  0  0  0
  -29.8296  -15.5309   21.0393 N   0  0  0  0  0  0
  -31.4782  -12.4740   19.1305 H   0  0  0  0  0  0
  -30.3644  -11.3370   19.8327 H   0  0  0  0  0  0
  -29.7503  -11.7909   17.4413 H   0  0  0  0  0  0
  -29.6493  -13.5020   17.7672 H   0  0  0  0  0  0
  -27.8446  -11.3033   18.8291 H   0  0  0  0  0  0
  -27.3658  -12.6242   17.7955 H   0  0  0  0  0  0
  -27.6997  -14.2506   19.5772 H   0  0  0  0  0  0
  -28.7009  -11.9509   21.3295 H   0  0  0  0  0  0
  -28.4569  -13.5721   21.8894 H   0  0  0  0  0  0
  -25.2755   -9.5654   22.4790 H   0  0  0  0  0  0
  -23.9993   -7.4609   22.7470 H   0  0  0  0  0  0
  -21.0857   -8.8775   19.8930 H   0  0  0  0  0  0
  -22.3721  -10.9679   19.6182 H   0  0  0  0  0  0
  -21.1974   -7.6144   23.9728 H   0  0  0  0  0  0
  -21.1500   -6.0520   25.9081 H   0  0  0  0  0  0
  -22.0583   -2.7616   23.2844 H   0  0  0  0  0  0
  -22.4115  -11.9828   22.4742 H   0  0  0  0  0  0
  -21.1137  -13.1239   22.2639 H   0  0  0  0  0  0
  -24.6433  -15.8249   20.4636 H   0  0  0  0  0  0
  -26.2453  -15.6059   19.9763 H   0  0  0  0  0  0
  -26.7164  -32.5481   23.1198 H   0  0  0  0  0  0
  -25.0161  -33.9784   25.0543 H   0  0  0  0  0  0
  -22.7056  -31.3030   21.4042 H   0  0  0  0  0  0
  -23.3767  -35.9570   23.3279 H   0  0  0  0  0  0
  -24.3572  -36.8934   22.2066 H   0  0  0  0  0  0
  -23.7186  -37.6445   23.6686 H   0  0  0  0  0  0
  -26.0722  -31.5803   20.6077 H   0  0  0  0  0  0
  -26.8311  -30.8646   22.0000 H   0  0  0  0  0  0
  -28.1174  -29.0565   21.1841 H   0  0  0  0  0  0
  -26.0574  -25.9397   19.0376 H   0  0  0  0  0  0
  -23.9854  -27.2872   19.0429 H   0  0  0  0  0  0
  -23.7407  -30.5917   19.4072 H   0  0  0  0  0  0
  -22.7524  -29.2394   19.8639 H   0  0  0  0  0  0
  -25.1276  -36.1935   25.0833 H   0  0  0  0  0  0
  -20.9968  -28.3262   24.1406 H   0  0  0  0  0  0
  -20.5681  -26.2287   23.3621 H   0  0  0  0  0  0
  -21.6628  -26.7440   22.1176 H   0  0  0  0  0  0
  -19.6885  -25.6306   21.1250 H   0  0  0  0  0  0
  -19.6695  -27.3209   20.6750 H   0  0  0  0  0  0
  -17.4188  -26.6760   21.4011 H   0  0  0  0  0  0
  -18.0277  -26.0091   22.8990 H   0  0  0  0  0  0
  -19.7921  -30.7322   24.2257 H   0  0  0  0  0  0
  -17.4983  -31.6280   24.5182 H   0  0  0  0  0  0
  -15.5342  -30.2988   23.7694 H   0  0  0  0  0  0
  -15.8665  -28.0836   22.7085 H   0  0  0  0  0  0
  -24.5990  -30.6960   25.7828 H   0  0  0  0  0  0
  -24.8895  -32.2781   26.4967 H   0  0  0  0  0  0
  -25.8126  -30.8833   27.0265 H   0  0  0  0  0  0
  -26.2971  -29.6726   24.1308 H   0  0  0  0  0  0
  -27.4238  -29.7360   25.4685 H   0  0  0  0  0  0
  -27.8766  -30.4391   23.9339 H   0  0  0  0  0  0
  -27.2752  -33.3685   26.2022 H   0  0  0  0  0  0
  -28.3908  -32.6830   25.0312 H   0  0  0  0  0  0
  -28.0750  -31.8504   26.5456 H   0  0  0  0  0  0
  -28.2550  -38.0112   24.7564 H   0  0  0  0  0  0
  -28.1124  -36.2646   24.6224 H   0  0  0  0  0  0
  -27.2292  -37.1319   25.8864 H   0  0  0  0  0  0
  -20.9367  -29.8700   21.6836 H   0  0  0  0  0  0
  -26.0154  -38.2840   24.1518 H   0  0  0  0  0  0
  -27.6959  -19.5971   20.9028 H   0  0  0  0  0  0
  -27.7478  -17.1616   20.8775 H   0  0  0  0  0  0
  -32.0445  -17.2148   21.1255 H   0  0  0  0  0  0
  -27.9506  -23.8859   23.0082 H   0  0  0  0  0  0
  -27.7103  -21.4950   22.0139 H   0  0  0  0  0  0
  -28.9740  -21.6758   23.2004 H   0  0  0  0  0  0
  -30.6025  -24.0612   19.9785 H   0  0  0  0  0  0
  -29.1424  -24.1612   19.0260 H   0  0  0  0  0  0
  -30.2656  -21.8322   19.1029 H   0  0  0  0  0  0
  -28.5558  -21.8595   19.4277 H   0  0  0  0  0  0
  -30.7019  -21.8002   21.5651 H   0  0  0  0  0  0
  -33.2440  -19.1904   21.1586 H   0  0  0  0  0  0
  -32.4823  -20.3330   22.2541 H   0  0  0  0  0  0
  -32.5150  -20.6527   20.5101 H   0  0  0  0  0  0
  -29.6330  -26.2384   21.6331 H   0  0  0  0  0  0
  -27.9578  -26.0654   22.0702 H   0  0  0  0  0  0
  -28.9276  -15.1701   21.3117 H   0  0  0  0  0  0
  1 25  1  0  0  0
  1 30  2  0  0  0
  1 85  1  0  0  0
  2  3  1  0  0  0
  2 25  1  0  0  0
  2 86  1  0  0  0
  2 87  1  0  0  0
  3  4  1  0  0  0
  3 88  1  0  0  0
  3 89  1  0  0  0
  4  5  1  0  0  0
  4 90  1  0  0  0
  4 91  1  0  0  0
  5  6  1  0  0  0
  5 26  1  0  0  0
  5 92  1  0  0  0
  6 25  1  0  0  0
  6 93  1  0  0  0
  6 94  1  0  0  0
  7  8  2  0  0  0
  7 26  1  0  0  0
  7 29  1  0  0  0
  8  9  1  0  0  0
  8 22  1  0  0  0
  9 10  1  0  0  0
  9 27  2  0  0  0
 10 11  2  0  0  0
 10 15  1  0  0  0
 11 12  1  0  0  0
 11 95  1  0  0  0
 12 13  2  0  0  0
 12 96  1  0  0  0
 13 14  1  0  0  0
 13 31  1  0  0  0
 14 15  2  0  0  0
 14 97  1  0  0  0
 15 98  1  0  0  0
 16 17  2  0  0  0
 16 21  1  0  0  0
 16 31  1  0  0  0
 17 18  1  0  0  0
 17 99  1  0  0  0
 18 19  2  0  0  0
 18100  1  0  0  0
 19 20  1  0  0  0
 19 24  1  0  0  0
 20 21  2  0  0  0
 20101  1  0  0  0
 21 23  1  0  0  0
 22 28  1  0  0  0
 22 32  2  0  0  0
 26 27  1  0  0  0
 28102  1  0  0  0
 28103  1  0  0  0
 29104  1  0  0  0
 29105  1  0  0  0
 33 34  1  0  0  0
 33 66  1  0  0  0
 33 70  2  0  0  0
 34 36  1  0  0  0
 34 59  1  0  0  0
 34106  1  0  0  0
 35 44  2  0  0  0
 35 45  1  0  0  0
 35 68  1  0  0  0
 36 56  1  0  0  0
 36107  1  0  0  0
 37 39  1  0  0  0
 37 47  1  0  0  0
 37 66  1  0  0  0
 37108  1  0  0  0
 38 43  2  0  0  0
 38 46  1  0  0  0
 38 47  1  0  0  0
 39 64  1  0  0  0
 39 67  2  0  0  0
 40 52  1  0  0  0
 40 53  2  0  0  0
 40 58  1  0  0  0
 41109  1  0  0  0
 41110  1  0  0  0
 41111  1  0  0  0
 41 48  1  0  0  0
 42 43  1  0  0  0
 42 66  1  0  0  0
 42112  1  0  0  0
 42113  1  0  0  0
 43 44  1  0  0  0
 44114  1  0  0  0
 45 46  2  0  0  0
 45115  1  0  0  0
 46116  1  0  0  0
 47117  1  0  0  0
 47118  1  0  0  0
 48 56  1  0  0  0
 48 65  1  0  0  0
 48119  1  0  0  0
 49 50  1  0  0  0
 49 53  1  0  0  0
 49 64  1  0  0  0
 49120  1  0  0  0
 50 51  1  0  0  0
 50121  1  0  0  0
 50122  1  0  0  0
 51 52  1  0  0  0
 51123  1  0  0  0
 51124  1  0  0  0
 52125  1  0  0  0
 52126  1  0  0  0
 53 54  1  0  0  0
 54 55  2  0  0  0
 54127  1  0  0  0
 55 57  1  0  0  0
 55128  1  0  0  0
 56 69  2  0  0  0
 57 58  2  0  0  0
 57129  1  0  0  0
 58130  1  0  0  0
 59 60  1  0  0  0
 59 61  1  0  0  0
 59 62  1  0  0  0
 60131  1  0  0  0
 60132  1  0  0  0
 60133  1  0  0  0
 61134  1  0  0  0
 61135  1  0  0  0
 61136  1  0  0  0
 62137  1  0  0  0
 62138  1  0  0  0
 62139  1  0  0  0
 63 65  1  0  0  0
 63140  1  0  0  0
 63141  1  0  0  0
 63142  1  0  0  0
 64143  1  0  0  0
 65144  1  0  0  0
 68 84  1  0  0  0
 71 72  2  0  0  0
 71 74  1  0  0  0
 71145  1  0  0  0
 72 76  1  0  0  0
 72146  1  0  0  0
 73 75  1  0  0  0
 73 76  2  0  0  0
 73147  1  0  0  0
 74 75  2  0  0  0
 74 82  1  0  0  0
 75 83  1  0  0  0
 76 85  1  0  0  0
 77 78  2  0  0  0
 77 79  1  0  0  0
 77148  1  0  0  0
 78 80  1  0  0  0
 78 84  1  0  0  0
 79 82  1  0  0  0
 79149  1  0  0  0
 79150  1  0  0  0
 80 81  1  0  0  0
 80151  1  0  0  0
 80152  1  0  0  0
 81 82  1  0  0  0
 81153  1  0  0  0
 81154  1  0  0  0
 82155  1  0  0  0
 83156  1  0  0  0
 83157  1  0  0  0
 83158  1  0  0  0
 84159  1  0  0  0
 84160  1  0  0  0
 85161  1  0  0  0
M  ISO  4   1 100  68 101  84 101  85 100
M  END
> <chiral flag>
0

> <version>
0

> <s_m_source_file>
/data/baiqing/PycharmProjects/Reinvent-master-3.2/result/LINK_invent/BTK/process_docking_weight1_custom_product_contain_oxygen_bond_distance_aromatic_linkinvent_7_9_3/rearranged_h_0157.sdf

> <i_m_source_file_index>
7

> <r_mmod_Potential_Energy-OPLS-2005>
27.6347370147705

> <r_mmod_Stretch_Energy-OPLS-2005>
54.3680801391602

> <r_mmod_Bend_Energy-OPLS-2005>
117.129264831543

> <r_mmod_Torsional_Energy-OPLS-2005>
245.263534545898

> <r_mmod_Improper_Torsional_Energy-OPLS-2005>
4.73752307891846

> <r_mmod_Van_der_Waal_Energy-OPLS-2005>
146.323196411133

> <r_mmod_Electrostatic_Energy-OPLS-2005>
-367.026794433594

> <r_mmod_Solvation_Energy-OPLS-2005>
-196.762161254883

> <b_mmod_Minimization_Converged-OPLS-2005>
0

> <r_mmod_RMS_Derivative-OPLS-2005>
2.33178973197937

$$$$
7
                    3D
 Structure written by MMmdl.
160169  0  0  1  0            999 V2000
  -30.5465  -14.7559   20.4759 C   0  0  0  0  0  0
  -30.4476  -12.4639   19.4677 C   0  0  0  0  0  0
  -29.5181  -12.5262   18.2337 C   0  0  0  0  0  0
  -28.0405  -12.3394   18.6387 C   0  0  0  0  0  0
  -27.6428  -13.2207   19.8529 C   0  0  2  0  0  0
  -28.6856  -13.1219   20.9868 C   0  0  0  0  0  0
  -25.2539  -13.8174   20.5675 C   0  0  0  0  0  0
  -24.1813  -13.0426   20.9179 C   0  0  0  0  0  0
  -24.6384  -11.6897   20.8728 C   0  0  0  0  0  0
  -23.9045  -10.4278   21.0398 C   0  0  0  0  0  0
  -24.3593   -9.4200   21.9196 C   0  0  0  0  0  0
  -23.6260   -8.2236   22.0752 C   0  0  0  0  0  0
  -22.4260   -8.0276   21.3535 C   0  0  0  0  0  0
  -21.9872   -9.0242   20.4635 C   0  0  0  0  0  0
  -22.7203  -10.2124   20.3048 C   0  0  0  0  0  0
  -21.6863   -6.0715   22.5266 C   0  0  0  0  0  0
  -21.4025   -6.5630   23.8200 C   0  0  0  0  0  0
  -21.3652   -5.6790   24.9164 C   0  0  0  0  0  0
  -21.6042   -4.3042   24.7238 C   0  0  0  0  0  0
  -21.8822   -3.8127   23.4359 C   0  0  0  0  0  0
  -21.9198   -4.6936   22.3392 C   0  0  0  0  0  0
  -22.7836  -13.5223   21.1830 C   0  0  0  0  0  0
  -22.1668   -4.2110   21.0974 F   0  0  0  0  0  0
  -21.5604   -3.4543   25.7750 F   0  0  0  0  0  0
  -29.9858  -13.5000   20.4162 N   0  0  0  0  0  0
  -26.2935  -12.9342   20.3235 N   0  0  0  0  0  0
  -25.9315  -11.6500   20.5725 N   0  0  0  0  0  0
  -22.0454  -12.8222   22.0382 N   0  0  0  0  0  0
  -25.4258  -15.1915   20.4081 N   0  0  0  0  0  0
  -31.7335  -14.9285   20.1846 O   0  0  0  0  0  0
  -21.6636   -6.8872   21.4232 O   0  0  0  0  0  0
  -22.3531  -14.5538   20.6684 O   0  0  0  0  0  0
  -24.6279  -31.8580   23.2023 C   0  0  0  0  0  0
  -25.9125  -32.4760   23.8357 C   0  0  1  0  0  0
  -27.2058  -27.2677   20.1394 C   0  0  0  0  0  0
  -25.5931  -33.8557   24.2287 N   0  0  0  0  0  0
  -23.4236  -30.4798   21.5460 C   0  0  2  0  0  0
  -24.8717  -28.9250   20.1198 C   0  0  0  0  0  0
  -22.7482  -29.4592   22.4927 C   0  0  0  0  0  0
  -18.0286  -28.1377   22.8486 C   0  0  0  0  0  0
  -24.1470  -36.7267   23.2635 C   0  0  0  0  0  0
  -25.9688  -30.7686   21.3859 C   0  0  0  0  0  0
  -26.0410  -29.3857   20.7416 C   0  0  0  0  0  0
  -27.2134  -28.5647   20.7524 C   0  0  0  0  0  0
  -26.0411  -26.8970   19.4453 C   0  0  0  0  0  0
  -24.8738  -27.6855   19.4611 C   0  0  0  0  0  0
  -23.6445  -29.8157   20.1623 C   0  0  0  0  0  0
  -25.4093  -36.3063   24.0333 C   0  0  1  0  0  0
  -20.5885  -28.3670   23.1278 C   0  0  2  0  0  0
  -20.6774  -26.9391   22.5401 C   0  0  0  0  0  0
  -19.5747  -26.6377   21.5202 C   0  0  0  0  0  0
  -18.1921  -26.7913   22.1611 C   0  0  0  0  0  0
  -19.1539  -28.8842   23.2873 C   0  0  0  0  0  0
  -18.9458  -30.1439   23.8889 C   0  0  0  0  0  0
  -17.6465  -30.6574   24.0563 C   0  0  0  0  0  0
  -25.9048  -34.9438   23.5116 C   0  0  0  0  0  0
  -16.5360  -29.9073   23.6336 C   0  0  0  0  0  0
  -16.7275  -28.6491   23.0363 C   0  0  0  0  0  0
  -26.4509  -31.6559   25.0725 C   0  0  0  0  0  0
  -25.3732  -31.3725   26.1449 C   0  0  0  0  0  0
  -27.0336  -30.2959   24.6209 C   0  0  0  0  0  0
  -27.6065  -32.4286   25.7496 C   0  0  0  0  0  0
  -27.5575  -37.1771   24.8449 C   0  0  0  0  0  0
  -21.4194  -29.3020   22.3668 N   0  0  0  0  0  0
  -26.4252  -37.3780   23.9436 N   0  0  0  0  0  0
  -24.6915  -31.0534   22.1012 N   0  0  0  0  0  0
  -23.4199  -28.8136   23.3010 O   0  0  0  0  0  0
  -28.2933  -26.3800   20.0601 O   0  0  0  0  0  0
  -26.5625  -34.8918   22.4688 O   0  0  0  0  0  0
  -23.5436  -32.1408   23.7322 O   0  0  0  0  0  0
  -30.7514  -18.0566   21.0476 C   0  0  0  0  0  0
  -29.7406  -17.2088   20.6280 C   0  0  0  0  0  0
  -29.2554  -19.7972   20.5612 C   0  0  0  0  0  0
  -26.7661  -23.3988   21.6560 C   0  0  0  0  0  0
  -27.7444  -23.1571   19.3304 C   0  0  0  0  0  0
  -27.7572  -21.5968   19.4073 C   0  0  0  0  0  0
  -29.0887  -22.4623   21.0631 C   0  0  0  0  0  0
  -28.0222  -23.6412   20.7625 C   0  0  2  0  0  0
  -25.4300  -24.0030   21.2413 C   0  0  0  0  0  0
  -29.9588  -25.3264   21.3641 C   0  0  0  0  0  0
  -28.4726  -25.2227   20.9937 C   0  0  1  0  0  0
  -30.4633  -19.4583   21.0390 N   0  0  0  0  0  0
  -28.7502  -21.1521   20.3954 N   0  0  0  0  0  0
  -29.6473  -15.8038   20.6284 N   0  0  0  0  0  0
  -26.8284  -22.7574   22.7093 O   0  0  0  0  0  0
  -28.3830  -18.2768   20.1307 S   0  0  0  0  0  0
  -31.4858  -12.6190   19.1697 H   0  0  0  0  0  0
  -30.4079  -11.4786   19.9347 H   0  0  0  0  0  0
  -29.7989  -11.7622   17.5080 H   0  0  0  0  0  0
  -29.6438  -13.4883   17.7325 H   0  0  0  0  0  0
  -27.8978  -11.2867   18.8840 H   0  0  0  0  0  0
  -27.3889  -12.5483   17.7895 H   0  0  0  0  0  0
  -27.6378  -14.2459   19.4867 H   0  0  0  0  0  0
  -28.7269  -12.1107   21.3900 H   0  0  0  0  0  0
  -28.4156  -13.7701   21.8222 H   0  0  0  0  0  0
  -25.2738   -9.5681   22.4766 H   0  0  0  0  0  0
  -23.9957   -7.4641   22.7493 H   0  0  0  0  0  0
  -21.0778   -8.8778   19.8963 H   0  0  0  0  0  0
  -22.3669  -10.9665   19.6151 H   0  0  0  0  0  0
  -21.2046   -7.6145   23.9693 H   0  0  0  0  0  0
  -21.1459   -6.0525   25.9064 H   0  0  0  0  0  0
  -22.0612   -2.7584   23.2884 H   0  0  0  0  0  0
  -22.4061  -11.9911   22.4829 H   0  0  0  0  0  0
  -21.1059  -13.1296   22.2551 H   0  0  0  0  0  0
  -24.6570  -15.8437   20.5160 H   0  0  0  0  0  0
  -26.2520  -15.6225   20.0143 H   0  0  0  0  0  0
  -26.7179  -32.5434   23.1093 H   0  0  0  0  0  0
  -25.0044  -33.9692   25.0411 H   0  0  0  0  0  0
  -22.7173  -31.3000   21.4024 H   0  0  0  0  0  0
  -23.3748  -35.9581   23.3268 H   0  0  0  0  0  0
  -24.3566  -36.8913   22.2054 H   0  0  0  0  0  0
  -23.7194  -37.6447   23.6680 H   0  0  0  0  0  0
  -26.1029  -31.5243   20.6106 H   0  0  0  0  0  0
  -26.8475  -30.8255   22.0144 H   0  0  0  0  0  0
  -28.1130  -28.9139   21.2419 H   0  0  0  0  0  0
  -26.0361  -25.9815   18.8722 H   0  0  0  0  0  0
  -23.9896  -27.3442   18.9395 H   0  0  0  0  0  0
  -23.7733  -30.5952   19.4101 H   0  0  0  0  0  0
  -22.7598  -29.2556   19.8519 H   0  0  0  0  0  0
  -25.1250  -36.1910   25.0818 H   0  0  0  0  0  0
  -20.9971  -28.3262   24.1400 H   0  0  0  0  0  0
  -20.5660  -26.2275   23.3600 H   0  0  0  0  0  0
  -21.6649  -26.7402   22.1212 H   0  0  0  0  0  0
  -19.6912  -25.6297   21.1203 H   0  0  0  0  0  0
  -19.6678  -27.3207   20.6750 H   0  0  0  0  0  0
  -17.4184  -26.6654   21.4027 H   0  0  0  0  0  0
  -18.0327  -26.0058   22.9003 H   0  0  0  0  0  0
  -19.7940  -30.7255   24.2260 H   0  0  0  0  0  0
  -17.5015  -31.6249   24.5184 H   0  0  0  0  0  0
  -15.5355  -30.2977   23.7661 H   0  0  0  0  0  0
  -15.8673  -28.0803   22.7095 H   0  0  0  0  0  0
  -24.5897  -30.7081   25.7788 H   0  0  0  0  0  0
  -24.8941  -32.2901   26.4876 H   0  0  0  0  0  0
  -25.8043  -30.8894   27.0226 H   0  0  0  0  0  0
  -26.2911  -29.6696   24.1249 H   0  0  0  0  0  0
  -27.4013  -29.7237   25.4738 H   0  0  0  0  0  0
  -27.8801  -30.4198   23.9449 H   0  0  0  0  0  0
  -27.2681  -33.3589   26.2076 H   0  0  0  0  0  0
  -28.3901  -32.6829   25.0342 H   0  0  0  0  0  0
  -28.0713  -31.8400   26.5419 H   0  0  0  0  0  0
  -28.2541  -38.0123   24.7584 H   0  0  0  0  0  0
  -28.1120  -36.2662   24.6142 H   0  0  0  0  0  0
  -27.2309  -37.1262   25.8851 H   0  0  0  0  0  0
  -20.9386  -29.8724   21.6856 H   0  0  0  0  0  0
  -26.0124  -38.2822   24.1534 H   0  0  0  0  0  0
  -31.7172  -17.7482   21.4265 H   0  0  0  0  0  0
  -26.8045  -23.5229   18.9150 H   0  0  0  0  0  0
  -28.5334  -23.5124   18.6669 H   0  0  0  0  0  0
  -27.9603  -21.1584   18.4293 H   0  0  0  0  0  0
  -26.7787  -21.2257   19.7182 H   0  0  0  0  0  0
  -29.2026  -22.2991   22.1368 H   0  0  0  0  0  0
  -30.0770  -22.7509   20.7047 H   0  0  0  0  0  0
  -25.5557  -24.6517   20.3863 H   0  0  0  0  0  0
  -25.0052  -24.5942   22.0524 H   0  0  0  0  0  0
  -24.7233  -23.2205   20.9679 H   0  0  0  0  0  0
  -30.2129  -24.6748   22.2009 H   0  0  0  0  0  0
  -30.2184  -26.3429   21.6640 H   0  0  0  0  0  0
  -30.5914  -25.0628   20.5159 H   0  0  0  0  0  0
  -27.9606  -25.5547   21.8993 H   0  0  0  0  0  0
  -28.7039  -15.4630   20.7135 H   0  0  0  0  0  0
  1 25  1  0  0  0
  1 30  2  0  0  0
  1 84  1  0  0  0
  2  3  1  0  0  0
  2 25  1  0  0  0
  2 87  1  0  0  0
  2 88  1  0  0  0
  3  4  1  0  0  0
  3 89  1  0  0  0
  3 90  1  0  0  0
  4  5  1  0  0  0
  4 91  1  0  0  0
  4 92  1  0  0  0
  5  6  1  0  0  0
  5 26  1  0  0  0
  5 93  1  0  0  0
  6 25  1  0  0  0
  6 94  1  0  0  0
  6 95  1  0  0  0
  7  8  2  0  0  0
  7 26  1  0  0  0
  7 29  1  0  0  0
  8  9  1  0  0  0
  8 22  1  0  0  0
  9 10  1  0  0  0
  9 27  2  0  0  0
 10 11  2  0  0  0
 10 15  1  0  0  0
 11 12  1  0  0  0
 11 96  1  0  0  0
 12 13  2  0  0  0
 12 97  1  0  0  0
 13 14  1  0  0  0
 13 31  1  0  0  0
 14 15  2  0  0  0
 14 98  1  0  0  0
 15 99  1  0  0  0
 16 17  2  0  0  0
 16 21  1  0  0  0
 16 31  1  0  0  0
 17 18  1  0  0  0
 17100  1  0  0  0
 18 19  2  0  0  0
 18101  1  0  0  0
 19 20  1  0  0  0
 19 24  1  0  0  0
 20 21  2  0  0  0
 20102  1  0  0  0
 21 23  1  0  0  0
 22 28  1  0  0  0
 22 32  2  0  0  0
 26 27  1  0  0  0
 28103  1  0  0  0
 28104  1  0  0  0
 29105  1  0  0  0
 29106  1  0  0  0
 33 34  1  0  0  0
 33 66  1  0  0  0
 33 70  2  0  0  0
 34 36  1  0  0  0
 34 59  1  0  0  0
 34107  1  0  0  0
 35 44  2  0  0  0
 35 45  1  0  0  0
 35 68  1  0  0  0
 36 56  1  0  0  0
 36108  1  0  0  0
 37 39  1  0  0  0
 37 47  1  0  0  0
 37 66  1  0  0  0
 37109  1  0  0  0
 38 43  2  0  0  0
 38 46  1  0  0  0
 38 47  1  0  0  0
 39 64  1  0  0  0
 39 67  2  0  0  0
 40 52  1  0  0  0
 40 53  2  0  0  0
 40 58  1  0  0  0
 41110  1  0  0  0
 41111  1  0  0  0
 41112  1  0  0  0
 41 48  1  0  0  0
 42 43  1  0  0  0
 42 66  1  0  0  0
 42113  1  0  0  0
 42114  1  0  0  0
 43 44  1  0  0  0
 44115  1  0  0  0
 45 46  2  0  0  0
 45116  1  0  0  0
 46117  1  0  0  0
 47118  1  0  0  0
 47119  1  0  0  0
 48 56  1  0  0  0
 48 65  1  0  0  0
 48120  1  0  0  0
 49 50  1  0  0  0
 49 53  1  0  0  0
 49 64  1  0  0  0
 49121  1  0  0  0
 50 51  1  0  0  0
 50122  1  0  0  0
 50123  1  0  0  0
 51 52  1  0  0  0
 51124  1  0  0  0
 51125  1  0  0  0
 52126  1  0  0  0
 52127  1  0  0  0
 53 54  1  0  0  0
 54 55  2  0  0  0
 54128  1  0  0  0
 55 57  1  0  0  0
 55129  1  0  0  0
 56 69  2  0  0  0
 57 58  2  0  0  0
 57130  1  0  0  0
 58131  1  0  0  0
 59 60  1  0  0  0
 59 61  1  0  0  0
 59 62  1  0  0  0
 60132  1  0  0  0
 60133  1  0  0  0
 60134  1  0  0  0
 61135  1  0  0  0
 61136  1  0  0  0
 61137  1  0  0  0
 62138  1  0  0  0
 62139  1  0  0  0
 62140  1  0  0  0
 63 65  1  0  0  0
 63141  1  0  0  0
 63142  1  0  0  0
 63143  1  0  0  0
 64144  1  0  0  0
 65145  1  0  0  0
 68 81  1  0  0  0
 71 72  2  0  0  0
 71 82  1  0  0  0
 71146  1  0  0  0
 72 84  1  0  0  0
 72 86  1  0  0  0
 73 82  2  0  0  0
 73 83  1  0  0  0
 73 86  1  0  0  0
 74 79  1  0  0  0
 74 85  2  0  0  0
 74 78  1  0  0  0
 75 76  1  0  0  0
 75 78  1  0  0  0
 75147  1  0  0  0
 75148  1  0  0  0
 76 83  1  0  0  0
 76149  1  0  0  0
 76150  1  0  0  0
 77 78  1  0  0  0
 77 83  1  0  0  0
 77151  1  0  0  0
 77152  1  0  0  0
 78 81  1  0  0  0
 79153  1  0  0  0
 79154  1  0  0  0
 79155  1  0  0  0
 80156  1  0  0  0
 80157  1  0  0  0
 80158  1  0  0  0
 80 81  1  0  0  0
 81159  1  0  0  0
 84160  1  0  0  0
M  ISO  4   1 100  68 101  81 101  84 100
M  END
> <chiral flag>
0

> <version>
0

> <s_m_source_file>
/data/baiqing/PycharmProjects/Reinvent-master-3.2/result/LINK_invent/BTK/process_docking_weight1_custom_product_contain_oxygen_bond_distance_aromatic_linkinvent_7_9_3/rearranged_h_0157.sdf

> <i_m_source_file_index>
8

> <r_mmod_Potential_Energy-OPLS-2005>
265.050720214844

> <r_mmod_Stretch_Energy-OPLS-2005>
119.295799255371

> <r_mmod_Bend_Energy-OPLS-2005>
223.913009643555

> <r_mmod_Torsional_Energy-OPLS-2005>
294.159698486328

> <r_mmod_Improper_Torsional_Energy-OPLS-2005>
6.65173196792603

> <r_mmod_Van_der_Waal_Energy-OPLS-2005>
113.276336669922

> <r_mmod_Electrostatic_Energy-OPLS-2005>
-339.370819091797

> <r_mmod_Solvation_Energy-OPLS-2005>
-239.463943481445

> <b_mmod_Minimization_Converged-OPLS-2005>
0

> <r_mmod_RMS_Derivative-OPLS-2005>
3.64304614067078

$$$$
8
                    3D
 Structure written by MMmdl.
157166  0  0  1  0            999 V2000
  -30.5609  -14.8795   20.4410 C   0  0  0  0  0  0
  -30.4409  -12.5444   19.4836 C   0  0  0  0  0  0
  -29.5161  -12.5209   18.2448 C   0  0  0  0  0  0
  -28.0468  -12.3186   18.6626 C   0  0  0  0  0  0
  -27.6330  -13.2408   19.8394 C   0  0  2  0  0  0
  -28.6779  -13.2341   20.9753 C   0  0  0  0  0  0
  -25.2471  -13.8204   20.5701 C   0  0  0  0  0  0
  -24.1784  -13.0436   20.9228 C   0  0  0  0  0  0
  -24.6389  -11.6920   20.8753 C   0  0  0  0  0  0
  -23.9073  -10.4293   21.0415 C   0  0  0  0  0  0
  -24.3622   -9.4207   21.9188 C   0  0  0  0  0  0
  -23.6299   -8.2241   22.0750 C   0  0  0  0  0  0
  -22.4278   -8.0280   21.3544 C   0  0  0  0  0  0
  -21.9920   -9.0256   20.4649 C   0  0  0  0  0  0
  -22.7248  -10.2132   20.3061 C   0  0  0  0  0  0
  -21.6855   -6.0739   22.5281 C   0  0  0  0  0  0
  -21.4019   -6.5641   23.8218 C   0  0  0  0  0  0
  -21.3656   -5.6792   24.9179 C   0  0  0  0  0  0
  -21.6042   -4.3057   24.7230 C   0  0  0  0  0  0
  -21.8818   -3.8149   23.4350 C   0  0  0  0  0  0
  -21.9195   -4.6969   22.3409 C   0  0  0  0  0  0
  -22.7803  -13.5208   21.1890 C   0  0  0  0  0  0
  -22.1661   -4.2154   21.0987 F   0  0  0  0  0  0
  -21.5627   -3.4537   25.7741 F   0  0  0  0  0  0
  -29.9617  -13.6289   20.3817 N   0  0  0  0  0  0
  -26.2896  -12.9424   20.3244 N   0  0  0  0  0  0
  -25.9320  -11.6562   20.5740 N   0  0  0  0  0  0
  -22.0459  -12.8190   22.0443 N   0  0  0  0  0  0
  -25.4129  -15.1934   20.4103 N   0  0  0  0  0  0
  -31.7668  -14.9545   20.1806 O   0  0  0  0  0  0
  -21.6638   -6.8880   21.4241 O   0  0  0  0  0  0
  -22.3487  -14.5519   20.6747 O   0  0  0  0  0  0
  -24.6377  -31.8485   23.1909 C   0  0  0  0  0  0
  -25.9168  -32.4718   23.8285 C   0  0  1  0  0  0
  -27.2171  -27.1760   20.1559 C   0  0  0  0  0  0
  -25.5938  -33.8520   24.2198 N   0  0  0  0  0  0
  -23.4390  -30.4703   21.5343 C   0  0  2  0  0  0
  -24.8887  -28.8992   20.1111 C   0  0  0  0  0  0
  -22.7540  -29.4576   22.4855 C   0  0  0  0  0  0
  -18.0310  -28.1408   22.8489 C   0  0  0  0  0  0
  -24.1484  -36.7262   23.2645 C   0  0  0  0  0  0
  -25.9916  -30.7334   21.3862 C   0  0  0  0  0  0
  -26.0613  -29.3456   20.7346 C   0  0  0  0  0  0
  -27.2252  -28.4968   20.7461 C   0  0  0  0  0  0
  -26.0250  -26.8235   19.4860 C   0  0  0  0  0  0
  -24.8793  -27.6479   19.4741 C   0  0  0  0  0  0
  -23.6648  -29.8000   20.1521 C   0  0  0  0  0  0
  -25.4115  -36.3046   24.0320 C   0  0  1  0  0  0
  -20.5915  -28.3728   23.1248 C   0  0  2  0  0  0
  -20.6792  -26.9434   22.5409 C   0  0  0  0  0  0
  -19.5757  -26.6395   21.5228 C   0  0  0  0  0  0
  -18.1940  -26.7943   22.1639 C   0  0  0  0  0  0
  -19.1566  -28.8888   23.2863 C   0  0  0  0  0  0
  -18.9483  -30.1485   23.8890 C   0  0  0  0  0  0
  -17.6479  -30.6601   24.0584 C   0  0  0  0  0  0
  -25.9058  -34.9423   23.5066 C   0  0  0  0  0  0
  -16.5370  -29.9096   23.6350 C   0  0  0  0  0  0
  -16.7296  -28.6516   23.0364 C   0  0  0  0  0  0
  -26.4504  -31.6573   25.0714 C   0  0  0  0  0  0
  -25.3698  -31.3764   26.1422 C   0  0  0  0  0  0
  -27.0377  -30.2983   24.6260 C   0  0  0  0  0  0
  -27.6041  -32.4331   25.7495 C   0  0  0  0  0  0
  -27.5573  -37.1797   24.8472 C   0  0  0  0  0  0
  -21.4240  -29.3056   22.3617 N   0  0  0  0  0  0
  -26.4285  -37.3759   23.9412 N   0  0  0  0  0  0
  -24.7088  -31.0384   22.0919 N   0  0  0  0  0  0
  -23.4211  -28.8130   23.2984 O   0  0  0  0  0  0
  -28.2854  -26.2209   20.1915 O   0  0  0  0  0  0
  -26.5661  -34.8914   22.4652 O   0  0  0  0  0  0
  -23.5507  -32.1339   23.7157 O   0  0  0  0  0  0
  -29.1463  -18.5450   20.3906 C   0  0  0  0  0  0
  -29.9144  -19.7995   20.5190 C   0  0  0  0  0  0
  -31.1812  -19.3364   20.8101 C   0  0  0  0  0  0
  -30.0139  -17.4350   20.5697 C   0  0  0  0  0  0
  -28.0476  -24.7915   20.3494 C   0  0  0  0  0  0
  -28.9403  -23.7071   20.2424 C   0  0  0  0  0  0
  -28.6034  -22.2113   20.4364 C   0  0  0  0  0  0
  -34.5261  -19.8924   21.7059 C   0  0  0  0  0  0
  -33.1943  -19.7294   22.4457 C   0  0  0  0  0  0
  -33.7664  -19.6271   20.4012 C   0  0  0  0  0  0
  -32.4715  -20.0315   21.1233 C   0  0  0  0  0  0
  -29.6580  -21.2934   20.3533 N   0  0  0  0  0  0
  -29.7488  -16.0313   20.5507 N   0  0  0  0  0  0
  -27.4610  -21.8077   20.6597 O   0  0  0  0  0  0
  -31.2505  -17.9490   20.8313 O   0  0  0  0  0  0
  -30.2159  -23.9935   19.9441 O   0  0  0  0  0  0
  -31.4751  -12.6990   19.1704 H   0  0  0  0  0  0
  -30.4232  -11.5833   19.9996 H   0  0  0  0  0  0
  -29.8208  -11.7300   17.5585 H   0  0  0  0  0  0
  -29.6139  -13.4581   17.6946 H   0  0  0  0  0  0
  -27.9294  -11.2740   18.9541 H   0  0  0  0  0  0
  -27.3839  -12.4710   17.8098 H   0  0  0  0  0  0
  -27.6052  -14.2490   19.4254 H   0  0  0  0  0  0
  -28.7480  -12.2491   21.4390 H   0  0  0  0  0  0
  -28.3892  -13.9271   21.7670 H   0  0  0  0  0  0
  -25.2769   -9.5679   22.4761 H   0  0  0  0  0  0
  -24.0012   -7.4630   22.7464 H   0  0  0  0  0  0
  -21.0855   -8.8778   19.8955 H   0  0  0  0  0  0
  -22.3714  -10.9670   19.6166 H   0  0  0  0  0  0
  -21.2007   -7.6146   23.9723 H   0  0  0  0  0  0
  -21.1479   -6.0521   25.9082 H   0  0  0  0  0  0
  -22.0597   -2.7612   23.2853 H   0  0  0  0  0  0
  -22.4080  -11.9844   22.4814 H   0  0  0  0  0  0
  -21.1080  -13.1208   22.2676 H   0  0  0  0  0  0
  -24.6363  -15.8384   20.5117 H   0  0  0  0  0  0
  -26.2449  -15.6346   20.0416 H   0  0  0  0  0  0
  -26.7233  -32.5347   23.1021 H   0  0  0  0  0  0
  -25.0082  -33.9624   25.0341 H   0  0  0  0  0  0
  -22.7397  -31.2959   21.3835 H   0  0  0  0  0  0
  -23.3743  -35.9601   23.3313 H   0  0  0  0  0  0
  -24.3571  -36.8885   22.2060 H   0  0  0  0  0  0
  -23.7232  -37.6458   23.6669 H   0  0  0  0  0  0
  -26.1436  -31.4858   20.6112 H   0  0  0  0  0  0
  -26.8652  -30.7866   22.0241 H   0  0  0  0  0  0
  -28.1210  -28.8322   21.2502 H   0  0  0  0  0  0
  -25.9618  -25.8697   18.9827 H   0  0  0  0  0  0
  -23.9857  -27.3048   18.9707 H   0  0  0  0  0  0
  -23.8013  -30.5770   19.3980 H   0  0  0  0  0  0
  -22.7793  -29.2421   19.8411 H   0  0  0  0  0  0
  -25.1300  -36.1889   25.0814 H   0  0  0  0  0  0
  -21.0037  -28.3323   24.1360 H   0  0  0  0  0  0
  -20.5704  -26.2347   23.3625 H   0  0  0  0  0  0
  -21.6658  -26.7439   22.1213 H   0  0  0  0  0  0
  -19.6908  -25.6300   21.1272 H   0  0  0  0  0  0
  -19.6689  -27.3204   20.6751 H   0  0  0  0  0  0
  -17.4214  -26.6718   21.4031 H   0  0  0  0  0  0
  -18.0318  -26.0078   22.9030 H   0  0  0  0  0  0
  -19.7961  -30.7319   24.2235 H   0  0  0  0  0  0
  -17.5035  -31.6279   24.5188 H   0  0  0  0  0  0
  -15.5371  -30.3011   23.7659 H   0  0  0  0  0  0
  -15.8696  -28.0842   22.7071 H   0  0  0  0  0  0
  -24.5870  -30.7111   25.7763 H   0  0  0  0  0  0
  -24.8891  -32.2954   26.4790 H   0  0  0  0  0  0
  -25.7993  -30.8987   27.0237 H   0  0  0  0  0  0
  -26.2996  -29.6707   24.1256 H   0  0  0  0  0  0
  -27.4014  -29.7270   25.4809 H   0  0  0  0  0  0
  -27.8886  -30.4250   23.9563 H   0  0  0  0  0  0
  -27.2638  -33.3646   26.2026 H   0  0  0  0  0  0
  -28.3877  -32.6865   25.0343 H   0  0  0  0  0  0
  -28.0677  -31.8487   26.5451 H   0  0  0  0  0  0
  -28.2607  -38.0079   24.7513 H   0  0  0  0  0  0
  -28.1053  -36.2614   24.6307 H   0  0  0  0  0  0
  -27.2303  -37.1477   25.8881 H   0  0  0  0  0  0
  -20.9426  -29.8776   21.6820 H   0  0  0  0  0  0
  -26.0150  -38.2830   24.1410 H   0  0  0  0  0  0
  -28.0927  -18.4656   20.1632 H   0  0  0  0  0  0
  -27.0125  -24.5984   20.5972 H   0  0  0  0  0  0
  -35.2833  -19.1482   21.9565 H   0  0  0  0  0  0
  -34.9217  -20.9083   21.7676 H   0  0  0  0  0  0
  -33.0171  -20.4571   23.2389 H   0  0  0  0  0  0
  -33.0327  -18.7093   22.7982 H   0  0  0  0  0  0
  -33.7857  -18.5744   20.1142 H   0  0  0  0  0  0
  -34.0460  -20.2748   19.5692 H   0  0  0  0  0  0
  -32.3392  -21.1114   21.0339 H   0  0  0  0  0  0
  -30.5082  -21.8220   20.2062 H   0  0  0  0  0  0
  -28.7705  -15.7993   20.6089 H   0  0  0  0  0  0
  -30.2704  -24.9358   19.8451 H   0  0  0  0  0  0
  1 25  1  0  0  0
  1 30  2  0  0  0
  1 83  1  0  0  0
  2  3  1  0  0  0
  2 25  1  0  0  0
  2 87  1  0  0  0
  2 88  1  0  0  0
  3  4  1  0  0  0
  3 89  1  0  0  0
  3 90  1  0  0  0
  4  5  1  0  0  0
  4 91  1  0  0  0
  4 92  1  0  0  0
  5  6  1  0  0  0
  5 26  1  0  0  0
  5 93  1  0  0  0
  6 25  1  0  0  0
  6 94  1  0  0  0
  6 95  1  0  0  0
  7  8  2  0  0  0
  7 26  1  0  0  0
  7 29  1  0  0  0
  8  9  1  0  0  0
  8 22  1  0  0  0
  9 10  1  0  0  0
  9 27  2  0  0  0
 10 11  2  0  0  0
 10 15  1  0  0  0
 11 12  1  0  0  0
 11 96  1  0  0  0
 12 13  2  0  0  0
 12 97  1  0  0  0
 13 14  1  0  0  0
 13 31  1  0  0  0
 14 15  2  0  0  0
 14 98  1  0  0  0
 15 99  1  0  0  0
 16 17  2  0  0  0
 16 21  1  0  0  0
 16 31  1  0  0  0
 17 18  1  0  0  0
 17100  1  0  0  0
 18 19  2  0  0  0
 18101  1  0  0  0
 19 20  1  0  0  0
 19 24  1  0  0  0
 20 21  2  0  0  0
 20102  1  0  0  0
 21 23  1  0  0  0
 22 28  1  0  0  0
 22 32  2  0  0  0
 26 27  1  0  0  0
 28103  1  0  0  0
 28104  1  0  0  0
 29105  1  0  0  0
 29106  1  0  0  0
 33 34  1  0  0  0
 33 66  1  0  0  0
 33 70  2  0  0  0
 34 36  1  0  0  0
 34 59  1  0  0  0
 34107  1  0  0  0
 35 44  2  0  0  0
 35 45  1  0  0  0
 35 68  1  0  0  0
 36 56  1  0  0  0
 36108  1  0  0  0
 37 39  1  0  0  0
 37 47  1  0  0  0
 37 66  1  0  0  0
 37109  1  0  0  0
 38 43  2  0  0  0
 38 46  1  0  0  0
 38 47  1  0  0  0
 39 64  1  0  0  0
 39 67  2  0  0  0
 40 52  1  0  0  0
 40 53  2  0  0  0
 40 58  1  0  0  0
 41110  1  0  0  0
 41111  1  0  0  0
 41112  1  0  0  0
 41 48  1  0  0  0
 42 43  1  0  0  0
 42 66  1  0  0  0
 42113  1  0  0  0
 42114  1  0  0  0
 43 44  1  0  0  0
 44115  1  0  0  0
 45 46  2  0  0  0
 45116  1  0  0  0
 46117  1  0  0  0
 47118  1  0  0  0
 47119  1  0  0  0
 48 56  1  0  0  0
 48 65  1  0  0  0
 48120  1  0  0  0
 49 50  1  0  0  0
 49 53  1  0  0  0
 49 64  1  0  0  0
 49121  1  0  0  0
 50 51  1  0  0  0
 50122  1  0  0  0
 50123  1  0  0  0
 51 52  1  0  0  0
 51124  1  0  0  0
 51125  1  0  0  0
 52126  1  0  0  0
 52127  1  0  0  0
 53 54  1  0  0  0
 54 55  2  0  0  0
 54128  1  0  0  0
 55 57  1  0  0  0
 55129  1  0  0  0
 56 69  2  0  0  0
 57 58  2  0  0  0
 57130  1  0  0  0
 58131  1  0  0  0
 59 60  1  0  0  0
 59 61  1  0  0  0
 59 62  1  0  0  0
 60132  1  0  0  0
 60133  1  0  0  0
 60134  1  0  0  0
 61135  1  0  0  0
 61136  1  0  0  0
 61137  1  0  0  0
 62138  1  0  0  0
 62139  1  0  0  0
 62140  1  0  0  0
 63 65  1  0  0  0
 63141  1  0  0  0
 63142  1  0  0  0
 63143  1  0  0  0
 64144  1  0  0  0
 65145  1  0  0  0
 68 75  1  0  0  0
 71 72  1  0  0  0
 71 74  2  0  0  0
 71146  1  0  0  0
 72 73  2  0  0  0
 72 82  1  0  0  0
 73 85  1  0  0  0
 73 81  1  0  0  0
 74 83  1  0  0  0
 74 85  1  0  0  0
 75 76  2  0  0  0
 75147  1  0  0  0
 76 77  1  0  0  0
 76 86  1  0  0  0
 77 82  1  0  0  0
 77 84  2  0  0  0
 78 79  1  0  0  0
 78 80  1  0  0  0
 78148  1  0  0  0
 78149  1  0  0  0
 79 81  1  0  0  0
 79150  1  0  0  0
 79151  1  0  0  0
 80 81  1  0  0  0
 80152  1  0  0  0
 80153  1  0  0  0
 81154  1  0  0  0
 82155  1  0  0  0
 83156  1  0  0  0
 86157  1  0  0  0
M  ISO  4   1 100  68 101  75 101  83 100
M  END
> <chiral flag>
0

> <version>
0

> <s_m_source_file>
/data/baiqing/PycharmProjects/Reinvent-master-3.2/result/LINK_invent/BTK/process_docking_weight1_custom_product_contain_oxygen_bond_distance_aromatic_linkinvent_7_9_3/rearranged_h_0157.sdf

> <i_m_source_file_index>
9

> <r_mmod_Potential_Energy-OPLS-2005>
266.115234375

> <r_mmod_Stretch_Energy-OPLS-2005>
171.362045288086

> <r_mmod_Bend_Energy-OPLS-2005>
240.730758666992

> <r_mmod_Torsional_Energy-OPLS-2005>
229.311370849609

> <r_mmod_Improper_Torsional_Energy-OPLS-2005>
5.7754693031311

> <r_mmod_Van_der_Waal_Energy-OPLS-2005>
110.522727966309

> <r_mmod_Electrostatic_Energy-OPLS-2005>
-410.907287597656

> <r_mmod_Solvation_Energy-OPLS-2005>
-232.05012512207

> <b_mmod_Minimization_Converged-OPLS-2005>
0

> <r_mmod_RMS_Derivative-OPLS-2005>
1.56383752822876

$$$$
9
                    3D
 Structure written by MMmdl.
160169  0  0  1  0            999 V2000
  -30.6512  -14.6225   20.4544 C   0  0  0  0  0  0
  -30.4271  -12.3615   19.4554 C   0  0  0  0  0  0
  -29.5091  -12.4544   18.2189 C   0  0  0  0  0  0
  -28.0303  -12.3041   18.6337 C   0  0  0  0  0  0
  -27.6473  -13.2072   19.8352 C   0  0  2  0  0  0
  -28.6895  -13.1118   20.9705 C   0  0  0  0  0  0
  -25.2566  -13.8139   20.5658 C   0  0  0  0  0  0
  -24.1836  -13.0415   20.9219 C   0  0  0  0  0  0
  -24.6391  -11.6901   20.8731 C   0  0  0  0  0  0
  -23.9058  -10.4292   21.0380 C   0  0  0  0  0  0
  -24.3604   -9.4204   21.9165 C   0  0  0  0  0  0
  -23.6285   -8.2232   22.0738 C   0  0  0  0  0  0
  -22.4261   -8.0274   21.3528 C   0  0  0  0  0  0
  -21.9895   -9.0241   20.4623 C   0  0  0  0  0  0
  -22.7214  -10.2133   20.3035 C   0  0  0  0  0  0
  -21.6858   -6.0729   22.5270 C   0  0  0  0  0  0
  -21.4002   -6.5635   23.8195 C   0  0  0  0  0  0
  -21.3661   -5.6788   24.9157 C   0  0  0  0  0  0
  -21.6052   -4.3049   24.7211 C   0  0  0  0  0  0
  -21.8818   -3.8141   23.4325 C   0  0  0  0  0  0
  -21.9186   -4.6959   22.3380 C   0  0  0  0  0  0
  -22.7874  -13.5233   21.1874 C   0  0  0  0  0  0
  -22.1666   -4.2143   21.0958 F   0  0  0  0  0  0
  -21.5647   -3.4541   25.7726 F   0  0  0  0  0  0
  -30.0040  -13.4193   20.3934 N   0  0  0  0  0  0
  -26.2967  -12.9299   20.3172 N   0  0  0  0  0  0
  -25.9287  -11.6462   20.5667 N   0  0  0  0  0  0
  -22.0509  -12.8216   22.0412 N   0  0  0  0  0  0
  -25.4291  -15.1871   20.4091 N   0  0  0  0  0  0
  -31.8348  -14.7187   20.1225 O   0  0  0  0  0  0
  -21.6626   -6.8865   21.4226 O   0  0  0  0  0  0
  -22.3532  -14.5517   20.6696 O   0  0  0  0  0  0
  -24.6231  -31.8657   23.2040 C   0  0  0  0  0  0
  -25.9102  -32.4813   23.8347 C   0  0  1  0  0  0
  -27.2406  -27.3575   20.1146 C   0  0  0  0  0  0
  -25.5951  -33.8608   24.2321 N   0  0  0  0  0  0
  -23.4163  -30.4916   21.5454 C   0  0  2  0  0  0
  -24.8663  -28.9510   20.1154 C   0  0  0  0  0  0
  -22.7435  -29.4713   22.4924 C   0  0  0  0  0  0
  -18.0292  -28.1418   22.8519 C   0  0  0  0  0  0
  -24.1446  -36.7289   23.2635 C   0  0  0  0  0  0
  -25.9553  -30.8135   21.3657 C   0  0  0  0  0  0
  -26.0329  -29.4407   20.7122 C   0  0  0  0  0  0
  -27.2252  -28.6604   20.6921 C   0  0  0  0  0  0
  -26.0425  -26.9159   19.5111 C   0  0  0  0  0  0
  -24.8716  -27.6882   19.5066 C   0  0  0  0  0  0
  -23.6295  -29.8236   20.1595 C   0  0  0  0  0  0
  -25.4093  -36.3143   24.0347 C   0  0  1  0  0  0
  -20.5877  -28.3769   23.1295 C   0  0  2  0  0  0
  -20.6780  -26.9497   22.5408 C   0  0  0  0  0  0
  -19.5731  -26.6443   21.5215 C   0  0  0  0  0  0
  -18.1925  -26.7990   22.1649 C   0  0  0  0  0  0
  -19.1550  -28.8910   23.2921 C   0  0  0  0  0  0
  -18.9466  -30.1490   23.8952 C   0  0  0  0  0  0
  -17.6488  -30.6641   24.0576 C   0  0  0  0  0  0
  -25.9034  -34.9492   23.5123 C   0  0  0  0  0  0
  -16.5367  -29.9150   23.6325 C   0  0  0  0  0  0
  -16.7294  -28.6545   23.0388 C   0  0  0  0  0  0
  -26.4489  -31.6610   25.0671 C   0  0  0  0  0  0
  -25.3720  -31.3730   26.1386 C   0  0  0  0  0  0
  -27.0331  -30.3055   24.6061 C   0  0  0  0  0  0
  -27.6073  -32.4301   25.7463 C   0  0  0  0  0  0
  -27.5575  -37.1822   24.8484 C   0  0  0  0  0  0
  -21.4172  -29.3112   22.3648 N   0  0  0  0  0  0
  -26.4284  -37.3849   23.9421 N   0  0  0  0  0  0
  -24.6852  -31.0690   22.0973 N   0  0  0  0  0  0
  -23.4131  -28.8299   23.3072 O   0  0  0  0  0  0
  -28.3843  -26.5460   20.1504 O   0  0  0  0  0  0
  -26.5599  -34.8969   22.4676 O   0  0  0  0  0  0
  -23.5401  -32.1444   23.7387 O   0  0  0  0  0  0
  -29.2205  -18.1833   20.4519 C   0  0  0  0  0  0
  -30.8743  -19.9605   20.6251 C   0  0  0  0  0  0
  -31.5551  -17.6114   20.7718 C   0  0  0  0  0  0
  -29.5218  -19.5973   20.4745 C   0  0  0  0  0  0
  -30.2215  -17.1618   20.6169 C   0  0  0  0  0  0
  -31.8733  -18.9824   20.7776 C   0  0  0  0  0  0
  -28.4645  -20.6575   20.2573 C   0  0  0  0  0  0
  -29.4518  -24.3828   20.9762 C   0  0  0  0  0  0
  -28.0466  -24.2727   19.0365 C   0  0  0  0  0  0
  -29.2789  -22.8386   21.2392 C   0  0  0  0  0  0
  -27.6174  -22.8187   19.3531 C   0  0  0  0  0  0
  -28.2237  -25.0886   20.3367 C   0  0  0  0  0  0
  -28.6265  -22.0317   20.1465 N   0  0  0  0  0  0
  -29.8739  -15.7353   20.6525 N   0  0  0  0  0  0
  -27.2019  -20.2327   20.1744 N   0  3  0  0  0  0
  -33.1618  -19.3693   20.9216 F   0  0  0  0  0  0
  -27.2056  -24.8456   21.1699 F   0  0  0  0  0  0
  -31.4723  -12.4538   19.1523 H   0  0  0  0  0  0
  -30.3409  -11.3796   19.9257 H   0  0  0  0  0  0
  -29.7702  -11.6662   17.5141 H   0  0  0  0  0  0
  -29.6619  -13.3985   17.6957 H   0  0  0  0  0  0
  -27.8881  -11.2586   18.9122 H   0  0  0  0  0  0
  -27.3720  -12.4875   17.7813 H   0  0  0  0  0  0
  -27.6533  -14.2292   19.4562 H   0  0  0  0  0  0
  -28.6899  -12.1106   21.4076 H   0  0  0  0  0  0
  -28.4389  -13.8053   21.7755 H   0  0  0  0  0  0
  -25.2754   -9.5674   22.4707 H   0  0  0  0  0  0
  -24.0022   -7.4599   22.7435 H   0  0  0  0  0  0
  -21.0835   -8.8719   19.8889 H   0  0  0  0  0  0
  -22.3665  -10.9661   19.6118 H   0  0  0  0  0  0
  -21.1963   -7.6148   23.9690 H   0  0  0  0  0  0
  -21.1511   -6.0525   25.9067 H   0  0  0  0  0  0
  -22.0588   -2.7610   23.2815 H   0  0  0  0  0  0
  -22.4186  -11.9953   22.4897 H   0  0  0  0  0  0
  -21.1061  -13.1125   22.2490 H   0  0  0  0  0  0
  -24.6511  -15.8313   20.5185 H   0  0  0  0  0  0
  -26.2488  -15.6177   20.0016 H   0  0  0  0  0  0
  -26.7184  -32.5518   23.1116 H   0  0  0  0  0  0
  -25.0097  -33.9736   25.0473 H   0  0  0  0  0  0
  -22.7109  -31.3094   21.3971 H   0  0  0  0  0  0
  -23.3721  -35.9607   23.3327 H   0  0  0  0  0  0
  -24.3541  -36.8851   22.2039 H   0  0  0  0  0  0
  -23.7121  -37.6475   23.6614 H   0  0  0  0  0  0
  -26.0654  -31.5791   20.5961 H   0  0  0  0  0  0
  -26.8422  -30.8703   21.9868 H   0  0  0  0  0  0
  -28.1250  -29.0429   21.1502 H   0  0  0  0  0  0
  -25.9607  -25.9564   19.0426 H   0  0  0  0  0  0
  -23.9816  -27.2945   19.0390 H   0  0  0  0  0  0
  -23.7551  -30.5931   19.3949 H   0  0  0  0  0  0
  -22.7525  -29.2442   19.8604 H   0  0  0  0  0  0
  -25.1239  -36.2045   25.0841 H   0  0  0  0  0  0
  -21.0008  -28.3376   24.1414 H   0  0  0  0  0  0
  -20.5680  -26.2418   23.3638 H   0  0  0  0  0  0
  -21.6664  -26.7510   22.1214 H   0  0  0  0  0  0
  -19.6885  -25.6349   21.1266 H   0  0  0  0  0  0
  -19.6663  -27.3226   20.6713 H   0  0  0  0  0  0
  -17.4215  -26.6768   21.4030 H   0  0  0  0  0  0
  -18.0319  -26.0091   22.9002 H   0  0  0  0  0  0
  -19.7942  -30.7267   24.2353 H   0  0  0  0  0  0
  -17.5043  -31.6323   24.5174 H   0  0  0  0  0  0
  -15.5365  -30.3096   23.7606 H   0  0  0  0  0  0
  -15.8664  -28.0864   22.7140 H   0  0  0  0  0  0
  -24.5924  -30.7050   25.7708 H   0  0  0  0  0  0
  -24.8902  -32.2896   26.4840 H   0  0  0  0  0  0
  -25.8077  -30.8926   27.0145 H   0  0  0  0  0  0
  -26.2923  -29.6813   24.1053 H   0  0  0  0  0  0
  -27.4019  -29.7283   25.4546 H   0  0  0  0  0  0
  -27.8748  -30.4341   23.9227 H   0  0  0  0  0  0
  -27.2727  -33.3601   26.2079 H   0  0  0  0  0  0
  -28.3917  -32.6850   25.0308 H   0  0  0  0  0  0
  -28.0671  -31.8346   26.5377 H   0  0  0  0  0  0
  -28.2663  -38.0060   24.7572 H   0  0  0  0  0  0
  -28.1016  -36.2616   24.6322 H   0  0  0  0  0  0
  -27.2289  -37.1478   25.8884 H   0  0  0  0  0  0
  -20.9320  -29.8837   21.6876 H   0  0  0  0  0  0
  -26.0163  -38.2920   24.1470 H   0  0  0  0  0  0
  -28.2031  -17.8616   20.2780 H   0  0  0  0  0  0
  -31.1957  -20.9837   20.5888 H   0  0  0  0  0  0
  -32.3718  -16.9239   20.8954 H   0  0  0  0  0  0
  -29.6581  -24.8528   21.9400 H   0  0  0  0  0  0
  -30.3499  -24.5533   20.3767 H   0  0  0  0  0  0
  -27.3353  -24.7055   18.3424 H   0  0  0  0  0  0
  -28.9783  -24.2678   18.4710 H   0  0  0  0  0  0
  -30.2432  -22.4407   21.5404 H   0  0  0  0  0  0
  -28.6516  -22.7223   22.1222 H   0  0  0  0  0  0
  -27.4351  -22.3116   18.4006 H   0  0  0  0  0  0
  -26.6580  -22.8455   19.8749 H   0  0  0  0  0  0
  -28.8975  -15.5263   20.7866 H   0  0  0  0  0  0
  -26.9962  -19.2741   20.4048 H   0  0  0  0  0  0
  -26.4414  -20.8896   20.2363 H   0  0  0  0  0  0
  1 25  1  0  0  0
  1 30  2  0  0  0
  1 84  1  0  0  0
  2  3  1  0  0  0
  2 25  1  0  0  0
  2 88  1  0  0  0
  2 89  1  0  0  0
  3  4  1  0  0  0
  3 90  1  0  0  0
  3 91  1  0  0  0
  4  5  1  0  0  0
  4 92  1  0  0  0
  4 93  1  0  0  0
  5  6  1  0  0  0
  5 26  1  0  0  0
  5 94  1  0  0  0
  6 25  1  0  0  0
  6 95  1  0  0  0
  6 96  1  0  0  0
  7  8  2  0  0  0
  7 26  1  0  0  0
  7 29  1  0  0  0
  8  9  1  0  0  0
  8 22  1  0  0  0
  9 10  1  0  0  0
  9 27  2  0  0  0
 10 11  2  0  0  0
 10 15  1  0  0  0
 11 12  1  0  0  0
 11 97  1  0  0  0
 12 13  2  0  0  0
 12 98  1  0  0  0
 13 14  1  0  0  0
 13 31  1  0  0  0
 14 15  2  0  0  0
 14 99  1  0  0  0
 15100  1  0  0  0
 16 17  2  0  0  0
 16 21  1  0  0  0
 16 31  1  0  0  0
 17 18  1  0  0  0
 17101  1  0  0  0
 18 19  2  0  0  0
 18102  1  0  0  0
 19 20  1  0  0  0
 19 24  1  0  0  0
 20 21  2  0  0  0
 20103  1  0  0  0
 21 23  1  0  0  0
 22 28  1  0  0  0
 22 32  2  0  0  0
 26 27  1  0  0  0
 28104  1  0  0  0
 28105  1  0  0  0
 29106  1  0  0  0
 29107  1  0  0  0
 33 34  1  0  0  0
 33 66  1  0  0  0
 33 70  2  0  0  0
 34 36  1  0  0  0
 34 59  1  0  0  0
 34108  1  0  0  0
 35 44  2  0  0  0
 35 45  1  0  0  0
 35 68  1  0  0  0
 36 56  1  0  0  0
 36109  1  0  0  0
 37 39  1  0  0  0
 37 47  1  0  0  0
 37 66  1  0  0  0
 37110  1  0  0  0
 38 43  2  0  0  0
 38 46  1  0  0  0
 38 47  1  0  0  0
 39 64  1  0  0  0
 39 67  2  0  0  0
 40 52  1  0  0  0
 40 53  2  0  0  0
 40 58  1  0  0  0
 41111  1  0  0  0
 41112  1  0  0  0
 41113  1  0  0  0
 41 48  1  0  0  0
 42 43  1  0  0  0
 42 66  1  0  0  0
 42114  1  0  0  0
 42115  1  0  0  0
 43 44  1  0  0  0
 44116  1  0  0  0
 45 46  2  0  0  0
 45117  1  0  0  0
 46118  1  0  0  0
 47119  1  0  0  0
 47120  1  0  0  0
 48 56  1  0  0  0
 48 65  1  0  0  0
 48121  1  0  0  0
 49 50  1  0  0  0
 49 53  1  0  0  0
 49 64  1  0  0  0
 49122  1  0  0  0
 50 51  1  0  0  0
 50123  1  0  0  0
 50124  1  0  0  0
 51 52  1  0  0  0
 51125  1  0  0  0
 51126  1  0  0  0
 52127  1  0  0  0
 52128  1  0  0  0
 53 54  1  0  0  0
 54 55  2  0  0  0
 54129  1  0  0  0
 55 57  1  0  0  0
 55130  1  0  0  0
 56 69  2  0  0  0
 57 58  2  0  0  0
 57131  1  0  0  0
 58132  1  0  0  0
 59 60  1  0  0  0
 59 61  1  0  0  0
 59 62  1  0  0  0
 60133  1  0  0  0
 60134  1  0  0  0
 60135  1  0  0  0
 61136  1  0  0  0
 61137  1  0  0  0
 61138  1  0  0  0
 62139  1  0  0  0
 62140  1  0  0  0
 62141  1  0  0  0
 63 65  1  0  0  0
 63142  1  0  0  0
 63143  1  0  0  0
 63144  1  0  0  0
 64145  1  0  0  0
 65146  1  0  0  0
 68 82  1  0  0  0
 71 74  2  0  0  0
 71 75  1  0  0  0
 71147  1  0  0  0
 72 74  1  0  0  0
 72 76  2  0  0  0
 72148  1  0  0  0
 73 75  2  0  0  0
 73 76  1  0  0  0
 73149  1  0  0  0
 74 77  1  0  0  0
 75 84  1  0  0  0
 76 86  1  0  0  0
 77 83  1  0  0  0
 77 85  2  0  0  0
 78 80  1  0  0  0
 78 82  1  0  0  0
 78150  1  0  0  0
 78151  1  0  0  0
 79 81  1  0  0  0
 79 82  1  0  0  0
 79152  1  0  0  0
 79153  1  0  0  0
 80 83  1  0  0  0
 80154  1  0  0  0
 80155  1  0  0  0
 81 83  1  0  0  0
 81156  1  0  0  0
 81157  1  0  0  0
 82 87  1  0  0  0
 84158  1  0  0  0
 85159  1  0  0  0
 85160  1  0  0  0
M  CHG  1  85   1
M  ISO  4   1 100  68 101  82 101  84 100
M  END
> <chiral flag>
0

> <version>
0

> <s_m_source_file>
/data/baiqing/PycharmProjects/Reinvent-master-3.2/result/LINK_invent/BTK/process_docking_weight1_custom_product_contain_oxygen_bond_distance_aromatic_linkinvent_7_9_3/rearranged_h_0157.sdf

> <i_m_source_file_index>
10

> <r_mmod_Potential_Energy-OPLS-2005>
-86.5275497436523

> <r_mmod_Stretch_Energy-OPLS-2005>
78.5038604736328

> <r_mmod_Bend_Energy-OPLS-2005>
144.156143188477

> <r_mmod_Torsional_Energy-OPLS-2005>
316.617218017578

> <r_mmod_Improper_Torsional_Energy-OPLS-2005>
9.56588935852051

> <r_mmod_Van_der_Waal_Energy-OPLS-2005>
177.323913574219

> <r_mmod_Electrostatic_Energy-OPLS-2005>
-432.916656494141

> <r_mmod_Solvation_Energy-OPLS-2005>
-421.778106689453

> <b_mmod_Minimization_Converged-OPLS-2005>
0

> <r_mmod_RMS_Derivative-OPLS-2005>
6.62804222106934

$$$$
10
                    3D
 Structure written by MMmdl.
162171  0  0  1  0            999 V2000
  -30.6646  -14.6670   20.4851 C   0  0  0  0  0  0
  -30.4211  -12.4083   19.4646 C   0  0  0  0  0  0
  -29.5037  -12.4975   18.2270 C   0  0  0  0  0  0
  -28.0255  -12.3520   18.6353 C   0  0  0  0  0  0
  -27.6463  -13.2323   19.8571 C   0  0  2  0  0  0
  -28.6912  -13.1353   20.9880 C   0  0  0  0  0  0
  -25.2538  -13.8214   20.5707 C   0  0  0  0  0  0
  -24.1812  -13.0451   20.9191 C   0  0  0  0  0  0
  -24.6399  -11.6931   20.8738 C   0  0  0  0  0  0
  -23.9074  -10.4307   21.0413 C   0  0  0  0  0  0
  -24.3626   -9.4223   21.9188 C   0  0  0  0  0  0
  -23.6310   -8.2257   22.0762 C   0  0  0  0  0  0
  -22.4298   -8.0292   21.3548 C   0  0  0  0  0  0
  -21.9927   -9.0264   20.4657 C   0  0  0  0  0  0
  -22.7245  -10.2146   20.3069 C   0  0  0  0  0  0
  -21.6861   -6.0745   22.5278 C   0  0  0  0  0  0
  -21.4017   -6.5646   23.8209 C   0  0  0  0  0  0
  -21.3664   -5.6796   24.9167 C   0  0  0  0  0  0
  -21.6048   -4.3060   24.7219 C   0  0  0  0  0  0
  -21.8814   -3.8157   23.4338 C   0  0  0  0  0  0
  -21.9195   -4.6974   22.3396 C   0  0  0  0  0  0
  -22.7834  -13.5245   21.1847 C   0  0  0  0  0  0
  -22.1668   -4.2165   21.0972 F   0  0  0  0  0  0
  -21.5633   -3.4540   25.7729 F   0  0  0  0  0  0
  -29.9975  -13.4674   20.4078 N   0  0  0  0  0  0
  -26.2968  -12.9416   20.3329 N   0  0  0  0  0  0
  -25.9334  -11.6555   20.5763 N   0  0  0  0  0  0
  -22.0479  -12.8233   22.0402 N   0  0  0  0  0  0
  -25.4257  -15.1935   20.4161 N   0  0  0  0  0  0
  -31.8424  -14.7355   20.1174 O   0  0  0  0  0  0
  -21.6654   -6.8893   21.4246 O   0  0  0  0  0  0
  -22.3515  -14.5550   20.6705 O   0  0  0  0  0  0
  -24.6266  -31.8593   23.2017 C   0  0  0  0  0  0
  -25.9114  -32.4769   23.8349 C   0  0  1  0  0  0
  -27.2197  -27.3121   20.1268 C   0  0  0  0  0  0
  -25.5925  -33.8567   24.2281 N   0  0  0  0  0  0
  -23.4216  -30.4807   21.5441 C   0  0  2  0  0  0
  -24.8684  -28.9309   20.1128 C   0  0  0  0  0  0
  -22.7480  -29.4610   22.4934 C   0  0  0  0  0  0
  -18.0285  -28.1389   22.8478 C   0  0  0  0  0  0
  -24.1493  -36.7288   23.2641 C   0  0  0  0  0  0
  -25.9626  -30.7867   21.3767 C   0  0  0  0  0  0
  -26.0361  -29.4132   20.7189 C   0  0  0  0  0  0
  -27.2182  -28.6141   20.7155 C   0  0  0  0  0  0
  -26.0379  -26.8832   19.4898 C   0  0  0  0  0  0
  -24.8691  -27.6711   19.4910 C   0  0  0  0  0  0
  -23.6368  -29.8135   20.1598 C   0  0  0  0  0  0
  -25.4119  -36.3078   24.0323 C   0  0  1  0  0  0
  -20.5892  -28.3687   23.1288 C   0  0  2  0  0  0
  -20.6780  -26.9406   22.5418 C   0  0  0  0  0  0
  -19.5758  -26.6376   21.5221 C   0  0  0  0  0  0
  -18.1933  -26.7931   22.1623 C   0  0  0  0  0  0
  -19.1539  -28.8853   23.2880 C   0  0  0  0  0  0
  -18.9462  -30.1454   23.8902 C   0  0  0  0  0  0
  -17.6464  -30.6592   24.0564 C   0  0  0  0  0  0
  -25.9052  -34.9442   23.5109 C   0  0  0  0  0  0
  -16.5354  -29.9095   23.6329 C   0  0  0  0  0  0
  -16.7274  -28.6514   23.0348 C   0  0  0  0  0  0
  -26.4476  -31.6579   25.0723 C   0  0  0  0  0  0
  -25.3683  -31.3752   26.1440 C   0  0  0  0  0  0
  -27.0312  -30.2992   24.6195 C   0  0  0  0  0  0
  -27.6027  -32.4305   25.7515 C   0  0  0  0  0  0
  -27.5588  -37.1796   24.8455 C   0  0  0  0  0  0
  -21.4199  -29.3033   22.3674 N   0  0  0  0  0  0
  -26.4301  -37.3765   23.9399 N   0  0  0  0  0  0
  -24.6888  -31.0589   22.0976 N   0  0  0  0  0  0
  -23.4194  -28.8155   23.3022 O   0  0  0  0  0  0
  -28.3311  -26.4550   20.1239 O   0  0  0  0  0  0
  -26.5621  -34.8914   22.4677 O   0  0  0  0  0  0
  -23.5430  -32.1373   23.7351 O   0  0  0  0  0  0
  -28.8071  -20.1220   21.5294 C   0  0  0  0  0  0
  -29.5185  -20.8233   19.3387 C   0  0  0  0  0  0
  -29.1344  -18.7564   21.2238 C   0  0  0  0  0  0
  -29.6725  -18.4127   19.9708 C   0  0  0  0  0  0
  -28.9876  -21.1975   20.6005 C   0  0  0  0  0  0
  -29.8528  -19.4689   19.0332 C   0  0  0  0  0  0
  -28.8879  -17.6109   22.2023 C   0  0  0  0  0  0
  -30.0457  -16.9312   19.6239 C   0  0  0  0  0  0
  -29.8419  -16.3877   22.0294 C   0  0  0  0  0  0
  -27.1201  -25.0561   21.8408 C   0  0  0  0  0  0
  -29.5862  -25.4417   21.7994 C   0  0  0  0  0  0
  -28.5848  -23.7957   20.1230 C   0  0  0  0  0  0
  -28.3547  -25.1882   20.9155 C   0  0  0  0  0  0
  -29.9387  -15.8374   20.6598 N   0  0  0  0  0  0
  -28.6489  -22.5500   20.9711 N   0  0  0  0  0  0
  -30.3541  -19.1807   17.8074 F   0  0  0  0  0  0
  -31.4652  -12.5051   19.1633 H   0  0  0  0  0  0
  -30.3400  -11.4259   19.9329 H   0  0  0  0  0  0
  -29.7670  -11.7214   17.5068 H   0  0  0  0  0  0
  -29.6579  -13.4508   17.7193 H   0  0  0  0  0  0
  -27.8505  -11.3010   18.8659 H   0  0  0  0  0  0
  -27.3767  -12.5879   17.7914 H   0  0  0  0  0  0
  -27.6524  -14.2632   19.5022 H   0  0  0  0  0  0
  -28.7065  -12.1319   21.4162 H   0  0  0  0  0  0
  -28.4344  -13.8097   21.8043 H   0  0  0  0  0  0
  -25.2766   -9.5710   22.4757 H   0  0  0  0  0  0
  -24.0034   -7.4649   22.7473 H   0  0  0  0  0  0
  -21.0864   -8.8769   19.8956 H   0  0  0  0  0  0
  -22.3696  -10.9685   19.6187 H   0  0  0  0  0  0
  -21.2007   -7.6156   23.9717 H   0  0  0  0  0  0
  -21.1500   -6.0527   25.9070 H   0  0  0  0  0  0
  -22.0593   -2.7627   23.2825 H   0  0  0  0  0  0
  -22.4114  -11.9913   22.4801 H   0  0  0  0  0  0
  -21.1100  -13.1260   22.2616 H   0  0  0  0  0  0
  -24.6657  -15.8527   20.5416 H   0  0  0  0  0  0
  -26.2891  -15.6347   20.1241 H   0  0  0  0  0  0
  -26.7184  -32.5425   23.1099 H   0  0  0  0  0  0
  -25.0057  -33.9700   25.0417 H   0  0  0  0  0  0
  -22.7169  -31.3025   21.4003 H   0  0  0  0  0  0
  -23.3752  -35.9626   23.3312 H   0  0  0  0  0  0
  -24.3583  -36.8899   22.2054 H   0  0  0  0  0  0
  -23.7264  -37.6498   23.6660 H   0  0  0  0  0  0
  -26.1005  -31.5526   20.6123 H   0  0  0  0  0  0
  -26.8404  -30.8302   22.0097 H   0  0  0  0  0  0
  -28.1178  -28.9784   21.1918 H   0  0  0  0  0  0
  -26.0139  -25.9144   19.0118 H   0  0  0  0  0  0
  -23.9721  -27.2965   19.0185 H   0  0  0  0  0  0
  -23.7626  -30.5894   19.4038 H   0  0  0  0  0  0
  -22.7557  -29.2456   19.8541 H   0  0  0  0  0  0
  -25.1311  -36.1927   25.0812 H   0  0  0  0  0  0
  -20.9976  -28.3257   24.1416 H   0  0  0  0  0  0
  -20.5691  -26.2296   23.3616 H   0  0  0  0  0  0
  -21.6652  -26.7443   22.1214 H   0  0  0  0  0  0
  -19.6925  -25.6284   21.1256 H   0  0  0  0  0  0
  -19.6714  -27.3189   20.6748 H   0  0  0  0  0  0
  -17.4211  -26.6680   21.4011 H   0  0  0  0  0  0
  -18.0325  -26.0079   22.9018 H   0  0  0  0  0  0
  -19.7933  -30.7263   24.2290 H   0  0  0  0  0  0
  -17.5015  -31.6275   24.5157 H   0  0  0  0  0  0
  -15.5356  -30.3005   23.7645 H   0  0  0  0  0  0
  -15.8668  -28.0836   22.7070 H   0  0  0  0  0  0
  -24.5804  -30.7174   25.7743 H   0  0  0  0  0  0
  -24.8939  -32.2942   26.4889 H   0  0  0  0  0  0
  -25.7964  -30.8867   27.0204 H   0  0  0  0  0  0
  -26.2895  -29.6749   24.1193 H   0  0  0  0  0  0
  -27.3965  -29.7230   25.4710 H   0  0  0  0  0  0
  -27.8775  -30.4266   23.9453 H   0  0  0  0  0  0
  -27.2608  -33.3564   26.2142 H   0  0  0  0  0  0
  -28.3825  -32.6930   25.0360 H   0  0  0  0  0  0
  -28.0701  -31.8403   26.5405 H   0  0  0  0  0  0
  -28.2615  -38.0086   24.7496 H   0  0  0  0  0  0
  -28.1079  -36.2619   24.6291 H   0  0  0  0  0  0
  -27.2303  -37.1455   25.8858 H   0  0  0  0  0  0
  -20.9384  -29.8729   21.6860 H   0  0  0  0  0  0
  -26.0180  -38.2836   24.1399 H   0  0  0  0  0  0
  -28.4012  -20.3417   22.5074 H   0  0  0  0  0  0
  -29.6880  -21.5759   18.5835 H   0  0  0  0  0  0
  -27.8557  -17.2815   22.0724 H   0  0  0  0  0  0
  -28.9644  -17.9873   23.2242 H   0  0  0  0  0  0
  -31.0634  -16.9622   19.2317 H   0  0  0  0  0  0
  -29.4214  -16.6332   18.7800 H   0  0  0  0  0  0
  -29.5392  -15.6045   22.7239 H   0  0  0  0  0  0
  -30.8473  -16.6798   22.3395 H   0  0  0  0  0  0
  -26.9338  -25.9698   22.4071 H   0  0  0  0  0  0
  -27.2497  -24.2607   22.5743 H   0  0  0  0  0  0
  -26.2188  -24.8222   21.2753 H   0  0  0  0  0  0
  -29.7812  -24.6117   22.4795 H   0  0  0  0  0  0
  -29.4583  -26.3400   22.4053 H   0  0  0  0  0  0
  -30.4794  -25.5849   21.1896 H   0  0  0  0  0  0
  -29.5028  -23.8690   19.5384 H   0  0  0  0  0  0
  -27.7790  -23.6651   19.3995 H   0  0  0  0  0  0
  -28.2979  -22.6800   21.9157 H   0  0  0  0  0  0
  1 25  1  0  0  0
  1 30  2  0  0  0
  1 84  1  0  0  0
  2  3  1  0  0  0
  2 25  1  0  0  0
  2 87  1  0  0  0
  2 88  1  0  0  0
  3  4  1  0  0  0
  3 89  1  0  0  0
  3 90  1  0  0  0
  4  5  1  0  0  0
  4 91  1  0  0  0
  4 92  1  0  0  0
  5  6  1  0  0  0
  5 26  1  0  0  0
  5 93  1  0  0  0
  6 25  1  0  0  0
  6 94  1  0  0  0
  6 95  1  0  0  0
  7  8  2  0  0  0
  7 26  1  0  0  0
  7 29  1  0  0  0
  8  9  1  0  0  0
  8 22  1  0  0  0
  9 10  1  0  0  0
  9 27  2  0  0  0
 10 11  2  0  0  0
 10 15  1  0  0  0
 11 12  1  0  0  0
 11 96  1  0  0  0
 12 13  2  0  0  0
 12 97  1  0  0  0
 13 14  1  0  0  0
 13 31  1  0  0  0
 14 15  2  0  0  0
 14 98  1  0  0  0
 15 99  1  0  0  0
 16 17  2  0  0  0
 16 21  1  0  0  0
 16 31  1  0  0  0
 17 18  1  0  0  0
 17100  1  0  0  0
 18 19  2  0  0  0
 18101  1  0  0  0
 19 20  1  0  0  0
 19 24  1  0  0  0
 20 21  2  0  0  0
 20102  1  0  0  0
 21 23  1  0  0  0
 22 28  1  0  0  0
 22 32  2  0  0  0
 26 27  1  0  0  0
 28103  1  0  0  0
 28104  1  0  0  0
 29105  1  0  0  0
 29106  1  0  0  0
 33 34  1  0  0  0
 33 66  1  0  0  0
 33 70  2  0  0  0
 34 36  1  0  0  0
 34 59  1  0  0  0
 34107  1  0  0  0
 35 44  2  0  0  0
 35 45  1  0  0  0
 35 68  1  0  0  0
 36 56  1  0  0  0
 36108  1  0  0  0
 37 39  1  0  0  0
 37 47  1  0  0  0
 37 66  1  0  0  0
 37109  1  0  0  0
 38 43  2  0  0  0
 38 46  1  0  0  0
 38 47  1  0  0  0
 39 64  1  0  0  0
 39 67  2  0  0  0
 40 52  1  0  0  0
 40 53  2  0  0  0
 40 58  1  0  0  0
 41110  1  0  0  0
 41111  1  0  0  0
 41112  1  0  0  0
 41 48  1  0  0  0
 42 43  1  0  0  0
 42 66  1  0  0  0
 42113  1  0  0  0
 42114  1  0  0  0
 43 44  1  0  0  0
 44115  1  0  0  0
 45 46  2  0  0  0
 45116  1  0  0  0
 46117  1  0  0  0
 47118  1  0  0  0
 47119  1  0  0  0
 48 56  1  0  0  0
 48 65  1  0  0  0
 48120  1  0  0  0
 49 50  1  0  0  0
 49 53  1  0  0  0
 49 64  1  0  0  0
 49121  1  0  0  0
 50 51  1  0  0  0
 50122  1  0  0  0
 50123  1  0  0  0
 51 52  1  0  0  0
 51124  1  0  0  0
 51125  1  0  0  0
 52126  1  0  0  0
 52127  1  0  0  0
 53 54  1  0  0  0
 54 55  2  0  0  0
 54128  1  0  0  0
 55 57  1  0  0  0
 55129  1  0  0  0
 56 69  2  0  0  0
 57 58  2  0  0  0
 57130  1  0  0  0
 58131  1  0  0  0
 59 60  1  0  0  0
 59 61  1  0  0  0
 59 62  1  0  0  0
 60132  1  0  0  0
 60133  1  0  0  0
 60134  1  0  0  0
 61135  1  0  0  0
 61136  1  0  0  0
 61137  1  0  0  0
 62138  1  0  0  0
 62139  1  0  0  0
 62140  1  0  0  0
 63 65  1  0  0  0
 63141  1  0  0  0
 63142  1  0  0  0
 63143  1  0  0  0
 64144  1  0  0  0
 65145  1  0  0  0
 68 83  1  0  0  0
 71 73  2  0  0  0
 71 75  1  0  0  0
 71146  1  0  0  0
 72 75  2  0  0  0
 72 76  1  0  0  0
 72147  1  0  0  0
 73 74  1  0  0  0
 73 77  1  0  0  0
 74 76  2  0  0  0
 74 78  1  0  0  0
 75 85  1  0  0  0
 76 86  1  0  0  0
 77 79  1  0  0  0
 77148  1  0  0  0
 77149  1  0  0  0
 78 84  1  0  0  0
 78150  1  0  0  0
 78151  1  0  0  0
 79 84  1  0  0  0
 79152  1  0  0  0
 79153  1  0  0  0
 80154  1  0  0  0
 80155  1  0  0  0
 80156  1  0  0  0
 80 83  1  0  0  0
 81 83  1  0  0  0
 81157  1  0  0  0
 81158  1  0  0  0
 81159  1  0  0  0
 82 83  1  0  0  0
 82 85  1  0  0  0
 82160  1  0  0  0
 82161  1  0  0  0
 85162  1  0  0  0
M  ISO  4   1 100  68 101  83 101  84 100
M  END
> <chiral flag>
0

> <version>
0

> <s_m_source_file>
/data/baiqing/PycharmProjects/Reinvent-master-3.2/result/LINK_invent/BTK/process_docking_weight1_custom_product_contain_oxygen_bond_distance_aromatic_linkinvent_7_9_3/rearranged_h_0157.sdf

> <i_m_source_file_index>
11

> <r_mmod_Potential_Energy-OPLS-2005>
249.234497070312

> <r_mmod_Stretch_Energy-OPLS-2005>
93.8743286132812

> <r_mmod_Bend_Energy-OPLS-2005>
167.935562133789

> <r_mmod_Torsional_Energy-OPLS-2005>
317.227844238281

> <r_mmod_Improper_Torsional_Energy-OPLS-2005>
11.3547563552856

> <r_mmod_Van_der_Waal_Energy-OPLS-2005>
141.504943847656

> <r_mmod_Electrostatic_Energy-OPLS-2005>
-346.186462402344

> <r_mmod_Solvation_Energy-OPLS-2005>
-191.398559570312

> <b_mmod_Minimization_Converged-OPLS-2005>
0

> <r_mmod_RMS_Derivative-OPLS-2005>
1.80893743038177

$$$$
11
                    3D
 Structure written by MMmdl.
165174  0  0  1  0            999 V2000
  -30.5774  -14.7882   20.4339 C   0  0  0  0  0  0
  -30.4321  -12.4662   19.5041 C   0  0  0  0  0  0
  -29.5235  -12.4958   18.2538 C   0  0  0  0  0  0
  -28.0456  -12.3227   18.6560 C   0  0  0  0  0  0
  -27.6392  -13.2337   19.8430 C   0  0  2  0  0  0
  -28.6743  -13.1881   20.9882 C   0  0  0  0  0  0
  -25.2498  -13.8228   20.5690 C   0  0  0  0  0  0
  -24.1797  -13.0438   20.9212 C   0  0  0  0  0  0
  -24.6399  -11.6931   20.8706 C   0  0  0  0  0  0
  -23.9071  -10.4307   21.0388 C   0  0  0  0  0  0
  -24.3634   -9.4231   21.9169 C   0  0  0  0  0  0
  -23.6309   -8.2270   22.0749 C   0  0  0  0  0  0
  -22.4286   -8.0311   21.3546 C   0  0  0  0  0  0
  -21.9919   -9.0278   20.4633 C   0  0  0  0  0  0
  -22.7250  -10.2150   20.3036 C   0  0  0  0  0  0
  -21.6865   -6.0748   22.5269 C   0  0  0  0  0  0
  -21.4039   -6.5648   23.8202 C   0  0  0  0  0  0
  -21.3647   -5.6795   24.9158 C   0  0  0  0  0  0
  -21.6043   -4.3063   24.7212 C   0  0  0  0  0  0
  -21.8821   -3.8151   23.4337 C   0  0  0  0  0  0
  -21.9202   -4.6971   22.3391 C   0  0  0  0  0  0
  -22.7821  -13.5227   21.1845 C   0  0  0  0  0  0
  -22.1667   -4.2162   21.0965 F   0  0  0  0  0  0
  -21.5605   -3.4540   25.7716 F   0  0  0  0  0  0
  -29.9764  -13.5454   20.4178 N   0  0  0  0  0  0
  -26.2904  -12.9427   20.3212 N   0  0  0  0  0  0
  -25.9325  -11.6573   20.5706 N   0  0  0  0  0  0
  -22.0480  -12.8202   22.0400 N   0  0  0  0  0  0
  -25.4191  -15.1956   20.4188 N   0  0  0  0  0  0
  -31.7694  -14.8650   20.1150 O   0  0  0  0  0  0
  -21.6650   -6.8916   21.4243 O   0  0  0  0  0  0
  -22.3493  -14.5523   20.6684 O   0  0  0  0  0  0
  -24.6305  -31.8554   23.1987 C   0  0  0  0  0  0
  -25.9119  -32.4745   23.8333 C   0  0  1  0  0  0
  -27.2206  -27.2439   20.1539 C   0  0  0  0  0  0
  -25.5911  -33.8558   24.2235 N   0  0  0  0  0  0
  -23.4259  -30.4776   21.5425 C   0  0  2  0  0  0
  -24.8777  -28.9055   20.1298 C   0  0  0  0  0  0
  -22.7436  -29.4615   22.4892 C   0  0  0  0  0  0
  -18.0168  -28.1373   22.8528 C   0  0  0  0  0  0
  -24.1490  -36.7257   23.2650 C   0  0  0  0  0  0
  -25.9748  -30.7592   21.3863 C   0  0  0  0  0  0
  -26.0508  -29.3768   20.7352 C   0  0  0  0  0  0
  -27.2275  -28.5593   20.7345 C   0  0  0  0  0  0
  -26.0297  -26.8388   19.5227 C   0  0  0  0  0  0
  -24.8701  -27.6431   19.5134 C   0  0  0  0  0  0
  -23.6539  -29.8045   20.1622 C   0  0  0  0  0  0
  -25.4118  -36.3050   24.0328 C   0  0  1  0  0  0
  -20.5808  -28.3645   23.1142 C   0  0  2  0  0  0
  -20.6664  -26.9393   22.5220 C   0  0  0  0  0  0
  -19.5487  -26.6162   21.5243 C   0  0  0  0  0  0
  -18.1674  -26.7966   22.1577 C   0  0  0  0  0  0
  -19.1481  -28.8817   23.2829 C   0  0  0  0  0  0
  -18.9470  -30.1396   23.8883 C   0  0  0  0  0  0
  -17.6512  -30.6627   24.0568 C   0  0  0  0  0  0
  -25.9082  -34.9428   23.5077 C   0  0  0  0  0  0
  -16.5360  -29.9128   23.6462 C   0  0  0  0  0  0
  -16.7193  -28.6524   23.0534 C   0  0  0  0  0  0
  -26.4488  -31.6573   25.0723 C   0  0  0  0  0  0
  -25.3682  -31.3751   26.1412 C   0  0  0  0  0  0
  -27.0383  -30.2995   24.6253 C   0  0  0  0  0  0
  -27.6029  -32.4359   25.7473 C   0  0  0  0  0  0
  -27.5565  -37.1783   24.8470 C   0  0  0  0  0  0
  -21.4150  -29.3056   22.3598 N   0  0  0  0  0  0
  -26.4288  -37.3768   23.9420 N   0  0  0  0  0  0
  -24.6949  -31.0477   22.0999 N   0  0  0  0  0  0
  -23.4122  -28.8136   23.2997 O   0  0  0  0  0  0
  -28.3272  -26.3721   20.0573 O   0  0  0  0  0  0
  -26.5679  -34.8916   22.4665 O   0  0  0  0  0  0
  -23.5462  -32.1447   23.7264 O   0  0  0  0  0  0
  -30.7167  -17.5755   18.9905 C   0  0  0  0  0  0
  -29.2683  -18.5519   20.6413 C   0  0  0  0  0  0
  -30.7927  -18.8561   18.4167 C   0  0  0  0  0  0
  -29.9308  -17.3414   20.1379 C   0  0  0  0  0  0
  -29.4129  -19.8686   20.0101 C   0  0  0  0  0  0
  -28.2850  -22.7753   22.0946 C   0  0  0  0  0  0
  -29.1754  -21.5461   21.8158 C   0  0  0  0  0  0
  -28.0467  -23.5790   20.7689 C   0  0  2  0  0  0
  -28.7272  -22.4979   19.7466 C   0  0  0  0  0  0
  -30.1037  -23.0557   19.3006 C   0  0  0  0  0  0
  -27.8400  -22.3454   18.4886 C   0  0  0  0  0  0
  -25.7304  -24.1152   21.4799 C   0  0  0  0  0  0
  -28.5190  -25.1630   20.9343 C   0  0  0  0  0  0
  -30.1634  -19.9462   18.8964 N   0  0  0  0  0  0
  -28.8589  -21.1495   20.4596 N   0  0  0  0  0  0
  -29.7976  -15.9329   20.6529 N   0  0  0  0  0  0
  -26.6324  -23.6051   20.4924 O   0  0  0  0  0  0
  -31.4798  -12.5799   19.2159 H   0  0  0  0  0  0
  -30.3707  -11.4970   20.0016 H   0  0  0  0  0  0
  -29.8148  -11.7072   17.5571 H   0  0  0  0  0  0
  -29.6581  -13.4397   17.7211 H   0  0  0  0  0  0
  -27.9046  -11.2782   18.9333 H   0  0  0  0  0  0
  -27.3965  -12.4995   17.7995 H   0  0  0  0  0  0
  -27.6298  -14.2504   19.4495 H   0  0  0  0  0  0
  -28.7117  -12.1955   21.4390 H   0  0  0  0  0  0
  -28.3972  -13.8761   21.7897 H   0  0  0  0  0  0
  -25.2799   -9.5697   22.4729 H   0  0  0  0  0  0
  -24.0003   -7.4667   22.7473 H   0  0  0  0  0  0
  -21.0855   -8.8821   19.8949 H   0  0  0  0  0  0
  -22.3740  -10.9691   19.6134 H   0  0  0  0  0  0
  -21.2066   -7.6159   23.9716 H   0  0  0  0  0  0
  -21.1444   -6.0516   25.9054 H   0  0  0  0  0  0
  -22.0612   -2.7620   23.2820 H   0  0  0  0  0  0
  -22.4120  -11.9872   22.4784 H   0  0  0  0  0  0
  -21.1083  -13.1188   22.2584 H   0  0  0  0  0  0
  -24.6583  -15.8509   20.5596 H   0  0  0  0  0  0
  -26.2579  -15.6383   20.0643 H   0  0  0  0  0  0
  -26.7174  -32.5405   23.1066 H   0  0  0  0  0  0
  -24.9970  -33.9735   25.0304 H   0  0  0  0  0  0
  -22.7293  -31.3065   21.3910 H   0  0  0  0  0  0
  -23.3760  -35.9591   23.3341 H   0  0  0  0  0  0
  -24.3550  -36.8864   22.2055 H   0  0  0  0  0  0
  -23.7244  -37.6458   23.6683 H   0  0  0  0  0  0
  -26.1134  -31.5189   20.6158 H   0  0  0  0  0  0
  -26.8511  -30.8114   22.0214 H   0  0  0  0  0  0
  -28.1310  -28.9316   21.1968 H   0  0  0  0  0  0
  -25.9906  -25.8703   19.0416 H   0  0  0  0  0  0
  -23.9706  -27.2787   19.0354 H   0  0  0  0  0  0
  -23.7996  -30.5814   19.4099 H   0  0  0  0  0  0
  -22.7696  -29.2513   19.8435 H   0  0  0  0  0  0
  -25.1305  -36.1889   25.0835 H   0  0  0  0  0  0
  -20.9972  -28.3110   24.1214 H   0  0  0  0  0  0
  -20.5970  -26.2208   23.3390 H   0  0  0  0  0  0
  -21.6419  -26.7616   22.0677 H   0  0  0  0  0  0
  -19.6378  -27.2696   20.6571 H   0  0  0  0  0  0
  -19.6541  -25.5921   21.1564 H   0  0  0  0  0  0
  -17.4010  -26.7122   21.3849 H   0  0  0  0  0  0
  -17.9713  -26.0010   22.8774 H   0  0  0  0  0  0
  -19.8014  -30.7121   24.2210 H   0  0  0  0  0  0
  -17.5130  -31.6352   24.5131 H   0  0  0  0  0  0
  -15.5363  -30.3030   23.7870 H   0  0  0  0  0  0
  -15.8548  -28.0815   22.7441 H   0  0  0  0  0  0
  -24.5833  -30.7145   25.7687 H   0  0  0  0  0  0
  -24.8901  -32.2959   26.4810 H   0  0  0  0  0  0
  -25.7958  -30.8908   27.0194 H   0  0  0  0  0  0
  -26.3014  -29.6677   24.1283 H   0  0  0  0  0  0
  -27.4052  -29.7327   25.4807 H   0  0  0  0  0  0
  -27.8885  -30.4267   23.9539 H   0  0  0  0  0  0
  -27.2616  -33.3669   26.2033 H   0  0  0  0  0  0
  -28.3820  -32.6928   25.0273 H   0  0  0  0  0  0
  -28.0719  -31.8492   26.5389 H   0  0  0  0  0  0
  -28.2595  -38.0066   24.7500 H   0  0  0  0  0  0
  -28.1050  -36.2587   24.6328 H   0  0  0  0  0  0
  -27.2283  -37.1465   25.8880 H   0  0  0  0  0  0
  -20.9344  -29.8772   21.6791 H   0  0  0  0  0  0
  -26.0138  -38.2848   24.1434 H   0  0  0  0  0  0
  -31.2636  -16.7734   18.5147 H   0  0  0  0  0  0
  -28.6332  -18.4651   21.5150 H   0  0  0  0  0  0
  -31.3859  -19.0146   17.5292 H   0  0  0  0  0  0
  -28.6741  -23.3894   22.9095 H   0  0  0  0  0  0
  -27.3655  -22.3304   22.4593 H   0  0  0  0  0  0
  -28.9942  -20.7452   22.5337 H   0  0  0  0  0  0
  -30.2330  -21.8106   21.8713 H   0  0  0  0  0  0
  -29.9950  -24.0215   18.8095 H   0  0  0  0  0  0
  -30.5916  -22.4123   18.5718 H   0  0  0  0  0  0
  -30.7990  -23.1845   20.1302 H   0  0  0  0  0  0
  -27.6182  -23.3221   18.0524 H   0  0  0  0  0  0
  -26.8798  -21.8865   18.7412 H   0  0  0  0  0  0
  -28.3036  -21.7356   17.7110 H   0  0  0  0  0  0
  -24.7435  -24.2205   21.0298 H   0  0  0  0  0  0
  -26.0080  -25.0954   21.8640 H   0  0  0  0  0  0
  -25.6097  -23.4493   22.3316 H   0  0  0  0  0  0
  -29.5981  -25.1226   21.0684 H   0  0  0  0  0  0
  -28.1817  -25.4968   21.9146 H   0  0  0  0  0  0
  -28.9131  -15.7300   21.0941 H   0  0  0  0  0  0
  1 25  1  0  0  0
  1 30  2  0  0  0
  1 86  1  0  0  0
  2  3  1  0  0  0
  2 25  1  0  0  0
  2 88  1  0  0  0
  2 89  1  0  0  0
  3  4  1  0  0  0
  3 90  1  0  0  0
  3 91  1  0  0  0
  4  5  1  0  0  0
  4 92  1  0  0  0
  4 93  1  0  0  0
  5  6  1  0  0  0
  5 26  1  0  0  0
  5 94  1  0  0  0
  6 25  1  0  0  0
  6 95  1  0  0  0
  6 96  1  0  0  0
  7  8  2  0  0  0
  7 26  1  0  0  0
  7 29  1  0  0  0
  8  9  1  0  0  0
  8 22  1  0  0  0
  9 10  1  0  0  0
  9 27  2  0  0  0
 10 11  2  0  0  0
 10 15  1  0  0  0
 11 12  1  0  0  0
 11 97  1  0  0  0
 12 13  2  0  0  0
 12 98  1  0  0  0
 13 14  1  0  0  0
 13 31  1  0  0  0
 14 15  2  0  0  0
 14 99  1  0  0  0
 15100  1  0  0  0
 16 17  2  0  0  0
 16 21  1  0  0  0
 16 31  1  0  0  0
 17 18  1  0  0  0
 17101  1  0  0  0
 18 19  2  0  0  0
 18102  1  0  0  0
 19 20  1  0  0  0
 19 24  1  0  0  0
 20 21  2  0  0  0
 20103  1  0  0  0
 21 23  1  0  0  0
 22 28  1  0  0  0
 22 32  2  0  0  0
 26 27  1  0  0  0
 28104  1  0  0  0
 28105  1  0  0  0
 29106  1  0  0  0
 29107  1  0  0  0
 33 34  1  0  0  0
 33 66  1  0  0  0
 33 70  2  0  0  0
 34 36  1  0  0  0
 34 59  1  0  0  0
 34108  1  0  0  0
 35 44  2  0  0  0
 35 45  1  0  0  0
 35 68  1  0  0  0
 36 56  1  0  0  0
 36109  1  0  0  0
 37 39  1  0  0  0
 37 47  1  0  0  0
 37 66  1  0  0  0
 37110  1  0  0  0
 38 43  2  0  0  0
 38 46  1  0  0  0
 38 47  1  0  0  0
 39 64  1  0  0  0
 39 67  2  0  0  0
 40 52  1  0  0  0
 40 53  2  0  0  0
 40 58  1  0  0  0
 41111  1  0  0  0
 41112  1  0  0  0
 41113  1  0  0  0
 41 48  1  0  0  0
 42 43  1  0  0  0
 42 66  1  0  0  0
 42114  1  0  0  0
 42115  1  0  0  0
 43 44  1  0  0  0
 44116  1  0  0  0
 45 46  2  0  0  0
 45117  1  0  0  0
 46118  1  0  0  0
 47119  1  0  0  0
 47120  1  0  0  0
 48 56  1  0  0  0
 48 65  1  0  0  0
 48121  1  0  0  0
 49 50  1  0  0  0
 49 53  1  0  0  0
 49 64  1  0  0  0
 49122  1  0  0  0
 50 51  1  0  0  0
 50123  1  0  0  0
 50124  1  0  0  0
 51 52  1  0  0  0
 51125  1  0  0  0
 51126  1  0  0  0
 52127  1  0  0  0
 52128  1  0  0  0
 53 54  1  0  0  0
 54 55  2  0  0  0
 54129  1  0  0  0
 55 57  1  0  0  0
 55130  1  0  0  0
 56 69  2  0  0  0
 57 58  2  0  0  0
 57131  1  0  0  0
 58132  1  0  0  0
 59 60  1  0  0  0
 59 61  1  0  0  0
 59 62  1  0  0  0
 60133  1  0  0  0
 60134  1  0  0  0
 60135  1  0  0  0
 61136  1  0  0  0
 61137  1  0  0  0
 61138  1  0  0  0
 62139  1  0  0  0
 62140  1  0  0  0
 62141  1  0  0  0
 63 65  1  0  0  0
 63142  1  0  0  0
 63143  1  0  0  0
 63144  1  0  0  0
 64145  1  0  0  0
 65146  1  0  0  0
 68 83  1  0  0  0
 71 73  2  0  0  0
 71 74  1  0  0  0
 71147  1  0  0  0
 72 74  2  0  0  0
 72 75  1  0  0  0
 72148  1  0  0  0
 73 84  1  0  0  0
 73149  1  0  0  0
 74 86  1  0  0  0
 75 84  2  0  0  0
 75 85  1  0  0  0
 76 77  1  0  0  0
 76 78  1  0  0  0
 76150  1  0  0  0
 76151  1  0  0  0
 77 85  1  0  0  0
 77152  1  0  0  0
 77153  1  0  0  0
 78 79  1  0  0  0
 78 83  1  0  0  0
 78 87  1  0  0  0
 79 80  1  0  0  0
 79 81  1  0  0  0
 79 85  1  0  0  0
 80154  1  0  0  0
 80155  1  0  0  0
 80156  1  0  0  0
 81157  1  0  0  0
 81158  1  0  0  0
 81159  1  0  0  0
 82 87  1  0  0  0
 82160  1  0  0  0
 82161  1  0  0  0
 82162  1  0  0  0
 83163  1  0  0  0
 83164  1  0  0  0
 86165  1  0  0  0
M  ISO  4   1 100  68 101  83 101  86 100
M  END
> <chiral flag>
0

> <version>
0

> <s_m_source_file>
/data/baiqing/PycharmProjects/Reinvent-master-3.2/result/LINK_invent/BTK/process_docking_weight1_custom_product_contain_oxygen_bond_distance_aromatic_linkinvent_7_9_3/rearranged_h_0157.sdf

> <i_m_source_file_index>
12

> <r_mmod_Potential_Energy-OPLS-2005>
284.006866455078

> <r_mmod_Stretch_Energy-OPLS-2005>
158.450653076172

> <r_mmod_Bend_Energy-OPLS-2005>
276.017272949219

> <r_mmod_Torsional_Energy-OPLS-2005>
339.604797363281

> <r_mmod_Improper_Torsional_Energy-OPLS-2005>
8.0579080581665

> <r_mmod_Van_der_Waal_Energy-OPLS-2005>
144.17756652832

> <r_mmod_Electrostatic_Energy-OPLS-2005>
-509.103607177734

> <r_mmod_Solvation_Energy-OPLS-2005>
-229.185531616211

> <b_mmod_Minimization_Converged-OPLS-2005>
0

> <r_mmod_RMS_Derivative-OPLS-2005>
5.23195123672485

$$$$
12
                    3D
 Structure written by MMmdl.
148156  0  0  1  0            999 V2000
  -30.5988  -14.7672   20.4650 C   0  0  0  0  0  0
  -30.4406  -12.4655   19.4808 C   0  0  0  0  0  0
  -29.5198  -12.5197   18.2414 C   0  0  0  0  0  0
  -28.0457  -12.3402   18.6529 C   0  0  0  0  0  0
  -27.6492  -13.2347   19.8569 C   0  0  2  0  0  0
  -28.6936  -13.1651   20.9953 C   0  0  0  0  0  0
  -25.2543  -13.8197   20.5653 C   0  0  0  0  0  0
  -24.1823  -13.0452   20.9203 C   0  0  0  0  0  0
  -24.6413  -11.6932   20.8753 C   0  0  0  0  0  0
  -23.9079  -10.4299   21.0396 C   0  0  0  0  0  0
  -24.3616   -9.4223   21.9189 C   0  0  0  0  0  0
  -23.6302   -8.2251   22.0734 C   0  0  0  0  0  0
  -22.4276   -8.0285   21.3541 C   0  0  0  0  0  0
  -21.9926   -9.0259   20.4629 C   0  0  0  0  0  0
  -22.7241  -10.2147   20.3054 C   0  0  0  0  0  0
  -21.6845   -6.0741   22.5275 C   0  0  0  0  0  0
  -21.4016   -6.5642   23.8211 C   0  0  0  0  0  0
  -21.3657   -5.6785   24.9178 C   0  0  0  0  0  0
  -21.6036   -4.3048   24.7228 C   0  0  0  0  0  0
  -21.8826   -3.8148   23.4353 C   0  0  0  0  0  0
  -21.9193   -4.6975   22.3405 C   0  0  0  0  0  0
  -22.7844  -13.5235   21.1842 C   0  0  0  0  0  0
  -22.1661   -4.2153   21.0993 F   0  0  0  0  0  0
  -21.5624   -3.4537   25.7745 F   0  0  0  0  0  0
  -29.9996  -13.5238   20.4237 N   0  0  0  0  0  0
  -26.2977  -12.9403   20.3274 N   0  0  0  0  0  0
  -25.9341  -11.6550   20.5762 N   0  0  0  0  0  0
  -22.0476  -12.8236   22.0407 N   0  0  0  0  0  0
  -25.4215  -15.1928   20.4083 N   0  0  0  0  0  0
  -31.7646  -14.8945   20.0709 O   0  0  0  0  0  0
  -21.6628   -6.8888   21.4237 O   0  0  0  0  0  0
  -22.3532  -14.5543   20.6691 O   0  0  0  0  0  0
  -24.6353  -31.8550   23.1996 C   0  0  0  0  0  0
  -25.9170  -32.4743   23.8350 C   0  0  1  0  0  0
  -27.2168  -27.2439   20.1342 C   0  0  0  0  0  0
  -25.5982  -33.8542   24.2288 N   0  0  0  0  0  0
  -23.4325  -30.4808   21.5411 C   0  0  2  0  0  0
  -24.8814  -28.9289   20.1061 C   0  0  0  0  0  0
  -22.7517  -29.4620   22.4881 C   0  0  0  0  0  0
  -18.0314  -28.1398   22.8492 C   0  0  0  0  0  0
  -24.1494  -36.7266   23.2640 C   0  0  0  0  0  0
  -25.9806  -30.7631   21.3834 C   0  0  0  0  0  0
  -26.0522  -29.3840   20.7237 C   0  0  0  0  0  0
  -27.2232  -28.5545   20.7293 C   0  0  0  0  0  0
  -26.0245  -26.8722   19.4701 C   0  0  0  0  0  0
  -24.8733  -27.6820   19.4676 C   0  0  0  0  0  0
  -23.6530  -29.8193   20.1554 C   0  0  0  0  0  0
  -25.4113  -36.3054   24.0341 C   0  0  1  0  0  0
  -20.5916  -28.3722   23.1246 C   0  0  2  0  0  0
  -20.6799  -26.9439   22.5401 C   0  0  0  0  0  0
  -19.5774  -26.6389   21.5208 C   0  0  0  0  0  0
  -18.1952  -26.7936   22.1631 C   0  0  0  0  0  0
  -19.1573  -28.8872   23.2864 C   0  0  0  0  0  0
  -18.9477  -30.1466   23.8890 C   0  0  0  0  0  0
  -17.6467  -30.6584   24.0563 C   0  0  0  0  0  0
  -25.9073  -34.9427   23.5112 C   0  0  0  0  0  0
  -16.5358  -29.9086   23.6338 C   0  0  0  0  0  0
  -16.7286  -28.6509   23.0352 C   0  0  0  0  0  0
  -26.4532  -31.6550   25.0731 C   0  0  0  0  0  0
  -25.3773  -31.3694   26.1466 C   0  0  0  0  0  0
  -27.0365  -30.2963   24.6213 C   0  0  0  0  0  0
  -27.6126  -32.4260   25.7478 C   0  0  0  0  0  0
  -27.5588  -37.1785   24.8460 C   0  0  0  0  0  0
  -21.4221  -29.3064   22.3615 N   0  0  0  0  0  0
  -26.4277  -37.3764   23.9415 N   0  0  0  0  0  0
  -24.7007  -31.0514   22.0972 N   0  0  0  0  0  0
  -23.4206  -28.8168   23.2993 O   0  0  0  0  0  0
  -28.2908  -26.3152   20.2203 O   0  0  0  0  0  0
  -26.5613  -34.8895   22.4653 O   0  0  0  0  0  0
  -23.5492  -32.1365   23.7278 O   0  0  0  0  0  0
  -29.2696  -18.4393   21.2130 C   0  0  0  0  0  0
  -30.5787  -17.9377   19.4811 C   0  0  0  0  0  0
  -29.9192  -17.3270   20.5245 C   0  0  0  0  0  0
  -29.5615  -19.6261   20.5364 C   0  0  0  0  0  0
  -28.9407  -23.6877   20.5359 C   0  0  0  0  0  0
  -28.8588  -22.1645   19.9962 C   0  0  0  0  0  0
  -28.0035  -24.8530   19.9380 C   0  0  0  0  0  0
  -29.8260  -15.8660   20.8345 N   0  0  0  0  0  0
  -29.2236  -20.9958   20.9073 N   0  0  0  0  0  0
  -29.7278  -23.9528   21.4501 O   0  0  0  0  0  0
  -30.3554  -19.3166   19.4635 O   0  0  0  0  0  0
  -31.4828  -12.5906   19.1848 H   0  0  0  0  0  0
  -30.3881  -11.4855   19.9576 H   0  0  0  0  0  0
  -29.8071  -11.7499   17.5265 H   0  0  0  0  0  0
  -29.6471  -13.4767   17.7307 H   0  0  0  0  0  0
  -27.9070  -11.2905   18.9110 H   0  0  0  0  0  0
  -27.3881  -12.5338   17.8020 H   0  0  0  0  0  0
  -27.6470  -14.2578   19.4791 H   0  0  0  0  0  0
  -28.7285  -12.1676   21.4335 H   0  0  0  0  0  0
  -28.4226  -13.8430   21.8048 H   0  0  0  0  0  0
  -25.2780   -9.5694   22.4764 H   0  0  0  0  0  0
  -23.9984   -7.4637   22.7470 H   0  0  0  0  0  0
  -21.0845   -8.8780   19.8970 H   0  0  0  0  0  0
  -22.3690  -10.9676   19.6155 H   0  0  0  0  0  0
  -21.2010   -7.6145   23.9733 H   0  0  0  0  0  0
  -21.1454   -6.0510   25.9077 H   0  0  0  0  0  0
  -22.0617   -2.7613   23.2839 H   0  0  0  0  0  0
  -22.4054  -11.9889   22.4805 H   0  0  0  0  0  0
  -21.1089  -13.1287   22.2602 H   0  0  0  0  0  0
  -24.6508  -15.8455   20.5164 H   0  0  0  0  0  0
  -26.2589  -15.6343   20.0489 H   0  0  0  0  0  0
  -26.7241  -32.5382   23.1105 H   0  0  0  0  0  0
  -25.0190  -33.9682   25.0473 H   0  0  0  0  0  0
  -22.7307  -31.3040   21.3951 H   0  0  0  0  0  0
  -23.3768  -35.9597   23.3270 H   0  0  0  0  0  0
  -24.3604  -36.8903   22.2059 H   0  0  0  0  0  0
  -23.7221  -37.6457   23.6659 H   0  0  0  0  0  0
  -26.1231  -31.5231   20.6133 H   0  0  0  0  0  0
  -26.8575  -30.8107   22.0169 H   0  0  0  0  0  0
  -28.1125  -28.8947   21.2393 H   0  0  0  0  0  0
  -25.9397  -25.9258   18.9587 H   0  0  0  0  0  0
  -23.9813  -27.3315   18.9676 H   0  0  0  0  0  0
  -23.7823  -30.5986   19.4036 H   0  0  0  0  0  0
  -22.7711  -29.2575   19.8435 H   0  0  0  0  0  0
  -25.1288  -36.1917   25.0838 H   0  0  0  0  0  0
  -21.0024  -28.3306   24.1355 H   0  0  0  0  0  0
  -20.5718  -26.2326   23.3611 H   0  0  0  0  0  0
  -21.6662  -26.7463   22.1161 H   0  0  0  0  0  0
  -19.6922  -25.6295   21.1245 H   0  0  0  0  0  0
  -19.6699  -27.3196   20.6738 H   0  0  0  0  0  0
  -17.4217  -26.6689   21.4029 H   0  0  0  0  0  0
  -18.0355  -26.0075   22.9025 H   0  0  0  0  0  0
  -19.7940  -30.7299   24.2243 H   0  0  0  0  0  0
  -17.5010  -31.6264   24.5179 H   0  0  0  0  0  0
  -15.5355  -30.2985   23.7650 H   0  0  0  0  0  0
  -15.8693  -28.0812   22.7071 H   0  0  0  0  0  0
  -24.5907  -30.7116   25.7768 H   0  0  0  0  0  0
  -24.9041  -32.2862   26.4991 H   0  0  0  0  0  0
  -25.8103  -30.8767   27.0183 H   0  0  0  0  0  0
  -26.2939  -29.6698   24.1278 H   0  0  0  0  0  0
  -27.4071  -29.7255   25.4733 H   0  0  0  0  0  0
  -27.8812  -30.4215   23.9437 H   0  0  0  0  0  0
  -27.2784  -33.3570   26.2062 H   0  0  0  0  0  0
  -28.3934  -32.6782   25.0290 H   0  0  0  0  0  0
  -28.0794  -31.8360   26.5376 H   0  0  0  0  0  0
  -28.2569  -38.0119   24.7561 H   0  0  0  0  0  0
  -28.1119  -36.2652   24.6217 H   0  0  0  0  0  0
  -27.2313  -37.1339   25.8865 H   0  0  0  0  0  0
  -20.9406  -29.8777   21.6806 H   0  0  0  0  0  0
  -26.0155  -38.2837   24.1458 H   0  0  0  0  0  0
  -28.6652  -18.3747   22.1051 H   0  0  0  0  0  0
  -31.1947  -17.5689   18.6694 H   0  0  0  0  0  0
  -29.4518  -22.1055   19.0853 H   0  0  0  0  0  0
  -27.8244  -22.0176   19.6803 H   0  0  0  0  0  0
  -27.0159  -24.6300   20.3404 H   0  0  0  0  0  0
  -27.9345  -24.7143   18.8603 H   0  0  0  0  0  0
  -28.9818  -15.5949   21.3196 H   0  0  0  0  0  0
  -28.8282  -21.0967   21.8384 H   0  0  0  0  0  0
  1 25  1  0  0  0
  1 30  2  0  0  0
  1 78  1  0  0  0
  2  3  1  0  0  0
  2 25  1  0  0  0
  2 82  1  0  0  0
  2 83  1  0  0  0
  3  4  1  0  0  0
  3 84  1  0  0  0
  3 85  1  0  0  0
  4  5  1  0  0  0
  4 86  1  0  0  0
  4 87  1  0  0  0
  5  6  1  0  0  0
  5 26  1  0  0  0
  5 88  1  0  0  0
  6 25  1  0  0  0
  6 89  1  0  0  0
  6 90  1  0  0  0
  7  8  2  0  0  0
  7 26  1  0  0  0
  7 29  1  0  0  0
  8  9  1  0  0  0
  8 22  1  0  0  0
  9 10  1  0  0  0
  9 27  2  0  0  0
 10 11  2  0  0  0
 10 15  1  0  0  0
 11 12  1  0  0  0
 11 91  1  0  0  0
 12 13  2  0  0  0
 12 92  1  0  0  0
 13 14  1  0  0  0
 13 31  1  0  0  0
 14 15  2  0  0  0
 14 93  1  0  0  0
 15 94  1  0  0  0
 16 17  2  0  0  0
 16 21  1  0  0  0
 16 31  1  0  0  0
 17 18  1  0  0  0
 17 95  1  0  0  0
 18 19  2  0  0  0
 18 96  1  0  0  0
 19 20  1  0  0  0
 19 24  1  0  0  0
 20 21  2  0  0  0
 20 97  1  0  0  0
 21 23  1  0  0  0
 22 28  1  0  0  0
 22 32  2  0  0  0
 26 27  1  0  0  0
 28 98  1  0  0  0
 28 99  1  0  0  0
 29100  1  0  0  0
 29101  1  0  0  0
 33 34  1  0  0  0
 33 66  1  0  0  0
 33 70  2  0  0  0
 34 36  1  0  0  0
 34 59  1  0  0  0
 34102  1  0  0  0
 35 44  2  0  0  0
 35 45  1  0  0  0
 35 68  1  0  0  0
 36 56  1  0  0  0
 36103  1  0  0  0
 37 39  1  0  0  0
 37 47  1  0  0  0
 37 66  1  0  0  0
 37104  1  0  0  0
 38 43  2  0  0  0
 38 46  1  0  0  0
 38 47  1  0  0  0
 39 64  1  0  0  0
 39 67  2  0  0  0
 40 52  1  0  0  0
 40 53  2  0  0  0
 40 58  1  0  0  0
 41105  1  0  0  0
 41106  1  0  0  0
 41107  1  0  0  0
 41 48  1  0  0  0
 42 43  1  0  0  0
 42 66  1  0  0  0
 42108  1  0  0  0
 42109  1  0  0  0
 43 44  1  0  0  0
 44110  1  0  0  0
 45 46  2  0  0  0
 45111  1  0  0  0
 46112  1  0  0  0
 47113  1  0  0  0
 47114  1  0  0  0
 48 56  1  0  0  0
 48 65  1  0  0  0
 48115  1  0  0  0
 49 50  1  0  0  0
 49 53  1  0  0  0
 49 64  1  0  0  0
 49116  1  0  0  0
 50 51  1  0  0  0
 50117  1  0  0  0
 50118  1  0  0  0
 51 52  1  0  0  0
 51119  1  0  0  0
 51120  1  0  0  0
 52121  1  0  0  0
 52122  1  0  0  0
 53 54  1  0  0  0
 54 55  2  0  0  0
 54123  1  0  0  0
 55 57  1  0  0  0
 55124  1  0  0  0
 56 69  2  0  0  0
 57 58  2  0  0  0
 57125  1  0  0  0
 58126  1  0  0  0
 59 60  1  0  0  0
 59 61  1  0  0  0
 59 62  1  0  0  0
 60127  1  0  0  0
 60128  1  0  0  0
 60129  1  0  0  0
 61130  1  0  0  0
 61131  1  0  0  0
 61132  1  0  0  0
 62133  1  0  0  0
 62134  1  0  0  0
 62135  1  0  0  0
 63 65  1  0  0  0
 63136  1  0  0  0
 63137  1  0  0  0
 63138  1  0  0  0
 64139  1  0  0  0
 65140  1  0  0  0
 68 77  1  0  0  0
 71 73  1  0  0  0
 71 74  2  0  0  0
 71141  1  0  0  0
 72 73  2  0  0  0
 72 81  1  0  0  0
 72142  1  0  0  0
 73 78  1  0  0  0
 74 79  1  0  0  0
 74 81  1  0  0  0
 75 76  1  0  0  0
 75 77  1  0  0  0
 75 80  2  0  0  0
 76 79  1  0  0  0
 76143  1  0  0  0
 76144  1  0  0  0
 77145  1  0  0  0
 77146  1  0  0  0
 78147  1  0  0  0
 79148  1  0  0  0
M  ISO  4   1 100  68 101  77 101  78 100
M  END
> <chiral flag>
0

> <version>
0

> <s_m_source_file>
/data/baiqing/PycharmProjects/Reinvent-master-3.2/result/LINK_invent/BTK/process_docking_weight1_custom_product_contain_oxygen_bond_distance_aromatic_linkinvent_7_9_3/rearranged_h_0157.sdf

> <i_m_source_file_index>
13

> <r_mmod_Potential_Energy-OPLS-2005>
179.451599121094

> <r_mmod_Stretch_Energy-OPLS-2005>
130.574493408203

> <r_mmod_Bend_Energy-OPLS-2005>
185.089462280273

> <r_mmod_Torsional_Energy-OPLS-2005>
216.46842956543

> <r_mmod_Improper_Torsional_Energy-OPLS-2005>
5.39483642578125

> <r_mmod_Van_der_Waal_Energy-OPLS-2005>
118.561950683594

> <r_mmod_Electrostatic_Energy-OPLS-2005>
-314.445037841797

> <r_mmod_Solvation_Energy-OPLS-2005>
-259.938385009766

> <b_mmod_Minimization_Converged-OPLS-2005>
0

> <r_mmod_RMS_Derivative-OPLS-2005>
4.39615392684937

$$$$
13
                    3D
 Structure written by MMmdl.
151160  0  0  1  0            999 V2000
  -30.5188  -14.8992   20.4210 C   0  0  0  0  0  0
  -30.4552  -12.5468   19.4929 C   0  0  0  0  0  0
  -29.5244  -12.5132   18.2571 C   0  0  0  0  0  0
  -28.0575  -12.3024   18.6786 C   0  0  0  0  0  0
  -27.6413  -13.2304   19.8495 C   0  0  2  0  0  0
  -28.6861  -13.2117   20.9876 C   0  0  0  0  0  0
  -25.2512  -13.8185   20.5667 C   0  0  0  0  0  0
  -24.1806  -13.0434   20.9203 C   0  0  0  0  0  0
  -24.6403  -11.6913   20.8767 C   0  0  0  0  0  0
  -23.9083  -10.4293   21.0422 C   0  0  0  0  0  0
  -24.3634   -9.4201   21.9201 C   0  0  0  0  0  0
  -23.6294   -8.2244   22.0767 C   0  0  0  0  0  0
  -22.4277   -8.0290   21.3548 C   0  0  0  0  0  0
  -21.9922   -9.0268   20.4654 C   0  0  0  0  0  0
  -22.7258  -10.2143   20.3063 C   0  0  0  0  0  0
  -21.6853   -6.0739   22.5280 C   0  0  0  0  0  0
  -21.4016   -6.5642   23.8213 C   0  0  0  0  0  0
  -21.3659   -5.6793   24.9176 C   0  0  0  0  0  0
  -21.6042   -4.3053   24.7220 C   0  0  0  0  0  0
  -21.8819   -3.8147   23.4341 C   0  0  0  0  0  0
  -21.9190   -4.6969   22.3400 C   0  0  0  0  0  0
  -22.7828  -13.5220   21.1856 C   0  0  0  0  0  0
  -22.1657   -4.2152   21.0975 F   0  0  0  0  0  0
  -21.5629   -3.4538   25.7729 F   0  0  0  0  0  0
  -29.9727  -13.6201   20.4030 N   0  0  0  0  0  0
  -26.2940  -12.9386   20.3280 N   0  0  0  0  0  0
  -25.9341  -11.6537   20.5795 N   0  0  0  0  0  0
  -22.0469  -12.8212   22.0419 N   0  0  0  0  0  0
  -25.4181  -15.1916   20.4023 N   0  0  0  0  0  0
  -31.7019  -15.0405   20.0933 O   0  0  0  0  0  0
  -21.6639   -6.8886   21.4243 O   0  0  0  0  0  0
  -22.3522  -14.5523   20.6702 O   0  0  0  0  0  0
  -24.6456  -31.8457   23.1875 C   0  0  0  0  0  0
  -25.9223  -32.4705   23.8274 C   0  0  1  0  0  0
  -27.2235  -27.1419   20.1488 C   0  0  0  0  0  0
  -25.5987  -33.8506   24.2218 N   0  0  0  0  0  0
  -23.4506  -30.4672   21.5308 C   0  0  2  0  0  0
  -24.9009  -28.8998   20.1082 C   0  0  0  0  0  0
  -22.7604  -29.4561   22.4814 C   0  0  0  0  0  0
  -18.0326  -28.1426   22.8472 C   0  0  0  0  0  0
  -24.1496  -36.7238   23.2639 C   0  0  0  0  0  0
  -26.0068  -30.7248   21.3831 C   0  0  0  0  0  0
  -26.0798  -29.3354   20.7277 C   0  0  0  0  0  0
  -27.2403  -28.4731   20.7324 C   0  0  0  0  0  0
  -26.0147  -26.8161   19.4874 C   0  0  0  0  0  0
  -24.8818  -27.6519   19.4744 C   0  0  0  0  0  0
  -23.6785  -29.8007   20.1490 C   0  0  0  0  0  0
  -25.4110  -36.3024   24.0335 C   0  0  1  0  0  0
  -20.5951  -28.3742   23.1217 C   0  0  2  0  0  0
  -20.6820  -26.9447   22.5372 C   0  0  0  0  0  0
  -19.5785  -26.6412   21.5197 C   0  0  0  0  0  0
  -18.1965  -26.7974   22.1609 C   0  0  0  0  0  0
  -19.1587  -28.8895   23.2859 C   0  0  0  0  0  0
  -18.9501  -30.1494   23.8886 C   0  0  0  0  0  0
  -17.6500  -30.6606   24.0570 C   0  0  0  0  0  0
  -25.9067  -34.9404   23.5070 C   0  0  0  0  0  0
  -16.5386  -29.9099   23.6343 C   0  0  0  0  0  0
  -16.7309  -28.6530   23.0346 C   0  0  0  0  0  0
  -26.4555  -31.6552   25.0693 C   0  0  0  0  0  0
  -25.3746  -31.3723   26.1386 C   0  0  0  0  0  0
  -27.0411  -30.2961   24.6216 C   0  0  0  0  0  0
  -27.6115  -32.4277   25.7465 C   0  0  0  0  0  0
  -27.5586  -37.1745   24.8461 C   0  0  0  0  0  0
  -21.4282  -29.3084   22.3586 N   0  0  0  0  0  0
  -26.4266  -37.3742   23.9448 N   0  0  0  0  0  0
  -24.7210  -31.0325   22.0903 N   0  0  0  0  0  0
  -23.4243  -28.8102   23.2959 O   0  0  0  0  0  0
  -28.2603  -26.1360   20.2320 O   0  0  0  0  0  0
  -26.5630  -34.8914   22.4640 O   0  0  0  0  0  0
  -23.5562  -32.1315   23.7079 O   0  0  0  0  0  0
  -30.1902  -18.4817   19.8968 C   0  0  0  0  0  0
  -29.6905  -19.8823   20.1287 C   0  0  0  0  0  0
  -28.6834  -19.8859   21.0501 C   0  0  0  0  0  0
  -29.5879  -17.4163   20.6150 C   0  0  0  0  0  0
  -28.7477  -23.2389   20.2483 C   0  0  0  0  0  0
  -30.2178  -21.2532   19.5391 C   0  0  0  0  0  0
  -27.8906  -21.1053   21.5375 C   0  0  0  0  0  0
  -28.5758  -22.5337   21.6129 C   0  0  0  0  0  0
  -27.8937  -24.6500   19.9587 C   0  0  0  0  0  0
  -29.3722  -22.5272   19.3377 N   0  0  0  0  0  0
  -29.6455  -15.9805   20.6672 N   0  0  0  0  0  0
  -28.3541  -18.2271   21.6053 S   0  0  0  0  0  0
  -31.4861  -12.7167   19.1793 H   0  0  0  0  0  0
  -30.4568  -11.5825   20.0045 H   0  0  0  0  0  0
  -29.8341  -11.7211   17.5738 H   0  0  0  0  0  0
  -29.6153  -13.4496   17.7047 H   0  0  0  0  0  0
  -27.9552  -11.2602   18.9868 H   0  0  0  0  0  0
  -27.3899  -12.4328   17.8271 H   0  0  0  0  0  0
  -27.6200  -14.2390   19.4354 H   0  0  0  0  0  0
  -28.7602  -12.2198   21.4360 H   0  0  0  0  0  0
  -28.3917  -13.8867   21.7930 H   0  0  0  0  0  0
  -25.2784   -9.5670   22.4777 H   0  0  0  0  0  0
  -23.9993   -7.4634   22.7494 H   0  0  0  0  0  0
  -21.0848   -8.8797   19.8958 H   0  0  0  0  0  0
  -22.3731  -10.9687   19.6168 H   0  0  0  0  0  0
  -21.2014   -7.6151   23.9720 H   0  0  0  0  0  0
  -21.1478   -6.0521   25.9077 H   0  0  0  0  0  0
  -22.0600   -2.7606   23.2837 H   0  0  0  0  0  0
  -22.4072  -11.9846   22.4762 H   0  0  0  0  0  0
  -21.1115  -13.1283   22.2656 H   0  0  0  0  0  0
  -24.6387  -15.8342   20.4892 H   0  0  0  0  0  0
  -26.2480  -15.6307   20.0260 H   0  0  0  0  0  0
  -26.7288  -32.5312   23.1002 H   0  0  0  0  0  0
  -25.0180  -33.9618   25.0394 H   0  0  0  0  0  0
  -22.7548  -31.2932   21.3744 H   0  0  0  0  0  0
  -23.3790  -35.9535   23.3230 H   0  0  0  0  0  0
  -24.3619  -36.8911   22.2071 H   0  0  0  0  0  0
  -23.7204  -37.6401   23.6690 H   0  0  0  0  0  0
  -26.1539  -31.4785   20.6074 H   0  0  0  0  0  0
  -26.8816  -30.7797   22.0192 H   0  0  0  0  0  0
  -28.1340  -28.8014   21.2446 H   0  0  0  0  0  0
  -25.8926  -25.8660   18.9918 H   0  0  0  0  0  0
  -23.9842  -27.3060   18.9820 H   0  0  0  0  0  0
  -23.8205  -30.5783   19.3975 H   0  0  0  0  0  0
  -22.7952  -29.2436   19.8305 H   0  0  0  0  0  0
  -25.1280  -36.1835   25.0820 H   0  0  0  0  0  0
  -21.0042  -28.3322   24.1338 H   0  0  0  0  0  0
  -20.5737  -26.2350   23.3583 H   0  0  0  0  0  0
  -21.6681  -26.7467   22.1142 H   0  0  0  0  0  0
  -19.6957  -25.6323   21.1218 H   0  0  0  0  0  0
  -19.6734  -27.3222   20.6732 H   0  0  0  0  0  0
  -17.4237  -26.6724   21.4013 H   0  0  0  0  0  0
  -18.0371  -26.0129   22.9015 H   0  0  0  0  0  0
  -19.7985  -30.7318   24.2235 H   0  0  0  0  0  0
  -17.5056  -31.6277   24.5184 H   0  0  0  0  0  0
  -15.5387  -30.2997   23.7696 H   0  0  0  0  0  0
  -15.8714  -28.0843   22.7052 H   0  0  0  0  0  0
  -24.5979  -30.7017   25.7705 H   0  0  0  0  0  0
  -24.8878  -32.2892   26.4716 H   0  0  0  0  0  0
  -25.8039  -30.8978   27.0221 H   0  0  0  0  0  0
  -26.3012  -29.6681   24.1247 H   0  0  0  0  0  0
  -27.4124  -29.7243   25.4730 H   0  0  0  0  0  0
  -27.8875  -30.4263   23.9470 H   0  0  0  0  0  0
  -27.2779  -33.3640   26.1959 H   0  0  0  0  0  0
  -28.3973  -32.6710   25.0298 H   0  0  0  0  0  0
  -28.0734  -31.8432   26.5434 H   0  0  0  0  0  0
  -28.2495  -38.0146   24.7610 H   0  0  0  0  0  0
  -28.1183  -36.2668   24.6126 H   0  0  0  0  0  0
  -27.2336  -37.1187   25.8870 H   0  0  0  0  0  0
  -20.9475  -29.8822   21.6788 H   0  0  0  0  0  0
  -26.0125  -38.2789   24.1532 H   0  0  0  0  0  0
  -30.9802  -18.3162   19.1773 H   0  0  0  0  0  0
  -30.6340  -21.0165   18.5591 H   0  0  0  0  0  0
  -31.1033  -21.5333   20.1121 H   0  0  0  0  0  0
  -27.5251  -20.8728   22.5373 H   0  0  0  0  0  0
  -26.9894  -21.1893   20.9278 H   0  0  0  0  0  0
  -27.9512  -23.1759   22.2344 H   0  0  0  0  0  0
  -29.5347  -22.4729   22.1295 H   0  0  0  0  0  0
  -26.9388  -24.4897   20.4609 H   0  0  0  0  0  0
  -27.6723  -24.6127   18.8934 H   0  0  0  0  0  0
  -28.7762  -15.5985   21.0066 H   0  0  0  0  0  0
  1 25  1  0  0  0
  1 30  2  0  0  0
  1 81  1  0  0  0
  2  3  1  0  0  0
  2 25  1  0  0  0
  2 83  1  0  0  0
  2 84  1  0  0  0
  3  4  1  0  0  0
  3 85  1  0  0  0
  3 86  1  0  0  0
  4  5  1  0  0  0
  4 87  1  0  0  0
  4 88  1  0  0  0
  5  6  1  0  0  0
  5 26  1  0  0  0
  5 89  1  0  0  0
  6 25  1  0  0  0
  6 90  1  0  0  0
  6 91  1  0  0  0
  7  8  2  0  0  0
  7 26  1  0  0  0
  7 29  1  0  0  0
  8  9  1  0  0  0
  8 22  1  0  0  0
  9 10  1  0  0  0
  9 27  2  0  0  0
 10 11  2  0  0  0
 10 15  1  0  0  0
 11 12  1  0  0  0
 11 92  1  0  0  0
 12 13  2  0  0  0
 12 93  1  0  0  0
 13 14  1  0  0  0
 13 31  1  0  0  0
 14 15  2  0  0  0
 14 94  1  0  0  0
 15 95  1  0  0  0
 16 17  2  0  0  0
 16 21  1  0  0  0
 16 31  1  0  0  0
 17 18  1  0  0  0
 17 96  1  0  0  0
 18 19  2  0  0  0
 18 97  1  0  0  0
 19 20  1  0  0  0
 19 24  1  0  0  0
 20 21  2  0  0  0
 20 98  1  0  0  0
 21 23  1  0  0  0
 22 28  1  0  0  0
 22 32  2  0  0  0
 26 27  1  0  0  0
 28 99  1  0  0  0
 28100  1  0  0  0
 29101  1  0  0  0
 29102  1  0  0  0
 33 34  1  0  0  0
 33 66  1  0  0  0
 33 70  2  0  0  0
 34 36  1  0  0  0
 34 59  1  0  0  0
 34103  1  0  0  0
 35 44  2  0  0  0
 35 45  1  0  0  0
 35 68  1  0  0  0
 36 56  1  0  0  0
 36104  1  0  0  0
 37 39  1  0  0  0
 37 47  1  0  0  0
 37 66  1  0  0  0
 37105  1  0  0  0
 38 43  2  0  0  0
 38 46  1  0  0  0
 38 47  1  0  0  0
 39 64  1  0  0  0
 39 67  2  0  0  0
 40 52  1  0  0  0
 40 53  2  0  0  0
 40 58  1  0  0  0
 41106  1  0  0  0
 41107  1  0  0  0
 41108  1  0  0  0
 41 48  1  0  0  0
 42 43  1  0  0  0
 42 66  1  0  0  0
 42109  1  0  0  0
 42110  1  0  0  0
 43 44  1  0  0  0
 44111  1  0  0  0
 45 46  2  0  0  0
 45112  1  0  0  0
 46113  1  0  0  0
 47114  1  0  0  0
 47115  1  0  0  0
 48 56  1  0  0  0
 48 65  1  0  0  0
 48116  1  0  0  0
 49 50  1  0  0  0
 49 53  1  0  0  0
 49 64  1  0  0  0
 49117  1  0  0  0
 50 51  1  0  0  0
 50118  1  0  0  0
 50119  1  0  0  0
 51 52  1  0  0  0
 51120  1  0  0  0
 51121  1  0  0  0
 52122  1  0  0  0
 52123  1  0  0  0
 53 54  1  0  0  0
 54 55  2  0  0  0
 54124  1  0  0  0
 55 57  1  0  0  0
 55125  1  0  0  0
 56 69  2  0  0  0
 57 58  2  0  0  0
 57126  1  0  0  0
 58127  1  0  0  0
 59 60  1  0  0  0
 59 61  1  0  0  0
 59 62  1  0  0  0
 60128  1  0  0  0
 60129  1  0  0  0
 60130  1  0  0  0
 61131  1  0  0  0
 61132  1  0  0  0
 61133  1  0  0  0
 62134  1  0  0  0
 62135  1  0  0  0
 62136  1  0  0  0
 63 65  1  0  0  0
 63137  1  0  0  0
 63138  1  0  0  0
 63139  1  0  0  0
 64140  1  0  0  0
 65141  1  0  0  0
 68 79  1  0  0  0
 71 72  1  0  0  0
 71 74  2  0  0  0
 71142  1  0  0  0
 72 73  2  0  0  0
 72 76  1  0  0  0
 73 77  1  0  0  0
 73 82  1  0  0  0
 74 81  1  0  0  0
 74 82  1  0  0  0
 75 78  1  0  0  0
 75 79  1  0  0  0
 75 80  2  0  0  0
 76 80  1  0  0  0
 76143  1  0  0  0
 76144  1  0  0  0
 77 78  1  0  0  0
 77145  1  0  0  0
 77146  1  0  0  0
 78147  1  0  0  0
 78148  1  0  0  0
 79149  1  0  0  0
 79150  1  0  0  0
 81151  1  0  0  0
M  ISO  4   1 100  68 101  79 101  81 100
M  END
> <chiral flag>
0

> <version>
0

> <s_m_source_file>
/data/baiqing/PycharmProjects/Reinvent-master-3.2/result/LINK_invent/BTK/process_docking_weight1_custom_product_contain_oxygen_bond_distance_aromatic_linkinvent_7_9_3/rearranged_h_0157.sdf

> <i_m_source_file_index>
14

> <r_mmod_Potential_Energy-OPLS-2005>
432.202087402344

> <r_mmod_Stretch_Energy-OPLS-2005>
207.748672485352

> <r_mmod_Bend_Energy-OPLS-2005>
289.123809814453

> <r_mmod_Torsional_Energy-OPLS-2005>
217.402801513672

> <r_mmod_Improper_Torsional_Energy-OPLS-2005>
8.72435855865479

> <r_mmod_Van_der_Waal_Energy-OPLS-2005>
118.544914245605

> <r_mmod_Electrostatic_Energy-OPLS-2005>
-366.800537109375

> <r_mmod_Solvation_Energy-OPLS-2005>
-220.151641845703

> <b_mmod_Minimization_Converged-OPLS-2005>
0

> <r_mmod_RMS_Derivative-OPLS-2005>
2.51263809204102

$$$$
14
                    3D
 Structure written by MMmdl.
151159  0  0  1  0            999 V2000
  -30.6656  -14.5472   20.5487 C   0  0  0  0  0  0
  -30.4271  -12.3490   19.4315 C   0  0  0  0  0  0
  -29.4975  -12.5026   18.2102 C   0  0  0  0  0  0
  -28.0209  -12.3438   18.6251 C   0  0  0  0  0  0
  -27.6537  -13.2063   19.8617 C   0  0  2  0  0  0
  -28.6954  -13.0288   20.9871 C   0  0  0  0  0  0
  -25.2570  -13.8159   20.5643 C   0  0  0  0  0  0
  -24.1821  -13.0443   20.9162 C   0  0  0  0  0  0
  -24.6367  -11.6906   20.8718 C   0  0  0  0  0  0
  -23.9043  -10.4290   21.0390 C   0  0  0  0  0  0
  -24.3601   -9.4212   21.9175 C   0  0  0  0  0  0
  -23.6279   -8.2251   22.0765 C   0  0  0  0  0  0
  -22.4266   -8.0274   21.3552 C   0  0  0  0  0  0
  -21.9893   -9.0244   20.4651 C   0  0  0  0  0  0
  -22.7214  -10.2124   20.3045 C   0  0  0  0  0  0
  -21.6850   -6.0721   22.5279 C   0  0  0  0  0  0
  -21.4010   -6.5632   23.8209 C   0  0  0  0  0  0
  -21.3660   -5.6788   24.9169 C   0  0  0  0  0  0
  -21.6051   -4.3054   24.7221 C   0  0  0  0  0  0
  -21.8821   -3.8140   23.4350 C   0  0  0  0  0  0
  -21.9195   -4.6956   22.3400 C   0  0  0  0  0  0
  -22.7849  -13.5251   21.1826 C   0  0  0  0  0  0
  -22.1663   -4.2139   21.0981 F   0  0  0  0  0  0
  -21.5636   -3.4539   25.7741 F   0  0  0  0  0  0
  -30.0161  -13.3539   20.4267 N   0  0  0  0  0  0
  -26.2975  -12.9317   20.3283 N   0  0  0  0  0  0
  -25.9290  -11.6480   20.5739 N   0  0  0  0  0  0
  -22.0475  -12.8243   22.0371 N   0  0  0  0  0  0
  -25.4321  -15.1877   20.4039 N   0  0  0  0  0  0
  -31.8128  -14.7158   20.1250 O   0  0  0  0  0  0
  -21.6640   -6.8867   21.4242 O   0  0  0  0  0  0
  -22.3548  -14.5557   20.6669 O   0  0  0  0  0  0
  -24.6217  -31.8637   23.2024 C   0  0  0  0  0  0
  -25.9080  -32.4797   23.8348 C   0  0  1  0  0  0
  -27.2368  -27.3759   20.0859 C   0  0  0  0  0  0
  -25.5914  -33.8595   24.2272 N   0  0  0  0  0  0
  -23.4127  -30.4854   21.5430 C   0  0  2  0  0  0
  -24.8569  -28.9394   20.1141 C   0  0  0  0  0  0
  -22.7443  -29.4651   22.4943 C   0  0  0  0  0  0
  -18.0280  -28.1393   22.8471 C   0  0  0  0  0  0
  -24.1495  -36.7291   23.2636 C   0  0  0  0  0  0
  -25.9491  -30.8104   21.3625 C   0  0  0  0  0  0
  -26.0232  -29.4404   20.7051 C   0  0  0  0  0  0
  -27.2125  -28.6668   20.6835 C   0  0  0  0  0  0
  -26.0404  -26.8975   19.5047 C   0  0  0  0  0  0
  -24.8631  -27.6693   19.5133 C   0  0  0  0  0  0
  -23.6222  -29.8130   20.1608 C   0  0  0  0  0  0
  -25.4123  -36.3087   24.0325 C   0  0  1  0  0  0
  -20.5881  -28.3679   23.1296 C   0  0  2  0  0  0
  -20.6778  -26.9412   22.5406 C   0  0  0  0  0  0
  -19.5756  -26.6405   21.5206 C   0  0  0  0  0  0
  -18.1926  -26.7937   22.1613 C   0  0  0  0  0  0
  -19.1538  -28.8843   23.2873 C   0  0  0  0  0  0
  -18.9469  -30.1443   23.8896 C   0  0  0  0  0  0
  -17.6473  -30.6592   24.0558 C   0  0  0  0  0  0
  -25.9061  -34.9461   23.5102 C   0  0  0  0  0  0
  -16.5354  -29.9099   23.6337 C   0  0  0  0  0  0
  -16.7269  -28.6515   23.0349 C   0  0  0  0  0  0
  -26.4466  -31.6603   25.0716 C   0  0  0  0  0  0
  -25.3689  -31.3780   26.1440 C   0  0  0  0  0  0
  -27.0304  -30.3029   24.6164 C   0  0  0  0  0  0
  -27.6030  -32.4345   25.7483 C   0  0  0  0  0  0
  -27.5577  -37.1799   24.8467 C   0  0  0  0  0  0
  -21.4167  -29.3037   22.3671 N   0  0  0  0  0  0
  -26.4301  -37.3783   23.9403 N   0  0  0  0  0  0
  -24.6798  -31.0684   22.0939 N   0  0  0  0  0  0
  -23.4187  -28.8194   23.3020 O   0  0  0  0  0  0
  -28.4117  -26.6305   20.1069 O   0  0  0  0  0  0
  -26.5627  -34.8922   22.4674 O   0  0  0  0  0  0
  -23.5391  -32.1405   23.7373 O   0  0  0  0  0  0
  -29.2421  -18.2388   19.3169 C   0  0  0  0  0  0
  -28.8551  -19.6073   19.1458 C   0  0  0  0  0  0
  -29.7619  -18.1041   20.5804 C   0  0  0  0  0  0
  -29.1460  -20.2259   20.3302 C   0  0  0  0  0  0
  -28.4982  -24.0942   20.3406 C   0  0  0  0  0  0
  -30.4035  -16.9524   21.3506 C   0  0  0  0  0  0
  -28.7029  -22.6719   19.7157 C   0  0  0  0  0  0
  -28.5296  -25.3510   19.4102 C   0  0  0  0  0  0
  -28.9272  -21.5755   20.6930 N   0  0  0  0  0  0
  -29.9353  -15.5783   21.0388 N   0  0  0  0  0  0
  -28.3377  -24.2095   21.5610 O   0  0  0  0  0  0
  -29.6917  -19.3314   21.2176 O   0  0  0  0  0  0
  -31.4689  -12.4639   19.1285 H   0  0  0  0  0  0
  -30.3505  -11.3466   19.8555 H   0  0  0  0  0  0
  -29.7526  -11.7643   17.4488 H   0  0  0  0  0  0
  -29.6475  -13.4819   17.7512 H   0  0  0  0  0  0
  -27.8525  -11.2891   18.8489 H   0  0  0  0  0  0
  -27.3653  -12.5849   17.7871 H   0  0  0  0  0  0
  -27.6846  -14.2459   19.5356 H   0  0  0  0  0  0
  -28.6929  -11.9993   21.3491 H   0  0  0  0  0  0
  -28.4458  -13.6454   21.8520 H   0  0  0  0  0  0
  -25.2741   -9.5699   22.4743 H   0  0  0  0  0  0
  -23.9991   -7.4649   22.7488 H   0  0  0  0  0  0
  -21.0831   -8.8742   19.8952 H   0  0  0  0  0  0
  -22.3663  -10.9654   19.6148 H   0  0  0  0  0  0
  -21.1993   -7.6137   23.9707 H   0  0  0  0  0  0
  -21.1484   -6.0515   25.9071 H   0  0  0  0  0  0
  -22.0600   -2.7601   23.2847 H   0  0  0  0  0  0
  -22.4074  -11.9897   22.4752 H   0  0  0  0  0  0
  -21.1092  -13.1278   22.2562 H   0  0  0  0  0  0
  -24.6698  -15.8473   20.5105 H   0  0  0  0  0  0
  -26.2806  -15.6174   20.0580 H   0  0  0  0  0  0
  -26.7140  -32.5462   23.1084 H   0  0  0  0  0  0
  -25.0068  -33.9749   25.0416 H   0  0  0  0  0  0
  -22.7049  -31.3029   21.3970 H   0  0  0  0  0  0
  -23.3758  -35.9629   23.3336 H   0  0  0  0  0  0
  -24.3576  -36.8886   22.2046 H   0  0  0  0  0  0
  -23.7259  -37.6509   23.6633 H   0  0  0  0  0  0
  -26.0789  -31.5768   20.5964 H   0  0  0  0  0  0
  -26.8312  -30.8562   21.9903 H   0  0  0  0  0  0
  -28.1161  -29.0559   21.1306 H   0  0  0  0  0  0
  -25.9770  -25.9187   19.0567 H   0  0  0  0  0  0
  -23.9621  -27.2709   19.0665 H   0  0  0  0  0  0
  -23.7307  -30.5847   19.3992 H   0  0  0  0  0  0
  -22.7444  -29.2348   19.8657 H   0  0  0  0  0  0
  -25.1299  -36.1944   25.0822 H   0  0  0  0  0  0
  -20.9962  -28.3262   24.1423 H   0  0  0  0  0  0
  -20.5717  -26.2270   23.3589 H   0  0  0  0  0  0
  -21.6637  -26.7480   22.1160 H   0  0  0  0  0  0
  -19.6932  -25.6330   21.1209 H   0  0  0  0  0  0
  -19.6712  -27.3226   20.6752 H   0  0  0  0  0  0
  -17.4205  -26.6679   21.4014 H   0  0  0  0  0  0
  -18.0315  -26.0092   22.9019 H   0  0  0  0  0  0
  -19.7949  -30.7257   24.2252 H   0  0  0  0  0  0
  -17.5041  -31.6263   24.5171 H   0  0  0  0  0  0
  -15.5354  -30.3001   23.7679 H   0  0  0  0  0  0
  -15.8667  -28.0843   22.7070 H   0  0  0  0  0  0
  -24.5873  -30.7106   25.7791 H   0  0  0  0  0  0
  -24.8842  -32.2956   26.4789 H   0  0  0  0  0  0
  -25.7993  -30.9029   27.0262 H   0  0  0  0  0  0
  -26.2871  -29.6789   24.1191 H   0  0  0  0  0  0
  -27.4008  -29.7286   25.4664 H   0  0  0  0  0  0
  -27.8724  -30.4316   23.9367 H   0  0  0  0  0  0
  -27.2648  -33.3668   26.2018 H   0  0  0  0  0  0
  -28.3852  -32.6890   25.0319 H   0  0  0  0  0  0
  -28.0670  -31.8498   26.5437 H   0  0  0  0  0  0
  -28.2604  -38.0081   24.7506 H   0  0  0  0  0  0
  -28.1066  -36.2622   24.6308 H   0  0  0  0  0  0
  -27.2286  -37.1455   25.8865 H   0  0  0  0  0  0
  -20.9331  -29.8752   21.6884 H   0  0  0  0  0  0
  -26.0190  -38.2867   24.1418 H   0  0  0  0  0  0
  -29.1690  -17.4427   18.5877 H   0  0  0  0  0  0
  -28.4179  -20.0596   18.2672 H   0  0  0  0  0  0
  -30.2417  -17.1074   22.4183 H   0  0  0  0  0  0
  -31.4852  -17.0105   21.2207 H   0  0  0  0  0  0
  -29.5493  -22.7123   19.0291 H   0  0  0  0  0  0
  -27.8237  -22.4420   19.1123 H   0  0  0  0  0  0
  -27.8297  -25.2424   18.5846 H   0  0  0  0  0  0
  -29.5129  -25.3572   18.9400 H   0  0  0  0  0  0
  -29.0792  -21.8955   21.6466 H   0  0  0  0  0  0
  -28.9893  -15.3604   21.3114 H   0  0  0  0  0  0
  1 25  1  0  0  0
  1 30  2  0  0  0
  1 80  1  0  0  0
  2  3  1  0  0  0
  2 25  1  0  0  0
  2 83  1  0  0  0
  2 84  1  0  0  0
  3  4  1  0  0  0
  3 85  1  0  0  0
  3 86  1  0  0  0
  4  5  1  0  0  0
  4 87  1  0  0  0
  4 88  1  0  0  0
  5  6  1  0  0  0
  5 26  1  0  0  0
  5 89  1  0  0  0
  6 25  1  0  0  0
  6 90  1  0  0  0
  6 91  1  0  0  0
  7  8  2  0  0  0
  7 26  1  0  0  0
  7 29  1  0  0  0
  8  9  1  0  0  0
  8 22  1  0  0  0
  9 10  1  0  0  0
  9 27  2  0  0  0
 10 11  2  0  0  0
 10 15  1  0  0  0
 11 12  1  0  0  0
 11 92  1  0  0  0
 12 13  2  0  0  0
 12 93  1  0  0  0
 13 14  1  0  0  0
 13 31  1  0  0  0
 14 15  2  0  0  0
 14 94  1  0  0  0
 15 95  1  0  0  0
 16 17  2  0  0  0
 16 21  1  0  0  0
 16 31  1  0  0  0
 17 18  1  0  0  0
 17 96  1  0  0  0
 18 19  2  0  0  0
 18 97  1  0  0  0
 19 20  1  0  0  0
 19 24  1  0  0  0
 20 21  2  0  0  0
 20 98  1  0  0  0
 21 23  1  0  0  0
 22 28  1  0  0  0
 22 32  2  0  0  0
 26 27  1  0  0  0
 28 99  1  0  0  0
 28100  1  0  0  0
 29101  1  0  0  0
 29102  1  0  0  0
 33 34  1  0  0  0
 33 66  1  0  0  0
 33 70  2  0  0  0
 34 36  1  0  0  0
 34 59  1  0  0  0
 34103  1  0  0  0
 35 44  2  0  0  0
 35 45  1  0  0  0
 35 68  1  0  0  0
 36 56  1  0  0  0
 36104  1  0  0  0
 37 39  1  0  0  0
 37 47  1  0  0  0
 37 66  1  0  0  0
 37105  1  0  0  0
 38 43  2  0  0  0
 38 46  1  0  0  0
 38 47  1  0  0  0
 39 64  1  0  0  0
 39 67  2  0  0  0
 40 52  1  0  0  0
 40 53  2  0  0  0
 40 58  1  0  0  0
 41106  1  0  0  0
 41107  1  0  0  0
 41108  1  0  0  0
 41 48  1  0  0  0
 42 43  1  0  0  0
 42 66  1  0  0  0
 42109  1  0  0  0
 42110  1  0  0  0
 43 44  1  0  0  0
 44111  1  0  0  0
 45 46  2  0  0  0
 45112  1  0  0  0
 46113  1  0  0  0
 47114  1  0  0  0
 47115  1  0  0  0
 48 56  1  0  0  0
 48 65  1  0  0  0
 48116  1  0  0  0
 49 50  1  0  0  0
 49 53  1  0  0  0
 49 64  1  0  0  0
 49117  1  0  0  0
 50 51  1  0  0  0
 50118  1  0  0  0
 50119  1  0  0  0
 51 52  1  0  0  0
 51120  1  0  0  0
 51121  1  0  0  0
 52122  1  0  0  0
 52123  1  0  0  0
 53 54  1  0  0  0
 54 55  2  0  0  0
 54124  1  0  0  0
 55 57  1  0  0  0
 55125  1  0  0  0
 56 69  2  0  0  0
 57 58  2  0  0  0
 57126  1  0  0  0
 58127  1  0  0  0
 59 60  1  0  0  0
 59 61  1  0  0  0
 59 62  1  0  0  0
 60128  1  0  0  0
 60129  1  0  0  0
 60130  1  0  0  0
 61131  1  0  0  0
 61132  1  0  0  0
 61133  1  0  0  0
 62134  1  0  0  0
 62135  1  0  0  0
 62136  1  0  0  0
 63 65  1  0  0  0
 63137  1  0  0  0
 63138  1  0  0  0
 63139  1  0  0  0
 64140  1  0  0  0
 65141  1  0  0  0
 68 78  1  0  0  0
 71 72  1  0  0  0
 71 73  2  0  0  0
 71142  1  0  0  0
 72 74  2  0  0  0
 72143  1  0  0  0
 73 76  1  0  0  0
 73 82  1  0  0  0
 74 79  1  0  0  0
 74 82  1  0  0  0
 75 77  1  0  0  0
 75 78  1  0  0  0
 75 81  2  0  0  0
 76 80  1  0  0  0
 76144  1  0  0  0
 76145  1  0  0  0
 77 79  1  0  0  0
 77146  1  0  0  0
 77147  1  0  0  0
 78148  1  0  0  0
 78149  1  0  0  0
 79150  1  0  0  0
 80151  1  0  0  0
M  ISO  4   1 100  68 101  78 101  80 100
M  END
> <chiral flag>
0

> <version>
0

> <s_m_source_file>
/data/baiqing/PycharmProjects/Reinvent-master-3.2/result/LINK_invent/BTK/process_docking_weight1_custom_product_contain_oxygen_bond_distance_aromatic_linkinvent_7_9_3/rearranged_h_0157.sdf

> <i_m_source_file_index>
15

> <r_mmod_Potential_Energy-OPLS-2005>
-151.395431518555

> <r_mmod_Stretch_Energy-OPLS-2005>
51.02734375

> <r_mmod_Bend_Energy-OPLS-2005>
124.293907165527

> <r_mmod_Torsional_Energy-OPLS-2005>
186.248672485352

> <r_mmod_Improper_Torsional_Energy-OPLS-2005>
3.47074699401855

> <r_mmod_Van_der_Waal_Energy-OPLS-2005>
124.719711303711

> <r_mmod_Electrostatic_Energy-OPLS-2005>
-416.508239746094

> <r_mmod_Solvation_Energy-OPLS-2005>
-248.977355957031

> <b_mmod_Minimization_Converged-OPLS-2005>
0

> <r_mmod_RMS_Derivative-OPLS-2005>
2.58687424659729

$$$$
15
                    3D
 Structure written by MMmdl.
156164  0  0  1  0            999 V2000
  -30.5975  -14.8150   20.4390 C   0  0  0  0  0  0
  -30.4395  -12.5000   19.4740 C   0  0  0  0  0  0
  -29.5141  -12.5129   18.2370 C   0  0  0  0  0  0
  -28.0419  -12.3274   18.6544 C   0  0  0  0  0  0
  -27.6387  -13.2374   19.8455 C   0  0  2  0  0  0
  -28.6890  -13.2077   20.9767 C   0  0  0  0  0  0
  -25.2511  -13.8201   20.5726 C   0  0  0  0  0  0
  -24.1814  -13.0438   20.9234 C   0  0  0  0  0  0
  -24.6408  -11.6918   20.8762 C   0  0  0  0  0  0
  -23.9087  -10.4291   21.0401 C   0  0  0  0  0  0
  -24.3623   -9.4202   21.9183 C   0  0  0  0  0  0
  -23.6295   -8.2240   22.0756 C   0  0  0  0  0  0
  -22.4281   -8.0278   21.3546 C   0  0  0  0  0  0
  -21.9918   -9.0257   20.4655 C   0  0  0  0  0  0
  -22.7248  -10.2133   20.3058 C   0  0  0  0  0  0
  -21.6855   -6.0733   22.5280 C   0  0  0  0  0  0
  -21.4016   -6.5634   23.8211 C   0  0  0  0  0  0
  -21.3664   -5.6791   24.9175 C   0  0  0  0  0  0
  -21.6035   -4.3051   24.7223 C   0  0  0  0  0  0
  -21.8820   -3.8145   23.4346 C   0  0  0  0  0  0
  -21.9192   -4.6965   22.3403 C   0  0  0  0  0  0
  -22.7827  -13.5216   21.1876 C   0  0  0  0  0  0
  -22.1661   -4.2151   21.0981 F   0  0  0  0  0  0
  -21.5633   -3.4533   25.7736 F   0  0  0  0  0  0
  -29.9788  -13.5795   20.3810 N   0  0  0  0  0  0
  -26.2943  -12.9421   20.3287 N   0  0  0  0  0  0
  -25.9338  -11.6555   20.5745 N   0  0  0  0  0  0
  -22.0463  -12.8225   22.0434 N   0  0  0  0  0  0
  -25.4166  -15.1938   20.4157 N   0  0  0  0  0  0
  -31.8035  -14.8855   20.1785 O   0  0  0  0  0  0
  -21.6641   -6.8877   21.4241 O   0  0  0  0  0  0
  -22.3518  -14.5512   20.6691 O   0  0  0  0  0  0
  -24.6402  -31.8517   23.1992 C   0  0  0  0  0  0
  -25.9205  -32.4748   23.8338 C   0  0  1  0  0  0
  -27.2076  -27.1963   20.1236 C   0  0  0  0  0  0
  -25.5977  -33.8551   24.2272 N   0  0  0  0  0  0
  -23.4372  -30.4806   21.5442 C   0  0  2  0  0  0
  -24.8800  -28.9253   20.1133 C   0  0  0  0  0  0
  -22.7539  -29.4613   22.4899 C   0  0  0  0  0  0
  -18.0315  -28.1391   22.8452 C   0  0  0  0  0  0
  -24.1489  -36.7266   23.2640 C   0  0  0  0  0  0
  -25.9927  -30.7464   21.3867 C   0  0  0  0  0  0
  -26.0603  -29.3655   20.7242 C   0  0  0  0  0  0
  -27.2250  -28.5180   20.7137 C   0  0  0  0  0  0
  -25.9918  -26.8537   19.4862 C   0  0  0  0  0  0
  -24.8552  -27.6786   19.4837 C   0  0  0  0  0  0
  -23.6583  -29.8230   20.1590 C   0  0  0  0  0  0
  -25.4120  -36.3065   24.0332 C   0  0  1  0  0  0
  -20.5923  -28.3705   23.1233 C   0  0  2  0  0  0
  -20.6814  -26.9451   22.5311 C   0  0  0  0  0  0
  -19.5782  -26.6456   21.5113 C   0  0  0  0  0  0
  -18.1951  -26.7979   22.1504 C   0  0  0  0  0  0
  -19.1569  -28.8848   23.2872 C   0  0  0  0  0  0
  -18.9488  -30.1428   23.8933 C   0  0  0  0  0  0
  -17.6479  -30.6556   24.0596 C   0  0  0  0  0  0
  -25.9068  -34.9434   23.5101 C   0  0  0  0  0  0
  -16.5374  -29.9071   23.6329 C   0  0  0  0  0  0
  -16.7299  -28.6504   23.0323 C   0  0  0  0  0  0
  -26.4555  -31.6582   25.0733 C   0  0  0  0  0  0
  -25.3772  -31.3727   26.1446 C   0  0  0  0  0  0
  -27.0403  -30.2992   24.6257 C   0  0  0  0  0  0
  -27.6115  -32.4321   25.7506 C   0  0  0  0  0  0
  -27.5582  -37.1792   24.8471 C   0  0  0  0  0  0
  -21.4227  -29.3105   22.3669 N   0  0  0  0  0  0
  -26.4290  -37.3769   23.9418 N   0  0  0  0  0  0
  -24.7103  -31.0452   22.0985 N   0  0  0  0  0  0
  -23.4223  -28.8107   23.2967 O   0  0  0  0  0  0
  -28.2902  -26.2537   20.1910 O   0  0  0  0  0  0
  -26.5616  -34.8900   22.4658 O   0  0  0  0  0  0
  -23.5535  -32.1344   23.7262 O   0  0  0  0  0  0
  -31.1260  -19.3518   20.9052 C   0  0  0  0  0  0
  -31.2775  -17.9186   20.9659 C   0  0  0  0  0  0
  -29.8697  -19.6841   20.4540 C   0  0  0  0  0  0
  -30.0988  -17.3522   20.5596 C   0  0  0  0  0  0
  -29.2222  -21.0184   20.0700 C   0  0  0  0  0  0
  -27.9309  -24.4062   18.5381 C   0  0  0  0  0  0
  -26.9976  -24.2301   20.9583 C   0  0  0  0  0  0
  -29.4259  -23.8014   20.4736 C   0  0  0  0  0  0
  -28.1431  -24.7200   20.0404 C   0  0  0  0  0  0
  -28.4071  -21.0078   19.0118 N   0  0  0  0  0  0
  -29.8008  -15.9654   20.5339 N   0  0  0  0  0  0
  -29.4794  -22.2450   20.6970 N   0  3  0  0  0  0
  -29.2166  -18.4295   20.2444 O   0  0  0  0  0  0
  -31.4779  -12.6355   19.1668 H   0  0  0  0  0  0
  -30.3993  -11.5326   19.9800 H   0  0  0  0  0  0
  -29.8054  -11.7261   17.5412 H   0  0  0  0  0  0
  -29.6298  -13.4563   17.7005 H   0  0  0  0  0  0
  -27.9100  -11.2811   18.9294 H   0  0  0  0  0  0
  -27.3825  -12.5021   17.8038 H   0  0  0  0  0  0
  -27.6185  -14.2511   19.4473 H   0  0  0  0  0  0
  -28.7480  -12.2173   21.4326 H   0  0  0  0  0  0
  -28.4154  -13.8993   21.7761 H   0  0  0  0  0  0
  -25.2753   -9.5684   22.4769 H   0  0  0  0  0  0
  -24.0002   -7.4630   22.7469 H   0  0  0  0  0  0
  -21.0850   -8.8773   19.8961 H   0  0  0  0  0  0
  -22.3698  -10.9674   19.6177 H   0  0  0  0  0  0
  -21.2008   -7.6143   23.9721 H   0  0  0  0  0  0
  -21.1487   -6.0514   25.9078 H   0  0  0  0  0  0
  -22.0598   -2.7611   23.2840 H   0  0  0  0  0  0
  -22.4065  -11.9886   22.4838 H   0  0  0  0  0  0
  -21.1078  -13.1262   22.2612 H   0  0  0  0  0  0
  -24.6410  -15.8377   20.5247 H   0  0  0  0  0  0
  -26.2511  -15.6408   20.0586 H   0  0  0  0  0  0
  -26.7271  -32.5377   23.1069 H   0  0  0  0  0  0
  -25.0136  -33.9689   25.0428 H   0  0  0  0  0  0
  -22.7384  -31.3081   21.4014 H   0  0  0  0  0  0
  -23.3764  -35.9584   23.3294 H   0  0  0  0  0  0
  -24.3582  -36.8900   22.2057 H   0  0  0  0  0  0
  -23.7220  -37.6461   23.6656 H   0  0  0  0  0  0
  -26.1430  -31.5057   20.6172 H   0  0  0  0  0  0
  -26.8673  -30.7919   22.0250 H   0  0  0  0  0  0
  -28.1261  -28.8529   21.2090 H   0  0  0  0  0  0
  -25.8443  -25.9008   19.0123 H   0  0  0  0  0  0
  -23.9504  -27.3330   19.0026 H   0  0  0  0  0  0
  -23.7963  -30.6041   19.4107 H   0  0  0  0  0  0
  -22.7716  -29.2699   19.8441 H   0  0  0  0  0  0
  -25.1302  -36.1910   25.0824 H   0  0  0  0  0  0
  -21.0030  -28.3229   24.1350 H   0  0  0  0  0  0
  -20.5759  -26.2295   23.3475 H   0  0  0  0  0  0
  -21.6665  -26.7520   22.1041 H   0  0  0  0  0  0
  -19.6935  -25.6384   21.1094 H   0  0  0  0  0  0
  -19.6740  -27.3289   20.6659 H   0  0  0  0  0  0
  -17.4258  -26.6839   21.3849 H   0  0  0  0  0  0
  -18.0291  -26.0051   22.8808 H   0  0  0  0  0  0
  -19.7956  -30.7233   24.2340 H   0  0  0  0  0  0
  -17.5023  -31.6209   24.5247 H   0  0  0  0  0  0
  -15.5366  -30.2961   23.7671 H   0  0  0  0  0  0
  -15.8708  -28.0839   22.7009 H   0  0  0  0  0  0
  -24.5983  -30.7037   25.7780 H   0  0  0  0  0  0
  -24.8907  -32.2874   26.4833 H   0  0  0  0  0  0
  -25.8084  -30.8948   27.0249 H   0  0  0  0  0  0
  -26.2990  -29.6730   24.1275 H   0  0  0  0  0  0
  -27.4067  -29.7277   25.4796 H   0  0  0  0  0  0
  -27.8885  -30.4271   23.9526 H   0  0  0  0  0  0
  -27.2755  -33.3652   26.2042 H   0  0  0  0  0  0
  -28.3936  -32.6835   25.0327 H   0  0  0  0  0  0
  -28.0758  -31.8454   26.5442 H   0  0  0  0  0  0
  -28.2593  -38.0094   24.7526 H   0  0  0  0  0  0
  -28.1078  -36.2625   24.6286 H   0  0  0  0  0  0
  -27.2292  -37.1440   25.8870 H   0  0  0  0  0  0
  -20.9405  -29.8903   21.6945 H   0  0  0  0  0  0
  -26.0168  -38.2846   24.1419 H   0  0  0  0  0  0
  -31.8911  -20.0782   21.1365 H   0  0  0  0  0  0
  -32.1585  -17.3758   21.2782 H   0  0  0  0  0  0
  -27.3901  -23.4727   18.3865 H   0  0  0  0  0  0
  -28.8889  -24.3117   18.0263 H   0  0  0  0  0  0
  -27.4161  -25.1802   17.9773 H   0  0  0  0  0  0
  -26.0208  -24.6453   20.7361 H   0  0  0  0  0  0
  -27.2146  -24.4624   22.0013 H   0  0  0  0  0  0
  -26.8763  -23.1492   20.8876 H   0  0  0  0  0  0
  -29.7489  -24.2029   21.4339 H   0  0  0  0  0  0
  -30.2501  -24.0410   19.8016 H   0  0  0  0  0  0
  -27.9224  -21.8236   18.6848 H   0  0  0  0  0  0
  -28.2339  -20.1294   18.5455 H   0  0  0  0  0  0
  -28.8160  -15.7560   20.5664 H   0  0  0  0  0  0
  -30.0063  -22.0769   21.5428 H   0  0  0  0  0  0
  1 25  1  0  0  0
  1 30  2  0  0  0
  1 81  1  0  0  0
  2  3  1  0  0  0
  2 25  1  0  0  0
  2 84  1  0  0  0
  2 85  1  0  0  0
  3  4  1  0  0  0
  3 86  1  0  0  0
  3 87  1  0  0  0
  4  5  1  0  0  0
  4 88  1  0  0  0
  4 89  1  0  0  0
  5  6  1  0  0  0
  5 26  1  0  0  0
  5 90  1  0  0  0
  6 25  1  0  0  0
  6 91  1  0  0  0
  6 92  1  0  0  0
  7  8  2  0  0  0
  7 26  1  0  0  0
  7 29  1  0  0  0
  8  9  1  0  0  0
  8 22  1  0  0  0
  9 10  1  0  0  0
  9 27  2  0  0  0
 10 11  2  0  0  0
 10 15  1  0  0  0
 11 12  1  0  0  0
 11 93  1  0  0  0
 12 13  2  0  0  0
 12 94  1  0  0  0
 13 14  1  0  0  0
 13 31  1  0  0  0
 14 15  2  0  0  0
 14 95  1  0  0  0
 15 96  1  0  0  0
 16 17  2  0  0  0
 16 21  1  0  0  0
 16 31  1  0  0  0
 17 18  1  0  0  0
 17 97  1  0  0  0
 18 19  2  0  0  0
 18 98  1  0  0  0
 19 20  1  0  0  0
 19 24  1  0  0  0
 20 21  2  0  0  0
 20 99  1  0  0  0
 21 23  1  0  0  0
 22 28  1  0  0  0
 22 32  2  0  0  0
 26 27  1  0  0  0
 28100  1  0  0  0
 28101  1  0  0  0
 29102  1  0  0  0
 29103  1  0  0  0
 33 34  1  0  0  0
 33 66  1  0  0  0
 33 70  2  0  0  0
 34 36  1  0  0  0
 34 59  1  0  0  0
 34104  1  0  0  0
 35 44  2  0  0  0
 35 45  1  0  0  0
 35 68  1  0  0  0
 36 56  1  0  0  0
 36105  1  0  0  0
 37 39  1  0  0  0
 37 47  1  0  0  0
 37 66  1  0  0  0
 37106  1  0  0  0
 38 43  2  0  0  0
 38 46  1  0  0  0
 38 47  1  0  0  0
 39 64  1  0  0  0
 39 67  2  0  0  0
 40 52  1  0  0  0
 40 53  2  0  0  0
 40 58  1  0  0  0
 41107  1  0  0  0
 41108  1  0  0  0
 41109  1  0  0  0
 41 48  1  0  0  0
 42 43  1  0  0  0
 42 66  1  0  0  0
 42110  1  0  0  0
 42111  1  0  0  0
 43 44  1  0  0  0
 44112  1  0  0  0
 45 46  2  0  0  0
 45113  1  0  0  0
 46114  1  0  0  0
 47115  1  0  0  0
 47116  1  0  0  0
 48 56  1  0  0  0
 48 65  1  0  0  0
 48117  1  0  0  0
 49 50  1  0  0  0
 49 53  1  0  0  0
 49 64  1  0  0  0
 49118  1  0  0  0
 50 51  1  0  0  0
 50119  1  0  0  0
 50120  1  0  0  0
 51 52  1  0  0  0
 51121  1  0  0  0
 51122  1  0  0  0
 52123  1  0  0  0
 52124  1  0  0  0
 53 54  1  0  0  0
 54 55  2  0  0  0
 54125  1  0  0  0
 55 57  1  0  0  0
 55126  1  0  0  0
 56 69  2  0  0  0
 57 58  2  0  0  0
 57127  1  0  0  0
 58128  1  0  0  0
 59 60  1  0  0  0
 59 61  1  0  0  0
 59 62  1  0  0  0
 60129  1  0  0  0
 60130  1  0  0  0
 60131  1  0  0  0
 61132  1  0  0  0
 61133  1  0  0  0
 61134  1  0  0  0
 62135  1  0  0  0
 62136  1  0  0  0
 62137  1  0  0  0
 63 65  1  0  0  0
 63138  1  0  0  0
 63139  1  0  0  0
 63140  1  0  0  0
 64141  1  0  0  0
 65142  1  0  0  0
 68 79  1  0  0  0
 71 72  1  0  0  0
 71 73  2  0  0  0
 71143  1  0  0  0
 72 74  2  0  0  0
 72144  1  0  0  0
 73 75  1  0  0  0
 73 83  1  0  0  0
 74 81  1  0  0  0
 74 83  1  0  0  0
 75 80  1  0  0  0
 75 82  2  0  0  0
 76145  1  0  0  0
 76146  1  0  0  0
 76147  1  0  0  0
 76 79  1  0  0  0
 77 79  1  0  0  0
 77148  1  0  0  0
 77149  1  0  0  0
 77150  1  0  0  0
 78 79  1  0  0  0
 78 82  1  0  0  0
 78151  1  0  0  0
 78152  1  0  0  0
 80153  1  0  0  0
 80154  1  0  0  0
 81155  1  0  0  0
 82156  1  0  0  0
M  CHG  1  82   1
M  ISO  4   1 100  68 101  79 101  81 100
M  END
> <chiral flag>
0

> <version>
0

> <s_m_source_file>
/data/baiqing/PycharmProjects/Reinvent-master-3.2/result/LINK_invent/BTK/process_docking_weight1_custom_product_contain_oxygen_bond_distance_aromatic_linkinvent_7_9_3/rearranged_h_0157.sdf

> <i_m_source_file_index>
16

> <r_mmod_Potential_Energy-OPLS-2005>
81.4001083374023

> <r_mmod_Stretch_Energy-OPLS-2005>
166.261901855469

> <r_mmod_Bend_Energy-OPLS-2005>
244.136489868164

> <r_mmod_Torsional_Energy-OPLS-2005>
237.113342285156

> <r_mmod_Improper_Torsional_Energy-OPLS-2005>
6.88640117645264

> <r_mmod_Van_der_Waal_Energy-OPLS-2005>
126.868934631348

> <r_mmod_Electrostatic_Energy-OPLS-2005>
-366.635772705078

> <r_mmod_Solvation_Energy-OPLS-2005>
-457.050964355469

> <b_mmod_Minimization_Converged-OPLS-2005>
0

> <r_mmod_RMS_Derivative-OPLS-2005>
2.02756977081299

$$$$
16
                    3D
 Structure written by MMmdl.
159168  0  0  1  0            999 V2000
  -30.7368  -14.4733   20.5997 C   0  0  0  0  0  0
  -30.4145  -12.3216   19.4251 C   0  0  0  0  0  0
  -29.4894  -12.5067   18.2069 C   0  0  0  0  0  0
  -28.0134  -12.3626   18.6232 C   0  0  0  0  0  0
  -27.6573  -13.2138   19.8712 C   0  0  2  0  0  0
  -28.7002  -13.0261   20.9963 C   0  0  0  0  0  0
  -25.2569  -13.8183   20.5688 C   0  0  0  0  0  0
  -24.1830  -13.0448   20.9189 C   0  0  0  0  0  0
  -24.6396  -11.6918   20.8749 C   0  0  0  0  0  0
  -23.9065  -10.4301   21.0412 C   0  0  0  0  0  0
  -24.3616   -9.4215   21.9190 C   0  0  0  0  0  0
  -23.6293   -8.2248   22.0758 C   0  0  0  0  0  0
  -22.4277   -8.0286   21.3545 C   0  0  0  0  0  0
  -21.9913   -9.0261   20.4649 C   0  0  0  0  0  0
  -22.7239  -10.2143   20.3059 C   0  0  0  0  0  0
  -21.6854   -6.0740   22.5279 C   0  0  0  0  0  0
  -21.4014   -6.5641   23.8212 C   0  0  0  0  0  0
  -21.3660   -5.6794   24.9176 C   0  0  0  0  0  0
  -21.6043   -4.3056   24.7226 C   0  0  0  0  0  0
  -21.8818   -3.8149   23.4347 C   0  0  0  0  0  0
  -21.9192   -4.6968   22.3402 C   0  0  0  0  0  0
  -22.7851  -13.5243   21.1848 C   0  0  0  0  0  0
  -22.1661   -4.2151   21.0981 F   0  0  0  0  0  0
  -21.5630   -3.4540   25.7739 F   0  0  0  0  0  0
  -30.0271  -13.3224   20.4344 N   0  0  0  0  0  0
  -26.3006  -12.9363   20.3364 N   0  0  0  0  0  0
  -25.9321  -11.6516   20.5776 N   0  0  0  0  0  0
  -22.0487  -12.8232   22.0403 N   0  0  0  0  0  0
  -25.4288  -15.1903   20.4088 N   0  0  0  0  0  0
  -31.8537  -14.6310   20.0986 O   0  0  0  0  0  0
  -21.6639   -6.8883   21.4242 O   0  0  0  0  0  0
  -22.3538  -14.5551   20.6703 O   0  0  0  0  0  0
  -24.6142  -31.8681   23.2105 C   0  0  0  0  0  0
  -25.9036  -32.4825   23.8407 C   0  0  1  0  0  0
  -27.2369  -27.4301   20.1035 C   0  0  0  0  0  0
  -25.5888  -33.8625   24.2332 N   0  0  0  0  0  0
  -23.4047  -30.4897   21.5505 C   0  0  2  0  0  0
  -24.8552  -28.9556   20.1157 C   0  0  0  0  0  0
  -22.7417  -29.4651   22.4989 C   0  0  0  0  0  0
  -18.0274  -28.1375   22.8493 C   0  0  0  0  0  0
  -24.1486  -36.7319   23.2637 C   0  0  0  0  0  0
  -25.9334  -30.8308   21.3677 C   0  0  0  0  0  0
  -26.0130  -29.4626   20.7210 C   0  0  0  0  0  0
  -27.2085  -28.7048   20.7224 C   0  0  0  0  0  0
  -26.0698  -26.9471   19.4815 C   0  0  0  0  0  0
  -24.8775  -27.6946   19.4945 C   0  0  0  0  0  0
  -23.6158  -29.8210   20.1655 C   0  0  0  0  0  0
  -25.4104  -36.3119   24.0337 C   0  0  1  0  0  0
  -20.5864  -28.3668   23.1316 C   0  0  2  0  0  0
  -20.6764  -26.9404   22.5416 C   0  0  0  0  0  0
  -19.5743  -26.6387   21.5210 C   0  0  0  0  0  0
  -18.1920  -26.7921   22.1620 C   0  0  0  0  0  0
  -19.1522  -28.8838   23.2901 C   0  0  0  0  0  0
  -18.9454  -30.1443   23.8916 C   0  0  0  0  0  0
  -17.6457  -30.6586   24.0564 C   0  0  0  0  0  0
  -25.9029  -34.9481   23.5133 C   0  0  0  0  0  0
  -16.5346  -29.9090   23.6327 C   0  0  0  0  0  0
  -16.7264  -28.6502   23.0355 C   0  0  0  0  0  0
  -26.4470  -31.6602   25.0728 C   0  0  0  0  0  0
  -25.3735  -31.3703   26.1475 C   0  0  0  0  0  0
  -27.0303  -30.3045   24.6100 C   0  0  0  0  0  0
  -27.6049  -32.4322   25.7485 C   0  0  0  0  0  0
  -27.5585  -37.1806   24.8459 C   0  0  0  0  0  0
  -21.4147  -29.3029   22.3721 N   0  0  0  0  0  0
  -26.4293  -37.3799   23.9410 N   0  0  0  0  0  0
  -24.6687  -31.0773   22.1010 N   0  0  0  0  0  0
  -23.4185  -28.8199   23.3039 O   0  0  0  0  0  0
  -28.3514  -26.6196   20.0554 O   0  0  0  0  0  0
  -26.5602  -34.8936   22.4701 O   0  0  0  0  0  0
  -23.5329  -32.1437   23.7489 O   0  0  0  0  0  0
  -29.0637  -23.7206   20.8287 C   0  0  0  0  0  0
  -30.1368  -17.9731   21.6256 C   0  0  0  0  0  0
  -31.9693  -16.5653   22.4333 C   0  0  0  0  0  0
  -29.3312  -24.9133   21.5876 C   0  0  0  0  0  0
  -30.7412  -16.6839   21.7390 C   0  0  0  0  0  0
  -30.7662  -19.1179   22.2002 C   0  0  0  0  0  0
  -31.9732  -18.9517   22.9175 C   0  0  0  0  0  0
  -32.5803  -17.6866   23.0143 C   0  0  0  0  0  0
  -29.5397  -22.6337   21.5368 C   0  0  0  0  0  0
  -29.9514  -24.4194   22.7009 C   0  0  0  0  0  0
  -29.5749  -21.1625   21.2668 C   0  0  0  0  0  0
  -29.0271  -26.3846   21.2928 C   0  0  0  0  0  0
  -32.5848  -20.0380   23.5532 N   0  0  0  0  0  0
  -30.4277  -25.1488   23.7747 N   0  0  0  0  0  0
  -30.2820  -20.4634   22.1693 N   0  0  0  0  0  0
  -30.1114  -15.4995   21.2221 N   0  0  0  0  0  0
  -28.9974  -20.6631   20.2978 O   0  0  0  0  0  0
  -30.0929  -23.0764   22.7038 O   0  0  0  0  0  0
  -33.7465  -17.5500   23.6937 F   0  0  0  0  0  0
  -31.4589  -12.4096   19.1205 H   0  0  0  0  0  0
  -30.3112  -11.3160   19.8357 H   0  0  0  0  0  0
  -29.7312  -11.7767   17.4334 H   0  0  0  0  0  0
  -29.6535  -13.4897   17.7627 H   0  0  0  0  0  0
  -27.8302  -11.3079   18.8303 H   0  0  0  0  0  0
  -27.3597  -12.6250   17.7906 H   0  0  0  0  0  0
  -27.6933  -14.2574   19.5582 H   0  0  0  0  0  0
  -28.6797  -12.0011   21.3694 H   0  0  0  0  0  0
  -28.4595  -13.6553   21.8543 H   0  0  0  0  0  0
  -25.2762   -9.5690   22.4766 H   0  0  0  0  0  0
  -24.0003   -7.4640   22.7475 H   0  0  0  0  0  0
  -21.0844   -8.8786   19.8950 H   0  0  0  0  0  0
  -22.3704  -10.9686   19.6169 H   0  0  0  0  0  0
  -21.2007   -7.6149   23.9718 H   0  0  0  0  0  0
  -21.1481   -6.0525   25.9080 H   0  0  0  0  0  0
  -22.0596   -2.7610   23.2848 H   0  0  0  0  0  0
  -22.4093  -11.9885   22.4783 H   0  0  0  0  0  0
  -21.1108  -13.1267   22.2611 H   0  0  0  0  0  0
  -24.6626  -15.8466   20.5136 H   0  0  0  0  0  0
  -26.2805  -15.6272   20.0791 H   0  0  0  0  0  0
  -26.7107  -32.5544   23.1175 H   0  0  0  0  0  0
  -25.0045  -33.9789   25.0481 H   0  0  0  0  0  0
  -22.6931  -31.3064   21.4091 H   0  0  0  0  0  0
  -23.3752  -35.9648   23.3298 H   0  0  0  0  0  0
  -24.3587  -36.8928   22.2052 H   0  0  0  0  0  0
  -23.7239  -37.6520   23.6655 H   0  0  0  0  0  0
  -26.0443  -31.5942   20.5966 H   0  0  0  0  0  0
  -26.8210  -30.8887   21.9860 H   0  0  0  0  0  0
  -28.1010  -29.0971   21.1907 H   0  0  0  0  0  0
  -26.0839  -25.9795   18.9996 H   0  0  0  0  0  0
  -23.9896  -27.2984   19.0214 H   0  0  0  0  0  0
  -23.7233  -30.5961   19.4056 H   0  0  0  0  0  0
  -22.7416  -29.2381   19.8701 H   0  0  0  0  0  0
  -25.1281  -36.1984   25.0831 H   0  0  0  0  0  0
  -20.9950  -28.3237   24.1438 H   0  0  0  0  0  0
  -20.5672  -26.2276   23.3607 H   0  0  0  0  0  0
  -21.6637  -26.7452   22.1206 H   0  0  0  0  0  0
  -19.6913  -25.6302   21.1235 H   0  0  0  0  0  0
  -19.6687  -27.3203   20.6746 H   0  0  0  0  0  0
  -17.4193  -26.6675   21.4021 H   0  0  0  0  0  0
  -18.0320  -26.0060   22.9013 H   0  0  0  0  0  0
  -19.7930  -30.7242   24.2308 H   0  0  0  0  0  0
  -17.5016  -31.6273   24.5157 H   0  0  0  0  0  0
  -15.5348  -30.3000   23.7641 H   0  0  0  0  0  0
  -15.8659  -28.0825   22.7070 H   0  0  0  0  0  0
  -24.5909  -30.7051   25.7807 H   0  0  0  0  0  0
  -24.8927  -32.2854   26.4941 H   0  0  0  0  0  0
  -25.8083  -30.8862   27.0225 H   0  0  0  0  0  0
  -26.2846  -29.6807   24.1155 H   0  0  0  0  0  0
  -27.4072  -29.7283   25.4557 H   0  0  0  0  0  0
  -27.8687  -30.4365   23.9253 H   0  0  0  0  0  0
  -27.2675  -33.3611   26.2100 H   0  0  0  0  0  0
  -28.3843  -32.6893   25.0298 H   0  0  0  0  0  0
  -28.0742  -31.8423   26.5369 H   0  0  0  0  0  0
  -28.2591  -38.0118   24.7540 H   0  0  0  0  0  0
  -28.1095  -36.2652   24.6245 H   0  0  0  0  0  0
  -27.2312  -37.1407   25.8863 H   0  0  0  0  0  0
  -20.9317  -29.8755   21.6942 H   0  0  0  0  0  0
  -26.0186  -38.2872   24.1429 H   0  0  0  0  0  0
  -28.5822  -23.6615   19.8630 H   0  0  0  0  0  0
  -29.1961  -18.0831   21.1050 H   0  0  0  0  0  0
  -32.4542  -15.6073   22.5485 H   0  0  0  0  0  0
  -29.9695  -26.9335   21.2708 H   0  0  0  0  0  0
  -28.4623  -26.7717   22.1430 H   0  0  0  0  0  0
  -31.9964  -20.5072   24.2316 H   0  0  0  0  0  0
  -33.4437  -19.7588   24.0171 H   0  0  0  0  0  0
  -30.3619  -26.1576   23.8592 H   0  0  0  0  0  0
  -30.8847  -24.7204   24.5735 H   0  0  0  0  0  0
  -30.7519  -21.0652   22.8325 H   0  0  0  0  0  0
  -29.1257  -15.3834   21.4036 H   0  0  0  0  0  0
  1 25  1  0  0  0
  1 30  2  0  0  0
  1 86  1  0  0  0
  2  3  1  0  0  0
  2 25  1  0  0  0
  2 90  1  0  0  0
  2 91  1  0  0  0
  3  4  1  0  0  0
  3 92  1  0  0  0
  3 93  1  0  0  0
  4  5  1  0  0  0
  4 94  1  0  0  0
  4 95  1  0  0  0
  5  6  1  0  0  0
  5 26  1  0  0  0
  5 96  1  0  0  0
  6 25  1  0  0  0
  6 97  1  0  0  0
  6 98  1  0  0  0
  7  8  2  0  0  0
  7 26  1  0  0  0
  7 29  1  0  0  0
  8  9  1  0  0  0
  8 22  1  0  0  0
  9 10  1  0  0  0
  9 27  2  0  0  0
 10 11  2  0  0  0
 10 15  1  0  0  0
 11 12  1  0  0  0
 11 99  1  0  0  0
 12 13  2  0  0  0
 12100  1  0  0  0
 13 14  1  0  0  0
 13 31  1  0  0  0
 14 15  2  0  0  0
 14101  1  0  0  0
 15102  1  0  0  0
 16 17  2  0  0  0
 16 21  1  0  0  0
 16 31  1  0  0  0
 17 18  1  0  0  0
 17103  1  0  0  0
 18 19  2  0  0  0
 18104  1  0  0  0
 19 20  1  0  0  0
 19 24  1  0  0  0
 20 21  2  0  0  0
 20105  1  0  0  0
 21 23  1  0  0  0
 22 28  1  0  0  0
 22 32  2  0  0  0
 26 27  1  0  0  0
 28106  1  0  0  0
 28107  1  0  0  0
 29108  1  0  0  0
 29109  1  0  0  0
 33 34  1  0  0  0
 33 66  1  0  0  0
 33 70  2  0  0  0
 34 36  1  0  0  0
 34 59  1  0  0  0
 34110  1  0  0  0
 35 44  2  0  0  0
 35 45  1  0  0  0
 35 68  1  0  0  0
 36 56  1  0  0  0
 36111  1  0  0  0
 37 39  1  0  0  0
 37 47  1  0  0  0
 37 66  1  0  0  0
 37112  1  0  0  0
 38 43  2  0  0  0
 38 46  1  0  0  0
 38 47  1  0  0  0
 39 64  1  0  0  0
 39 67  2  0  0  0
 40 52  1  0  0  0
 40 53  2  0  0  0
 40 58  1  0  0  0
 41113  1  0  0  0
 41114  1  0  0  0
 41115  1  0  0  0
 41 48  1  0  0  0
 42 43  1  0  0  0
 42 66  1  0  0  0
 42116  1  0  0  0
 42117  1  0  0  0
 43 44  1  0  0  0
 44118  1  0  0  0
 45 46  2  0  0  0
 45119  1  0  0  0
 46120  1  0  0  0
 47121  1  0  0  0
 47122  1  0  0  0
 48 56  1  0  0  0
 48 65  1  0  0  0
 48123  1  0  0  0
 49 50  1  0  0  0
 49 53  1  0  0  0
 49 64  1  0  0  0
 49124  1  0  0  0
 50 51  1  0  0  0
 50125  1  0  0  0
 50126  1  0  0  0
 51 52  1  0  0  0
 51127  1  0  0  0
 51128  1  0  0  0
 52129  1  0  0  0
 52130  1  0  0  0
 53 54  1  0  0  0
 54 55  2  0  0  0
 54131  1  0  0  0
 55 57  1  0  0  0
 55132  1  0  0  0
 56 69  2  0  0  0
 57 58  2  0  0  0
 57133  1  0  0  0
 58134  1  0  0  0
 59 60  1  0  0  0
 59 61  1  0  0  0
 59 62  1  0  0  0
 60135  1  0  0  0
 60136  1  0  0  0
 60137  1  0  0  0
 61138  1  0  0  0
 61139  1  0  0  0
 61140  1  0  0  0
 62141  1  0  0  0
 62142  1  0  0  0
 62143  1  0  0  0
 63 65  1  0  0  0
 63144  1  0  0  0
 63145  1  0  0  0
 63146  1  0  0  0
 64147  1  0  0  0
 65148  1  0  0  0
 68 82  1  0  0  0
 71 74  1  0  0  0
 71 79  2  0  0  0
 71149  1  0  0  0
 72 75  2  0  0  0
 72 76  1  0  0  0
 72150  1  0  0  0
 73 75  1  0  0  0
 73 78  2  0  0  0
 73151  1  0  0  0
 74 80  2  0  0  0
 74 82  1  0  0  0
 75 86  1  0  0  0
 76 77  2  0  0  0
 76 85  1  0  0  0
 77 78  1  0  0  0
 77 83  1  0  0  0
 78 89  1  0  0  0
 79 81  1  0  0  0
 79 88  1  0  0  0
 80 84  1  0  0  0
 80 88  1  0  0  0
 81 85  1  0  0  0
 81 87  2  0  0  0
 82152  1  0  0  0
 82153  1  0  0  0
 83154  1  0  0  0
 83155  1  0  0  0
 84156  1  0  0  0
 84157  1  0  0  0
 85158  1  0  0  0
 86159  1  0  0  0
M  ISO  4   1 100  68 101  82 101  86 100
M  END
> <chiral flag>
0

> <version>
0

> <s_m_source_file>
/data/baiqing/PycharmProjects/Reinvent-master-3.2/result/LINK_invent/BTK/process_docking_weight1_custom_product_contain_oxygen_bond_distance_aromatic_linkinvent_7_9_3/rearranged_h_0157.sdf

> <i_m_source_file_index>
17

> <r_mmod_Potential_Energy-OPLS-2005>
-121.048820495605

> <r_mmod_Stretch_Energy-OPLS-2005>
41.4423751831055

> <r_mmod_Bend_Energy-OPLS-2005>
127.446426391602

> <r_mmod_Torsional_Energy-OPLS-2005>
280.825744628906

> <r_mmod_Improper_Torsional_Energy-OPLS-2005>
9.68282890319824

> <r_mmod_Van_der_Waal_Energy-OPLS-2005>
153.742660522461

> <r_mmod_Electrostatic_Energy-OPLS-2005>
-507.547912597656

> <r_mmod_Solvation_Energy-OPLS-2005>
-240.822067260742

> <b_mmod_Minimization_Converged-OPLS-2005>
0

> <r_mmod_RMS_Derivative-OPLS-2005>
0.908486485481262

$$$$
17
                    3D
 Structure written by MMmdl.
158167  0  0  1  0            999 V2000
  -30.6532  -14.6086   20.4858 C   0  0  0  0  0  0
  -30.4234  -12.3684   19.4577 C   0  0  0  0  0  0
  -29.5014  -12.4944   18.2258 C   0  0  0  0  0  0
  -28.0247  -12.3392   18.6380 C   0  0  0  0  0  0
  -27.6491  -13.2182   19.8609 C   0  0  2  0  0  0
  -28.6919  -13.0899   20.9941 C   0  0  0  0  0  0
  -25.2538  -13.8182   20.5685 C   0  0  0  0  0  0
  -24.1814  -13.0444   20.9204 C   0  0  0  0  0  0
  -24.6386  -11.6916   20.8760 C   0  0  0  0  0  0
  -23.9063  -10.4296   21.0421 C   0  0  0  0  0  0
  -24.3616   -9.4208   21.9193 C   0  0  0  0  0  0
  -23.6291   -8.2244   22.0759 C   0  0  0  0  0  0
  -22.4275   -8.0283   21.3547 C   0  0  0  0  0  0
  -21.9910   -9.0261   20.4654 C   0  0  0  0  0  0
  -22.7241  -10.2139   20.3065 C   0  0  0  0  0  0
  -21.6852   -6.0733   22.5278 C   0  0  0  0  0  0
  -21.4016   -6.5638   23.8212 C   0  0  0  0  0  0
  -21.3659   -5.6791   24.9175 C   0  0  0  0  0  0
  -21.6042   -4.3054   24.7226 C   0  0  0  0  0  0
  -21.8819   -3.8145   23.4349 C   0  0  0  0  0  0
  -21.9193   -4.6961   22.3404 C   0  0  0  0  0  0
  -22.7836  -13.5236   21.1857 C   0  0  0  0  0  0
  -22.1660   -4.2145   21.0981 F   0  0  0  0  0  0
  -21.5627   -3.4539   25.7741 F   0  0  0  0  0  0
  -30.0096  -13.4035   20.4250 N   0  0  0  0  0  0
  -26.2963  -12.9368   20.3317 N   0  0  0  0  0  0
  -25.9312  -11.6524   20.5777 N   0  0  0  0  0  0
  -22.0477  -12.8232   22.0415 N   0  0  0  0  0  0
  -25.4240  -15.1904   20.4073 N   0  0  0  0  0  0
  -31.8309  -14.7097   20.1365 O   0  0  0  0  0  0
  -21.6639   -6.8879   21.4241 O   0  0  0  0  0  0
  -22.3528  -14.5542   20.6699 O   0  0  0  0  0  0
  -24.6221  -31.8624   23.2037 C   0  0  0  0  0  0
  -25.9080  -32.4799   23.8360 C   0  0  1  0  0  0
  -27.2274  -27.3488   20.1032 C   0  0  0  0  0  0
  -25.5906  -33.8597   24.2293 N   0  0  0  0  0  0
  -23.4135  -30.4858   21.5460 C   0  0  2  0  0  0
  -24.8577  -28.9410   20.1115 C   0  0  0  0  0  0
  -22.7452  -29.4630   22.4947 C   0  0  0  0  0  0
  -18.0280  -28.1388   22.8499 C   0  0  0  0  0  0
  -24.1479  -36.7305   23.2639 C   0  0  0  0  0  0
  -25.9509  -30.8013   21.3679 C   0  0  0  0  0  0
  -26.0236  -29.4294   20.7127 C   0  0  0  0  0  0
  -27.2075  -28.6427   20.7018 C   0  0  0  0  0  0
  -26.0318  -26.8927   19.5017 C   0  0  0  0  0  0
  -24.8616  -27.6765   19.5015 C   0  0  0  0  0  0
  -23.6257  -29.8203   20.1601 C   0  0  0  0  0  0
  -25.4104  -36.3101   24.0334 C   0  0  1  0  0  0
  -20.5878  -28.3678   23.1304 C   0  0  2  0  0  0
  -20.6764  -26.9406   22.5419 C   0  0  0  0  0  0
  -19.5741  -26.6388   21.5218 C   0  0  0  0  0  0
  -18.1921  -26.7935   22.1630 C   0  0  0  0  0  0
  -19.1534  -28.8851   23.2900 C   0  0  0  0  0  0
  -18.9458  -30.1455   23.8915 C   0  0  0  0  0  0
  -17.6459  -30.6594   24.0573 C   0  0  0  0  0  0
  -25.9041  -34.9469   23.5114 C   0  0  0  0  0  0
  -16.5350  -29.9097   23.6330 C   0  0  0  0  0  0
  -16.7269  -28.6513   23.0355 C   0  0  0  0  0  0
  -26.4473  -31.6595   25.0718 C   0  0  0  0  0  0
  -25.3722  -31.3715   26.1457 C   0  0  0  0  0  0
  -27.0303  -30.3030   24.6129 C   0  0  0  0  0  0
  -27.6044  -32.4316   25.7488 C   0  0  0  0  0  0
  -27.5574  -37.1812   24.8471 C   0  0  0  0  0  0
  -21.4168  -29.3041   22.3703 N   0  0  0  0  0  0
  -26.4287  -37.3791   23.9413 N   0  0  0  0  0  0
  -24.6811  -31.0662   22.0967 N   0  0  0  0  0  0
  -23.4201  -28.8162   23.3002 O   0  0  0  0  0  0
  -28.3882  -26.5724   20.1475 O   0  0  0  0  0  0
  -26.5613  -34.8930   22.4682 O   0  0  0  0  0  0
  -23.5397  -32.1406   23.7392 O   0  0  0  0  0  0
  -29.2145  -18.1300   21.0308 C   0  0  0  0  0  0
  -30.6458  -19.9617   20.2963 C   0  0  0  0  0  0
  -31.3053  -17.6261   19.9172 C   0  0  0  0  0  0
  -29.4544  -19.5501   20.9249 C   0  0  0  0  0  0
  -30.1435  -17.1381   20.5696 C   0  0  0  0  0  0
  -31.5469  -19.0100   19.7824 C   0  0  0  0  0  0
  -28.7280  -22.7346   20.2880 C   0  0  0  0  0  0
  -28.2538  -24.0043   20.4266 C   0  0  0  0  0  0
  -28.5622  -20.5497   21.6102 C   0  0  0  0  0  0
  -27.3742  -24.1205   21.6370 C   0  0  0  0  0  0
  -27.3927  -22.6895   22.2039 C   0  0  0  0  0  0
  -28.4872  -25.2479   19.5202 C   0  0  0  0  0  0
  -28.2818  -21.8832   21.3189 N   0  0  0  0  0  0
  -29.8807  -15.7070   20.7658 N   0  0  0  0  0  0
  -27.9786  -20.0667   22.7104 N   0  3  0  0  0  0
  -32.6795  -19.4327   19.1706 F   0  0  0  0  0  0
  -31.4683  -12.4675   19.1586 H   0  0  0  0  0  0
  -30.3351  -11.3777   19.9063 H   0  0  0  0  0  0
  -29.7629  -11.7417   17.4808 H   0  0  0  0  0  0
  -29.6496  -13.4638   17.7471 H   0  0  0  0  0  0
  -27.8600  -11.2875   18.8760 H   0  0  0  0  0  0
  -27.3695  -12.5648   17.7959 H   0  0  0  0  0  0
  -27.6649  -14.2503   19.5108 H   0  0  0  0  0  0
  -28.6924  -12.0796   21.4056 H   0  0  0  0  0  0
  -28.4455  -13.7519   21.8258 H   0  0  0  0  0  0
  -25.2762   -9.5677   22.4769 H   0  0  0  0  0  0
  -23.9999   -7.4632   22.7473 H   0  0  0  0  0  0
  -21.0842   -8.8785   19.8958 H   0  0  0  0  0  0
  -22.3705  -10.9680   19.6174 H   0  0  0  0  0  0
  -21.2012   -7.6147   23.9715 H   0  0  0  0  0  0
  -21.1479   -6.0522   25.9077 H   0  0  0  0  0  0
  -22.0599   -2.7606   23.2853 H   0  0  0  0  0  0
  -22.4093  -11.9891   22.4802 H   0  0  0  0  0  0
  -21.1096  -13.1258   22.2625 H   0  0  0  0  0  0
  -24.6485  -15.8376   20.5003 H   0  0  0  0  0  0
  -26.2572  -15.6252   20.0326 H   0  0  0  0  0  0
  -26.7148  -32.5480   23.1112 H   0  0  0  0  0  0
  -25.0052  -33.9750   25.0437 H   0  0  0  0  0  0
  -22.7050  -31.3048   21.4057 H   0  0  0  0  0  0
  -23.3742  -35.9637   23.3313 H   0  0  0  0  0  0
  -24.3571  -36.8913   22.2052 H   0  0  0  0  0  0
  -23.7225  -37.6508   23.6651 H   0  0  0  0  0  0
  -26.0747  -31.5626   20.5967 H   0  0  0  0  0  0
  -26.8349  -30.8535   21.9919 H   0  0  0  0  0  0
  -28.1057  -29.0181   21.1717 H   0  0  0  0  0  0
  -25.9625  -25.9184   19.0443 H   0  0  0  0  0  0
  -23.9631  -27.2927   19.0377 H   0  0  0  0  0  0
  -23.7443  -30.5977   19.4042 H   0  0  0  0  0  0
  -22.7456  -29.2497   19.8580 H   0  0  0  0  0  0
  -25.1280  -36.1960   25.0827 H   0  0  0  0  0  0
  -20.9978  -28.3248   24.1421 H   0  0  0  0  0  0
  -20.5652  -26.2291   23.3616 H   0  0  0  0  0  0
  -21.6637  -26.7429   22.1220 H   0  0  0  0  0  0
  -19.6894  -25.6298   21.1246 H   0  0  0  0  0  0
  -19.6682  -27.3205   20.6756 H   0  0  0  0  0  0
  -17.4190  -26.6697   21.4031 H   0  0  0  0  0  0
  -18.0314  -26.0072   22.9021 H   0  0  0  0  0  0
  -19.7929  -30.7272   24.2292 H   0  0  0  0  0  0
  -17.5011  -31.6275   24.5171 H   0  0  0  0  0  0
  -15.5350  -30.3009   23.7638 H   0  0  0  0  0  0
  -15.8669  -28.0838   22.7060 H   0  0  0  0  0  0
  -24.5921  -30.7028   25.7802 H   0  0  0  0  0  0
  -24.8877  -32.2868   26.4862 H   0  0  0  0  0  0
  -25.8067  -30.8929   27.0243 H   0  0  0  0  0  0
  -26.2863  -29.6804   24.1148 H   0  0  0  0  0  0
  -27.4026  -29.7256   25.4599 H   0  0  0  0  0  0
  -27.8721  -30.4338   23.9328 H   0  0  0  0  0  0
  -27.2672  -33.3624   26.2059 H   0  0  0  0  0  0
  -28.3863  -32.6854   25.0321 H   0  0  0  0  0  0
  -28.0699  -31.8438   26.5408 H   0  0  0  0  0  0
  -28.2609  -38.0094   24.7511 H   0  0  0  0  0  0
  -28.1048  -36.2628   24.6301 H   0  0  0  0  0  0
  -27.2299  -37.1476   25.8877 H   0  0  0  0  0  0
  -20.9325  -29.8780   21.6945 H   0  0  0  0  0  0
  -26.0171  -38.2869   24.1407 H   0  0  0  0  0  0
  -28.3130  -17.7886   21.5203 H   0  0  0  0  0  0
  -30.9085  -21.0062   20.2306 H   0  0  0  0  0  0
  -32.0509  -16.9661   19.5065 H   0  0  0  0  0  0
  -29.3544  -22.3461   19.4976 H   0  0  0  0  0  0
  -26.3671  -24.4307   21.3569 H   0  0  0  0  0  0
  -27.7812  -24.8447   22.3433 H   0  0  0  0  0  0
  -26.3843  -22.2718   22.2154 H   0  0  0  0  0  0
  -27.7677  -22.6974   23.2289 H   0  0  0  0  0  0
  -29.5055  -25.1634   19.1407 H   0  0  0  0  0  0
  -27.8704  -25.1694   18.6269 H   0  0  0  0  0  0
  -28.9542  -15.4752   21.0878 H   0  0  0  0  0  0
  -28.2243  -19.1421   23.0239 H   0  0  0  0  0  0
  -27.3541  -20.6154   23.2735 H   0  0  0  0  0  0
  1 25  1  0  0  0
  1 30  2  0  0  0
  1 84  1  0  0  0
  2  3  1  0  0  0
  2 25  1  0  0  0
  2 87  1  0  0  0
  2 88  1  0  0  0
  3  4  1  0  0  0
  3 89  1  0  0  0
  3 90  1  0  0  0
  4  5  1  0  0  0
  4 91  1  0  0  0
  4 92  1  0  0  0
  5  6  1  0  0  0
  5 26  1  0  0  0
  5 93  1  0  0  0
  6 25  1  0  0  0
  6 94  1  0  0  0
  6 95  1  0  0  0
  7  8  2  0  0  0
  7 26  1  0  0  0
  7 29  1  0  0  0
  8  9  1  0  0  0
  8 22  1  0  0  0
  9 10  1  0  0  0
  9 27  2  0  0  0
 10 11  2  0  0  0
 10 15  1  0  0  0
 11 12  1  0  0  0
 11 96  1  0  0  0
 12 13  2  0  0  0
 12 97  1  0  0  0
 13 14  1  0  0  0
 13 31  1  0  0  0
 14 15  2  0  0  0
 14 98  1  0  0  0
 15 99  1  0  0  0
 16 17  2  0  0  0
 16 21  1  0  0  0
 16 31  1  0  0  0
 17 18  1  0  0  0
 17100  1  0  0  0
 18 19  2  0  0  0
 18101  1  0  0  0
 19 20  1  0  0  0
 19 24  1  0  0  0
 20 21  2  0  0  0
 20102  1  0  0  0
 21 23  1  0  0  0
 22 28  1  0  0  0
 22 32  2  0  0  0
 26 27  1  0  0  0
 28103  1  0  0  0
 28104  1  0  0  0
 29105  1  0  0  0
 29106  1  0  0  0
 33 34  1  0  0  0
 33 66  1  0  0  0
 33 70  2  0  0  0
 34 36  1  0  0  0
 34 59  1  0  0  0
 34107  1  0  0  0
 35 44  2  0  0  0
 35 45  1  0  0  0
 35 68  1  0  0  0
 36 56  1  0  0  0
 36108  1  0  0  0
 37 39  1  0  0  0
 37 47  1  0  0  0
 37 66  1  0  0  0
 37109  1  0  0  0
 38 43  2  0  0  0
 38 46  1  0  0  0
 38 47  1  0  0  0
 39 64  1  0  0  0
 39 67  2  0  0  0
 40 52  1  0  0  0
 40 53  2  0  0  0
 40 58  1  0  0  0
 41110  1  0  0  0
 41111  1  0  0  0
 41112  1  0  0  0
 41 48  1  0  0  0
 42 43  1  0  0  0
 42 66  1  0  0  0
 42113  1  0  0  0
 42114  1  0  0  0
 43 44  1  0  0  0
 44115  1  0  0  0
 45 46  2  0  0  0
 45116  1  0  0  0
 46117  1  0  0  0
 47118  1  0  0  0
 47119  1  0  0  0
 48 56  1  0  0  0
 48 65  1  0  0  0
 48120  1  0  0  0
 49 50  1  0  0  0
 49 53  1  0  0  0
 49 64  1  0  0  0
 49121  1  0  0  0
 50 51  1  0  0  0
 50122  1  0  0  0
 50123  1  0  0  0
 51 52  1  0  0  0
 51124  1  0  0  0
 51125  1  0  0  0
 52126  1  0  0  0
 52127  1  0  0  0
 53 54  1  0  0  0
 54 55  2  0  0  0
 54128  1  0  0  0
 55 57  1  0  0  0
 55129  1  0  0  0
 56 69  2  0  0  0
 57 58  2  0  0  0
 57130  1  0  0  0
 58131  1  0  0  0
 59 60  1  0  0  0
 59 61  1  0  0  0
 59 62  1  0  0  0
 60132  1  0  0  0
 60133  1  0  0  0
 60134  1  0  0  0
 61135  1  0  0  0
 61136  1  0  0  0
 61137  1  0  0  0
 62138  1  0  0  0
 62139  1  0  0  0
 62140  1  0  0  0
 63 65  1  0  0  0
 63141  1  0  0  0
 63142  1  0  0  0
 63143  1  0  0  0
 64144  1  0  0  0
 65145  1  0  0  0
 68 82  1  0  0  0
 71 74  2  0  0  0
 71 75  1  0  0  0
 71146  1  0  0  0
 72 74  1  0  0  0
 72 76  2  0  0  0
 72147  1  0  0  0
 73 75  2  0  0  0
 73 76  1  0  0  0
 73148  1  0  0  0
 74 79  1  0  0  0
 75 84  1  0  0  0
 76 86  1  0  0  0
 77 78  2  0  0  0
 77 83  1  0  0  0
 77149  1  0  0  0
 78 80  1  0  0  0
 78 82  1  0  0  0
 79 83  1  0  0  0
 79 85  2  0  0  0
 80 81  1  0  0  0
 80150  1  0  0  0
 80151  1  0  0  0
 81 83  1  0  0  0
 81152  1  0  0  0
 81153  1  0  0  0
 82154  1  0  0  0
 82155  1  0  0  0
 84156  1  0  0  0
 85157  1  0  0  0
 85158  1  0  0  0
M  CHG  1  85   1
M  ISO  4   1 100  68 101  82 101  84 100
M  END
> <chiral flag>
0

> <version>
0

> <s_m_source_file>
/data/baiqing/PycharmProjects/Reinvent-master-3.2/result/LINK_invent/BTK/process_docking_weight1_custom_product_contain_oxygen_bond_distance_aromatic_linkinvent_7_9_3/rearranged_h_0157.sdf

> <i_m_source_file_index>
18

> <r_mmod_Potential_Energy-OPLS-2005>
-119.454513549805

> <r_mmod_Stretch_Energy-OPLS-2005>
72.5477828979492

> <r_mmod_Bend_Energy-OPLS-2005>
199.311920166016

> <r_mmod_Torsional_Energy-OPLS-2005>
196.381744384766

> <r_mmod_Improper_Torsional_Energy-OPLS-2005>
5.31941413879395

> <r_mmod_Van_der_Waal_Energy-OPLS-2005>
155.905853271484

> <r_mmod_Electrostatic_Energy-OPLS-2005>
-367.637115478516

> <r_mmod_Solvation_Energy-OPLS-2005>
-418.743865966797

> <b_mmod_Minimization_Converged-OPLS-2005>
0

> <r_mmod_RMS_Derivative-OPLS-2005>
0.723486244678497

$$$$
18
                    3D
 Structure written by MMmdl.
143151  0  0  1  0            999 V2000
  -30.4189  -15.3165   20.3624 C   0  0  0  0  0  0
  -30.4359  -12.8437   19.5366 C   0  0  0  0  0  0
  -29.5388  -12.5845   18.2986 C   0  0  0  0  0  0
  -28.0901  -12.2988   18.7263 C   0  0  0  0  0  0
  -27.6100  -13.2789   19.8246 C   0  0  2  0  0  0
  -28.6388  -13.4750   20.9599 C   0  0  0  0  0  0
  -25.2383  -13.8257   20.5756 C   0  0  0  0  0  0
  -24.1732  -13.0441   20.9257 C   0  0  0  0  0  0
  -24.6391  -11.6938   20.8762 C   0  0  0  0  0  0
  -23.9088  -10.4294   21.0406 C   0  0  0  0  0  0
  -24.3635   -9.4208   21.9185 C   0  0  0  0  0  0
  -23.6302   -8.2245   22.0753 C   0  0  0  0  0  0
  -22.4281   -8.0284   21.3550 C   0  0  0  0  0  0
  -21.9927   -9.0255   20.4646 C   0  0  0  0  0  0
  -22.7259  -10.2132   20.3055 C   0  0  0  0  0  0
  -21.6859   -6.0735   22.5275 C   0  0  0  0  0  0
  -21.4015   -6.5640   23.8205 C   0  0  0  0  0  0
  -21.3659   -5.6794   24.9167 C   0  0  0  0  0  0
  -21.6044   -4.3054   24.7222 C   0  0  0  0  0  0
  -21.8821   -3.8146   23.4342 C   0  0  0  0  0  0
  -21.9194   -4.6963   22.3399 C   0  0  0  0  0  0
  -22.7751  -13.5186   21.1901 C   0  0  0  0  0  0
  -22.1661   -4.2149   21.0976 F   0  0  0  0  0  0
  -21.5631   -3.4535   25.7736 F   0  0  0  0  0  0
  -29.8655  -13.9977   20.3348 N   0  0  0  0  0  0
  -26.2808  -12.9531   20.3224 N   0  0  0  0  0  0
  -25.9331  -11.6633   20.5724 N   0  0  0  0  0  0
  -22.0409  -12.8171   22.0454 N   0  0  0  0  0  0
  -25.4029  -15.1991   20.4196 N   0  0  0  0  0  0
  -31.6352  -15.3071   20.1180 O   0  0  0  0  0  0
  -21.6645   -6.8883   21.4240 O   0  0  0  0  0  0
  -22.3429  -14.5488   20.6734 O   0  0  0  0  0  0
  -24.6661  -31.8196   23.1675 C   0  0  0  0  0  0
  -25.9325  -32.4564   23.8157 C   0  0  1  0  0  0
  -27.2173  -26.8887   20.1912 C   0  0  0  0  0  0
  -25.5985  -33.8385   24.2066 N   0  0  0  0  0  0
  -23.4821  -30.4295   21.5159 C   0  0  2  0  0  0
  -24.9361  -28.8079   20.1092 C   0  0  0  0  0  0
  -22.7682  -29.4425   22.4764 C   0  0  0  0  0  0
  -18.0326  -28.1413   22.8475 C   0  0  0  0  0  0
  -24.1489  -36.7184   23.2648 C   0  0  0  0  0  0
  -26.0520  -30.6108   21.4066 C   0  0  0  0  0  0
  -26.1168  -29.1958   20.7542 C   0  0  0  0  0  0
  -27.2450  -28.2548   20.7772 C   0  0  0  0  0  0
  -26.0136  -26.6665   19.4831 C   0  0  0  0  0  0
  -24.9121  -27.5646   19.4542 C   0  0  0  0  0  0
  -23.7246  -29.7415   20.1431 C   0  0  0  0  0  0
  -25.4133  -36.2955   24.0304 C   0  0  1  0  0  0
  -20.5957  -28.3756   23.1190 C   0  0  2  0  0  0
  -20.6797  -26.9438   22.5403 C   0  0  0  0  0  0
  -19.5767  -26.6381   21.5217 C   0  0  0  0  0  0
  -18.1952  -26.7948   22.1625 C   0  0  0  0  0  0
  -19.1591  -28.8906   23.2818 C   0  0  0  0  0  0
  -18.9496  -30.1495   23.8854 C   0  0  0  0  0  0
  -17.6491  -30.6602   24.0565 C   0  0  0  0  0  0
  -25.9102  -34.9339   23.5008 C   0  0  0  0  0  0
  -16.5381  -29.9094   23.6347 C   0  0  0  0  0  0
  -16.7308  -28.6512   23.0371 C   0  0  0  0  0  0
  -26.4572  -31.6527   25.0697 C   0  0  0  0  0  0
  -25.3695  -31.3770   26.1351 C   0  0  0  0  0  0
  -27.0480  -30.2896   24.6446 C   0  0  0  0  0  0
  -27.6062  -32.4341   25.7499 C   0  0  0  0  0  0
  -27.5565  -37.1752   24.8475 C   0  0  0  0  0  0
  -21.4347  -29.3041   22.3526 N   0  0  0  0  0  0
  -26.4275  -37.3698   23.9412 N   0  0  0  0  0  0
  -24.7547  -30.9824   22.0828 N   0  0  0  0  0  0
  -23.4215  -28.8003   23.3029 O   0  0  0  0  0  0
  -28.2228  -25.7767   20.2959 O   0  0  0  0  0  0
  -26.5713  -34.8882   22.4605 O   0  0  0  0  0  0
  -23.5726  -32.1186   23.6742 O   0  0  0  0  0  0
  -29.5639  -20.7370   21.4746 C   0  0  0  0  0  0
  -29.1896  -22.2065   21.4185 C   0  0  0  0  0  0
  -29.3059  -19.8438   20.4137 C   0  0  0  0  0  0
  -28.5456  -22.7540   20.2975 C   0  0  0  0  0  0
  -29.9520  -18.2232   20.0758 C   0  0  0  0  0  0
  -27.9245  -24.1627   19.9077 N   0  0  0  0  0  0
  -29.6647  -16.6073   20.4564 N   0  0  0  0  0  0
  -28.4780  -21.1356   19.3031 S   0  0  0  0  0  0
  -31.4520  -13.0525   19.1986 H   0  0  0  0  0  0
  -30.5155  -11.9462   20.1522 H   0  0  0  0  0  0
  -29.9290  -11.7504   17.7133 H   0  0  0  0  0  0
  -29.5616  -13.4573   17.6448 H   0  0  0  0  0  0
  -28.0561  -11.2782   19.1088 H   0  0  0  0  0  0
  -27.4222  -12.3264   17.8647 H   0  0  0  0  0  0
  -27.5189  -14.2394   19.3162 H   0  0  0  0  0  0
  -28.8195  -12.5465   21.5038 H   0  0  0  0  0  0
  -28.2650  -14.1949   21.6897 H   0  0  0  0  0  0
  -25.2778   -9.5681   22.4764 H   0  0  0  0  0  0
  -24.0007   -7.4638   22.7478 H   0  0  0  0  0  0
  -21.0860   -8.8774   19.8955 H   0  0  0  0  0  0
  -22.3715  -10.9669   19.6165 H   0  0  0  0  0  0
  -21.2005   -7.6149   23.9710 H   0  0  0  0  0  0
  -21.1480   -6.0522   25.9072 H   0  0  0  0  0  0
  -22.0603   -2.7609   23.2840 H   0  0  0  0  0  0
  -22.4040  -11.9836   22.4843 H   0  0  0  0  0  0
  -21.1021  -13.1178   22.2657 H   0  0  0  0  0  0
  -24.6347  -15.8512   20.5363 H   0  0  0  0  0  0
  -26.2438  -15.6385   20.0685 H   0  0  0  0  0  0
  -26.7396  -32.5097   23.0865 H   0  0  0  0  0  0
  -25.0107  -33.9460   25.0201 H   0  0  0  0  0  0
  -22.7969  -31.2613   21.3415 H   0  0  0  0  0  0
  -23.3767  -35.9501   23.3300 H   0  0  0  0  0  0
  -24.3554  -36.8833   22.2062 H   0  0  0  0  0  0
  -23.7233  -37.6364   23.6708 H   0  0  0  0  0  0
  -26.2389  -31.3461   20.6229 H   0  0  0  0  0  0
  -26.9115  -30.6694   22.0625 H   0  0  0  0  0  0
  -28.1344  -28.5446   21.3186 H   0  0  0  0  0  0
  -25.8831  -25.7209   18.9791 H   0  0  0  0  0  0
  -24.0175  -27.2632   18.9267 H   0  0  0  0  0  0
  -23.8859  -30.5086   19.3854 H   0  0  0  0  0  0
  -22.8322  -29.2005   19.8231 H   0  0  0  0  0  0
  -25.1334  -36.1742   25.0797 H   0  0  0  0  0  0
  -21.0051  -28.3359   24.1311 H   0  0  0  0  0  0
  -20.5665  -26.2381   23.3646 H   0  0  0  0  0  0
  -21.6663  -26.7405   22.1218 H   0  0  0  0  0  0
  -19.6928  -25.6279   21.1274 H   0  0  0  0  0  0
  -19.6705  -27.3169   20.6732 H   0  0  0  0  0  0
  -17.4224  -26.6705   21.4025 H   0  0  0  0  0  0
  -18.0344  -26.0097   22.9026 H   0  0  0  0  0  0
  -19.7968  -30.7332   24.2202 H   0  0  0  0  0  0
  -17.5038  -31.6279   24.5172 H   0  0  0  0  0  0
  -15.5376  -30.2986   23.7688 H   0  0  0  0  0  0
  -15.8708  -28.0811   22.7120 H   0  0  0  0  0  0
  -24.5912  -30.7078   25.7663 H   0  0  0  0  0  0
  -24.8843  -32.2965   26.4634 H   0  0  0  0  0  0
  -25.7939  -30.9037   27.0215 H   0  0  0  0  0  0
  -26.3162  -29.6555   24.1429 H   0  0  0  0  0  0
  -27.3984  -29.7265   25.5105 H   0  0  0  0  0  0
  -27.9113  -30.4076   23.9897 H   0  0  0  0  0  0
  -27.2636  -33.3684   26.1950 H   0  0  0  0  0  0
  -28.3943  -32.6823   25.0379 H   0  0  0  0  0  0
  -28.0664  -31.8547   26.5507 H   0  0  0  0  0  0
  -28.2584  -38.0048   24.7518 H   0  0  0  0  0  0
  -28.1060  -36.2576   24.6319 H   0  0  0  0  0  0
  -27.2278  -37.1420   25.8877 H   0  0  0  0  0  0
  -20.9602  -29.8717   21.6642 H   0  0  0  0  0  0
  -26.0115  -38.2753   24.1418 H   0  0  0  0  0  0
  -30.0978  -20.3948   22.3503 H   0  0  0  0  0  0
  -29.4225  -22.8249   22.2737 H   0  0  0  0  0  0
  -30.9994  -18.3086   20.3679 H   0  0  0  0  0  0
  -30.0141  -18.1828   18.9880 H   0  0  0  0  0  0
  -27.1305  -24.1365   19.2725 H   0  0  0  0  0  0
  -28.6925  -16.4403   20.6714 H   0  0  0  0  0  0
  1 25  1  0  0  0
  1 30  2  0  0  0
  1 77  1  0  0  0
  2  3  1  0  0  0
  2 25  1  0  0  0
  2 79  1  0  0  0
  2 80  1  0  0  0
  3  4  1  0  0  0
  3 81  1  0  0  0
  3 82  1  0  0  0
  4  5  1  0  0  0
  4 83  1  0  0  0
  4 84  1  0  0  0
  5  6  1  0  0  0
  5 26  1  0  0  0
  5 85  1  0  0  0
  6 25  1  0  0  0
  6 86  1  0  0  0
  6 87  1  0  0  0
  7  8  2  0  0  0
  7 26  1  0  0  0
  7 29  1  0  0  0
  8  9  1  0  0  0
  8 22  1  0  0  0
  9 10  1  0  0  0
  9 27  2  0  0  0
 10 11  2  0  0  0
 10 15  1  0  0  0
 11 12  1  0  0  0
 11 88  1  0  0  0
 12 13  2  0  0  0
 12 89  1  0  0  0
 13 14  1  0  0  0
 13 31  1  0  0  0
 14 15  2  0  0  0
 14 90  1  0  0  0
 15 91  1  0  0  0
 16 17  2  0  0  0
 16 21  1  0  0  0
 16 31  1  0  0  0
 17 18  1  0  0  0
 17 92  1  0  0  0
 18 19  2  0  0  0
 18 93  1  0  0  0
 19 20  1  0  0  0
 19 24  1  0  0  0
 20 21  2  0  0  0
 20 94  1  0  0  0
 21 23  1  0  0  0
 22 28  1  0  0  0
 22 32  2  0  0  0
 26 27  1  0  0  0
 28 95  1  0  0  0
 28 96  1  0  0  0
 29 97  1  0  0  0
 29 98  1  0  0  0
 33 34  1  0  0  0
 33 66  1  0  0  0
 33 70  2  0  0  0
 34 36  1  0  0  0
 34 59  1  0  0  0
 34 99  1  0  0  0
 35 44  2  0  0  0
 35 45  1  0  0  0
 35 68  1  0  0  0
 36 56  1  0  0  0
 36100  1  0  0  0
 37 39  1  0  0  0
 37 47  1  0  0  0
 37 66  1  0  0  0
 37101  1  0  0  0
 38 43  2  0  0  0
 38 46  1  0  0  0
 38 47  1  0  0  0
 39 64  1  0  0  0
 39 67  2  0  0  0
 40 52  1  0  0  0
 40 53  2  0  0  0
 40 58  1  0  0  0
 41102  1  0  0  0
 41103  1  0  0  0
 41104  1  0  0  0
 41 48  1  0  0  0
 42 43  1  0  0  0
 42 66  1  0  0  0
 42105  1  0  0  0
 42106  1  0  0  0
 43 44  1  0  0  0
 44107  1  0  0  0
 45 46  2  0  0  0
 45108  1  0  0  0
 46109  1  0  0  0
 47110  1  0  0  0
 47111  1  0  0  0
 48 56  1  0  0  0
 48 65  1  0  0  0
 48112  1  0  0  0
 49 50  1  0  0  0
 49 53  1  0  0  0
 49 64  1  0  0  0
 49113  1  0  0  0
 50 51  1  0  0  0
 50114  1  0  0  0
 50115  1  0  0  0
 51 52  1  0  0  0
 51116  1  0  0  0
 51117  1  0  0  0
 52118  1  0  0  0
 52119  1  0  0  0
 53 54  1  0  0  0
 54 55  2  0  0  0
 54120  1  0  0  0
 55 57  1  0  0  0
 55121  1  0  0  0
 56 69  2  0  0  0
 57 58  2  0  0  0
 57122  1  0  0  0
 58123  1  0  0  0
 59 60  1  0  0  0
 59 61  1  0  0  0
 59 62  1  0  0  0
 60124  1  0  0  0
 60125  1  0  0  0
 60126  1  0  0  0
 61127  1  0  0  0
 61128  1  0  0  0
 61129  1  0  0  0
 62130  1  0  0  0
 62131  1  0  0  0
 62132  1  0  0  0
 63 65  1  0  0  0
 63133  1  0  0  0
 63134  1  0  0  0
 63135  1  0  0  0
 64136  1  0  0  0
 65137  1  0  0  0
 68 76  1  0  0  0
 71 72  1  0  0  0
 71 73  2  0  0  0
 71138  1  0  0  0
 72 74  2  0  0  0
 72139  1  0  0  0
 73 75  1  0  0  0
 73 78  1  0  0  0
 74 76  1  0  0  0
 74 78  1  0  0  0
 75 77  1  0  0  0
 75140  1  0  0  0
 75141  1  0  0  0
 76142  1  0  0  0
 77143  1  0  0  0
M  ISO  4   1 100  68 101  76 101  77 100
M  END
> <chiral flag>
0

> <version>
0

> <s_m_source_file>
/data/baiqing/PycharmProjects/Reinvent-master-3.2/result/LINK_invent/BTK/process_docking_weight1_custom_product_contain_oxygen_bond_distance_aromatic_linkinvent_7_9_3/rearranged_h_0157.sdf

> <i_m_source_file_index>
19

> <r_mmod_Potential_Energy-OPLS-2005>
1314.38757324219

> <r_mmod_Stretch_Energy-OPLS-2005>
591.453430175781

> <r_mmod_Bend_Energy-OPLS-2005>
505.783386230469

> <r_mmod_Torsional_Energy-OPLS-2005>
206.380172729492

> <r_mmod_Improper_Torsional_Energy-OPLS-2005>
6.91490411758423

> <r_mmod_Van_der_Waal_Energy-OPLS-2005>
109.303268432617

> <r_mmod_Electrostatic_Energy-OPLS-2005>
-387.266418457031

> <r_mmod_Solvation_Energy-OPLS-2005>
-231.698303222656

> <b_mmod_Minimization_Converged-OPLS-2005>
0

> <r_mmod_RMS_Derivative-OPLS-2005>
1.22842168807983

$$$$
19
                    3D
 Structure written by MMmdl.
146154  0  0  1  0            999 V2000
  -30.3860  -15.3851   20.3505 C   0  0  0  0  0  0
  -30.4365  -12.8825   19.5605 C   0  0  0  0  0  0
  -29.5509  -12.6101   18.3147 C   0  0  0  0  0  0
  -28.1020  -12.3072   18.7306 C   0  0  0  0  0  0
  -27.6061  -13.2917   19.8165 C   0  0  2  0  0  0
  -28.6243  -13.5161   20.9533 C   0  0  0  0  0  0
  -25.2369  -13.8276   20.5752 C   0  0  0  0  0  0
  -24.1729  -13.0444   20.9236 C   0  0  0  0  0  0
  -24.6404  -11.6946   20.8732 C   0  0  0  0  0  0
  -23.9104  -10.4298   21.0389 C   0  0  0  0  0  0
  -24.3645   -9.4215   21.9174 C   0  0  0  0  0  0
  -23.6310   -8.2253   22.0752 C   0  0  0  0  0  0
  -22.4290   -8.0289   21.3546 C   0  0  0  0  0  0
  -21.9931   -9.0261   20.4644 C   0  0  0  0  0  0
  -22.7269  -10.2135   20.3046 C   0  0  0  0  0  0
  -21.6860   -6.0741   22.5280 C   0  0  0  0  0  0
  -21.4020   -6.5643   23.8214 C   0  0  0  0  0  0
  -21.3661   -5.6794   24.9175 C   0  0  0  0  0  0
  -21.6044   -4.3057   24.7224 C   0  0  0  0  0  0
  -21.8818   -3.8150   23.4345 C   0  0  0  0  0  0
  -21.9194   -4.6968   22.3402 C   0  0  0  0  0  0
  -22.7747  -13.5185   21.1900 C   0  0  0  0  0  0
  -22.1662   -4.2153   21.0980 F   0  0  0  0  0  0
  -21.5627   -3.4539   25.7737 F   0  0  0  0  0  0
  -29.8594  -14.0461   20.3487 N   0  0  0  0  0  0
  -26.2794  -12.9574   20.3175 N   0  0  0  0  0  0
  -25.9341  -11.6661   20.5668 N   0  0  0  0  0  0
  -22.0419  -12.8159   22.0460 N   0  0  0  0  0  0
  -25.4032  -15.2016   20.4270 N   0  0  0  0  0  0
  -31.5981  -15.3528   20.0972 O   0  0  0  0  0  0
  -21.6650   -6.8887   21.4244 O   0  0  0  0  0  0
  -22.3414  -14.5484   20.6747 O   0  0  0  0  0  0
  -24.6689  -31.8156   23.1647 C   0  0  0  0  0  0
  -25.9340  -32.4545   23.8136 C   0  0  1  0  0  0
  -27.2190  -26.8474   20.2025 C   0  0  0  0  0  0
  -25.5980  -33.8365   24.2031 N   0  0  0  0  0  0
  -23.4879  -30.4234   21.5150 C   0  0  2  0  0  0
  -24.9430  -28.7917   20.1170 C   0  0  0  0  0  0
  -22.7695  -29.4397   22.4760 C   0  0  0  0  0  0
  -18.0326  -28.1412   22.8464 C   0  0  0  0  0  0
  -24.1495  -36.7190   23.2649 C   0  0  0  0  0  0
  -26.0602  -30.5933   21.4106 C   0  0  0  0  0  0
  -26.1253  -29.1722   20.7635 C   0  0  0  0  0  0
  -27.2519  -28.2203   20.7849 C   0  0  0  0  0  0
  -26.0127  -26.6433   19.4933 C   0  0  0  0  0  0
  -24.9157  -27.5489   19.4621 C   0  0  0  0  0  0
  -23.7336  -29.7308   20.1448 C   0  0  0  0  0  0
  -25.4139  -36.2944   24.0292 C   0  0  1  0  0  0
  -20.5953  -28.3762   23.1174 C   0  0  2  0  0  0
  -20.6800  -26.9436   22.5404 C   0  0  0  0  0  0
  -19.5774  -26.6375   21.5216 C   0  0  0  0  0  0
  -18.1957  -26.7944   22.1622 C   0  0  0  0  0  0
  -19.1589  -28.8909   23.2805 C   0  0  0  0  0  0
  -18.9498  -30.1497   23.8844 C   0  0  0  0  0  0
  -17.6490  -30.6600   24.0554 C   0  0  0  0  0  0
  -25.9108  -34.9328   23.4989 C   0  0  0  0  0  0
  -16.5380  -29.9085   23.6346 C   0  0  0  0  0  0
  -16.7308  -28.6506   23.0365 C   0  0  0  0  0  0
  -26.4570  -31.6525   25.0698 C   0  0  0  0  0  0
  -25.3675  -31.3800   26.1340 C   0  0  0  0  0  0
  -27.0482  -30.2880   24.6498 C   0  0  0  0  0  0
  -27.6043  -32.4357   25.7506 C   0  0  0  0  0  0
  -27.5569  -37.1752   24.8465 C   0  0  0  0  0  0
  -21.4358  -29.3036   22.3511 N   0  0  0  0  0  0
  -26.4278  -37.3688   23.9406 N   0  0  0  0  0  0
  -24.7608  -30.9740   22.0829 N   0  0  0  0  0  0
  -23.4208  -28.7979   23.3039 O   0  0  0  0  0  0
  -28.2262  -25.7181   20.2344 O   0  0  0  0  0  0
  -26.5732  -34.8877   22.4595 O   0  0  0  0  0  0
  -23.5742  -32.1167   23.6690 O   0  0  0  0  0  0
  -29.9786  -22.3144   20.3722 C   0  0  0  0  0  0
  -30.4409  -20.8638   20.3931 C   0  0  0  0  0  0
  -29.5348  -19.7607   20.3518 C   0  0  0  0  0  0
  -28.6285  -22.6704   20.2998 C   0  0  0  0  0  0
  -29.9523  -18.0802   20.2799 C   0  0  0  0  0  0
  -31.8815  -20.6232   20.5140 C   0  0  0  0  0  0
  -32.7935  -21.5952   19.7736 C   0  0  0  0  0  0
  -29.5630  -16.7250   20.5165 N   0  0  0  0  0  0
  -27.8263  -24.0577   20.2635 N   0  0  0  0  0  0
  -32.4066  -19.7044   21.1488 O   0  0  0  0  0  0
  -27.9750  -20.8578   20.2805 S   0  0  0  0  0  0
  -31.4571  -13.0827   19.2327 H   0  0  0  0  0  0
  -30.5080  -11.9890   20.1833 H   0  0  0  0  0  0
  -29.9563  -11.7826   17.7309 H   0  0  0  0  0  0
  -29.5678  -13.4848   17.6627 H   0  0  0  0  0  0
  -28.0756  -11.2889   19.1203 H   0  0  0  0  0  0
  -27.4409  -12.3226   17.8632 H   0  0  0  0  0  0
  -27.5077  -14.2471   19.2992 H   0  0  0  0  0  0
  -28.8035  -12.5996   21.5177 H   0  0  0  0  0  0
  -28.2351  -14.2458   21.6653 H   0  0  0  0  0  0
  -25.2788   -9.5692   22.4751 H   0  0  0  0  0  0
  -24.0017   -7.4648   22.7477 H   0  0  0  0  0  0
  -21.0861   -8.8782   19.8952 H   0  0  0  0  0  0
  -22.3724  -10.9672   19.6154 H   0  0  0  0  0  0
  -21.2015   -7.6152   23.9718 H   0  0  0  0  0  0
  -21.1484   -6.0525   25.9078 H   0  0  0  0  0  0
  -22.0594   -2.7612   23.2844 H   0  0  0  0  0  0
  -22.4066  -11.9834   22.4847 H   0  0  0  0  0  0
  -21.1029  -13.1156   22.2671 H   0  0  0  0  0  0
  -24.6473  -15.8629   20.5671 H   0  0  0  0  0  0
  -26.2761  -15.6437   20.1635 H   0  0  0  0  0  0
  -26.7410  -32.5060   23.0845 H   0  0  0  0  0  0
  -25.0061  -33.9430   25.0137 H   0  0  0  0  0  0
  -22.8053  -31.2571   21.3371 H   0  0  0  0  0  0
  -23.3771  -35.9505   23.3273 H   0  0  0  0  0  0
  -24.3568  -36.8880   22.2071 H   0  0  0  0  0  0
  -23.7239  -37.6358   23.6737 H   0  0  0  0  0  0
  -26.2492  -31.3255   20.6244 H   0  0  0  0  0  0
  -26.9172  -30.6563   22.0690 H   0  0  0  0  0  0
  -28.1474  -28.5127   21.3148 H   0  0  0  0  0  0
  -25.8872  -25.7020   18.9779 H   0  0  0  0  0  0
  -24.0222  -27.2541   18.9292 H   0  0  0  0  0  0
  -23.8971  -30.4954   19.3845 H   0  0  0  0  0  0
  -22.8415  -29.1896   19.8247 H   0  0  0  0  0  0
  -25.1342  -36.1730   25.0783 H   0  0  0  0  0  0
  -21.0039  -28.3375   24.1299 H   0  0  0  0  0  0
  -20.5674  -26.2382   23.3651 H   0  0  0  0  0  0
  -21.6663  -26.7401   22.1214 H   0  0  0  0  0  0
  -19.6931  -25.6270   21.1283 H   0  0  0  0  0  0
  -19.6715  -27.3154   20.6722 H   0  0  0  0  0  0
  -17.4225  -26.6687   21.4025 H   0  0  0  0  0  0
  -18.0348  -26.0098   22.9029 H   0  0  0  0  0  0
  -19.7972  -30.7328   24.2188 H   0  0  0  0  0  0
  -17.5040  -31.6275   24.5166 H   0  0  0  0  0  0
  -15.5377  -30.2969   23.7701 H   0  0  0  0  0  0
  -15.8708  -28.0806   22.7112 H   0  0  0  0  0  0
  -24.5869  -30.7140   25.7643 H   0  0  0  0  0  0
  -24.8854  -32.3011   26.4625 H   0  0  0  0  0  0
  -25.7886  -30.9053   27.0212 H   0  0  0  0  0  0
  -26.3167  -29.6529   24.1490 H   0  0  0  0  0  0
  -27.3959  -29.7281   25.5190 H   0  0  0  0  0  0
  -27.9132  -30.4037   23.9966 H   0  0  0  0  0  0
  -27.2596  -33.3708   26.1933 H   0  0  0  0  0  0
  -28.3932  -32.6839   25.0391 H   0  0  0  0  0  0
  -28.0629  -31.8588   26.5547 H   0  0  0  0  0  0
  -28.2561  -38.0071   24.7517 H   0  0  0  0  0  0
  -28.1091  -36.2596   24.6289 H   0  0  0  0  0  0
  -27.2285  -37.1388   25.8867 H   0  0  0  0  0  0
  -20.9629  -29.8710   21.6615 H   0  0  0  0  0  0
  -26.0120  -38.2742   24.1417 H   0  0  0  0  0  0
  -30.7200  -23.0981   20.4261 H   0  0  0  0  0  0
  -30.9705  -18.0709   19.8852 H   0  0  0  0  0  0
  -32.9974  -22.4686   20.3921 H   0  0  0  0  0  0
  -32.3325  -21.9221   18.8419 H   0  0  0  0  0  0
  -33.7412  -21.1147   19.5334 H   0  0  0  0  0  0
  -26.8109  -23.9863   20.2628 H   0  0  0  0  0  0
  1 25  1  0  0  0
  1 30  2  0  0  0
  1 78  1  0  0  0
  2  3  1  0  0  0
  2 25  1  0  0  0
  2 82  1  0  0  0
  2 83  1  0  0  0
  3  4  1  0  0  0
  3 84  1  0  0  0
  3 85  1  0  0  0
  4  5  1  0  0  0
  4 86  1  0  0  0
  4 87  1  0  0  0
  5  6  1  0  0  0
  5 26  1  0  0  0
  5 88  1  0  0  0
  6 25  1  0  0  0
  6 89  1  0  0  0
  6 90  1  0  0  0
  7  8  2  0  0  0
  7 26  1  0  0  0
  7 29  1  0  0  0
  8  9  1  0  0  0
  8 22  1  0  0  0
  9 10  1  0  0  0
  9 27  2  0  0  0
 10 11  2  0  0  0
 10 15  1  0  0  0
 11 12  1  0  0  0
 11 91  1  0  0  0
 12 13  2  0  0  0
 12 92  1  0  0  0
 13 14  1  0  0  0
 13 31  1  0  0  0
 14 15  2  0  0  0
 14 93  1  0  0  0
 15 94  1  0  0  0
 16 17  2  0  0  0
 16 21  1  0  0  0
 16 31  1  0  0  0
 17 18  1  0  0  0
 17 95  1  0  0  0
 18 19  2  0  0  0
 18 96  1  0  0  0
 19 20  1  0  0  0
 19 24  1  0  0  0
 20 21  2  0  0  0
 20 97  1  0  0  0
 21 23  1  0  0  0
 22 28  1  0  0  0
 22 32  2  0  0  0
 26 27  1  0  0  0
 28 98  1  0  0  0
 28 99  1  0  0  0
 29100  1  0  0  0
 29101  1  0  0  0
 33 34  1  0  0  0
 33 66  1  0  0  0
 33 70  2  0  0  0
 34 36  1  0  0  0
 34 59  1  0  0  0
 34102  1  0  0  0
 35 44  2  0  0  0
 35 45  1  0  0  0
 35 68  1  0  0  0
 36 56  1  0  0  0
 36103  1  0  0  0
 37 39  1  0  0  0
 37 47  1  0  0  0
 37 66  1  0  0  0
 37104  1  0  0  0
 38 43  2  0  0  0
 38 46  1  0  0  0
 38 47  1  0  0  0
 39 64  1  0  0  0
 39 67  2  0  0  0
 40 52  1  0  0  0
 40 53  2  0  0  0
 40 58  1  0  0  0
 41105  1  0  0  0
 41106  1  0  0  0
 41107  1  0  0  0
 41 48  1  0  0  0
 42 43  1  0  0  0
 42 66  1  0  0  0
 42108  1  0  0  0
 42109  1  0  0  0
 43 44  1  0  0  0
 44110  1  0  0  0
 45 46  2  0  0  0
 45111  1  0  0  0
 46112  1  0  0  0
 47113  1  0  0  0
 47114  1  0  0  0
 48 56  1  0  0  0
 48 65  1  0  0  0
 48115  1  0  0  0
 49 50  1  0  0  0
 49 53  1  0  0  0
 49 64  1  0  0  0
 49116  1  0  0  0
 50 51  1  0  0  0
 50117  1  0  0  0
 50118  1  0  0  0
 51 52  1  0  0  0
 51119  1  0  0  0
 51120  1  0  0  0
 52121  1  0  0  0
 52122  1  0  0  0
 53 54  1  0  0  0
 54 55  2  0  0  0
 54123  1  0  0  0
 55 57  1  0  0  0
 55124  1  0  0  0
 56 69  2  0  0  0
 57 58  2  0  0  0
 57125  1  0  0  0
 58126  1  0  0  0
 59 60  1  0  0  0
 59 61  1  0  0  0
 59 62  1  0  0  0
 60127  1  0  0  0
 60128  1  0  0  0
 60129  1  0  0  0
 61130  1  0  0  0
 61131  1  0  0  0
 61132  1  0  0  0
 62133  1  0  0  0
 62134  1  0  0  0
 62135  1  0  0  0
 63 65  1  0  0  0
 63136  1  0  0  0
 63137  1  0  0  0
 63138  1  0  0  0
 64139  1  0  0  0
 65140  1  0  0  0
 68 79  1  0  0  0
 71 72  1  0  0  0
 71 74  2  0  0  0
 71141  1  0  0  0
 72 73  2  0  0  0
 72 76  1  0  0  0
 73 75  1  0  0  0
 73 81  1  0  0  0
 74 79  1  0  0  0
 74 81  1  0  0  0
 75 78  2  0  0  0
 75142  1  0  0  0
 76 77  1  0  0  0
 76 80  2  0  0  0
 77143  1  0  0  0
 77144  1  0  0  0
 77145  1  0  0  0
 79146  1  0  0  0
M  ISO  4   1 100  68 101  78 100  79 101
M  END
> <chiral flag>
0

> <version>
0

> <s_m_source_file>
/data/baiqing/PycharmProjects/Reinvent-master-3.2/result/LINK_invent/BTK/process_docking_weight1_custom_product_contain_oxygen_bond_distance_aromatic_linkinvent_7_9_3/rearranged_h_0157.sdf

> <i_m_source_file_index>
20

> <r_mmod_Potential_Energy-OPLS-2005>
1468.09765625

> <r_mmod_Stretch_Energy-OPLS-2005>
672.46875

> <r_mmod_Bend_Energy-OPLS-2005>
536.540466308594

> <r_mmod_Torsional_Energy-OPLS-2005>
190.682220458984

> <r_mmod_Improper_Torsional_Energy-OPLS-2005>
2.44711947441101

> <r_mmod_Van_der_Waal_Energy-OPLS-2005>
118.734436035156

> <r_mmod_Electrostatic_Energy-OPLS-2005>
-419.696044921875

> <r_mmod_Solvation_Energy-OPLS-2005>
-214.278503417969

> <b_mmod_Minimization_Converged-OPLS-2005>
0

> <r_mmod_RMS_Derivative-OPLS-2005>
0.180903896689415

$$$$
20
                    3D
 Structure written by MMmdl.
152160  0  0  1  0            999 V2000
  -30.5960  -14.7954   20.4333 C   0  0  0  0  0  0
  -30.4271  -12.4856   19.4849 C   0  0  0  0  0  0
  -29.5091  -12.5153   18.2426 C   0  0  0  0  0  0
  -28.0384  -12.3294   18.6571 C   0  0  0  0  0  0
  -27.6369  -13.2389   19.8489 C   0  0  2  0  0  0
  -28.6799  -13.2004   20.9876 C   0  0  0  0  0  0
  -25.2477  -13.8216   20.5705 C   0  0  0  0  0  0
  -24.1780  -13.0445   20.9226 C   0  0  0  0  0  0
  -24.6383  -11.6924   20.8750 C   0  0  0  0  0  0
  -23.9077  -10.4298   21.0411 C   0  0  0  0  0  0
  -24.3632   -9.4211   21.9191 C   0  0  0  0  0  0
  -23.6304   -8.2244   22.0748 C   0  0  0  0  0  0
  -22.4278   -8.0288   21.3548 C   0  0  0  0  0  0
  -21.9932   -9.0262   20.4649 C   0  0  0  0  0  0
  -22.7254  -10.2138   20.3061 C   0  0  0  0  0  0
  -21.6853   -6.0743   22.5277 C   0  0  0  0  0  0
  -21.4012   -6.5650   23.8214 C   0  0  0  0  0  0
  -21.3650   -5.6796   24.9175 C   0  0  0  0  0  0
  -21.6046   -4.3059   24.7221 C   0  0  0  0  0  0
  -21.8819   -3.8150   23.4340 C   0  0  0  0  0  0
  -21.9191   -4.6975   22.3403 C   0  0  0  0  0  0
  -22.7808  -13.5222   21.1881 C   0  0  0  0  0  0
  -22.1662   -4.2158   21.0979 F   0  0  0  0  0  0
  -21.5624   -3.4544   25.7734 F   0  0  0  0  0  0
  -29.9772  -13.5610   20.4060 N   0  0  0  0  0  0
  -26.2910  -12.9430   20.3288 N   0  0  0  0  0  0
  -25.9316  -11.6564   20.5770 N   0  0  0  0  0  0
  -22.0463  -12.8198   22.0429 N   0  0  0  0  0  0
  -25.4205  -15.1934   20.4106 N   0  0  0  0  0  0
  -31.7903  -14.8585   20.1259 O   0  0  0  0  0  0
  -21.6635   -6.8885   21.4242 O   0  0  0  0  0  0
  -22.3498  -14.5526   20.6717 O   0  0  0  0  0  0
  -24.6318  -31.8528   23.1922 C   0  0  0  0  0  0
  -25.9132  -32.4749   23.8274 C   0  0  1  0  0  0
  -27.2194  -27.2348   20.1305 C   0  0  0  0  0  0
  -25.5924  -33.8547   24.2216 N   0  0  0  0  0  0
  -23.4324  -30.4707   21.5356 C   0  0  2  0  0  0
  -24.8788  -28.9123   20.1038 C   0  0  0  0  0  0
  -22.7507  -29.4580   22.4885 C   0  0  0  0  0  0
  -18.0300  -28.1421   22.8482 C   0  0  0  0  0  0
  -24.1491  -36.7285   23.2636 C   0  0  0  0  0  0
  -25.9767  -30.7569   21.3731 C   0  0  0  0  0  0
  -26.0477  -29.3761   20.7197 C   0  0  0  0  0  0
  -27.2179  -28.5467   20.7261 C   0  0  0  0  0  0
  -26.0268  -26.8438   19.4836 C   0  0  0  0  0  0
  -24.8755  -27.6581   19.4731 C   0  0  0  0  0  0
  -23.6500  -29.7998   20.1524 C   0  0  0  0  0  0
  -25.4130  -36.3076   24.0308 C   0  0  1  0  0  0
  -20.5900  -28.3731   23.1285 C   0  0  2  0  0  0
  -20.6796  -26.9453   22.5418 C   0  0  0  0  0  0
  -19.5770  -26.6405   21.5220 C   0  0  0  0  0  0
  -18.1942  -26.7966   22.1609 C   0  0  0  0  0  0
  -19.1549  -28.8888   23.2879 C   0  0  0  0  0  0
  -18.9465  -30.1487   23.8911 C   0  0  0  0  0  0
  -17.6463  -30.6619   24.0575 C   0  0  0  0  0  0
  -25.9067  -34.9439   23.5077 C   0  0  0  0  0  0
  -16.5360  -29.9119   23.6335 C   0  0  0  0  0  0
  -16.7280  -28.6534   23.0349 C   0  0  0  0  0  0
  -26.4484  -31.6589   25.0685 C   0  0  0  0  0  0
  -25.3679  -31.3743   26.1384 C   0  0  0  0  0  0
  -27.0320  -30.3015   24.6163 C   0  0  0  0  0  0
  -27.6066  -32.4301   25.7449 C   0  0  0  0  0  0
  -27.5582  -37.1802   24.8459 C   0  0  0  0  0  0
  -21.4202  -29.3060   22.3642 N   0  0  0  0  0  0
  -26.4307  -37.3782   23.9394 N   0  0  0  0  0  0
  -24.7000  -31.0456   22.0909 N   0  0  0  0  0  0
  -23.4194  -28.8125   23.2991 O   0  0  0  0  0  0
  -28.3052  -26.3271   20.2431 O   0  0  0  0  0  0
  -26.5649  -34.8921   22.4657 O   0  0  0  0  0  0
  -23.5458  -32.1328   23.7221 O   0  0  0  0  0  0
  -29.3642  -18.5914   20.5944 C   0  0  0  0  0  0
  -30.4659  -19.9738   18.9239 C   0  0  0  0  0  0
  -30.9128  -17.5601   19.0314 C   0  0  0  0  0  0
  -29.5544  -19.9296   20.0053 C   0  0  0  0  0  0
  -30.0375  -17.3663   20.1268 C   0  0  0  0  0  0
  -31.1227  -18.8236   18.4492 C   0  0  0  0  0  0
  -28.2940  -24.9721   19.7611 C   0  0  0  0  0  0
  -28.6268  -23.7907   20.4323 C   0  0  0  0  0  0
  -28.7521  -22.4297   19.7501 C   0  0  0  0  0  0
  -28.9715  -21.2423   20.4721 N   0  0  0  0  0  0
  -29.8391  -15.9599   20.6367 N   0  0  0  0  0  0
  -28.9205  -23.9444   21.8717 N   0  3  0  0  0  0
  -28.6544  -22.3513   18.5225 O   0  0  0  0  0  0
  -31.9767  -18.9356   17.4052 F   0  0  0  0  0  0
  -31.4683  -12.6065   19.1802 H   0  0  0  0  0  0
  -30.3732  -11.5153   19.9791 H   0  0  0  0  0  0
  -29.7996  -11.7356   17.5363 H   0  0  0  0  0  0
  -29.6252  -13.4645   17.7154 H   0  0  0  0  0  0
  -27.9064  -11.2830   18.9340 H   0  0  0  0  0  0
  -27.3765  -12.5032   17.8081 H   0  0  0  0  0  0
  -27.6239  -14.2559   19.4548 H   0  0  0  0  0  0
  -28.7240  -12.2105   21.4415 H   0  0  0  0  0  0
  -28.4043  -13.8932   21.7842 H   0  0  0  0  0  0
  -25.2784   -9.5671   22.4771 H   0  0  0  0  0  0
  -24.0007   -7.4625   22.7461 H   0  0  0  0  0  0
  -21.0868   -8.8791   19.8946 H   0  0  0  0  0  0
  -22.3736  -10.9681   19.6164 H   0  0  0  0  0  0
  -21.2005   -7.6157   23.9721 H   0  0  0  0  0  0
  -21.1472   -6.0526   25.9077 H   0  0  0  0  0  0
  -22.0604   -2.7613   23.2840 H   0  0  0  0  0  0
  -22.4081  -11.9850   22.4802 H   0  0  0  0  0  0
  -21.1072  -13.1194   22.2616 H   0  0  0  0  0  0
  -24.6558  -15.8512   20.5151 H   0  0  0  0  0  0
  -26.2657  -15.6253   20.0598 H   0  0  0  0  0  0
  -26.7194  -32.5371   23.0996 H   0  0  0  0  0  0
  -25.0034  -33.9673   25.0336 H   0  0  0  0  0  0
  -22.7341  -31.2959   21.3846 H   0  0  0  0  0  0
  -23.3752  -35.9615   23.3301 H   0  0  0  0  0  0
  -24.3596  -36.8916   22.2056 H   0  0  0  0  0  0
  -23.7223  -37.6479   23.6667 H   0  0  0  0  0  0
  -26.1099  -31.5101   20.5951 H   0  0  0  0  0  0
  -26.8588  -30.8161   21.9996 H   0  0  0  0  0  0
  -28.1098  -28.8897   21.2322 H   0  0  0  0  0  0
  -25.9521  -25.8743   19.0127 H   0  0  0  0  0  0
  -23.9785  -27.2996   18.9875 H   0  0  0  0  0  0
  -23.7732  -30.5685   19.3908 H   0  0  0  0  0  0
  -22.7702  -29.2292   19.8508 H   0  0  0  0  0  0
  -25.1319  -36.1922   25.0801 H   0  0  0  0  0  0
  -21.0000  -28.3314   24.1405 H   0  0  0  0  0  0
  -20.5740  -26.2332   23.3617 H   0  0  0  0  0  0
  -21.6662  -26.7512   22.1180 H   0  0  0  0  0  0
  -19.6949  -25.6313   21.1255 H   0  0  0  0  0  0
  -19.6723  -27.3216   20.6756 H   0  0  0  0  0  0
  -17.4227  -26.6715   21.4000 H   0  0  0  0  0  0
  -18.0347  -26.0131   22.9027 H   0  0  0  0  0  0
  -19.7940  -30.7287   24.2308 H   0  0  0  0  0  0
  -17.5022  -31.6307   24.5170 H   0  0  0  0  0  0
  -15.5372  -30.3024   23.7669 H   0  0  0  0  0  0
  -15.8666  -28.0855   22.7080 H   0  0  0  0  0  0
  -24.5881  -30.7087   25.7669 H   0  0  0  0  0  0
  -24.8826  -32.2909   26.4757 H   0  0  0  0  0  0
  -25.7950  -30.8925   27.0182 H   0  0  0  0  0  0
  -26.2889  -29.6771   24.1192 H   0  0  0  0  0  0
  -27.4030  -29.7290   25.4664 H   0  0  0  0  0  0
  -27.8753  -30.4318   23.9375 H   0  0  0  0  0  0
  -27.2748  -33.3641   26.1987 H   0  0  0  0  0  0
  -28.3900  -32.6774   25.0275 H   0  0  0  0  0  0
  -28.0696  -31.8419   26.5381 H   0  0  0  0  0  0
  -28.2600  -38.0095   24.7539 H   0  0  0  0  0  0
  -28.1074  -36.2640   24.6264 H   0  0  0  0  0  0
  -27.2304  -37.1437   25.8858 H   0  0  0  0  0  0
  -20.9422  -29.8767   21.6805 H   0  0  0  0  0  0
  -26.0171  -38.2850   24.1415 H   0  0  0  0  0  0
  -28.6855  -18.5012   21.4301 H   0  0  0  0  0  0
  -30.7044  -20.9084   18.4386 H   0  0  0  0  0  0
  -31.4467  -16.7327   18.5907 H   0  0  0  0  0  0
  -28.0405  -24.9515   18.7104 H   0  0  0  0  0  0
  -28.7284  -21.2626   21.4506 H   0  0  0  0  0  0
  -28.9513  -15.7936   21.0861 H   0  0  0  0  0  0
  -29.7990  -24.4118   22.0032 H   0  0  0  0  0  0
  -28.2092  -24.4949   22.3152 H   0  0  0  0  0  0
  -28.9644  -23.0603   22.3385 H   0  0  0  0  0  0
  1 25  1  0  0  0
  1 30  2  0  0  0
  1 81  1  0  0  0
  2  3  1  0  0  0
  2 25  1  0  0  0
  2 85  1  0  0  0
  2 86  1  0  0  0
  3  4  1  0  0  0
  3 87  1  0  0  0
  3 88  1  0  0  0
  4  5  1  0  0  0
  4 89  1  0  0  0
  4 90  1  0  0  0
  5  6  1  0  0  0
  5 26  1  0  0  0
  5 91  1  0  0  0
  6 25  1  0  0  0
  6 92  1  0  0  0
  6 93  1  0  0  0
  7  8  2  0  0  0
  7 26  1  0  0  0
  7 29  1  0  0  0
  8  9  1  0  0  0
  8 22  1  0  0  0
  9 10  1  0  0  0
  9 27  2  0  0  0
 10 11  2  0  0  0
 10 15  1  0  0  0
 11 12  1  0  0  0
 11 94  1  0  0  0
 12 13  2  0  0  0
 12 95  1  0  0  0
 13 14  1  0  0  0
 13 31  1  0  0  0
 14 15  2  0  0  0
 14 96  1  0  0  0
 15 97  1  0  0  0
 16 17  2  0  0  0
 16 21  1  0  0  0
 16 31  1  0  0  0
 17 18  1  0  0  0
 17 98  1  0  0  0
 18 19  2  0  0  0
 18 99  1  0  0  0
 19 20  1  0  0  0
 19 24  1  0  0  0
 20 21  2  0  0  0
 20100  1  0  0  0
 21 23  1  0  0  0
 22 28  1  0  0  0
 22 32  2  0  0  0
 26 27  1  0  0  0
 28101  1  0  0  0
 28102  1  0  0  0
 29103  1  0  0  0
 29104  1  0  0  0
 33 34  1  0  0  0
 33 66  1  0  0  0
 33 70  2  0  0  0
 34 36  1  0  0  0
 34 59  1  0  0  0
 34105  1  0  0  0
 35 44  2  0  0  0
 35 45  1  0  0  0
 35 68  1  0  0  0
 36 56  1  0  0  0
 36106  1  0  0  0
 37 39  1  0  0  0
 37 47  1  0  0  0
 37 66  1  0  0  0
 37107  1  0  0  0
 38 43  2  0  0  0
 38 46  1  0  0  0
 38 47  1  0  0  0
 39 64  1  0  0  0
 39 67  2  0  0  0
 40 52  1  0  0  0
 40 53  2  0  0  0
 40 58  1  0  0  0
 41108  1  0  0  0
 41109  1  0  0  0
 41110  1  0  0  0
 41 48  1  0  0  0
 42 43  1  0  0  0
 42 66  1  0  0  0
 42111  1  0  0  0
 42112  1  0  0  0
 43 44  1  0  0  0
 44113  1  0  0  0
 45 46  2  0  0  0
 45114  1  0  0  0
 46115  1  0  0  0
 47116  1  0  0  0
 47117  1  0  0  0
 48 56  1  0  0  0
 48 65  1  0  0  0
 48118  1  0  0  0
 49 50  1  0  0  0
 49 53  1  0  0  0
 49 64  1  0  0  0
 49119  1  0  0  0
 50 51  1  0  0  0
 50120  1  0  0  0
 50121  1  0  0  0
 51 52  1  0  0  0
 51122  1  0  0  0
 51123  1  0  0  0
 52124  1  0  0  0
 52125  1  0  0  0
 53 54  1  0  0  0
 54 55  2  0  0  0
 54126  1  0  0  0
 55 57  1  0  0  0
 55127  1  0  0  0
 56 69  2  0  0  0
 57 58  2  0  0  0
 57128  1  0  0  0
 58129  1  0  0  0
 59 60  1  0  0  0
 59 61  1  0  0  0
 59 62  1  0  0  0
 60130  1  0  0  0
 60131  1  0  0  0
 60132  1  0  0  0
 61133  1  0  0  0
 61134  1  0  0  0
 61135  1  0  0  0
 62136  1  0  0  0
 62137  1  0  0  0
 62138  1  0  0  0
 63 65  1  0  0  0
 63139  1  0  0  0
 63140  1  0  0  0
 63141  1  0  0  0
 64142  1  0  0  0
 65143  1  0  0  0
 68 77  1  0  0  0
 71 74  2  0  0  0
 71 75  1  0  0  0
 71144  1  0  0  0
 72 74  1  0  0  0
 72 76  2  0  0  0
 72145  1  0  0  0
 73 75  2  0  0  0
 73 76  1  0  0  0
 73146  1  0  0  0
 74 80  1  0  0  0
 75 81  1  0  0  0
 76 84  1  0  0  0
 77 78  2  0  0  0
 77147  1  0  0  0
 78 79  1  0  0  0
 78 82  1  0  0  0
 79 80  1  0  0  0
 79 83  2  0  0  0
 80148  1  0  0  0
 81149  1  0  0  0
 82150  1  0  0  0
 82151  1  0  0  0
 82152  1  0  0  0
M  CHG  1  82   1
M  ISO  4   1 100  68 101  77 101  81 100
M  END
> <chiral flag>
0

> <version>
0

> <s_m_source_file>
/data/baiqing/PycharmProjects/Reinvent-master-3.2/result/LINK_invent/BTK/process_docking_weight1_custom_product_contain_oxygen_bond_distance_aromatic_linkinvent_7_9_3/rearranged_h_0157.sdf

> <i_m_source_file_index>
21

> <r_mmod_Potential_Energy-OPLS-2005>
-113.946334838867

> <r_mmod_Stretch_Energy-OPLS-2005>
154.474914550781

> <r_mmod_Bend_Energy-OPLS-2005>
171.040374755859

> <r_mmod_Torsional_Energy-OPLS-2005>
249.505004882812

> <r_mmod_Improper_Torsional_Energy-OPLS-2005>
5.23086833953857

> <r_mmod_Van_der_Waal_Energy-OPLS-2005>
145.135040283203

> <r_mmod_Electrostatic_Energy-OPLS-2005>
-385.705474853516

> <r_mmod_Solvation_Energy-OPLS-2005>
-561.303771972656

> <b_mmod_Minimization_Converged-OPLS-2005>
0

> <r_mmod_RMS_Derivative-OPLS-2005>
2.94644522666931

$$$$
21
                    3D
 Structure written by MMmdl.
156165  0  0  1  0            999 V2000
  -30.5403  -14.8471   20.4207 C   0  0  0  0  0  0
  -30.4479  -12.5163   19.4727 C   0  0  0  0  0  0
  -29.5190  -12.5157   18.2363 C   0  0  0  0  0  0
  -28.0480  -12.3149   18.6567 C   0  0  0  0  0  0
  -27.6371  -13.2301   19.8405 C   0  0  2  0  0  0
  -28.6844  -13.1977   20.9742 C   0  0  0  0  0  0
  -25.2499  -13.8180   20.5679 C   0  0  0  0  0  0
  -24.1797  -13.0428   20.9209 C   0  0  0  0  0  0
  -24.6384  -11.6904   20.8741 C   0  0  0  0  0  0
  -23.9057  -10.4280   21.0405 C   0  0  0  0  0  0
  -24.3610   -9.4200   21.9182 C   0  0  0  0  0  0
  -23.6285   -8.2238   22.0757 C   0  0  0  0  0  0
  -22.4265   -8.0277   21.3548 C   0  0  0  0  0  0
  -21.9899   -9.0250   20.4652 C   0  0  0  0  0  0
  -22.7231  -10.2122   20.3056 C   0  0  0  0  0  0
  -21.6853   -6.0725   22.5278 C   0  0  0  0  0  0
  -21.4019   -6.5632   23.8209 C   0  0  0  0  0  0
  -21.3662   -5.6786   24.9172 C   0  0  0  0  0  0
  -21.6044   -4.3047   24.7226 C   0  0  0  0  0  0
  -21.8819   -3.8139   23.4346 C   0  0  0  0  0  0
  -21.9194   -4.6954   22.3403 C   0  0  0  0  0  0
  -22.7818  -13.5217   21.1867 C   0  0  0  0  0  0
  -22.1663   -4.2142   21.0982 F   0  0  0  0  0  0
  -21.5629   -3.4534   25.7737 F   0  0  0  0  0  0
  -29.9712  -13.5873   20.3804 N   0  0  0  0  0  0
  -26.2917  -12.9379   20.3227 N   0  0  0  0  0  0
  -25.9310  -11.6523   20.5711 N   0  0  0  0  0  0
  -22.0457  -12.8218   22.0426 N   0  0  0  0  0  0
  -25.4157  -15.1909   20.4096 N   0  0  0  0  0  0
  -31.7482  -14.9709   20.1900 O   0  0  0  0  0  0
  -21.6638   -6.8868   21.4240 O   0  0  0  0  0  0
  -22.3510  -14.5525   20.6710 O   0  0  0  0  0  0
  -24.6389  -31.8494   23.1908 C   0  0  0  0  0  0
  -25.9183  -32.4719   23.8290 C   0  0  1  0  0  0
  -27.2217  -27.1947   20.1266 C   0  0  0  0  0  0
  -25.5947  -33.8525   24.2214 N   0  0  0  0  0  0
  -23.4374  -30.4712   21.5373 C   0  0  2  0  0  0
  -24.8811  -28.9043   20.1133 C   0  0  0  0  0  0
  -22.7537  -29.4577   22.4886 C   0  0  0  0  0  0
  -18.0299  -28.1383   22.8471 C   0  0  0  0  0  0
  -24.1495  -36.7272   23.2640 C   0  0  0  0  0  0
  -25.9898  -30.7439   21.3752 C   0  0  0  0  0  0
  -26.0607  -29.3614   20.7130 C   0  0  0  0  0  0
  -27.2313  -28.5245   20.6953 C   0  0  0  0  0  0
  -25.9942  -26.8024   19.5488 C   0  0  0  0  0  0
  -24.8564  -27.6341   19.5212 C   0  0  0  0  0  0
  -23.6573  -29.8023   20.1558 C   0  0  0  0  0  0
  -25.4123  -36.3050   24.0320 C   0  0  1  0  0  0
  -20.5908  -28.3709   23.1244 C   0  0  2  0  0  0
  -20.6785  -26.9418   22.5397 C   0  0  0  0  0  0
  -19.5762  -26.6373   21.5200 C   0  0  0  0  0  0
  -18.1944  -26.7920   22.1614 C   0  0  0  0  0  0
  -19.1553  -28.8863   23.2848 C   0  0  0  0  0  0
  -18.9473  -30.1457   23.8875 C   0  0  0  0  0  0
  -17.6470  -30.6583   24.0554 C   0  0  0  0  0  0
  -25.9068  -34.9421   23.5072 C   0  0  0  0  0  0
  -16.5359  -29.9073   23.6331 C   0  0  0  0  0  0
  -16.7284  -28.6489   23.0353 C   0  0  0  0  0  0
  -26.4516  -31.6567   25.0712 C   0  0  0  0  0  0
  -25.3713  -31.3742   26.1418 C   0  0  0  0  0  0
  -27.0374  -30.2970   24.6251 C   0  0  0  0  0  0
  -27.6053  -32.4323   25.7501 C   0  0  0  0  0  0
  -27.5584  -37.1792   24.8462 C   0  0  0  0  0  0
  -21.4238  -29.3048   22.3630 N   0  0  0  0  0  0
  -26.4292  -37.3757   23.9408 N   0  0  0  0  0  0
  -24.7087  -31.0408   22.0905 N   0  0  0  0  0  0
  -23.4206  -28.8128   23.3017 O   0  0  0  0  0  0
  -28.3378  -26.2988   20.1782 O   0  0  0  0  0  0
  -26.5648  -34.8911   22.4647 O   0  0  0  0  0  0
  -23.5519  -32.1344   23.7167 O   0  0  0  0  0  0
  -30.7234  -18.2089   21.0347 C   0  0  0  0  0  0
  -29.7953  -17.3653   20.4386 C   0  0  0  0  0  0
  -29.3969  -20.0265   20.2577 C   0  0  0  0  0  0
  -30.0408  -22.6272   19.6200 C   0  0  0  0  0  0
  -27.9668  -22.3201   20.9492 C   0  0  0  0  0  0
  -29.7985  -24.1641   20.0362 C   0  0  0  0  0  0
  -27.4268  -23.7807   20.5066 C   0  0  0  0  0  0
  -28.9343  -21.5557   19.9719 C   0  0  2  0  0  0
  -28.3857  -24.8143   19.7665 C   0  0  1  0  0  0
  -28.2136  -24.7665   18.2284 C   0  0  0  0  0  0
  -30.4743  -19.6248   20.9686 N   0  0  0  0  0  0
  -29.6684  -15.9463   20.4459 N   0  0  0  0  0  0
  -28.5827  -18.4927   19.7037 S   0  0  0  0  0  0
  -31.4842  -12.6739   19.1669 H   0  0  0  0  0  0
  -30.4253  -11.5491   19.9770 H   0  0  0  0  0  0
  -29.8192  -11.7343   17.5370 H   0  0  0  0  0  0
  -29.6217  -13.4614   17.6999 H   0  0  0  0  0  0
  -27.9295  -11.2695   18.9458 H   0  0  0  0  0  0
  -27.3846  -12.4732   17.8056 H   0  0  0  0  0  0
  -27.6149  -14.2419   19.4364 H   0  0  0  0  0  0
  -28.7467  -12.2037   21.4205 H   0  0  0  0  0  0
  -28.4059  -13.8793   21.7806 H   0  0  0  0  0  0
  -25.2755   -9.5677   22.4756 H   0  0  0  0  0  0
  -23.9999   -7.4624   22.7472 H   0  0  0  0  0  0
  -21.0836   -8.8766   19.8953 H   0  0  0  0  0  0
  -22.3697  -10.9659   19.6166 H   0  0  0  0  0  0
  -21.2014   -7.6138   23.9710 H   0  0  0  0  0  0
  -21.1485   -6.0515   25.9074 H   0  0  0  0  0  0
  -22.0597   -2.7603   23.2845 H   0  0  0  0  0  0
  -22.4075  -11.9897   22.4839 H   0  0  0  0  0  0
  -21.1074  -13.1249   22.2619 H   0  0  0  0  0  0
  -24.6385  -15.8336   20.5153 H   0  0  0  0  0  0
  -26.2470  -15.6385   20.0483 H   0  0  0  0  0  0
  -26.7251  -32.5342   23.1027 H   0  0  0  0  0  0
  -25.0085  -33.9649   25.0355 H   0  0  0  0  0  0
  -22.7366  -31.2951   21.3880 H   0  0  0  0  0  0
  -23.3761  -35.9598   23.3283 H   0  0  0  0  0  0
  -24.3588  -36.8918   22.2059 H   0  0  0  0  0  0
  -23.7244  -37.6462   23.6685 H   0  0  0  0  0  0
  -26.1381  -31.5036   20.6067 H   0  0  0  0  0  0
  -26.8628  -30.7907   22.0152 H   0  0  0  0  0  0
  -28.1386  -28.8786   21.1641 H   0  0  0  0  0  0
  -25.8587  -25.8103   19.1568 H   0  0  0  0  0  0
  -23.9438  -27.2642   19.0744 H   0  0  0  0  0  0
  -23.7899  -30.5776   19.4000 H   0  0  0  0  0  0
  -22.7723  -29.2426   19.8475 H   0  0  0  0  0  0
  -25.1303  -36.1887   25.0811 H   0  0  0  0  0  0
  -20.9993  -28.3292   24.1368 H   0  0  0  0  0  0
  -20.5682  -26.2317   23.3609 H   0  0  0  0  0  0
  -21.6655  -26.7434   22.1198 H   0  0  0  0  0  0
  -19.6927  -25.6276   21.1250 H   0  0  0  0  0  0
  -19.6699  -27.3168   20.6719 H   0  0  0  0  0  0
  -17.4210  -26.6653   21.4021 H   0  0  0  0  0  0
  -18.0355  -26.0067   22.9020 H   0  0  0  0  0  0
  -19.7951  -30.7273   24.2238 H   0  0  0  0  0  0
  -17.5028  -31.6265   24.5152 H   0  0  0  0  0  0
  -15.5360  -30.2969   23.7668 H   0  0  0  0  0  0
  -15.8682  -28.0799   22.7084 H   0  0  0  0  0  0
  -24.5882  -30.7101   25.7739 H   0  0  0  0  0  0
  -24.8914  -32.2922   26.4820 H   0  0  0  0  0  0
  -25.8005  -30.8926   27.0213 H   0  0  0  0  0  0
  -26.2976  -29.6702   24.1258 H   0  0  0  0  0  0
  -27.4008  -29.7253   25.4801 H   0  0  0  0  0  0
  -27.8872  -30.4218   23.9538 H   0  0  0  0  0  0
  -27.2642  -33.3626   26.2055 H   0  0  0  0  0  0
  -28.3881  -32.6878   25.0348 H   0  0  0  0  0  0
  -28.0705  -31.8467   26.5442 H   0  0  0  0  0  0
  -28.2579  -38.0110   24.7524 H   0  0  0  0  0  0
  -28.1101  -36.2638   24.6262 H   0  0  0  0  0  0
  -27.2305  -37.1409   25.8866 H   0  0  0  0  0  0
  -20.9433  -29.8768   21.6826 H   0  0  0  0  0  0
  -26.0162  -38.2827   24.1406 H   0  0  0  0  0  0
  -31.5882  -17.8843   21.5977 H   0  0  0  0  0  0
  -30.9668  -22.3202   20.1065 H   0  0  0  0  0  0
  -30.2599  -22.5647   18.5533 H   0  0  0  0  0  0
  -27.1052  -21.6836   21.1535 H   0  0  0  0  0  0
  -28.4801  -22.4191   21.9065 H   0  0  0  0  0  0
  -30.5661  -24.7726   19.5570 H   0  0  0  0  0  0
  -30.0043  -24.2562   21.1035 H   0  0  0  0  0  0
  -27.0623  -24.2662   21.4125 H   0  0  0  0  0  0
  -26.5343  -23.6420   19.8964 H   0  0  0  0  0  0
  -28.3450  -21.4618   19.0587 H   0  0  0  0  0  0
  -28.3340  -23.7561   17.8404 H   0  0  0  0  0  0
  -28.9599  -25.3922   17.7393 H   0  0  0  0  0  0
  -27.2474  -25.0992   17.8659 H   0  0  0  0  0  0
  -28.7102  -15.6364   20.4184 H   0  0  0  0  0  0
  1 25  1  0  0  0
  1 30  2  0  0  0
  1 82  1  0  0  0
  2  3  1  0  0  0
  2 25  1  0  0  0
  2 84  1  0  0  0
  2 85  1  0  0  0
  3  4  1  0  0  0
  3 86  1  0  0  0
  3 87  1  0  0  0
  4  5  1  0  0  0
  4 88  1  0  0  0
  4 89  1  0  0  0
  5  6  1  0  0  0
  5 26  1  0  0  0
  5 90  1  0  0  0
  6 25  1  0  0  0
  6 91  1  0  0  0
  6 92  1  0  0  0
  7  8  2  0  0  0
  7 26  1  0  0  0
  7 29  1  0  0  0
  8  9  1  0  0  0
  8 22  1  0  0  0
  9 10  1  0  0  0
  9 27  2  0  0  0
 10 11  2  0  0  0
 10 15  1  0  0  0
 11 12  1  0  0  0
 11 93  1  0  0  0
 12 13  2  0  0  0
 12 94  1  0  0  0
 13 14  1  0  0  0
 13 31  1  0  0  0
 14 15  2  0  0  0
 14 95  1  0  0  0
 15 96  1  0  0  0
 16 17  2  0  0  0
 16 21  1  0  0  0
 16 31  1  0  0  0
 17 18  1  0  0  0
 17 97  1  0  0  0
 18 19  2  0  0  0
 18 98  1  0  0  0
 19 20  1  0  0  0
 19 24  1  0  0  0
 20 21  2  0  0  0
 20 99  1  0  0  0
 21 23  1  0  0  0
 22 28  1  0  0  0
 22 32  2  0  0  0
 26 27  1  0  0  0
 28100  1  0  0  0
 28101  1  0  0  0
 29102  1  0  0  0
 29103  1  0  0  0
 33 34  1  0  0  0
 33 66  1  0  0  0
 33 70  2  0  0  0
 34 36  1  0  0  0
 34 59  1  0  0  0
 34104  1  0  0  0
 35 44  2  0  0  0
 35 45  1  0  0  0
 35 68  1  0  0  0
 36 56  1  0  0  0
 36105  1  0  0  0
 37 39  1  0  0  0
 37 47  1  0  0  0
 37 66  1  0  0  0
 37106  1  0  0  0
 38 43  2  0  0  0
 38 46  1  0  0  0
 38 47  1  0  0  0
 39 64  1  0  0  0
 39 67  2  0  0  0
 40 52  1  0  0  0
 40 53  2  0  0  0
 40 58  1  0  0  0
 41107  1  0  0  0
 41108  1  0  0  0
 41109  1  0  0  0
 41 48  1  0  0  0
 42 43  1  0  0  0
 42 66  1  0  0  0
 42110  1  0  0  0
 42111  1  0  0  0
 43 44  1  0  0  0
 44112  1  0  0  0
 45 46  2  0  0  0
 45113  1  0  0  0
 46114  1  0  0  0
 47115  1  0  0  0
 47116  1  0  0  0
 48 56  1  0  0  0
 48 65  1  0  0  0
 48117  1  0  0  0
 49 50  1  0  0  0
 49 53  1  0  0  0
 49 64  1  0  0  0
 49118  1  0  0  0
 50 51  1  0  0  0
 50119  1  0  0  0
 50120  1  0  0  0
 51 52  1  0  0  0
 51121  1  0  0  0
 51122  1  0  0  0
 52123  1  0  0  0
 52124  1  0  0  0
 53 54  1  0  0  0
 54 55  2  0  0  0
 54125  1  0  0  0
 55 57  1  0  0  0
 55126  1  0  0  0
 56 69  2  0  0  0
 57 58  2  0  0  0
 57127  1  0  0  0
 58128  1  0  0  0
 59 60  1  0  0  0
 59 61  1  0  0  0
 59 62  1  0  0  0
 60129  1  0  0  0
 60130  1  0  0  0
 60131  1  0  0  0
 61132  1  0  0  0
 61133  1  0  0  0
 61134  1  0  0  0
 62135  1  0  0  0
 62136  1  0  0  0
 62137  1  0  0  0
 63 65  1  0  0  0
 63138  1  0  0  0
 63139  1  0  0  0
 63140  1  0  0  0
 64141  1  0  0  0
 65142  1  0  0  0
 68 79  1  0  0  0
 71 72  2  0  0  0
 71 81  1  0  0  0
 71143  1  0  0  0
 72 82  1  0  0  0
 72 83  1  0  0  0
 73 81  2  0  0  0
 73 83  1  0  0  0
 73 78  1  0  0  0
 74 76  1  0  0  0
 74 78  1  0  0  0
 74144  1  0  0  0
 74145  1  0  0  0
 75 77  1  0  0  0
 75 78  1  0  0  0
 75146  1  0  0  0
 75147  1  0  0  0
 76 79  1  0  0  0
 76148  1  0  0  0
 76149  1  0  0  0
 77 79  1  0  0  0
 77150  1  0  0  0
 77151  1  0  0  0
 78152  1  0  0  0
 79 80  1  0  0  0
 80153  1  0  0  0
 80154  1  0  0  0
 80155  1  0  0  0
 82156  1  0  0  0
M  ISO  4   1 100  68 101  79 101  82 100
M  END
> <chiral flag>
0

> <version>
0

> <s_m_source_file>
/data/baiqing/PycharmProjects/Reinvent-master-3.2/result/LINK_invent/BTK/process_docking_weight1_custom_product_contain_oxygen_bond_distance_aromatic_linkinvent_7_9_3/rearranged_h_0157.sdf

> <i_m_source_file_index>
22

> <r_mmod_Potential_Energy-OPLS-2005>
293.120208740234

> <r_mmod_Stretch_Energy-OPLS-2005>
162.441375732422

> <r_mmod_Bend_Energy-OPLS-2005>
235.744766235352

> <r_mmod_Torsional_Energy-OPLS-2005>
236.453186035156

> <r_mmod_Improper_Torsional_Energy-OPLS-2005>
7.03737306594849

> <r_mmod_Van_der_Waal_Energy-OPLS-2005>
118.093841552734

> <r_mmod_Electrostatic_Energy-OPLS-2005>
-388.689453125

> <r_mmod_Solvation_Energy-OPLS-2005>
-210.586807250977

> <b_mmod_Minimization_Converged-OPLS-2005>
0

> <r_mmod_RMS_Derivative-OPLS-2005>
1.23788583278656

$$$$
22
                    3D
 Structure written by MMmdl.
153162  0  0  1  0            999 V2000
  -30.6014  -14.7834   20.4528 C   0  0  0  0  0  0
  -30.4345  -12.4758   19.4847 C   0  0  0  0  0  0
  -29.5107  -12.5110   18.2455 C   0  0  0  0  0  0
  -28.0398  -12.3255   18.6605 C   0  0  0  0  0  0
  -27.6415  -13.2344   19.8529 C   0  0  2  0  0  0
  -28.6865  -13.1815   20.9912 C   0  0  0  0  0  0
  -25.2511  -13.8205   20.5718 C   0  0  0  0  0  0
  -24.1800  -13.0444   20.9219 C   0  0  0  0  0  0
  -24.6397  -11.6926   20.8758 C   0  0  0  0  0  0
  -23.9067  -10.4304   21.0420 C   0  0  0  0  0  0
  -24.3625   -9.4205   21.9181 C   0  0  0  0  0  0
  -23.6303   -8.2238   22.0749 C   0  0  0  0  0  0
  -22.4286   -8.0278   21.3543 C   0  0  0  0  0  0
  -21.9919   -9.0253   20.4643 C   0  0  0  0  0  0
  -22.7244  -10.2139   20.3059 C   0  0  0  0  0  0
  -21.6852   -6.0735   22.5280 C   0  0  0  0  0  0
  -21.4011   -6.5641   23.8214 C   0  0  0  0  0  0
  -21.3665   -5.6795   24.9177 C   0  0  0  0  0  0
  -21.6048   -4.3059   24.7220 C   0  0  0  0  0  0
  -21.8823   -3.8144   23.4342 C   0  0  0  0  0  0
  -21.9195   -4.6963   22.3396 C   0  0  0  0  0  0
  -22.7820  -13.5212   21.1874 C   0  0  0  0  0  0
  -22.1665   -4.2156   21.0970 F   0  0  0  0  0  0
  -21.5632   -3.4538   25.7728 F   0  0  0  0  0  0
  -29.9880  -13.5447   20.4132 N   0  0  0  0  0  0
  -26.2939  -12.9415   20.3306 N   0  0  0  0  0  0
  -25.9328  -11.6555   20.5773 N   0  0  0  0  0  0
  -22.0481  -12.8200   22.0438 N   0  0  0  0  0  0
  -25.4212  -15.1926   20.4146 N   0  0  0  0  0  0
  -31.7815  -14.8763   20.0984 O   0  0  0  0  0  0
  -21.6645   -6.8881   21.4240 O   0  0  0  0  0  0
  -22.3502  -14.5514   20.6722 O   0  0  0  0  0  0
  -24.6352  -31.8522   23.1967 C   0  0  0  0  0  0
  -25.9168  -32.4736   23.8314 C   0  0  1  0  0  0
  -27.2141  -27.2163   20.1356 C   0  0  0  0  0  0
  -25.5960  -33.8544   24.2239 N   0  0  0  0  0  0
  -23.4340  -30.4752   21.5405 C   0  0  2  0  0  0
  -24.8806  -28.9184   20.1104 C   0  0  0  0  0  0
  -22.7522  -29.4594   22.4894 C   0  0  0  0  0  0
  -18.0298  -28.1389   22.8482 C   0  0  0  0  0  0
  -24.1487  -36.7254   23.2607 C   0  0  0  0  0  0
  -25.9852  -30.7484   21.3879 C   0  0  0  0  0  0
  -26.0538  -29.3690   20.7271 C   0  0  0  0  0  0
  -27.2200  -28.5299   20.7303 C   0  0  0  0  0  0
  -26.0211  -26.8602   19.4630 C   0  0  0  0  0  0
  -24.8717  -27.6734   19.4679 C   0  0  0  0  0  0
  -23.6550  -29.8114   20.1564 C   0  0  0  0  0  0
  -25.4097  -36.3051   24.0325 C   0  0  1  0  0  0
  -20.5906  -28.3709   23.1253 C   0  0  2  0  0  0
  -20.6778  -26.9419   22.5408 C   0  0  0  0  0  0
  -19.5759  -26.6384   21.5208 C   0  0  0  0  0  0
  -18.1937  -26.7934   22.1620 C   0  0  0  0  0  0
  -19.1553  -28.8863   23.2864 C   0  0  0  0  0  0
  -18.9474  -30.1464   23.8887 C   0  0  0  0  0  0
  -17.6474  -30.6590   24.0560 C   0  0  0  0  0  0
  -25.9083  -34.9436   23.5089 C   0  0  0  0  0  0
  -16.5365  -29.9087   23.6338 C   0  0  0  0  0  0
  -16.7288  -28.6501   23.0366 C   0  0  0  0  0  0
  -26.4516  -31.6582   25.0728 C   0  0  0  0  0  0
  -25.3733  -31.3741   26.1447 C   0  0  0  0  0  0
  -27.0369  -30.2983   24.6272 C   0  0  0  0  0  0
  -27.6074  -32.4322   25.7493 C   0  0  0  0  0  0
  -27.5649  -37.1664   24.8376 C   0  0  0  0  0  0
  -21.4224  -29.3052   22.3634 N   0  0  0  0  0  0
  -26.4216  -37.3818   23.9547 N   0  0  0  0  0  0
  -24.7039  -31.0445   22.0968 N   0  0  0  0  0  0
  -23.4198  -28.8140   23.3013 O   0  0  0  0  0  0
  -28.2974  -26.2934   20.2294 O   0  0  0  0  0  0
  -26.5669  -34.8927   22.4670 O   0  0  0  0  0  0
  -23.5494  -32.1378   23.7233 O   0  0  0  0  0  0
  -29.2430  -18.4978   21.0180 C   0  0  0  0  0  0
  -30.9872  -17.8784   19.6069 C   0  0  0  0  0  0
  -30.0360  -17.3789   20.4650 C   0  0  0  0  0  0
  -29.6037  -19.8080   20.6175 C   0  0  0  0  0  0
  -28.5576  -23.7337   21.0563 C   0  0  0  0  0  0
  -29.1635  -21.1756   21.1373 C   0  0  0  0  0  0
  -28.8790  -24.2044   18.7655 C   0  0  0  0  0  0
  -29.0469  -22.6657   19.0184 C   0  0  0  0  0  0
  -28.1217  -24.7948   19.9683 C   0  0  2  0  0  0
  -28.9588  -22.4136   20.4698 N   0  0  0  0  0  0
  -29.8331  -15.9158   20.7366 N   0  0  0  0  0  0
  -28.9667  -21.1566   22.4684 N   0  3  0  0  0  0
  -28.4859  -23.9337   22.2790 O   0  0  0  0  0  0
  -30.9234  -19.6439   19.4730 S   0  0  0  0  0  0
  -31.4740  -12.6001   19.1766 H   0  0  0  0  0  0
  -30.3841  -11.5037   19.9762 H   0  0  0  0  0  0
  -29.7974  -11.7360   17.5335 H   0  0  0  0  0  0
  -29.6266  -13.4630   17.7236 H   0  0  0  0  0  0
  -27.9068  -11.2781   18.9339 H   0  0  0  0  0  0
  -27.3806  -12.5011   17.8091 H   0  0  0  0  0  0
  -27.6319  -14.2512   19.4605 H   0  0  0  0  0  0
  -28.7291  -12.1850   21.4343 H   0  0  0  0  0  0
  -28.4140  -13.8613   21.8008 H   0  0  0  0  0  0
  -25.2785   -9.5669   22.4742 H   0  0  0  0  0  0
  -24.0018   -7.4627   22.7461 H   0  0  0  0  0  0
  -21.0846   -8.8769   19.8937 H   0  0  0  0  0  0
  -22.3705  -10.9674   19.6164 H   0  0  0  0  0  0
  -21.1998   -7.6153   23.9716 H   0  0  0  0  0  0
  -21.1491   -6.0528   25.9081 H   0  0  0  0  0  0
  -22.0596   -2.7603   23.2850 H   0  0  0  0  0  0
  -22.4139  -11.9867   22.4811 H   0  0  0  0  0  0
  -21.1090  -13.1190   22.2654 H   0  0  0  0  0  0
  -24.6530  -15.8456   20.5210 H   0  0  0  0  0  0
  -26.2638  -15.6289   20.0634 H   0  0  0  0  0  0
  -26.7233  -32.5364   23.1048 H   0  0  0  0  0  0
  -25.0081  -33.9677   25.0365 H   0  0  0  0  0  0
  -22.7329  -31.2993   21.3921 H   0  0  0  0  0  0
  -23.3873  -35.9441   23.2963 H   0  0  0  0  0  0
  -24.3673  -36.9201   22.2094 H   0  0  0  0  0  0
  -23.7034  -37.6267   23.6829 H   0  0  0  0  0  0
  -26.1384  -31.5092   20.6218 H   0  0  0  0  0  0
  -26.8564  -30.7903   22.0299 H   0  0  0  0  0  0
  -28.1138  -28.8655   21.2383 H   0  0  0  0  0  0
  -25.9281  -25.9317   18.9241 H   0  0  0  0  0  0
  -23.9769  -27.3273   18.9686 H   0  0  0  0  0  0
  -23.7870  -30.5883   19.4017 H   0  0  0  0  0  0
  -22.7710  -29.2513   19.8462 H   0  0  0  0  0  0
  -25.1220  -36.1833   25.0792 H   0  0  0  0  0  0
  -20.9999  -28.3294   24.1374 H   0  0  0  0  0  0
  -20.5674  -26.2319   23.3617 H   0  0  0  0  0  0
  -21.6652  -26.7431   22.1214 H   0  0  0  0  0  0
  -19.6920  -25.6290   21.1254 H   0  0  0  0  0  0
  -19.6696  -27.3181   20.6726 H   0  0  0  0  0  0
  -17.4206  -26.6686   21.4027 H   0  0  0  0  0  0
  -18.0340  -26.0078   22.9012 H   0  0  0  0  0  0
  -19.7949  -30.7286   24.2261 H   0  0  0  0  0  0
  -17.5026  -31.6275   24.5158 H   0  0  0  0  0  0
  -15.5367  -30.2987   23.7662 H   0  0  0  0  0  0
  -15.8684  -28.0812   22.7099 H   0  0  0  0  0  0
  -24.5891  -30.7116   25.7763 H   0  0  0  0  0  0
  -24.8951  -32.2918   26.4879 H   0  0  0  0  0  0
  -25.8044  -30.8895   27.0217 H   0  0  0  0  0  0
  -26.2967  -29.6715   24.1288 H   0  0  0  0  0  0
  -27.4005  -29.7268   25.4821 H   0  0  0  0  0  0
  -27.8871  -30.4222   23.9561 H   0  0  0  0  0  0
  -27.2685  -33.3605   26.2097 H   0  0  0  0  0  0
  -28.3862  -32.6913   25.0312 H   0  0  0  0  0  0
  -28.0776  -31.8442   26.5387 H   0  0  0  0  0  0
  -28.2279  -38.0321   24.8063 H   0  0  0  0  0  0
  -28.1528  -36.2968   24.5394 H   0  0  0  0  0  0
  -27.2513  -37.0297   25.8741 H   0  0  0  0  0  0
  -20.9415  -29.8763   21.6825 H   0  0  0  0  0  0
  -26.0065  -38.2781   24.1945 H   0  0  0  0  0  0
  -28.4512  -18.3077   21.7275 H   0  0  0  0  0  0
  -31.7253  -17.3331   19.0295 H   0  0  0  0  0  0
  -28.3367  -24.3883   17.8385 H   0  0  0  0  0  0
  -29.8565  -24.6768   18.6661 H   0  0  0  0  0  0
  -29.9950  -22.3076   18.6199 H   0  0  0  0  0  0
  -28.2505  -22.1038   18.5304 H   0  0  0  0  0  0
  -27.0697  -24.5473   19.8617 H   0  0  0  0  0  0
  -28.9293  -15.6855   21.1225 H   0  0  0  0  0  0
  -29.1639  -20.3302   23.0107 H   0  0  0  0  0  0
  -28.7105  -22.0064   22.9597 H   0  0  0  0  0  0
  1 25  1  0  0  0
  1 30  2  0  0  0
  1 81  1  0  0  0
  2  3  1  0  0  0
  2 25  1  0  0  0
  2 85  1  0  0  0
  2 86  1  0  0  0
  3  4  1  0  0  0
  3 87  1  0  0  0
  3 88  1  0  0  0
  4  5  1  0  0  0
  4 89  1  0  0  0
  4 90  1  0  0  0
  5  6  1  0  0  0
  5 26  1  0  0  0
  5 91  1  0  0  0
  6 25  1  0  0  0
  6 92  1  0  0  0
  6 93  1  0  0  0
  7  8  2  0  0  0
  7 26  1  0  0  0
  7 29  1  0  0  0
  8  9  1  0  0  0
  8 22  1  0  0  0
  9 10  1  0  0  0
  9 27  2  0  0  0
 10 11  2  0  0  0
 10 15  1  0  0  0
 11 12  1  0  0  0
 11 94  1  0  0  0
 12 13  2  0  0  0
 12 95  1  0  0  0
 13 14  1  0  0  0
 13 31  1  0  0  0
 14 15  2  0  0  0
 14 96  1  0  0  0
 15 97  1  0  0  0
 16 17  2  0  0  0
 16 21  1  0  0  0
 16 31  1  0  0  0
 17 18  1  0  0  0
 17 98  1  0  0  0
 18 19  2  0  0  0
 18 99  1  0  0  0
 19 20  1  0  0  0
 19 24  1  0  0  0
 20 21  2  0  0  0
 20100  1  0  0  0
 21 23  1  0  0  0
 22 28  1  0  0  0
 22 32  2  0  0  0
 26 27  1  0  0  0
 28101  1  0  0  0
 28102  1  0  0  0
 29103  1  0  0  0
 29104  1  0  0  0
 33 34  1  0  0  0
 33 66  1  0  0  0
 33 70  2  0  0  0
 34 36  1  0  0  0
 34 59  1  0  0  0
 34105  1  0  0  0
 35 44  2  0  0  0
 35 45  1  0  0  0
 35 68  1  0  0  0
 36 56  1  0  0  0
 36106  1  0  0  0
 37 39  1  0  0  0
 37 47  1  0  0  0
 37 66  1  0  0  0
 37107  1  0  0  0
 38 43  2  0  0  0
 38 46  1  0  0  0
 38 47  1  0  0  0
 39 64  1  0  0  0
 39 67  2  0  0  0
 40 52  1  0  0  0
 40 53  2  0  0  0
 40 58  1  0  0  0
 41108  1  0  0  0
 41109  1  0  0  0
 41110  1  0  0  0
 41 48  1  0  0  0
 42 43  1  0  0  0
 42 66  1  0  0  0
 42111  1  0  0  0
 42112  1  0  0  0
 43 44  1  0  0  0
 44113  1  0  0  0
 45 46  2  0  0  0
 45114  1  0  0  0
 46115  1  0  0  0
 47116  1  0  0  0
 47117  1  0  0  0
 48 56  1  0  0  0
 48 65  1  0  0  0
 48118  1  0  0  0
 49 50  1  0  0  0
 49 53  1  0  0  0
 49 64  1  0  0  0
 49119  1  0  0  0
 50 51  1  0  0  0
 50120  1  0  0  0
 50121  1  0  0  0
 51 52  1  0  0  0
 51122  1  0  0  0
 51123  1  0  0  0
 52124  1  0  0  0
 52125  1  0  0  0
 53 54  1  0  0  0
 54 55  2  0  0  0
 54126  1  0  0  0
 55 57  1  0  0  0
 55127  1  0  0  0
 56 69  2  0  0  0
 57 58  2  0  0  0
 57128  1  0  0  0
 58129  1  0  0  0
 59 60  1  0  0  0
 59 61  1  0  0  0
 59 62  1  0  0  0
 60130  1  0  0  0
 60131  1  0  0  0
 60132  1  0  0  0
 61133  1  0  0  0
 61134  1  0  0  0
 61135  1  0  0  0
 62136  1  0  0  0
 62137  1  0  0  0
 62138  1  0  0  0
 63 65  1  0  0  0
 63139  1  0  0  0
 63140  1  0  0  0
 63141  1  0  0  0
 64142  1  0  0  0
 65143  1  0  0  0
 68 79  1  0  0  0
 71 73  1  0  0  0
 71 74  2  0  0  0
 71144  1  0  0  0
 72 73  2  0  0  0
 72 84  1  0  0  0
 72145  1  0  0  0
 73 81  1  0  0  0
 74 76  1  0  0  0
 74 84  1  0  0  0
 75 79  1  0  0  0
 75 80  1  0  0  0
 75 83  2  0  0  0
 76 80  1  0  0  0
 76 82  2  0  0  0
 77 78  1  0  0  0
 77 79  1  0  0  0
 77146  1  0  0  0
 77147  1  0  0  0
 78 80  1  0  0  0
 78148  1  0  0  0
 78149  1  0  0  0
 79150  1  0  0  0
 81151  1  0  0  0
 82152  1  0  0  0
 82153  1  0  0  0
M  CHG  1  82   1
M  ISO  4   1 100  68 101  79 101  81 100
M  END
> <chiral flag>
0

> <version>
0

> <s_m_source_file>
/data/baiqing/PycharmProjects/Reinvent-master-3.2/result/LINK_invent/BTK/process_docking_weight1_custom_product_contain_oxygen_bond_distance_aromatic_linkinvent_7_9_3/rearranged_h_0157.sdf

> <i_m_source_file_index>
23

> <r_mmod_Potential_Energy-OPLS-2005>
167.29753112793

> <r_mmod_Stretch_Energy-OPLS-2005>
143.683639526367

> <r_mmod_Bend_Energy-OPLS-2005>
221.305541992188

> <r_mmod_Torsional_Energy-OPLS-2005>
247.180450439453

> <r_mmod_Improper_Torsional_Energy-OPLS-2005>
5.04527902603149

> <r_mmod_Van_der_Waal_Energy-OPLS-2005>
122.598922729492

> <r_mmod_Electrostatic_Energy-OPLS-2005>
-216.656661987305

> <r_mmod_Solvation_Energy-OPLS-2005>
-464.477172851562

> <b_mmod_Minimization_Converged-OPLS-2005>
0

> <r_mmod_RMS_Derivative-OPLS-2005>
1.80706918239594

$$$$
23
                    3D
 Structure written by MMmdl.
161170  0  0  1  0            999 V2000
  -30.7770  -14.5174   20.4317 C   0  0  0  0  0  0
  -30.4011  -12.3147   19.4217 C   0  0  0  0  0  0
  -29.4703  -12.4595   18.2010 C   0  0  0  0  0  0
  -28.0010  -12.3041   18.6380 C   0  0  0  0  0  0
  -27.6357  -13.1850   19.8576 C   0  0  2  0  0  0
  -28.7071  -13.1249   20.9739 C   0  0  0  0  0  0
  -25.2561  -13.8086   20.5758 C   0  0  0  0  0  0
  -24.1798  -13.0408   20.9251 C   0  0  0  0  0  0
  -24.6355  -11.6858   20.8877 C   0  0  0  0  0  0
  -23.9028  -10.4276   21.0507 C   0  0  0  0  0  0
  -24.3607   -9.4177   21.9246 C   0  0  0  0  0  0
  -23.6274   -8.2222   22.0777 C   0  0  0  0  0  0
  -22.4271   -8.0283   21.3536 C   0  0  0  0  0  0
  -21.9913   -9.0274   20.4664 C   0  0  0  0  0  0
  -22.7242  -10.2138   20.3102 C   0  0  0  0  0  0
  -21.6867   -6.0754   22.5276 C   0  0  0  0  0  0
  -21.4001   -6.5638   23.8217 C   0  0  0  0  0  0
  -21.3633   -5.6774   24.9171 C   0  0  0  0  0  0
  -21.6037   -4.3047   24.7196 C   0  0  0  0  0  0
  -21.8846   -3.8154   23.4323 C   0  0  0  0  0  0
  -21.9191   -4.6986   22.3392 C   0  0  0  0  0  0
  -22.7819  -13.5251   21.1830 C   0  0  0  0  0  0
  -22.1672   -4.2191   21.0969 F   0  0  0  0  0  0
  -21.5618   -3.4526   25.7716 F   0  0  0  0  0  0
  -30.0297  -13.3765   20.3709 N   0  0  0  0  0  0
  -26.2939  -12.9157   20.3439 N   0  0  0  0  0  0
  -25.9266  -11.6373   20.5946 N   0  0  0  0  0  0
  -22.0374  -12.8287   22.0359 N   0  0  0  0  0  0
  -25.4301  -15.1822   20.4132 N   0  0  0  0  0  0
  -31.9846  -14.5179   20.1812 O   0  0  0  0  0  0
  -21.6606   -6.8896   21.4243 O   0  0  0  0  0  0
  -22.3558  -14.5548   20.6630 O   0  0  0  0  0  0
  -24.6033  -31.8730   23.2082 C   0  0  0  0  0  0
  -25.8935  -32.4866   23.8366 C   0  0  1  0  0  0
  -27.2915  -27.5055   20.1113 C   0  0  0  0  0  0
  -25.5836  -33.8644   24.2349 N   0  0  0  0  0  0
  -23.3912  -30.4879   21.5437 C   0  0  2  0  0  0
  -24.8500  -28.9567   20.1162 C   0  0  0  0  0  0
  -22.7326  -29.4674   22.4976 C   0  0  0  0  0  0
  -18.0231  -28.1391   22.8490 C   0  0  0  0  0  0
  -24.1502  -36.7343   23.2641 C   0  0  0  0  0  0
  -25.8988  -30.8719   21.3345 C   0  0  0  0  0  0
  -25.9909  -29.4969   20.7123 C   0  0  0  0  0  0
  -27.1986  -28.7790   20.7260 C   0  0  0  0  0  0
  -26.1280  -26.9657   19.5136 C   0  0  0  0  0  0
  -24.9114  -27.6842   19.5148 C   0  0  0  0  0  0
  -23.5998  -29.8082   20.1586 C   0  0  0  0  0  0
  -25.4111  -36.3141   24.0358 C   0  0  1  0  0  0
  -20.5818  -28.3674   23.1346 C   0  0  2  0  0  0
  -20.6735  -26.9424   22.5436 C   0  0  0  0  0  0
  -19.5723  -26.6418   21.5226 C   0  0  0  0  0  0
  -18.1895  -26.7939   22.1628 C   0  0  0  0  0  0
  -19.1489  -28.8845   23.2926 C   0  0  0  0  0  0
  -18.9439  -30.1441   23.8935 C   0  0  0  0  0  0
  -17.6460  -30.6601   24.0594 C   0  0  0  0  0  0
  -25.9012  -34.9509   23.5172 C   0  0  0  0  0  0
  -16.5341  -29.9122   23.6317 C   0  0  0  0  0  0
  -16.7242  -28.6548   23.0323 C   0  0  0  0  0  0
  -26.4435  -31.6578   25.0617 C   0  0  0  0  0  0
  -25.3763  -31.3598   26.1402 C   0  0  0  0  0  0
  -27.0232  -30.3067   24.5829 C   0  0  0  0  0  0
  -27.6030  -32.4253   25.7389 C   0  0  0  0  0  0
  -27.5583  -37.1834   24.8483 C   0  0  0  0  0  0
  -21.4069  -29.3046   22.3721 N   0  0  0  0  0  0
  -26.4323  -37.3792   23.9394 N   0  0  0  0  0  0
  -24.6496  -31.0879   22.0940 N   0  0  0  0  0  0
  -23.4146  -28.8249   23.3011 O   0  0  0  0  0  0
  -28.4729  -26.7808   20.0659 O   0  0  0  0  0  0
  -26.5580  -34.8941   22.4730 O   0  0  0  0  0  0
  -23.5246  -32.1424   23.7540 O   0  0  0  0  0  0
  -31.2316  -22.1667   16.5972 C   0  0  0  0  0  0
  -31.4024  -23.5541   16.8763 C   0  0  0  0  0  0
  -31.4598  -21.3649   17.6925 C   0  0  0  0  0  0
  -31.7652  -23.7972   18.1754 C   0  0  0  0  0  0
  -31.2766  -19.9153   17.8178 C   0  0  0  0  0  0
  -30.9654  -26.7344   20.3527 C   0  0  0  0  0  0
  -29.7297  -17.3615   18.8316 C   0  0  0  0  0  0
  -29.1897  -16.1128   19.4979 C   0  0  0  0  0  0
  -30.8603  -16.9582   20.9185 C   0  0  0  0  0  0
  -30.4605  -18.0949   19.9345 C   0  0  1  0  0  0
  -30.9911  -25.2699   19.9132 C   0  0  0  0  0  0
  -29.6239  -27.4291   20.6445 C   0  0  0  0  0  0
  -30.1338  -15.7141   20.5449 N   0  0  0  0  0  0
  -31.9082  -25.0270   18.8007 N   0  0  0  0  0  0
  -30.8008  -19.2571   16.8900 O   0  0  0  0  0  0
  -32.0216  -27.3662   20.4570 O   0  0  0  0  0  0
  -31.9683  -22.3116   19.0694 S   0  0  0  0  0  0
  -31.8729  -19.1384   19.3766 S   0  0  0  0  0  0
  -31.4453  -12.3714   19.1041 H   0  0  0  0  0  0
  -30.2793  -11.3312   19.8832 H   0  0  0  0  0  0
  -29.7106  -11.7058   17.4517 H   0  0  0  0  0  0
  -29.6254  -13.4241   17.7164 H   0  0  0  0  0  0
  -27.8378  -11.2506   18.8739 H   0  0  0  0  0  0
  -27.3332  -12.5312   17.8055 H   0  0  0  0  0  0
  -27.5782  -14.1895   19.4729 H   0  0  0  0  0  0
  -28.7029  -12.1499   21.4650 H   0  0  0  0  0  0
  -28.4895  -13.8599   21.7499 H   0  0  0  0  0  0
  -25.2783   -9.5625   22.4802 H   0  0  0  0  0  0
  -23.9991   -7.4603   22.7477 H   0  0  0  0  0  0
  -21.0863   -8.8835   19.8941 H   0  0  0  0  0  0
  -22.3792  -10.9697   19.6207 H   0  0  0  0  0  0
  -21.1993   -7.6167   23.9748 H   0  0  0  0  0  0
  -21.1405   -6.0488   25.9075 H   0  0  0  0  0  0
  -22.0646   -2.7630   23.2812 H   0  0  0  0  0  0
  -22.3920  -11.9949   22.4771 H   0  0  0  0  0  0
  -21.0986  -13.1343   22.2470 H   0  0  0  0  0  0
  -24.6656  -15.8403   20.5364 H   0  0  0  0  0  0
  -26.2882  -15.6226   20.1062 H   0  0  0  0  0  0
  -26.7004  -32.5655   23.1142 H   0  0  0  0  0  0
  -24.9922  -33.9827   25.0458 H   0  0  0  0  0  0
  -22.6782  -31.3001   21.3977 H   0  0  0  0  0  0
  -23.3760  -35.9677   23.3321 H   0  0  0  0  0  0
  -24.3603  -36.8927   22.2047 H   0  0  0  0  0  0
  -23.7280  -37.6572   23.6630 H   0  0  0  0  0  0
  -25.9519  -31.6184   20.5406 H   0  0  0  0  0  0
  -26.8072  -30.9783   21.9128 H   0  0  0  0  0  0
  -28.0364  -29.2531   21.2119 H   0  0  0  0  0  0
  -26.1643  -25.9948   19.0369 H   0  0  0  0  0  0
  -24.0314  -27.2627   19.0485 H   0  0  0  0  0  0
  -23.6917  -30.5802   19.3920 H   0  0  0  0  0  0
  -22.7310  -29.2098   19.8723 H   0  0  0  0  0  0
  -25.1297  -36.2010   25.0853 H   0  0  0  0  0  0
  -20.9916  -28.3270   24.1470 H   0  0  0  0  0  0
  -20.5674  -26.2291   23.3617 H   0  0  0  0  0  0
  -21.6611  -26.7501   22.1232 H   0  0  0  0  0  0
  -19.6913  -25.6349   21.1224 H   0  0  0  0  0  0
  -19.6672  -27.3257   20.6777 H   0  0  0  0  0  0
  -17.4177  -26.6692   21.4014 H   0  0  0  0  0  0
  -18.0295  -26.0065   22.9005 H   0  0  0  0  0  0
  -19.7927  -30.7221   24.2359 H   0  0  0  0  0  0
  -17.5021  -31.6275   24.5210 H   0  0  0  0  0  0
  -15.5348  -30.3066   23.7599 H   0  0  0  0  0  0
  -15.8628  -28.0899   22.7002 H   0  0  0  0  0  0
  -24.5999  -30.6862   25.7767 H   0  0  0  0  0  0
  -24.8872  -32.2695   26.4870 H   0  0  0  0  0  0
  -25.8199  -30.8803   27.0132 H   0  0  0  0  0  0
  -26.2687  -29.6846   24.1001 H   0  0  0  0  0  0
  -27.4208  -29.7259   25.4154 H   0  0  0  0  0  0
  -27.8412  -30.4464   23.8761 H   0  0  0  0  0  0
  -27.2682  -33.3550   26.1992 H   0  0  0  0  0  0
  -28.3840  -32.6795   25.0215 H   0  0  0  0  0  0
  -28.0675  -31.8328   26.5280 H   0  0  0  0  0  0
  -28.2668  -38.0067   24.7436 H   0  0  0  0  0  0
  -28.1023  -36.2593   24.6440 H   0  0  0  0  0  0
  -27.2277  -37.1631   25.8886 H   0  0  0  0  0  0
  -20.9192  -29.8754   21.6951 H   0  0  0  0  0  0
  -26.0238  -38.2903   24.1297 H   0  0  0  0  0  0
  -30.9175  -21.8222   15.6210 H   0  0  0  0  0  0
  -31.2087  -24.3129   16.1305 H   0  0  0  0  0  0
  -28.9433  -17.9595   18.3663 H   0  0  0  0  0  0
  -30.4348  -17.0529   18.0613 H   0  0  0  0  0  0
  -29.0741  -15.3707   18.7109 H   0  0  0  0  0  0
  -28.2249  -16.3141   19.9560 H   0  0  0  0  0  0
  -31.9428  -16.8307   20.9148 H   0  0  0  0  0  0
  -30.5995  -17.2314   21.9427 H   0  0  0  0  0  0
  -29.7552  -18.7636   20.4339 H   0  0  0  0  0  0
  -29.9855  -24.9582   19.6338 H   0  0  0  0  0  0
  -31.2966  -24.6555   20.7615 H   0  0  0  0  0  0
  -29.7201  -28.4347   20.2400 H   0  0  0  0  0  0
  -29.5029  -27.5261   21.7257 H   0  0  0  0  0  0
  -32.0043  -25.8393   18.1934 H   0  0  0  0  0  0
  1 25  1  0  0  0
  1 30  2  0  0  0
  1 83  1  0  0  0
  2  3  1  0  0  0
  2 25  1  0  0  0
  2 89  1  0  0  0
  2 90  1  0  0  0
  3  4  1  0  0  0
  3 91  1  0  0  0
  3 92  1  0  0  0
  4  5  1  0  0  0
  4 93  1  0  0  0
  4 94  1  0  0  0
  5  6  1  0  0  0
  5 26  1  0  0  0
  5 95  1  0  0  0
  6 25  1  0  0  0
  6 96  1  0  0  0
  6 97  1  0  0  0
  7  8  2  0  0  0
  7 26  1  0  0  0
  7 29  1  0  0  0
  8  9  1  0  0  0
  8 22  1  0  0  0
  9 10  1  0  0  0
  9 27  2  0  0  0
 10 11  2  0  0  0
 10 15  1  0  0  0
 11 12  1  0  0  0
 11 98  1  0  0  0
 12 13  2  0  0  0
 12 99  1  0  0  0
 13 14  1  0  0  0
 13 31  1  0  0  0
 14 15  2  0  0  0
 14100  1  0  0  0
 15101  1  0  0  0
 16 17  2  0  0  0
 16 21  1  0  0  0
 16 31  1  0  0  0
 17 18  1  0  0  0
 17102  1  0  0  0
 18 19  2  0  0  0
 18103  1  0  0  0
 19 20  1  0  0  0
 19 24  1  0  0  0
 20 21  2  0  0  0
 20104  1  0  0  0
 21 23  1  0  0  0
 22 28  1  0  0  0
 22 32  2  0  0  0
 26 27  1  0  0  0
 28105  1  0  0  0
 28106  1  0  0  0
 29107  1  0  0  0
 29108  1  0  0  0
 33 34  1  0  0  0
 33 66  1  0  0  0
 33 70  2  0  0  0
 34 36  1  0  0  0
 34 59  1  0  0  0
 34109  1  0  0  0
 35 44  2  0  0  0
 35 45  1  0  0  0
 35 68  1  0  0  0
 36 56  1  0  0  0
 36110  1  0  0  0
 37 39  1  0  0  0
 37 47  1  0  0  0
 37 66  1  0  0  0
 37111  1  0  0  0
 38 43  2  0  0  0
 38 46  1  0  0  0
 38 47  1  0  0  0
 39 64  1  0  0  0
 39 67  2  0  0  0
 40 52  1  0  0  0
 40 53  2  0  0  0
 40 58  1  0  0  0
 41112  1  0  0  0
 41113  1  0  0  0
 41114  1  0  0  0
 41 48  1  0  0  0
 42 43  1  0  0  0
 42 66  1  0  0  0
 42115  1  0  0  0
 42116  1  0  0  0
 43 44  1  0  0  0
 44117  1  0  0  0
 45 46  2  0  0  0
 45118  1  0  0  0
 46119  1  0  0  0
 47120  1  0  0  0
 47121  1  0  0  0
 48 56  1  0  0  0
 48 65  1  0  0  0
 48122  1  0  0  0
 49 50  1  0  0  0
 49 53  1  0  0  0
 49 64  1  0  0  0
 49123  1  0  0  0
 50 51  1  0  0  0
 50124  1  0  0  0
 50125  1  0  0  0
 51 52  1  0  0  0
 51126  1  0  0  0
 51127  1  0  0  0
 52128  1  0  0  0
 52129  1  0  0  0
 53 54  1  0  0  0
 54 55  2  0  0  0
 54130  1  0  0  0
 55 57  1  0  0  0
 55131  1  0  0  0
 56 69  2  0  0  0
 57 58  2  0  0  0
 57132  1  0  0  0
 58133  1  0  0  0
 59 60  1  0  0  0
 59 61  1  0  0  0
 59 62  1  0  0  0
 60134  1  0  0  0
 60135  1  0  0  0
 60136  1  0  0  0
 61137  1  0  0  0
 61138  1  0  0  0
 61139  1  0  0  0
 62140  1  0  0  0
 62141  1  0  0  0
 62142  1  0  0  0
 63 65  1  0  0  0
 63143  1  0  0  0
 63144  1  0  0  0
 63145  1  0  0  0
 64146  1  0  0  0
 65147  1  0  0  0
 68 82  1  0  0  0
 71 72  1  0  0  0
 71 73  2  0  0  0
 71148  1  0  0  0
 72 74  2  0  0  0
 72149  1  0  0  0
 73 75  1  0  0  0
 73 87  1  0  0  0
 74 84  1  0  0  0
 74 87  1  0  0  0
 75 85  2  0  0  0
 75 88  1  0  0  0
 76 81  1  0  0  0
 76 82  1  0  0  0
 76 86  2  0  0  0
 77 78  1  0  0  0
 77 80  1  0  0  0
 77150  1  0  0  0
 77151  1  0  0  0
 78 83  1  0  0  0
 78152  1  0  0  0
 78153  1  0  0  0
 79 80  1  0  0  0
 79 83  1  0  0  0
 79154  1  0  0  0
 79155  1  0  0  0
 80 88  1  0  0  0
 80156  1  0  0  0
 81 84  1  0  0  0
 81157  1  0  0  0
 81158  1  0  0  0
 82159  1  0  0  0
 82160  1  0  0  0
 84161  1  0  0  0
M  ISO  4   1 100  68 101  82 101  83 100
M  END
> <chiral flag>
0

> <version>
0

> <s_m_source_file>
/data/baiqing/PycharmProjects/Reinvent-master-3.2/result/LINK_invent/BTK/process_docking_weight1_custom_product_contain_oxygen_bond_distance_aromatic_linkinvent_7_9_3/rearranged_h_0157.sdf

> <i_m_source_file_index>
24

> <r_mmod_Potential_Energy-OPLS-2005>
236.405380249023

> <r_mmod_Stretch_Energy-OPLS-2005>
41.1862449645996

> <r_mmod_Bend_Energy-OPLS-2005>
137.308090209961

> <r_mmod_Torsional_Energy-OPLS-2005>
359.832611083984

> <r_mmod_Improper_Torsional_Energy-OPLS-2005>
13.845874786377

> <r_mmod_Van_der_Waal_Energy-OPLS-2005>
149.747207641602

> <r_mmod_Electrostatic_Energy-OPLS-2005>
-252.111801147461

> <r_mmod_Solvation_Energy-OPLS-2005>
-244.515991210938

> <b_mmod_Minimization_Converged-OPLS-2005>
0

> <r_mmod_RMS_Derivative-OPLS-2005>
6.05009317398071

$$$$
24
                    3D
 Structure written by MMmdl.
163172  0  0  1  0            999 V2000
  -30.7041  -14.4906   20.5443 C   0  0  0  0  0  0
  -30.4322  -12.3177   19.4266 C   0  0  0  0  0  0
  -29.4960  -12.5165   18.2159 C   0  0  0  0  0  0
  -28.0194  -12.3807   18.6314 C   0  0  0  0  0  0
  -27.6656  -13.2132   19.8930 C   0  0  2  0  0  0
  -28.7149  -13.0027   21.0126 C   0  0  0  0  0  0
  -25.2545  -13.8149   20.5646 C   0  0  0  0  0  0
  -24.1800  -13.0429   20.9148 C   0  0  0  0  0  0
  -24.6387  -11.6901   20.8735 C   0  0  0  0  0  0
  -23.9069  -10.4264   21.0377 C   0  0  0  0  0  0
  -24.3604   -9.4183   21.9170 C   0  0  0  0  0  0
  -23.6269   -8.2213   22.0732 C   0  0  0  0  0  0
  -22.4237   -8.0274   21.3521 C   0  0  0  0  0  0
  -21.9879   -9.0271   20.4634 C   0  0  0  0  0  0
  -22.7228  -10.2145   20.3034 C   0  0  0  0  0  0
  -21.6861   -6.0712   22.5234 C   0  0  0  0  0  0
  -21.4032   -6.5608   23.8179 C   0  0  0  0  0  0
  -21.3664   -5.6757   24.9138 C   0  0  0  0  0  0
  -21.6054   -4.3020   24.7189 C   0  0  0  0  0  0
  -21.8821   -3.8123   23.4306 C   0  0  0  0  0  0
  -21.9200   -4.6939   22.3372 C   0  0  0  0  0  0
  -22.7825  -13.5221   21.1836 C   0  0  0  0  0  0
  -22.1638   -4.2134   21.0949 F   0  0  0  0  0  0
  -21.5664   -3.4506   25.7709 F   0  0  0  0  0  0
  -30.0472  -13.3006   20.4542 N   0  0  0  0  0  0
  -26.3039  -12.9358   20.3487 N   0  0  0  0  0  0
  -25.9338  -11.6520   20.5829 N   0  0  0  0  0  0
  -22.0471  -12.8191   22.0385 N   0  0  0  0  0  0
  -25.4317  -15.1845   20.3992 N   0  0  0  0  0  0
  -31.8378  -14.6730   20.0906 O   0  0  0  0  0  0
  -21.6621   -6.8846   21.4195 O   0  0  0  0  0  0
  -22.3513  -14.5537   20.6726 O   0  0  0  0  0  0
  -24.6157  -31.8667   23.2122 C   0  0  0  0  0  0
  -25.9055  -32.4820   23.8394 C   0  0  1  0  0  0
  -27.2310  -27.3995   20.0944 C   0  0  0  0  0  0
  -25.5913  -33.8627   24.2311 N   0  0  0  0  0  0
  -23.4038  -30.4933   21.5531 C   0  0  2  0  0  0
  -24.8484  -28.9582   20.1170 C   0  0  0  0  0  0
  -22.7422  -29.4651   22.5001 C   0  0  0  0  0  0
  -18.0266  -28.1378   22.8482 C   0  0  0  0  0  0
  -24.1502  -36.7297   23.2641 C   0  0  0  0  0  0
  -25.9388  -30.8215   21.3737 C   0  0  0  0  0  0
  -26.0107  -29.4550   20.7164 C   0  0  0  0  0  0
  -27.1990  -28.6825   20.7004 C   0  0  0  0  0  0
  -26.0340  -26.9265   19.4986 C   0  0  0  0  0  0
  -24.8566  -27.6955   19.5107 C   0  0  0  0  0  0
  -23.6124  -29.8289   20.1669 C   0  0  0  0  0  0
  -25.4119  -36.3106   24.0330 C   0  0  1  0  0  0
  -20.5859  -28.3663   23.1323 C   0  0  2  0  0  0
  -20.6761  -26.9392   22.5432 C   0  0  0  0  0  0
  -19.5752  -26.6377   21.5211 C   0  0  0  0  0  0
  -18.1917  -26.7930   22.1593 C   0  0  0  0  0  0
  -19.1516  -28.8827   23.2892 C   0  0  0  0  0  0
  -18.9442  -30.1441   23.8890 C   0  0  0  0  0  0
  -17.6455  -30.6592   24.0546 C   0  0  0  0  0  0
  -25.9042  -34.9472   23.5110 C   0  0  0  0  0  0
  -16.5339  -29.9087   23.6327 C   0  0  0  0  0  0
  -16.7266  -28.6495   23.0350 C   0  0  0  0  0  0
  -26.4474  -31.6628   25.0744 C   0  0  0  0  0  0
  -25.3739  -31.3757   26.1496 C   0  0  0  0  0  0
  -27.0298  -30.3055   24.6164 C   0  0  0  0  0  0
  -27.6043  -32.4363   25.7496 C   0  0  0  0  0  0
  -27.5586  -37.1805   24.8456 C   0  0  0  0  0  0
  -21.4135  -29.3037   22.3738 N   0  0  0  0  0  0
  -26.4295  -37.3792   23.9404 N   0  0  0  0  0  0
  -24.6703  -31.0768   22.1023 N   0  0  0  0  0  0
  -23.4186  -28.8177   23.3028 O   0  0  0  0  0  0
  -28.4236  -26.6842   20.1248 O   0  0  0  0  0  0
  -26.5588  -34.8913   22.4663 O   0  0  0  0  0  0
  -23.5344  -32.1416   23.7518 O   0  0  0  0  0  0
  -30.5042  -17.9599   20.9443 C   0  0  0  0  0  0
  -29.6539  -19.2999   19.0786 C   0  0  0  0  0  0
  -29.2072  -16.9071   19.1583 C   0  0  0  0  0  0
  -30.3484  -19.2234   20.3039 C   0  0  0  0  0  0
  -29.9236  -16.7953   20.3717 C   0  0  0  0  0  0
  -29.0786  -18.1502   18.5120 C   0  0  0  0  0  0
  -30.9369  -20.4520   20.8601 C   0  0  0  0  0  0
  -30.3842  -24.0835   20.8632 C   0  0  0  0  0  0
  -28.3380  -22.8415   20.0855 C   0  0  0  0  0  0
  -30.7854  -22.8383   21.6936 C   0  0  0  0  0  0
  -28.7385  -21.6680   21.0021 C   0  0  0  0  0  0
  -28.8632  -24.2118   20.5870 C   0  0  0  0  0  0
  -28.5355  -25.3511   19.5667 C   0  0  0  0  0  0
  -30.2163  -21.5876   21.1196 N   0  0  0  0  0  0
  -29.9790  -15.5197   21.0210 N   0  0  0  0  0  0
  -32.2483  -20.4440   21.0780 N   0  3  0  0  0  0
  -28.3933  -18.2423   17.3473 F   0  0  0  0  0  0
  -28.2220  -24.4744   21.7284 F   0  0  0  0  0  0
  -31.4716  -12.4302   19.1109 H   0  0  0  0  0  0
  -30.3544  -11.3059   19.8255 H   0  0  0  0  0  0
  -29.7253  -11.7931   17.4345 H   0  0  0  0  0  0
  -29.6686  -13.5025   17.7786 H   0  0  0  0  0  0
  -27.8231  -11.3240   18.8225 H   0  0  0  0  0  0
  -27.3720  -12.6675   17.8021 H   0  0  0  0  0  0
  -27.7036  -14.2609   19.6045 H   0  0  0  0  0  0
  -28.6861  -11.9716   21.3686 H   0  0  0  0  0  0
  -28.4857  -13.6151   21.8868 H   0  0  0  0  0  0
  -25.2727   -9.5695   22.4779 H   0  0  0  0  0  0
  -24.0007   -7.4566   22.7435 H   0  0  0  0  0  0
  -21.0812   -8.8800   19.8903 H   0  0  0  0  0  0
  -22.3663  -10.9710   19.6155 H   0  0  0  0  0  0
  -21.2011   -7.6115   23.9673 H   0  0  0  0  0  0
  -21.1496   -6.0484   25.9042 H   0  0  0  0  0  0
  -22.0609   -2.7596   23.2800 H   0  0  0  0  0  0
  -22.4049  -11.9818   22.4742 H   0  0  0  0  0  0
  -21.1134  -13.1293   22.2679 H   0  0  0  0  0  0
  -24.6827  -15.8552   20.5197 H   0  0  0  0  0  0
  -26.2984  -15.6116   20.0987 H   0  0  0  0  0  0
  -26.7147  -32.5516   23.1173 H   0  0  0  0  0  0
  -25.0111  -33.9790   25.0493 H   0  0  0  0  0  0
  -22.6925  -31.3108   21.4181 H   0  0  0  0  0  0
  -23.3763  -35.9633   23.3321 H   0  0  0  0  0  0
  -24.3595  -36.8894   22.2050 H   0  0  0  0  0  0
  -23.7257  -37.6502   23.6659 H   0  0  0  0  0  0
  -26.0696  -31.5889   20.6103 H   0  0  0  0  0  0
  -26.8202  -30.8639   22.0026 H   0  0  0  0  0  0
  -28.0998  -29.0619   21.1631 H   0  0  0  0  0  0
  -25.9406  -25.9668   19.0228 H   0  0  0  0  0  0
  -23.9590  -27.3038   19.0548 H   0  0  0  0  0  0
  -23.7340  -30.6049   19.4100 H   0  0  0  0  0  0
  -22.7298  -29.2592   19.8671 H   0  0  0  0  0  0
  -25.1296  -36.1961   25.0818 H   0  0  0  0  0  0
  -20.9920  -28.3237   24.1455 H   0  0  0  0  0  0
  -20.5670  -26.2243   23.3605 H   0  0  0  0  0  0
  -21.6642  -26.7461   22.1232 H   0  0  0  0  0  0
  -19.6910  -25.6289   21.1242 H   0  0  0  0  0  0
  -19.6704  -27.3175   20.6727 H   0  0  0  0  0  0
  -17.4184  -26.6700   21.3989 H   0  0  0  0  0  0
  -18.0292  -26.0092   22.8996 H   0  0  0  0  0  0
  -19.7916  -30.7255   24.2270 H   0  0  0  0  0  0
  -17.5008  -31.6273   24.5147 H   0  0  0  0  0  0
  -15.5345  -30.2967   23.7677 H   0  0  0  0  0  0
  -15.8665  -28.0824   22.7067 H   0  0  0  0  0  0
  -24.5881  -30.7142   25.7833 H   0  0  0  0  0  0
  -24.8980  -32.2930   26.4968 H   0  0  0  0  0  0
  -25.8087  -30.8895   27.0239 H   0  0  0  0  0  0
  -26.2845  -29.6834   24.1191 H   0  0  0  0  0  0
  -27.4000  -29.7296   25.4657 H   0  0  0  0  0  0
  -27.8728  -30.4351   23.9371 H   0  0  0  0  0  0
  -27.2651  -33.3648   26.2109 H   0  0  0  0  0  0
  -28.3820  -32.6948   25.0300 H   0  0  0  0  0  0
  -28.0757  -31.8478   26.5383 H   0  0  0  0  0  0
  -28.2599  -38.0107   24.7506 H   0  0  0  0  0  0
  -28.1082  -36.2628   24.6273 H   0  0  0  0  0  0
  -27.2317  -37.1464   25.8867 H   0  0  0  0  0  0
  -20.9285  -29.8736   21.6955 H   0  0  0  0  0  0
  -26.0171  -38.2871   24.1397 H   0  0  0  0  0  0
  -31.0553  -17.8939   21.8704 H   0  0  0  0  0  0
  -29.5532  -20.2442   18.5651 H   0  0  0  0  0  0
  -28.7445  -16.0456   18.7029 H   0  0  0  0  0  0
  -30.9269  -24.0495   19.9178 H   0  0  0  0  0  0
  -30.7341  -24.9812   21.3736 H   0  0  0  0  0  0
  -27.2503  -22.8704   20.0044 H   0  0  0  0  0  0
  -28.7096  -22.6460   19.0772 H   0  0  0  0  0  0
  -30.4195  -22.9357   22.7177 H   0  0  0  0  0  0
  -31.8731  -22.8051   21.7731 H   0  0  0  0  0  0
  -28.2789  -20.7445   20.6534 H   0  0  0  0  0  0
  -28.3246  -21.8231   22.0022 H   0  0  0  0  0  0
  -27.6878  -25.0456   18.9675 H   0  0  0  0  0  0
  -29.3369  -25.3942   18.8285 H   0  0  0  0  0  0
  -29.1151  -15.2257   21.4496 H   0  0  0  0  0  0
  -32.7863  -19.6362   20.7966 H   0  0  0  0  0  0
  -32.7440  -21.2499   21.4197 H   0  0  0  0  0  0
  1 25  1  0  0  0
  1 30  2  0  0  0
  1 85  1  0  0  0
  2  3  1  0  0  0
  2 25  1  0  0  0
  2 89  1  0  0  0
  2 90  1  0  0  0
  3  4  1  0  0  0
  3 91  1  0  0  0
  3 92  1  0  0  0
  4  5  1  0  0  0
  4 93  1  0  0  0
  4 94  1  0  0  0
  5  6  1  0  0  0
  5 26  1  0  0  0
  5 95  1  0  0  0
  6 25  1  0  0  0
  6 96  1  0  0  0
  6 97  1  0  0  0
  7  8  2  0  0  0
  7 26  1  0  0  0
  7 29  1  0  0  0
  8  9  1  0  0  0
  8 22  1  0  0  0
  9 10  1  0  0  0
  9 27  2  0  0  0
 10 11  2  0  0  0
 10 15  1  0  0  0
 11 12  1  0  0  0
 11 98  1  0  0  0
 12 13  2  0  0  0
 12 99  1  0  0  0
 13 14  1  0  0  0
 13 31  1  0  0  0
 14 15  2  0  0  0
 14100  1  0  0  0
 15101  1  0  0  0
 16 17  2  0  0  0
 16 21  1  0  0  0
 16 31  1  0  0  0
 17 18  1  0  0  0
 17102  1  0  0  0
 18 19  2  0  0  0
 18103  1  0  0  0
 19 20  1  0  0  0
 19 24  1  0  0  0
 20 21  2  0  0  0
 20104  1  0  0  0
 21 23  1  0  0  0
 22 28  1  0  0  0
 22 32  2  0  0  0
 26 27  1  0  0  0
 28105  1  0  0  0
 28106  1  0  0  0
 29107  1  0  0  0
 29108  1  0  0  0
 33 34  1  0  0  0
 33 66  1  0  0  0
 33 70  2  0  0  0
 34 36  1  0  0  0
 34 59  1  0  0  0
 34109  1  0  0  0
 35 44  2  0  0  0
 35 45  1  0  0  0
 35 68  1  0  0  0
 36 56  1  0  0  0
 36110  1  0  0  0
 37 39  1  0  0  0
 37 47  1  0  0  0
 37 66  1  0  0  0
 37111  1  0  0  0
 38 43  2  0  0  0
 38 46  1  0  0  0
 38 47  1  0  0  0
 39 64  1  0  0  0
 39 67  2  0  0  0
 40 52  1  0  0  0
 40 53  2  0  0  0
 40 58  1  0  0  0
 41112  1  0  0  0
 41113  1  0  0  0
 41114  1  0  0  0
 41 48  1  0  0  0
 42 43  1  0  0  0
 42 66  1  0  0  0
 42115  1  0  0  0
 42116  1  0  0  0
 43 44  1  0  0  0
 44117  1  0  0  0
 45 46  2  0  0  0
 45118  1  0  0  0
 46119  1  0  0  0
 47120  1  0  0  0
 47121  1  0  0  0
 48 56  1  0  0  0
 48 65  1  0  0  0
 48122  1  0  0  0
 49 50  1  0  0  0
 49 53  1  0  0  0
 49 64  1  0  0  0
 49123  1  0  0  0
 50 51  1  0  0  0
 50124  1  0  0  0
 50125  1  0  0  0
 51 52  1  0  0  0
 51126  1  0  0  0
 51127  1  0  0  0
 52128  1  0  0  0
 52129  1  0  0  0
 53 54  1  0  0  0
 54 55  2  0  0  0
 54130  1  0  0  0
 55 57  1  0  0  0
 55131  1  0  0  0
 56 69  2  0  0  0
 57 58  2  0  0  0
 57132  1  0  0  0
 58133  1  0  0  0
 59 60  1  0  0  0
 59 61  1  0  0  0
 59 62  1  0  0  0
 60134  1  0  0  0
 60135  1  0  0  0
 60136  1  0  0  0
 61137  1  0  0  0
 61138  1  0  0  0
 61139  1  0  0  0
 62140  1  0  0  0
 62141  1  0  0  0
 62142  1  0  0  0
 63 65  1  0  0  0
 63143  1  0  0  0
 63144  1  0  0  0
 63145  1  0  0  0
 64146  1  0  0  0
 65147  1  0  0  0
 68 83  1  0  0  0
 71 74  2  0  0  0
 71 75  1  0  0  0
 71148  1  0  0  0
 72 74  1  0  0  0
 72 76  2  0  0  0
 72149  1  0  0  0
 73 75  2  0  0  0
 73 76  1  0  0  0
 73150  1  0  0  0
 74 77  1  0  0  0
 75 85  1  0  0  0
 76 87  1  0  0  0
 77 84  1  0  0  0
 77 86  2  0  0  0
 78 80  1  0  0  0
 78 82  1  0  0  0
 78151  1  0  0  0
 78152  1  0  0  0
 79 81  1  0  0  0
 79 82  1  0  0  0
 79153  1  0  0  0
 79154  1  0  0  0
 80 84  1  0  0  0
 80155  1  0  0  0
 80156  1  0  0  0
 81 84  1  0  0  0
 81157  1  0  0  0
 81158  1  0  0  0
 82 83  1  0  0  0
 82 88  1  0  0  0
 83159  1  0  0  0
 83160  1  0  0  0
 85161  1  0  0  0
 86162  1  0  0  0
 86163  1  0  0  0
M  CHG  1  86   1
M  ISO  4   1 100  68 101  83 101  85 100
M  END
> <chiral flag>
0

> <version>
0

> <s_m_source_file>
/data/baiqing/PycharmProjects/Reinvent-master-3.2/result/LINK_invent/BTK/process_docking_weight1_custom_product_contain_oxygen_bond_distance_aromatic_linkinvent_7_9_3/rearranged_h_0157.sdf

> <i_m_source_file_index>
25

> <r_mmod_Potential_Energy-OPLS-2005>
-206.562240600586

> <r_mmod_Stretch_Energy-OPLS-2005>
46.2418518066406

> <r_mmod_Bend_Energy-OPLS-2005>
118.580177307129

> <r_mmod_Torsional_Energy-OPLS-2005>
288.369476318359

> <r_mmod_Improper_Torsional_Energy-OPLS-2005>
6.86121368408203

> <r_mmod_Van_der_Waal_Energy-OPLS-2005>
163.72444152832

> <r_mmod_Electrostatic_Energy-OPLS-2005>
-429.608459472656

> <r_mmod_Solvation_Energy-OPLS-2005>
-417.21875

> <b_mmod_Minimization_Converged-OPLS-2005>
0

> <r_mmod_RMS_Derivative-OPLS-2005>
4.72809410095215

$$$$
25
                    3D
 Structure written by MMmdl.
166175  0  0  1  0            999 V2000
  -30.5928  -14.7048   20.4542 C   0  0  0  0  0  0
  -30.4323  -12.4228   19.4612 C   0  0  0  0  0  0
  -29.5064  -12.5106   18.2270 C   0  0  0  0  0  0
  -28.0298  -12.3414   18.6364 C   0  0  0  0  0  0
  -27.6450  -13.2234   19.8551 C   0  0  2  0  0  0
  -28.6902  -13.1151   20.9889 C   0  0  0  0  0  0
  -25.2523  -13.8188   20.5656 C   0  0  0  0  0  0
  -24.1805  -13.0437   20.9184 C   0  0  0  0  0  0
  -24.6387  -11.6909   20.8724 C   0  0  0  0  0  0
  -23.9059  -10.4289   21.0398 C   0  0  0  0  0  0
  -24.3608   -9.4206   21.9183 C   0  0  0  0  0  0
  -23.6276   -8.2241   22.0761 C   0  0  0  0  0  0
  -22.4258   -8.0280   21.3545 C   0  0  0  0  0  0
  -21.9901   -9.0258   20.4649 C   0  0  0  0  0  0
  -22.7234  -10.2137   20.3055 C   0  0  0  0  0  0
  -21.6844   -6.0728   22.5269 C   0  0  0  0  0  0
  -21.4024   -6.5634   23.8203 C   0  0  0  0  0  0
  -21.3666   -5.6782   24.9171 C   0  0  0  0  0  0
  -21.6044   -4.3048   24.7211 C   0  0  0  0  0  0
  -21.8821   -3.8139   23.4333 C   0  0  0  0  0  0
  -21.9190   -4.6954   22.3395 C   0  0  0  0  0  0
  -22.7833  -13.5236   21.1843 C   0  0  0  0  0  0
  -22.1654   -4.2147   21.0966 F   0  0  0  0  0  0
  -21.5627   -3.4531   25.7725 F   0  0  0  0  0  0
  -29.9964  -13.4667   20.4138 N   0  0  0  0  0  0
  -26.2946  -12.9379   20.3279 N   0  0  0  0  0  0
  -25.9317  -11.6529   20.5742 N   0  0  0  0  0  0
  -22.0482  -12.8228   22.0400 N   0  0  0  0  0  0
  -25.4199  -15.1906   20.4033 N   0  0  0  0  0  0
  -31.7764  -14.8367   20.1271 O   0  0  0  0  0  0
  -21.6624   -6.8876   21.4233 O   0  0  0  0  0  0
  -22.3523  -14.5541   20.6689 O   0  0  0  0  0  0
  -24.6310  -31.8566   23.1958 C   0  0  0  0  0  0
  -25.9151  -32.4753   23.8293 C   0  0  1  0  0  0
  -27.2320  -27.2717   20.1278 C   0  0  0  0  0  0
  -25.5959  -33.8548   24.2234 N   0  0  0  0  0  0
  -23.4276  -30.4755   21.5417 C   0  0  2  0  0  0
  -24.8766  -28.9126   20.1174 C   0  0  0  0  0  0
  -22.7513  -29.4593   22.4927 C   0  0  0  0  0  0
  -18.0301  -28.1363   22.8482 C   0  0  0  0  0  0
  -24.1502  -36.7282   23.2632 C   0  0  0  0  0  0
  -25.9729  -30.7674   21.3782 C   0  0  0  0  0  0
  -26.0480  -29.3884   20.7223 C   0  0  0  0  0  0
  -27.2292  -28.5815   20.7127 C   0  0  0  0  0  0
  -26.0396  -26.8537   19.5019 C   0  0  0  0  0  0
  -24.8755  -27.6506   19.5001 C   0  0  0  0  0  0
  -23.6478  -29.8012   20.1613 C   0  0  0  0  0  0
  -25.4130  -36.3058   24.0313 C   0  0  1  0  0  0
  -20.5902  -28.3690   23.1273 C   0  0  2  0  0  0
  -20.6799  -26.9415   22.5415 C   0  0  0  0  0  0
  -19.5767  -26.6361   21.5212 C   0  0  0  0  0  0
  -18.1942  -26.7908   22.1607 C   0  0  0  0  0  0
  -19.1546  -28.8842   23.2862 C   0  0  0  0  0  0
  -18.9473  -30.1440   23.8884 C   0  0  0  0  0  0
  -17.6478  -30.6575   24.0553 C   0  0  0  0  0  0
  -25.9075  -34.9433   23.5075 C   0  0  0  0  0  0
  -16.5369  -29.9066   23.6320 C   0  0  0  0  0  0
  -16.7284  -28.6481   23.0350 C   0  0  0  0  0  0
  -26.4512  -31.6575   25.0685 C   0  0  0  0  0  0
  -25.3716  -31.3735   26.1397 C   0  0  0  0  0  0
  -27.0380  -30.2991   24.6197 C   0  0  0  0  0  0
  -27.6057  -32.4335   25.7463 C   0  0  0  0  0  0
  -27.5585  -37.1786   24.8456 C   0  0  0  0  0  0
  -21.4218  -29.3049   22.3677 N   0  0  0  0  0  0
  -26.4298  -37.3761   23.9403 N   0  0  0  0  0  0
  -24.6959  -31.0517   22.0943 N   0  0  0  0  0  0
  -23.4212  -28.8138   23.3024 O   0  0  0  0  0  0
  -28.3514  -26.4105   20.0802 O   0  0  0  0  0  0
  -26.5647  -34.8908   22.4644 O   0  0  0  0  0  0
  -23.5466  -32.1404   23.7262 O   0  0  0  0  0  0
  -31.0687  -17.9104   20.2455 C   0  0  0  0  0  0
  -30.9013  -19.3412   19.9969 C   0  0  0  0  0  0
  -29.9265  -17.1697   20.4559 C   0  0  0  0  0  0
  -29.5822  -19.7898   20.0745 C   0  0  0  0  0  0
  -32.0575  -20.1980   19.6800 C   0  0  0  0  0  0
  -28.6193  -23.7521   19.9144 C   0  0  0  0  0  0
  -34.2465  -19.9935   18.3040 C   0  0  0  0  0  0
  -33.3792  -19.4968   19.4457 C   0  0  2  0  0  0
  -33.5592  -18.6550   18.1927 C   0  0  2  0  0  0
  -34.3708  -17.3743   18.2306 C   0  0  0  0  0  0
  -29.6780  -25.2651   21.6660 C   0  0  0  0  0  0
  -27.1991  -24.8686   21.7334 C   0  0  0  0  0  0
  -29.0680  -22.3492   20.5714 C   0  0  0  0  0  0
  -28.4153  -25.0839   20.8040 C   0  0  0  0  0  0
  -29.7618  -15.7909   20.6673 N   0  0  0  0  0  0
  -28.9673  -21.0729   19.7532 N   0  0  0  0  0  0
  -32.0381  -21.4308   19.6117 O   0  0  0  0  0  0
  -28.4212  -23.7928   18.6961 O   0  0  0  0  0  0
  -28.5816  -18.3469   20.4220 S   0  0  0  0  0  0
  -31.4748  -12.5460   19.1606 H   0  0  0  0  0  0
  -30.3666  -11.4347   19.9220 H   0  0  0  0  0  0
  -29.7797  -11.7536   17.4908 H   0  0  0  0  0  0
  -29.6406  -13.4765   17.7350 H   0  0  0  0  0  0
  -27.8722  -11.2896   18.8765 H   0  0  0  0  0  0
  -27.3769  -12.5617   17.7908 H   0  0  0  0  0  0
  -27.6498  -14.2526   19.4961 H   0  0  0  0  0  0
  -28.7119  -12.1025   21.3952 H   0  0  0  0  0  0
  -28.4342  -13.7702   21.8231 H   0  0  0  0  0  0
  -25.2758   -9.5672   22.4764 H   0  0  0  0  0  0
  -23.9976   -7.4642   22.7492 H   0  0  0  0  0  0
  -21.0828   -8.8789   19.8955 H   0  0  0  0  0  0
  -22.3698  -10.9679   19.6162 H   0  0  0  0  0  0
  -21.2034   -7.6137   23.9706 H   0  0  0  0  0  0
  -21.1488   -6.0511   25.9070 H   0  0  0  0  0  0
  -22.0597   -2.7601   23.2824 H   0  0  0  0  0  0
  -22.4106  -11.9888   22.4777 H   0  0  0  0  0  0
  -21.1119  -13.1282   22.2635 H   0  0  0  0  0  0
  -24.6422  -15.8356   20.4935 H   0  0  0  0  0  0
  -26.2523  -15.6294   20.0327 H   0  0  0  0  0  0
  -26.7215  -32.5400   23.1029 H   0  0  0  0  0  0
  -25.0102  -33.9668   25.0379 H   0  0  0  0  0  0
  -22.7209  -31.2942   21.3900 H   0  0  0  0  0  0
  -23.3774  -35.9598   23.3245 H   0  0  0  0  0  0
  -24.3599  -36.9001   22.2069 H   0  0  0  0  0  0
  -23.7241  -37.6448   23.6735 H   0  0  0  0  0  0
  -26.1161  -31.5283   20.6102 H   0  0  0  0  0  0
  -26.8484  -30.8146   22.0140 H   0  0  0  0  0  0
  -28.1334  -28.9509   21.1766 H   0  0  0  0  0  0
  -26.0109  -25.8879   19.0183 H   0  0  0  0  0  0
  -23.9780  -27.2787   19.0229 H   0  0  0  0  0  0
  -23.7724  -30.5773   19.4045 H   0  0  0  0  0  0
  -22.7658  -29.2358   19.8575 H   0  0  0  0  0  0
  -25.1305  -36.1898   25.0799 H   0  0  0  0  0  0
  -20.9958  -28.3294   24.1407 H   0  0  0  0  0  0
  -20.5727  -26.2300   23.3621 H   0  0  0  0  0  0
  -21.6659  -26.7447   22.1196 H   0  0  0  0  0  0
  -19.6943  -25.6266   21.1268 H   0  0  0  0  0  0
  -19.6723  -27.3148   20.6729 H   0  0  0  0  0  0
  -17.4226  -26.6686   21.3984 H   0  0  0  0  0  0
  -18.0296  -26.0023   22.8972 H   0  0  0  0  0  0
  -19.7952  -30.7240   24.2261 H   0  0  0  0  0  0
  -17.5044  -31.6253   24.5157 H   0  0  0  0  0  0
  -15.5367  -30.2978   23.7640 H   0  0  0  0  0  0
  -15.8688  -28.0804   22.7061 H   0  0  0  0  0  0
  -24.5879  -30.7115   25.7711 H   0  0  0  0  0  0
  -24.8905  -32.2903   26.4803 H   0  0  0  0  0  0
  -25.7992  -30.8907   27.0186 H   0  0  0  0  0  0
  -26.2972  -29.6695   24.1256 H   0  0  0  0  0  0
  -27.4111  -29.7306   25.4727 H   0  0  0  0  0  0
  -27.8827  -30.4268   23.9419 H   0  0  0  0  0  0
  -27.2675  -33.3689   26.1922 H   0  0  0  0  0  0
  -28.3900  -32.6802   25.0298 H   0  0  0  0  0  0
  -28.0663  -31.8519   26.5462 H   0  0  0  0  0  0
  -28.2566  -38.0121   24.7542 H   0  0  0  0  0  0
  -28.1119  -36.2643   24.6235 H   0  0  0  0  0  0
  -27.2298  -37.1385   25.8857 H   0  0  0  0  0  0
  -20.9415  -29.8799   21.6899 H   0  0  0  0  0  0
  -26.0172  -38.2835   24.1413 H   0  0  0  0  0  0
  -32.0469  -17.4520   20.2364 H   0  0  0  0  0  0
  -35.3223  -20.0066   18.4695 H   0  0  0  0  0  0
  -33.8674  -20.8015   17.6805 H   0  0  0  0  0  0
  -33.9152  -19.1909   20.3419 H   0  0  0  0  0  0
  -32.7096  -18.6116   17.5124 H   0  0  0  0  0  0
  -35.2094  -17.4668   18.9213 H   0  0  0  0  0  0
  -34.7640  -17.1490   17.2373 H   0  0  0  0  0  0
  -33.7491  -16.5378   18.5534 H   0  0  0  0  0  0
  -29.8423  -24.4205   22.3345 H   0  0  0  0  0  0
  -29.6113  -26.1590   22.2874 H   0  0  0  0  0  0
  -30.5665  -25.3684   21.0418 H   0  0  0  0  0  0
  -27.3459  -24.0084   22.3875 H   0  0  0  0  0  0
  -26.2868  -24.6826   21.1685 H   0  0  0  0  0  0
  -27.0251  -25.7282   22.3811 H   0  0  0  0  0  0
  -28.4824  -22.2131   21.4816 H   0  0  0  0  0  0
  -30.1016  -22.4615   20.9010 H   0  0  0  0  0  0
  -28.8219  -15.5125   20.9064 H   0  0  0  0  0  0
  -29.0394  -21.3048   18.7628 H   0  0  0  0  0  0
  1 25  1  0  0  0
  1 30  2  0  0  0
  1 85  1  0  0  0
  2  3  1  0  0  0
  2 25  1  0  0  0
  2 90  1  0  0  0
  2 91  1  0  0  0
  3  4  1  0  0  0
  3 92  1  0  0  0
  3 93  1  0  0  0
  4  5  1  0  0  0
  4 94  1  0  0  0
  4 95  1  0  0  0
  5  6  1  0  0  0
  5 26  1  0  0  0
  5 96  1  0  0  0
  6 25  1  0  0  0
  6 97  1  0  0  0
  6 98  1  0  0  0
  7  8  2  0  0  0
  7 26  1  0  0  0
  7 29  1  0  0  0
  8  9  1  0  0  0
  8 22  1  0  0  0
  9 10  1  0  0  0
  9 27  2  0  0  0
 10 11  2  0  0  0
 10 15  1  0  0  0
 11 12  1  0  0  0
 11 99  1  0  0  0
 12 13  2  0  0  0
 12100  1  0  0  0
 13 14  1  0  0  0
 13 31  1  0  0  0
 14 15  2  0  0  0
 14101  1  0  0  0
 15102  1  0  0  0
 16 17  2  0  0  0
 16 21  1  0  0  0
 16 31  1  0  0  0
 17 18  1  0  0  0
 17103  1  0  0  0
 18 19  2  0  0  0
 18104  1  0  0  0
 19 20  1  0  0  0
 19 24  1  0  0  0
 20 21  2  0  0  0
 20105  1  0  0  0
 21 23  1  0  0  0
 22 28  1  0  0  0
 22 32  2  0  0  0
 26 27  1  0  0  0
 28106  1  0  0  0
 28107  1  0  0  0
 29108  1  0  0  0
 29109  1  0  0  0
 33 34  1  0  0  0
 33 66  1  0  0  0
 33 70  2  0  0  0
 34 36  1  0  0  0
 34 59  1  0  0  0
 34110  1  0  0  0
 35 44  2  0  0  0
 35 45  1  0  0  0
 35 68  1  0  0  0
 36 56  1  0  0  0
 36111  1  0  0  0
 37 39  1  0  0  0
 37 47  1  0  0  0
 37 66  1  0  0  0
 37112  1  0  0  0
 38 43  2  0  0  0
 38 46  1  0  0  0
 38 47  1  0  0  0
 39 64  1  0  0  0
 39 67  2  0  0  0
 40 52  1  0  0  0
 40 53  2  0  0  0
 40 58  1  0  0  0
 41113  1  0  0  0
 41114  1  0  0  0
 41115  1  0  0  0
 41 48  1  0  0  0
 42 43  1  0  0  0
 42 66  1  0  0  0
 42116  1  0  0  0
 42117  1  0  0  0
 43 44  1  0  0  0
 44118  1  0  0  0
 45 46  2  0  0  0
 45119  1  0  0  0
 46120  1  0  0  0
 47121  1  0  0  0
 47122  1  0  0  0
 48 56  1  0  0  0
 48 65  1  0  0  0
 48123  1  0  0  0
 49 50  1  0  0  0
 49 53  1  0  0  0
 49 64  1  0  0  0
 49124  1  0  0  0
 50 51  1  0  0  0
 50125  1  0  0  0
 50126  1  0  0  0
 51 52  1  0  0  0
 51127  1  0  0  0
 51128  1  0  0  0
 52129  1  0  0  0
 52130  1  0  0  0
 53 54  1  0  0  0
 54 55  2  0  0  0
 54131  1  0  0  0
 55 57  1  0  0  0
 55132  1  0  0  0
 56 69  2  0  0  0
 57 58  2  0  0  0
 57133  1  0  0  0
 58134  1  0  0  0
 59 60  1  0  0  0
 59 61  1  0  0  0
 59 62  1  0  0  0
 60135  1  0  0  0
 60136  1  0  0  0
 60137  1  0  0  0
 61138  1  0  0  0
 61139  1  0  0  0
 61140  1  0  0  0
 62141  1  0  0  0
 62142  1  0  0  0
 62143  1  0  0  0
 63 65  1  0  0  0
 63144  1  0  0  0
 63145  1  0  0  0
 63146  1  0  0  0
 64147  1  0  0  0
 65148  1  0  0  0
 68 84  1  0  0  0
 71 72  1  0  0  0
 71 73  2  0  0  0
 71149  1  0  0  0
 72 74  2  0  0  0
 72 75  1  0  0  0
 73 85  1  0  0  0
 73 89  1  0  0  0
 74 86  1  0  0  0
 74 89  1  0  0  0
 75 87  2  0  0  0
 75 78  1  0  0  0
 76 83  1  0  0  0
 76 84  1  0  0  0
 76 88  2  0  0  0
 77 78  1  0  0  0
 77 79  1  0  0  0
 77150  1  0  0  0
 77151  1  0  0  0
 78 79  1  0  0  0
 78152  1  0  0  0
 79 80  1  0  0  0
 79153  1  0  0  0
 80154  1  0  0  0
 80155  1  0  0  0
 80156  1  0  0  0
 81157  1  0  0  0
 81158  1  0  0  0
 81159  1  0  0  0
 81 84  1  0  0  0
 82 84  1  0  0  0
 82160  1  0  0  0
 82161  1  0  0  0
 82162  1  0  0  0
 83 86  1  0  0  0
 83163  1  0  0  0
 83164  1  0  0  0
 85165  1  0  0  0
 86166  1  0  0  0
M  ISO  4   1 100  68 101  84 101  85 100
M  END
> <chiral flag>
0

> <version>
0

> <s_m_source_file>
/data/baiqing/PycharmProjects/Reinvent-master-3.2/result/LINK_invent/BTK/process_docking_weight1_custom_product_contain_oxygen_bond_distance_aromatic_linkinvent_7_9_3/rearranged_h_0157.sdf

> <i_m_source_file_index>
26

> <r_mmod_Potential_Energy-OPLS-2005>
360.41748046875

> <r_mmod_Stretch_Energy-OPLS-2005>
117.798469543457

> <r_mmod_Bend_Energy-OPLS-2005>
171.444259643555

> <r_mmod_Torsional_Energy-OPLS-2005>
330.468444824219

> <r_mmod_Improper_Torsional_Energy-OPLS-2005>
9.58911418914795

> <r_mmod_Van_der_Waal_Energy-OPLS-2005>
111.446563720703

> <r_mmod_Electrostatic_Energy-OPLS-2005>
-216.627136230469

> <r_mmod_Solvation_Energy-OPLS-2005>
-232.991348266602

> <b_mmod_Minimization_Converged-OPLS-2005>
0

> <r_mmod_RMS_Derivative-OPLS-2005>
2.77819442749023

$$$$
26
                    3D
 Structure written by MMmdl.
148156  0  0  1  0            999 V2000
  -30.6122  -14.7891   20.4234 C   0  0  0  0  0  0
  -30.4315  -12.4741   19.4931 C   0  0  0  0  0  0
  -29.5145  -12.4938   18.2501 C   0  0  0  0  0  0
  -28.0381  -12.3304   18.6585 C   0  0  0  0  0  0
  -27.6373  -13.2448   19.8491 C   0  0  2  0  0  0
  -28.6824  -13.2112   20.9854 C   0  0  0  0  0  0
  -25.2471  -13.8240   20.5743 C   0  0  0  0  0  0
  -24.1791  -13.0454   20.9253 C   0  0  0  0  0  0
  -24.6405  -11.6944   20.8778 C   0  0  0  0  0  0
  -23.9093  -10.4310   21.0426 C   0  0  0  0  0  0
  -24.3632   -9.4206   21.9191 C   0  0  0  0  0  0
  -23.6307   -8.2239   22.0750 C   0  0  0  0  0  0
  -22.4276   -8.0288   21.3545 C   0  0  0  0  0  0
  -21.9924   -9.0269   20.4647 C   0  0  0  0  0  0
  -22.7271  -10.2153   20.3072 C   0  0  0  0  0  0
  -21.6861   -6.0742   22.5281 C   0  0  0  0  0  0
  -21.4026   -6.5646   23.8218 C   0  0  0  0  0  0
  -21.3674   -5.6783   24.9178 C   0  0  0  0  0  0
  -21.6044   -4.3045   24.7204 C   0  0  0  0  0  0
  -21.8813   -3.8150   23.4321 C   0  0  0  0  0  0
  -21.9191   -4.6971   22.3393 C   0  0  0  0  0  0
  -22.7794  -13.5216   21.1870 C   0  0  0  0  0  0
  -22.1653   -4.2167   21.0965 F   0  0  0  0  0  0
  -21.5617   -3.4522   25.7717 F   0  0  0  0  0  0
  -29.9819  -13.5601   20.3984 N   0  0  0  0  0  0
  -26.2919  -12.9477   20.3307 N   0  0  0  0  0  0
  -25.9340  -11.6610   20.5785 N   0  0  0  0  0  0
  -22.0421  -12.8243   22.0439 N   0  0  0  0  0  0
  -25.4082  -15.1964   20.4168 N   0  0  0  0  0  0
  -31.8052  -14.8542   20.1168 O   0  0  0  0  0  0
  -21.6637   -6.8885   21.4248 O   0  0  0  0  0  0
  -22.3496  -14.5503   20.6680 O   0  0  0  0  0  0
  -24.6355  -31.8530   23.1959 C   0  0  0  0  0  0
  -25.9169  -32.4731   23.8320 C   0  0  1  0  0  0
  -27.2078  -27.2150   20.1272 C   0  0  0  0  0  0
  -25.5954  -33.8536   24.2227 N   0  0  0  0  0  0
  -23.4336  -30.4768   21.5415 C   0  0  2  0  0  0
  -24.8790  -28.9258   20.1017 C   0  0  0  0  0  0
  -22.7538  -29.4589   22.4898 C   0  0  0  0  0  0
  -18.0303  -28.1385   22.8489 C   0  0  0  0  0  0
  -24.1488  -36.7269   23.2638 C   0  0  0  0  0  0
  -25.9833  -30.7491   21.3869 C   0  0  0  0  0  0
  -26.0528  -29.3708   20.7220 C   0  0  0  0  0  0
  -27.2183  -28.5281   20.7257 C   0  0  0  0  0  0
  -26.0149  -26.8697   19.4473 C   0  0  0  0  0  0
  -24.8696  -27.6859   19.4512 C   0  0  0  0  0  0
  -23.6520  -29.8177   20.1551 C   0  0  0  0  0  0
  -25.4120  -36.3052   24.0321 C   0  0  1  0  0  0
  -20.5914  -28.3711   23.1254 C   0  0  2  0  0  0
  -20.6792  -26.9422   22.5399 C   0  0  0  0  0  0
  -19.5761  -26.6375   21.5212 C   0  0  0  0  0  0
  -18.1947  -26.7925   22.1626 C   0  0  0  0  0  0
  -19.1561  -28.8863   23.2863 C   0  0  0  0  0  0
  -18.9481  -30.1467   23.8876 C   0  0  0  0  0  0
  -17.6472  -30.6586   24.0563 C   0  0  0  0  0  0
  -25.9077  -34.9422   23.5076 C   0  0  0  0  0  0
  -16.5362  -29.9080   23.6334 C   0  0  0  0  0  0
  -16.7288  -28.6501   23.0355 C   0  0  0  0  0  0
  -26.4509  -31.6585   25.0737 C   0  0  0  0  0  0
  -25.3715  -31.3779   26.1452 C   0  0  0  0  0  0
  -27.0374  -30.2990   24.6285 C   0  0  0  0  0  0
  -27.6040  -32.4345   25.7524 C   0  0  0  0  0  0
  -27.5575  -37.1789   24.8463 C   0  0  0  0  0  0
  -21.4242  -29.3041   22.3636 N   0  0  0  0  0  0
  -26.4280  -37.3762   23.9416 N   0  0  0  0  0  0
  -24.7028  -31.0459   22.0959 N   0  0  0  0  0  0
  -23.4219  -28.8152   23.3030 O   0  0  0  0  0  0
  -28.2674  -26.2623   20.2202 O   0  0  0  0  0  0
  -26.5625  -34.8907   22.4633 O   0  0  0  0  0  0
  -23.5496  -32.1373   23.7227 O   0  0  0  0  0  0
  -29.7527  -19.2640   21.8464 C   0  0  0  0  0  0
  -29.4251  -20.6712   21.8071 C   0  0  0  0  0  0
  -29.7424  -18.7474   20.5731 C   0  0  0  0  0  0
  -29.2069  -21.0217   20.4999 C   0  0  0  0  0  0
  -28.8235  -23.5835   20.5404 C   0  0  0  0  0  0
  -30.1827  -17.3471   19.9479 C   0  0  0  0  0  0
  -28.0123  -24.8022   19.8445 C   0  0  0  0  0  0
  -28.7924  -22.2855   20.0110 N   0  0  0  0  0  0
  -29.8553  -15.9570   20.5347 N   0  0  0  0  0  0
  -29.4598  -23.8321   21.5694 O   0  0  0  0  0  0
  -29.3869  -19.8425   19.7340 O   0  0  0  0  0  0
  -31.4733  -12.5926   19.1909 H   0  0  0  0  0  0
  -30.3789  -11.5084   19.9988 H   0  0  0  0  0  0
  -29.8005  -11.6951   17.5639 H   0  0  0  0  0  0
  -29.6469  -13.4316   17.7088 H   0  0  0  0  0  0
  -27.8883  -11.2860   18.9323 H   0  0  0  0  0  0
  -27.3869  -12.5189   17.8040 H   0  0  0  0  0  0
  -27.6194  -14.2606   19.4548 H   0  0  0  0  0  0
  -28.7197  -12.2260   21.4531 H   0  0  0  0  0  0
  -28.4181  -13.9177   21.7745 H   0  0  0  0  0  0
  -25.2759   -9.5680   22.4779 H   0  0  0  0  0  0
  -24.0009   -7.4627   22.7466 H   0  0  0  0  0  0
  -21.0845   -8.8819   19.8948 H   0  0  0  0  0  0
  -22.3731  -10.9705   19.6191 H   0  0  0  0  0  0
  -21.2033   -7.6154   23.9745 H   0  0  0  0  0  0
  -21.1508   -6.0500   25.9090 H   0  0  0  0  0  0
  -22.0580   -2.7614   23.2811 H   0  0  0  0  0  0
  -22.4015  -11.9950   22.4933 H   0  0  0  0  0  0
  -21.1034  -13.1312   22.2584 H   0  0  0  0  0  0
  -24.6245  -15.8331   20.5161 H   0  0  0  0  0  0
  -26.2451  -15.6525   20.0772 H   0  0  0  0  0  0
  -26.7232  -32.5353   23.1055 H   0  0  0  0  0  0
  -25.0130  -33.9679   25.0389 H   0  0  0  0  0  0
  -22.7310  -31.2997   21.3978 H   0  0  0  0  0  0
  -23.3751  -35.9600   23.3295 H   0  0  0  0  0  0
  -24.3582  -36.8899   22.2054 H   0  0  0  0  0  0
  -23.7241  -37.6467   23.6668 H   0  0  0  0  0  0
  -26.1374  -31.5134   20.6237 H   0  0  0  0  0  0
  -26.8523  -30.7874   22.0313 H   0  0  0  0  0  0
  -28.1097  -28.8642   21.2364 H   0  0  0  0  0  0
  -25.9189  -25.9397   18.9089 H   0  0  0  0  0  0
  -23.9783  -27.3488   18.9397 H   0  0  0  0  0  0
  -23.7761  -30.5946   19.3997 H   0  0  0  0  0  0
  -22.7677  -29.2549   19.8521 H   0  0  0  0  0  0
  -25.1301  -36.1889   25.0810 H   0  0  0  0  0  0
  -21.0004  -28.3277   24.1376 H   0  0  0  0  0  0
  -20.5696  -26.2320   23.3619 H   0  0  0  0  0  0
  -21.6669  -26.7435   22.1197 H   0  0  0  0  0  0
  -19.6922  -25.6282   21.1262 H   0  0  0  0  0  0
  -19.6694  -27.3175   20.6739 H   0  0  0  0  0  0
  -17.4220  -26.6676   21.4022 H   0  0  0  0  0  0
  -18.0333  -26.0070   22.9026 H   0  0  0  0  0  0
  -19.7957  -30.7296   24.2225 H   0  0  0  0  0  0
  -17.5027  -31.6268   24.5172 H   0  0  0  0  0  0
  -15.5364  -30.2967   23.7677 H   0  0  0  0  0  0
  -15.8695  -28.0810   22.7060 H   0  0  0  0  0  0
  -24.5860  -30.7166   25.7785 H   0  0  0  0  0  0
  -24.8954  -32.2978   26.4857 H   0  0  0  0  0  0
  -25.8011  -30.8960   27.0249 H   0  0  0  0  0  0
  -26.2994  -29.6725   24.1263 H   0  0  0  0  0  0
  -27.3980  -29.7273   25.4850 H   0  0  0  0  0  0
  -27.8905  -30.4241   23.9610 H   0  0  0  0  0  0
  -27.2611  -33.3636   26.2089 H   0  0  0  0  0  0
  -28.3859  -32.6927   25.0371 H   0  0  0  0  0  0
  -28.0701  -31.8496   26.5462 H   0  0  0  0  0  0
  -28.2582  -38.0093   24.7519 H   0  0  0  0  0  0
  -28.1081  -36.2629   24.6273 H   0  0  0  0  0  0
  -27.2302  -37.1417   25.8865 H   0  0  0  0  0  0
  -20.9432  -29.8775   21.6850 H   0  0  0  0  0  0
  -26.0154  -38.2832   24.1418 H   0  0  0  0  0  0
  -30.0137  -18.6960   22.7284 H   0  0  0  0  0  0
  -29.3624  -21.3403   22.6536 H   0  0  0  0  0  0
  -31.2682  -17.3907   19.8467 H   0  0  0  0  0  0
  -29.8321  -17.3224   18.9165 H   0  0  0  0  0  0
  -28.1049  -24.7021   18.7622 H   0  0  0  0  0  0
  -26.9808  -24.5532   20.0897 H   0  0  0  0  0  0
  -28.3530  -22.2394   19.1021 H   0  0  0  0  0  0
  -28.8867  -15.8178   20.7783 H   0  0  0  0  0  0
  1 25  1  0  0  0
  1 30  2  0  0  0
  1 79  1  0  0  0
  2  3  1  0  0  0
  2 25  1  0  0  0
  2 82  1  0  0  0
  2 83  1  0  0  0
  3  4  1  0  0  0
  3 84  1  0  0  0
  3 85  1  0  0  0
  4  5  1  0  0  0
  4 86  1  0  0  0
  4 87  1  0  0  0
  5  6  1  0  0  0
  5 26  1  0  0  0
  5 88  1  0  0  0
  6 25  1  0  0  0
  6 89  1  0  0  0
  6 90  1  0  0  0
  7  8  2  0  0  0
  7 26  1  0  0  0
  7 29  1  0  0  0
  8  9  1  0  0  0
  8 22  1  0  0  0
  9 10  1  0  0  0
  9 27  2  0  0  0
 10 11  2  0  0  0
 10 15  1  0  0  0
 11 12  1  0  0  0
 11 91  1  0  0  0
 12 13  2  0  0  0
 12 92  1  0  0  0
 13 14  1  0  0  0
 13 31  1  0  0  0
 14 15  2  0  0  0
 14 93  1  0  0  0
 15 94  1  0  0  0
 16 17  2  0  0  0
 16 21  1  0  0  0
 16 31  1  0  0  0
 17 18  1  0  0  0
 17 95  1  0  0  0
 18 19  2  0  0  0
 18 96  1  0  0  0
 19 20  1  0  0  0
 19 24  1  0  0  0
 20 21  2  0  0  0
 20 97  1  0  0  0
 21 23  1  0  0  0
 22 28  1  0  0  0
 22 32  2  0  0  0
 26 27  1  0  0  0
 28 98  1  0  0  0
 28 99  1  0  0  0
 29100  1  0  0  0
 29101  1  0  0  0
 33 34  1  0  0  0
 33 66  1  0  0  0
 33 70  2  0  0  0
 34 36  1  0  0  0
 34 59  1  0  0  0
 34102  1  0  0  0
 35 44  2  0  0  0
 35 45  1  0  0  0
 35 68  1  0  0  0
 36 56  1  0  0  0
 36103  1  0  0  0
 37 39  1  0  0  0
 37 47  1  0  0  0
 37 66  1  0  0  0
 37104  1  0  0  0
 38 43  2  0  0  0
 38 46  1  0  0  0
 38 47  1  0  0  0
 39 64  1  0  0  0
 39 67  2  0  0  0
 40 52  1  0  0  0
 40 53  2  0  0  0
 40 58  1  0  0  0
 41105  1  0  0  0
 41106  1  0  0  0
 41107  1  0  0  0
 41 48  1  0  0  0
 42 43  1  0  0  0
 42 66  1  0  0  0
 42108  1  0  0  0
 42109  1  0  0  0
 43 44  1  0  0  0
 44110  1  0  0  0
 45 46  2  0  0  0
 45111  1  0  0  0
 46112  1  0  0  0
 47113  1  0  0  0
 47114  1  0  0  0
 48 56  1  0  0  0
 48 65  1  0  0  0
 48115  1  0  0  0
 49 50  1  0  0  0
 49 53  1  0  0  0
 49 64  1  0  0  0
 49116  1  0  0  0
 50 51  1  0  0  0
 50117  1  0  0  0
 50118  1  0  0  0
 51 52  1  0  0  0
 51119  1  0  0  0
 51120  1  0  0  0
 52121  1  0  0  0
 52122  1  0  0  0
 53 54  1  0  0  0
 54 55  2  0  0  0
 54123  1  0  0  0
 55 57  1  0  0  0
 55124  1  0  0  0
 56 69  2  0  0  0
 57 58  2  0  0  0
 57125  1  0  0  0
 58126  1  0  0  0
 59 60  1  0  0  0
 59 61  1  0  0  0
 59 62  1  0  0  0
 60127  1  0  0  0
 60128  1  0  0  0
 60129  1  0  0  0
 61130  1  0  0  0
 61131  1  0  0  0
 61132  1  0  0  0
 62133  1  0  0  0
 62134  1  0  0  0
 62135  1  0  0  0
 63 65  1  0  0  0
 63136  1  0  0  0
 63137  1  0  0  0
 63138  1  0  0  0
 64139  1  0  0  0
 65140  1  0  0  0
 68 77  1  0  0  0
 71 72  1  0  0  0
 71 73  2  0  0  0
 71141  1  0  0  0
 72 74  2  0  0  0
 72142  1  0  0  0
 73 76  1  0  0  0
 73 81  1  0  0  0
 74 78  1  0  0  0
 74 81  1  0  0  0
 75 77  1  0  0  0
 75 78  1  0  0  0
 75 80  2  0  0  0
 76 79  1  0  0  0
 76143  1  0  0  0
 76144  1  0  0  0
 77145  1  0  0  0
 77146  1  0  0  0
 78147  1  0  0  0
 79148  1  0  0  0
M  ISO  4   1 100  68 101  77 101  79 100
M  END
> <chiral flag>
0

> <version>
0

> <s_m_source_file>
/data/baiqing/PycharmProjects/Reinvent-master-3.2/result/LINK_invent/BTK/process_docking_weight1_custom_product_contain_oxygen_bond_distance_aromatic_linkinvent_7_9_3/rearranged_h_0157.sdf

> <i_m_source_file_index>
27

> <r_mmod_Potential_Energy-OPLS-2005>
110.106658935547

> <r_mmod_Stretch_Energy-OPLS-2005>
146.602294921875

> <r_mmod_Bend_Energy-OPLS-2005>
190.734954833984

> <r_mmod_Torsional_Energy-OPLS-2005>
219.901763916016

> <r_mmod_Improper_Torsional_Energy-OPLS-2005>
7.66667795181274

> <r_mmod_Van_der_Waal_Energy-OPLS-2005>
122.649063110352

> <r_mmod_Electrostatic_Energy-OPLS-2005>
-444.176086425781

> <r_mmod_Solvation_Energy-OPLS-2005>
-249.012298583984

> <b_mmod_Minimization_Converged-OPLS-2005>
0

> <r_mmod_RMS_Derivative-OPLS-2005>
2.72105193138123

$$$$
27
                    3D
 Structure written by MMmdl.
158167  0  0  1  0            999 V2000
  -30.5804  -14.8499   20.4493 C   0  0  0  0  0  0
  -30.4376  -12.5235   19.4881 C   0  0  0  0  0  0
  -29.5170  -12.5215   18.2470 C   0  0  0  0  0  0
  -28.0454  -12.3271   18.6608 C   0  0  0  0  0  0
  -27.6370  -13.2409   19.8464 C   0  0  2  0  0  0
  -28.6810  -13.2203   20.9833 C   0  0  0  0  0  0
  -25.2483  -13.8205   20.5685 C   0  0  0  0  0  0
  -24.1797  -13.0432   20.9218 C   0  0  0  0  0  0
  -24.6413  -11.6917   20.8759 C   0  0  0  0  0  0
  -23.9097  -10.4289   21.0418 C   0  0  0  0  0  0
  -24.3641   -9.4198   21.9197 C   0  0  0  0  0  0
  -23.6302   -8.2241   22.0767 C   0  0  0  0  0  0
  -22.4285   -8.0290   21.3552 C   0  0  0  0  0  0
  -21.9927   -9.0270   20.4656 C   0  0  0  0  0  0
  -22.7264  -10.2141   20.3069 C   0  0  0  0  0  0
  -21.6854   -6.0740   22.5278 C   0  0  0  0  0  0
  -21.4018   -6.5643   23.8211 C   0  0  0  0  0  0
  -21.3655   -5.6796   24.9174 C   0  0  0  0  0  0
  -21.6043   -4.3061   24.7225 C   0  0  0  0  0  0
  -21.8821   -3.8149   23.4348 C   0  0  0  0  0  0
  -21.9197   -4.6968   22.3403 C   0  0  0  0  0  0
  -22.7812  -13.5201   21.1868 C   0  0  0  0  0  0
  -22.1662   -4.2150   21.0980 F   0  0  0  0  0  0
  -21.5629   -3.4548   25.7740 F   0  0  0  0  0  0
  -29.9690  -13.6060   20.3935 N   0  0  0  0  0  0
  -26.2919  -12.9428   20.3264 N   0  0  0  0  0  0
  -25.9344  -11.6562   20.5753 N   0  0  0  0  0  0
  -22.0458  -12.8203   22.0434 N   0  0  0  0  0  0
  -25.4119  -15.1931   20.4062 N   0  0  0  0  0  0
  -31.7685  -14.9208   20.1207 O   0  0  0  0  0  0
  -21.6642   -6.8890   21.4243 O   0  0  0  0  0  0
  -22.3492  -14.5492   20.6694 O   0  0  0  0  0  0
  -24.6383  -31.8480   23.1924 C   0  0  0  0  0  0
  -25.9174  -32.4714   23.8294 C   0  0  1  0  0  0
  -27.2146  -27.1821   20.1243 C   0  0  0  0  0  0
  -25.5940  -33.8522   24.2204 N   0  0  0  0  0  0
  -23.4385  -30.4701   21.5378 C   0  0  2  0  0  0
  -24.8846  -28.9083   20.1052 C   0  0  0  0  0  0
  -22.7538  -29.4566   22.4881 C   0  0  0  0  0  0
  -18.0299  -28.1389   22.8479 C   0  0  0  0  0  0
  -24.1489  -36.7279   23.2637 C   0  0  0  0  0  0
  -25.9914  -30.7334   21.3853 C   0  0  0  0  0  0
  -26.0596  -29.3502   20.7245 C   0  0  0  0  0  0
  -27.2209  -28.4985   20.7263 C   0  0  0  0  0  0
  -26.0098  -26.8318   19.4726 C   0  0  0  0  0  0
  -24.8701  -27.6606   19.4674 C   0  0  0  0  0  0
  -23.6595  -29.8038   20.1543 C   0  0  0  0  0  0
  -25.4119  -36.3048   24.0312 C   0  0  1  0  0  0
  -20.5907  -28.3706   23.1252 C   0  0  2  0  0  0
  -20.6787  -26.9415   22.5403 C   0  0  0  0  0  0
  -19.5757  -26.6377   21.5213 C   0  0  0  0  0  0
  -18.1942  -26.7926   22.1633 C   0  0  0  0  0  0
  -19.1554  -28.8868   23.2859 C   0  0  0  0  0  0
  -18.9469  -30.1469   23.8877 C   0  0  0  0  0  0
  -17.6464  -30.6588   24.0559 C   0  0  0  0  0  0
  -25.9065  -34.9420   23.5065 C   0  0  0  0  0  0
  -16.5356  -29.9078   23.6337 C   0  0  0  0  0  0
  -16.7284  -28.6499   23.0351 C   0  0  0  0  0  0
  -26.4502  -31.6573   25.0725 C   0  0  0  0  0  0
  -25.3694  -31.3769   26.1431 C   0  0  0  0  0  0
  -27.0345  -30.2967   24.6280 C   0  0  0  0  0  0
  -27.6039  -32.4331   25.7505 C   0  0  0  0  0  0
  -27.5578  -37.1791   24.8459 C   0  0  0  0  0  0
  -21.4237  -29.3045   22.3637 N   0  0  0  0  0  0
  -26.4288  -37.3757   23.9404 N   0  0  0  0  0  0
  -24.7093  -31.0372   22.0939 N   0  0  0  0  0  0
  -23.4206  -28.8109   23.3008 O   0  0  0  0  0  0
  -28.2877  -26.2371   20.2336 O   0  0  0  0  0  0
  -26.5652  -34.8910   22.4642 O   0  0  0  0  0  0
  -23.5515  -32.1343   23.7167 O   0  0  0  0  0  0
  -29.1712  -18.6320   20.3740 C   0  0  0  0  0  0
  -30.1021  -17.5010   20.7059 C   0  0  0  0  0  0
  -31.2840  -18.0406   21.1854 C   0  0  0  0  0  0
  -29.6483  -19.9663   20.5371 C   0  0  0  0  0  0
  -27.9709  -22.2065   20.0862 C   0  0  0  0  0  0
  -28.6212  -23.4152   20.1312 C   0  0  0  0  0  0
  -32.4490  -17.4515   21.8571 C   0  0  0  0  0  0
  -26.5733  -21.9290   19.6957 C   0  0  0  0  0  0
  -29.9230  -22.6071   20.3498 C   0  0  0  0  0  0
  -33.8077  -18.1278   21.7117 C   0  0  0  0  0  0
  -25.5806  -23.0721   19.5398 C   0  0  0  0  0  0
  -28.3646  -24.8969   19.4927 C   0  0  0  0  0  0
  -29.0852  -21.3687   20.3803 N   0  0  0  0  0  0
  -29.7967  -16.0096   20.6354 N   0  0  0  0  0  0
  -32.3573  -16.4542   22.5779 O   0  0  0  0  0  0
  -26.1727  -20.7783   19.5021 O   0  0  0  0  0  0
  -31.3004  -19.8090   21.0951 S   0  0  0  0  0  0
  -31.4759  -12.6623   19.1808 H   0  0  0  0  0  0
  -30.4062  -11.5590   19.9973 H   0  0  0  0  0  0
  -29.8183  -11.7374   17.5510 H   0  0  0  0  0  0
  -29.6242  -13.4651   17.7097 H   0  0  0  0  0  0
  -27.9176  -11.2811   18.9408 H   0  0  0  0  0  0
  -27.3863  -12.4950   17.8085 H   0  0  0  0  0  0
  -27.6158  -14.2538   19.4441 H   0  0  0  0  0  0
  -28.7432  -12.2301   21.4370 H   0  0  0  0  0  0
  -28.3977  -13.9086   21.7814 H   0  0  0  0  0  0
  -25.2792   -9.5659   22.4772 H   0  0  0  0  0  0
  -24.0004   -7.4630   22.7489 H   0  0  0  0  0  0
  -21.0862   -8.8802   19.8958 H   0  0  0  0  0  0
  -22.3738  -10.9693   19.6185 H   0  0  0  0  0  0
  -21.2008   -7.6153   23.9713 H   0  0  0  0  0  0
  -21.1468   -6.0526   25.9074 H   0  0  0  0  0  0
  -22.0601   -2.7614   23.2844 H   0  0  0  0  0  0
  -22.4075  -11.9886   22.4865 H   0  0  0  0  0  0
  -21.1072  -13.1227   22.2611 H   0  0  0  0  0  0
  -24.6342  -15.8363   20.5067 H   0  0  0  0  0  0
  -26.2387  -15.6343   20.0259 H   0  0  0  0  0  0
  -26.7237  -32.5319   23.1024 H   0  0  0  0  0  0
  -25.0062  -33.9641   25.0334 H   0  0  0  0  0  0
  -22.7392  -31.2955   21.3883 H   0  0  0  0  0  0
  -23.3748  -35.9614   23.3284 H   0  0  0  0  0  0
  -24.3580  -36.8926   22.2055 H   0  0  0  0  0  0
  -23.7244  -37.6473   23.6680 H   0  0  0  0  0  0
  -26.1425  -31.4892   20.6134 H   0  0  0  0  0  0
  -26.8643  -30.7811   22.0248 H   0  0  0  0  0  0
  -28.1137  -28.8290   21.2382 H   0  0  0  0  0  0
  -25.8805  -25.8795   18.9900 H   0  0  0  0  0  0
  -23.9702  -27.3151   18.9770 H   0  0  0  0  0  0
  -23.7884  -30.5791   19.3984 H   0  0  0  0  0  0
  -22.7753  -29.2415   19.8486 H   0  0  0  0  0  0
  -25.1304  -36.1883   25.0804 H   0  0  0  0  0  0
  -21.0001  -28.3281   24.1372 H   0  0  0  0  0  0
  -20.5685  -26.2316   23.3614 H   0  0  0  0  0  0
  -21.6652  -26.7429   22.1192 H   0  0  0  0  0  0
  -19.6918  -25.6279   21.1262 H   0  0  0  0  0  0
  -19.6694  -27.3174   20.6730 H   0  0  0  0  0  0
  -17.4205  -26.6652   21.4046 H   0  0  0  0  0  0
  -18.0359  -26.0079   22.9045 H   0  0  0  0  0  0
  -19.7943  -30.7293   24.2233 H   0  0  0  0  0  0
  -17.5016  -31.6267   24.5156 H   0  0  0  0  0  0
  -15.5355  -30.2969   23.7675 H   0  0  0  0  0  0
  -15.8687  -28.0813   22.7070 H   0  0  0  0  0  0
  -24.5844  -30.7153   25.7751 H   0  0  0  0  0  0
  -24.8922  -32.2963   26.4833 H   0  0  0  0  0  0
  -25.7978  -30.8943   27.0223 H   0  0  0  0  0  0
  -26.2945  -29.6714   24.1274 H   0  0  0  0  0  0
  -27.3944  -29.7247   25.4840 H   0  0  0  0  0  0
  -27.8865  -30.4201   23.9593 H   0  0  0  0  0  0
  -27.2626  -33.3643   26.2041 H   0  0  0  0  0  0
  -28.3872  -32.6870   25.0351 H   0  0  0  0  0  0
  -28.0678  -31.8483   26.5458 H   0  0  0  0  0  0
  -28.2576  -38.0105   24.7518 H   0  0  0  0  0  0
  -28.1094  -36.2635   24.6271 H   0  0  0  0  0  0
  -27.2302  -37.1423   25.8863 H   0  0  0  0  0  0
  -20.9434  -29.8776   21.6843 H   0  0  0  0  0  0
  -26.0158  -38.2827   24.1412 H   0  0  0  0  0  0
  -28.1680  -18.4232   20.0297 H   0  0  0  0  0  0
  -30.4612  -22.7757   21.2836 H   0  0  0  0  0  0
  -30.6295  -22.5816   19.5179 H   0  0  0  0  0  0
  -33.9206  -18.9052   22.4663 H   0  0  0  0  0  0
  -33.9112  -18.5790   20.7253 H   0  0  0  0  0  0
  -34.6093  -17.4011   21.8393 H   0  0  0  0  0  0
  -25.7654  -23.8478   20.2825 H   0  0  0  0  0  0
  -24.5623  -22.7082   19.6748 H   0  0  0  0  0  0
  -25.6578  -23.5024   18.5423 H   0  0  0  0  0  0
  -27.5593  -24.7904   18.7762 H   0  0  0  0  0  0
  -29.2213  -25.0304   18.8324 H   0  0  0  0  0  0
  -28.8148  -15.7912   20.7033 H   0  0  0  0  0  0
  1 25  1  0  0  0
  1 30  2  0  0  0
  1 84  1  0  0  0
  2  3  1  0  0  0
  2 25  1  0  0  0
  2 88  1  0  0  0
  2 89  1  0  0  0
  3  4  1  0  0  0
  3 90  1  0  0  0
  3 91  1  0  0  0
  4  5  1  0  0  0
  4 92  1  0  0  0
  4 93  1  0  0  0
  5  6  1  0  0  0
  5 26  1  0  0  0
  5 94  1  0  0  0
  6 25  1  0  0  0
  6 95  1  0  0  0
  6 96  1  0  0  0
  7  8  2  0  0  0
  7 26  1  0  0  0
  7 29  1  0  0  0
  8  9  1  0  0  0
  8 22  1  0  0  0
  9 10  1  0  0  0
  9 27  2  0  0  0
 10 11  2  0  0  0
 10 15  1  0  0  0
 11 12  1  0  0  0
 11 97  1  0  0  0
 12 13  2  0  0  0
 12 98  1  0  0  0
 13 14  1  0  0  0
 13 31  1  0  0  0
 14 15  2  0  0  0
 14 99  1  0  0  0
 15100  1  0  0  0
 16 17  2  0  0  0
 16 21  1  0  0  0
 16 31  1  0  0  0
 17 18  1  0  0  0
 17101  1  0  0  0
 18 19  2  0  0  0
 18102  1  0  0  0
 19 20  1  0  0  0
 19 24  1  0  0  0
 20 21  2  0  0  0
 20103  1  0  0  0
 21 23  1  0  0  0
 22 28  1  0  0  0
 22 32  2  0  0  0
 26 27  1  0  0  0
 28104  1  0  0  0
 28105  1  0  0  0
 29106  1  0  0  0
 29107  1  0  0  0
 33 34  1  0  0  0
 33 66  1  0  0  0
 33 70  2  0  0  0
 34 36  1  0  0  0
 34 59  1  0  0  0
 34108  1  0  0  0
 35 44  2  0  0  0
 35 45  1  0  0  0
 35 68  1  0  0  0
 36 56  1  0  0  0
 36109  1  0  0  0
 37 39  1  0  0  0
 37 47  1  0  0  0
 37 66  1  0  0  0
 37110  1  0  0  0
 38 43  2  0  0  0
 38 46  1  0  0  0
 38 47  1  0  0  0
 39 64  1  0  0  0
 39 67  2  0  0  0
 40 52  1  0  0  0
 40 53  2  0  0  0
 40 58  1  0  0  0
 41111  1  0  0  0
 41112  1  0  0  0
 41113  1  0  0  0
 41 48  1  0  0  0
 42 43  1  0  0  0
 42 66  1  0  0  0
 42114  1  0  0  0
 42115  1  0  0  0
 43 44  1  0  0  0
 44116  1  0  0  0
 45 46  2  0  0  0
 45117  1  0  0  0
 46118  1  0  0  0
 47119  1  0  0  0
 47120  1  0  0  0
 48 56  1  0  0  0
 48 65  1  0  0  0
 48121  1  0  0  0
 49 50  1  0  0  0
 49 53  1  0  0  0
 49 64  1  0  0  0
 49122  1  0  0  0
 50 51  1  0  0  0
 50123  1  0  0  0
 50124  1  0  0  0
 51 52  1  0  0  0
 51125  1  0  0  0
 51126  1  0  0  0
 52127  1  0  0  0
 52128  1  0  0  0
 53 54  1  0  0  0
 54 55  2  0  0  0
 54129  1  0  0  0
 55 57  1  0  0  0
 55130  1  0  0  0
 56 69  2  0  0  0
 57 58  2  0  0  0
 57131  1  0  0  0
 58132  1  0  0  0
 59 60  1  0  0  0
 59 61  1  0  0  0
 59 62  1  0  0  0
 60133  1  0  0  0
 60134  1  0  0  0
 60135  1  0  0  0
 61136  1  0  0  0
 61137  1  0  0  0
 61138  1  0  0  0
 62139  1  0  0  0
 62140  1  0  0  0
 62141  1  0  0  0
 63 65  1  0  0  0
 63142  1  0  0  0
 63143  1  0  0  0
 63144  1  0  0  0
 64145  1  0  0  0
 65146  1  0  0  0
 68 82  1  0  0  0
 71 72  1  0  0  0
 71 74  2  0  0  0
 71147  1  0  0  0
 72 73  2  0  0  0
 72 84  1  0  0  0
 73 77  1  0  0  0
 73 87  1  0  0  0
 74 83  1  0  0  0
 74 87  1  0  0  0
 75 76  2  0  0  0
 75 78  1  0  0  0
 75 83  1  0  0  0
 76 79  1  0  0  0
 76 82  1  0  0  0
 77 80  1  0  0  0
 77 85  2  0  0  0
 78 81  1  0  0  0
 78 86  2  0  0  0
 79 83  1  0  0  0
 79148  1  0  0  0
 79149  1  0  0  0
 80150  1  0  0  0
 80151  1  0  0  0
 80152  1  0  0  0
 81153  1  0  0  0
 81154  1  0  0  0
 81155  1  0  0  0
 82156  1  0  0  0
 82157  1  0  0  0
 84158  1  0  0  0
M  ISO  4   1 100  68 101  82 101  84 100
M  END
> <chiral flag>
0

> <version>
0

> <s_m_source_file>
/data/baiqing/PycharmProjects/Reinvent-master-3.2/result/LINK_invent/BTK/process_docking_weight1_custom_product_contain_oxygen_bond_distance_aromatic_linkinvent_7_9_3/rearranged_h_0157.sdf

> <i_m_source_file_index>
28

> <r_mmod_Potential_Energy-OPLS-2005>
384.705108642578

> <r_mmod_Stretch_Energy-OPLS-2005>
178.950134277344

> <r_mmod_Bend_Energy-OPLS-2005>
279.469879150391

> <r_mmod_Torsional_Energy-OPLS-2005>
242.586273193359

> <r_mmod_Improper_Torsional_Energy-OPLS-2005>
10.3397693634033

> <r_mmod_Van_der_Waal_Energy-OPLS-2005>
113.92066192627

> <r_mmod_Electrostatic_Energy-OPLS-2005>
-339.461242675781

> <r_mmod_Solvation_Energy-OPLS-2005>
-240.158248901367

> <b_mmod_Minimization_Converged-OPLS-2005>
0

> <r_mmod_RMS_Derivative-OPLS-2005>
1.28864145278931

$$$$
28
                    3D
 Structure written by MMmdl.
153162  0  0  1  0            999 V2000
  -30.6860  -14.7939   20.5109 C   0  0  0  0  0  0
  -30.4779  -12.5038   19.5499 C   0  0  0  0  0  0
  -29.5550  -12.5816   18.3146 C   0  0  0  0  0  0
  -28.0865  -12.3774   18.7296 C   0  0  0  0  0  0
  -27.6762  -13.2679   19.9335 C   0  0  2  0  0  0
  -28.7326  -13.1800   21.0681 C   0  0  0  0  0  0
  -25.2505  -13.8353   20.5784 C   0  0  0  0  0  0
  -24.1749  -13.0541   20.9309 C   0  0  0  0  0  0
  -24.6391  -11.7074   20.8824 C   0  0  0  0  0  0
  -23.9040  -10.4374   21.0401 C   0  0  0  0  0  0
  -24.3594   -9.4288   21.9162 C   0  0  0  0  0  0
  -23.6280   -8.2310   22.0711 C   0  0  0  0  0  0
  -22.4263   -8.0311   21.3502 C   0  0  0  0  0  0
  -21.9922   -9.0303   20.4602 C   0  0  0  0  0  0
  -22.7240  -10.2205   20.3042 C   0  0  0  0  0  0
  -21.6878   -6.0741   22.5235 C   0  0  0  0  0  0
  -21.4026   -6.5624   23.8173 C   0  0  0  0  0  0
  -21.3649   -5.6769   24.9130 C   0  0  0  0  0  0
  -21.6051   -4.3042   24.7192 C   0  0  0  0  0  0
  -21.8820   -3.8143   23.4312 C   0  0  0  0  0  0
  -21.9192   -4.6959   22.3365 C   0  0  0  0  0  0
  -22.7747  -13.5290   21.1878 C   0  0  0  0  0  0
  -22.1672   -4.2141   21.0961 F   0  0  0  0  0  0
  -21.5604   -3.4517   25.7710 F   0  0  0  0  0  0
  -30.0424  -13.5640   20.4934 N   0  0  0  0  0  0
  -26.3088  -12.9616   20.3752 N   0  0  0  0  0  0
  -25.9399  -11.6707   20.6059 N   0  0  0  0  0  0
  -22.0333  -12.8292   22.0446 N   0  0  0  0  0  0
  -25.4149  -15.2050   20.3915 N   0  0  0  0  0  0
  -31.8398  -14.8764   20.0778 O   0  0  0  0  0  0
  -21.6649   -6.8910   21.4210 O   0  0  0  0  0  0
  -22.3394  -14.5513   20.6631 O   0  0  0  0  0  0
  -24.6508  -31.8440   23.1841 C   0  0  0  0  0  0
  -25.9230  -32.4711   23.8354 C   0  0  1  0  0  0
  -27.2220  -27.1667   20.0977 C   0  0  0  0  0  0
  -25.5996  -33.8527   24.2271 N   0  0  0  0  0  0
  -23.4566  -30.4559   21.5312 C   0  0  2  0  0  0
  -24.8949  -28.8768   20.1053 C   0  0  0  0  0  0
  -22.7646  -29.4545   22.4914 C   0  0  0  0  0  0
  -18.0366  -28.1271   22.8414 C   0  0  0  0  0  0
  -24.1460  -36.7257   23.2646 C   0  0  0  0  0  0
  -26.0177  -30.7060   21.3903 C   0  0  0  0  0  0
  -26.0677  -29.3288   20.7135 C   0  0  0  0  0  0
  -27.2351  -28.4807   20.6894 C   0  0  0  0  0  0
  -26.0132  -26.7850   19.4776 C   0  0  0  0  0  0
  -24.8730  -27.6195   19.4755 C   0  0  0  0  0  0
  -23.6722  -29.7766   20.1541 C   0  0  0  0  0  0
  -25.4120  -36.3118   24.0320 C   0  0  1  0  0  0
  -20.5994  -28.3605   23.1064 C   0  0  2  0  0  0
  -20.6843  -26.9407   22.5074 C   0  0  0  0  0  0
  -19.5772  -26.6433   21.4887 C   0  0  0  0  0  0
  -18.2029  -26.7789   22.1528 C   0  0  0  0  0  0
  -19.1635  -28.8784   23.2716 C   0  0  0  0  0  0
  -18.9552  -30.1419   23.8704 C   0  0  0  0  0  0
  -17.6543  -30.6450   24.0570 C   0  0  0  0  0  0
  -25.9071  -34.9442   23.5132 C   0  0  0  0  0  0
  -16.5429  -29.8941   23.6431 C   0  0  0  0  0  0
  -16.7378  -28.6396   23.0385 C   0  0  0  0  0  0
  -26.4481  -31.6604   25.0821 C   0  0  0  0  0  0
  -25.3664  -31.3664   26.1501 C   0  0  0  0  0  0
  -27.0357  -30.3018   24.6406 C   0  0  0  0  0  0
  -27.6076  -32.4375   25.7520 C   0  0  0  0  0  0
  -27.5605  -37.1789   24.8514 C   0  0  0  0  0  0
  -21.4384  -29.2867   22.3405 N   0  0  0  0  0  0
  -26.4334  -37.3787   23.9423 N   0  0  0  0  0  0
  -24.7278  -31.0287   22.0871 N   0  0  0  0  0  0
  -23.4207  -28.8297   23.3280 O   0  0  0  0  0  0
  -28.3183  -26.2576   20.1924 O   0  0  0  0  0  0
  -26.5667  -34.8940   22.4713 O   0  0  0  0  0  0
  -23.5603  -32.1406   23.6970 O   0  0  0  0  0  0
  -31.3894  -18.0171   20.1798 C   0  0  0  0  0  0
  -30.2694  -17.3190   20.6246 C   0  0  0  0  0  0
  -29.8432  -19.5801   20.5399 C   0  0  0  0  0  0
  -27.5411  -23.3136   21.4498 C   0  0  0  0  0  0
  -28.3650  -23.4752   20.3991 C   0  0  0  0  0  0
  -27.3842  -21.9763   22.1531 C   0  0  0  0  0  0
  -29.1938  -22.1680   19.9525 C   0  0  0  0  0  0
  -27.6714  -20.7600   21.2312 C   0  0  0  0  0  0
  -28.4212  -24.8682   19.5669 C   0  0  0  0  0  0
  -31.1104  -19.4098   20.1395 N   0  0  0  0  0  0
  -29.0084  -20.7880   20.6100 N   0  0  0  0  0  0
  -29.9776  -15.9499   20.8353 N   0  0  0  0  0  0
  -29.2980  -18.3341   20.8527 O   0  0  0  0  0  0
  -31.5196  -12.6295   19.2523 H   0  0  0  0  0  0
  -30.4398  -11.5279   20.0338 H   0  0  0  0  0  0
  -29.8594  -11.8442   17.5758 H   0  0  0  0  0  0
  -29.6657  -13.5622   17.8428 H   0  0  0  0  0  0
  -27.9904  -11.3317   19.0281 H   0  0  0  0  0  0
  -27.4068  -12.5399   17.8913 H   0  0  0  0  0  0
  -27.6762  -14.3084   19.5932 H   0  0  0  0  0  0
  -28.7718  -12.1547   21.4462 H   0  0  0  0  0  0
  -28.4720  -13.7991   21.9299 H   0  0  0  0  0  0
  -25.2720   -9.5761   22.4773 H   0  0  0  0  0  0
  -23.9957   -7.4726   22.7472 H   0  0  0  0  0  0
  -21.0822   -8.8826   19.8946 H   0  0  0  0  0  0
  -22.3651  -10.9736   19.6154 H   0  0  0  0  0  0
  -21.2032   -7.6134   23.9679 H   0  0  0  0  0  0
  -21.1459   -6.0497   25.9032 H   0  0  0  0  0  0
  -22.0614   -2.7600   23.2808 H   0  0  0  0  0  0
  -22.3810  -11.9947   22.4880 H   0  0  0  0  0  0
  -21.0962  -13.1372   22.2571 H   0  0  0  0  0  0
  -24.6390  -15.8621   20.3776 H   0  0  0  0  0  0
  -26.2393  -15.5763   19.9356 H   0  0  0  0  0  0
  -26.7310  -32.5261   23.1118 H   0  0  0  0  0  0
  -25.0134  -33.9560   25.0417 H   0  0  0  0  0  0
  -22.7544  -31.2761   21.3757 H   0  0  0  0  0  0
  -23.3787  -35.9541   23.3388 H   0  0  0  0  0  0
  -24.3547  -36.8800   22.2065 H   0  0  0  0  0  0
  -23.7114  -37.6423   23.6599 H   0  0  0  0  0  0
  -26.2292  -31.4422   20.6178 H   0  0  0  0  0  0
  -26.8861  -30.7258   22.0400 H   0  0  0  0  0  0
  -28.1609  -28.7905   21.1483 H   0  0  0  0  0  0
  -25.9167  -25.8150   19.0153 H   0  0  0  0  0  0
  -23.9643  -27.2689   19.0036 H   0  0  0  0  0  0
  -23.7822  -30.5498   19.3913 H   0  0  0  0  0  0
  -22.8007  -29.1908   19.8634 H   0  0  0  0  0  0
  -25.1278  -36.2018   25.0800 H   0  0  0  0  0  0
  -21.0094  -28.3054   24.1187 H   0  0  0  0  0  0
  -20.5821  -26.2152   23.3162 H   0  0  0  0  0  0
  -21.6791  -26.7623   22.0925 H   0  0  0  0  0  0
  -19.6997  -25.6408   21.0662 H   0  0  0  0  0  0
  -19.6500  -27.3390   20.6521 H   0  0  0  0  0  0
  -17.4205  -26.6424   21.4066 H   0  0  0  0  0  0
  -18.0785  -25.9910   22.8935 H   0  0  0  0  0  0
  -19.7986  -30.7393   24.1910 H   0  0  0  0  0  0
  -17.5195  -31.6133   24.5204 H   0  0  0  0  0  0
  -15.5450  -30.2837   23.7933 H   0  0  0  0  0  0
  -15.8826  -28.0633   22.7031 H   0  0  0  0  0  0
  -24.5872  -30.7025   25.7718 H   0  0  0  0  0  0
  -24.8814  -32.2762   26.5063 H   0  0  0  0  0  0
  -25.7954  -30.8705   27.0245 H   0  0  0  0  0  0
  -26.2968  -29.6750   24.1397 H   0  0  0  0  0  0
  -27.3972  -29.7278   25.4975 H   0  0  0  0  0  0
  -27.8914  -30.4303   23.9767 H   0  0  0  0  0  0
  -27.2747  -33.3717   26.2089 H   0  0  0  0  0  0
  -28.3802  -32.6920   25.0227 H   0  0  0  0  0  0
  -28.0901  -31.8562   26.5397 H   0  0  0  0  0  0
  -28.2685  -38.0023   24.7558 H   0  0  0  0  0  0
  -28.1021  -36.2577   24.6371 H   0  0  0  0  0  0
  -27.2334  -37.1510   25.8912 H   0  0  0  0  0  0
  -20.9896  -29.7778   21.5762 H   0  0  0  0  0  0
  -26.0272  -38.2896   24.1335 H   0  0  0  0  0  0
  -32.3633  -17.6255   19.8823 H   0  0  0  0  0  0
  -26.9483  -24.1362   21.8112 H   0  0  0  0  0  0
  -26.3789  -21.8961   22.5685 H   0  0  0  0  0  0
  -28.0804  -21.9708   22.9948 H   0  0  0  0  0  0
  -30.2527  -22.4178   20.0625 H   0  0  0  0  0  0
  -29.0045  -22.0427   18.8864 H   0  0  0  0  0  0
  -26.9254  -20.6737   20.4360 H   0  0  0  0  0  0
  -27.5559  -19.8456   21.8229 H   0  0  0  0  0  0
  -29.4251  -24.8589   19.1422 H   0  0  0  0  0  0
  -27.7907  -24.7709   18.6832 H   0  0  0  0  0  0
  -29.0578  -15.7753   21.2075 H   0  0  0  0  0  0
  1 25  1  0  0  0
  1 30  2  0  0  0
  1 82  1  0  0  0
  2  3  1  0  0  0
  2 25  1  0  0  0
  2 84  1  0  0  0
  2 85  1  0  0  0
  3  4  1  0  0  0
  3 86  1  0  0  0
  3 87  1  0  0  0
  4  5  1  0  0  0
  4 88  1  0  0  0
  4 89  1  0  0  0
  5  6  1  0  0  0
  5 26  1  0  0  0
  5 90  1  0  0  0
  6 25  1  0  0  0
  6 91  1  0  0  0
  6 92  1  0  0  0
  7  8  2  0  0  0
  7 26  1  0  0  0
  7 29  1  0  0  0
  8  9  1  0  0  0
  8 22  1  0  0  0
  9 10  1  0  0  0
  9 27  2  0  0  0
 10 11  2  0  0  0
 10 15  1  0  0  0
 11 12  1  0  0  0
 11 93  1  0  0  0
 12 13  2  0  0  0
 12 94  1  0  0  0
 13 14  1  0  0  0
 13 31  1  0  0  0
 14 15  2  0  0  0
 14 95  1  0  0  0
 15 96  1  0  0  0
 16 17  2  0  0  0
 16 21  1  0  0  0
 16 31  1  0  0  0
 17 18  1  0  0  0
 17 97  1  0  0  0
 18 19  2  0  0  0
 18 98  1  0  0  0
 19 20  1  0  0  0
 19 24  1  0  0  0
 20 21  2  0  0  0
 20 99  1  0  0  0
 21 23  1  0  0  0
 22 28  1  0  0  0
 22 32  2  0  0  0
 26 27  1  0  0  0
 28100  1  0  0  0
 28101  1  0  0  0
 29102  1  0  0  0
 29103  1  0  0  0
 33 34  1  0  0  0
 33 66  1  0  0  0
 33 70  2  0  0  0
 34 36  1  0  0  0
 34 59  1  0  0  0
 34104  1  0  0  0
 35 44  2  0  0  0
 35 45  1  0  0  0
 35 68  1  0  0  0
 36 56  1  0  0  0
 36105  1  0  0  0
 37 39  1  0  0  0
 37 47  1  0  0  0
 37 66  1  0  0  0
 37106  1  0  0  0
 38 43  2  0  0  0
 38 46  1  0  0  0
 38 47  1  0  0  0
 39 64  1  0  0  0
 39 67  2  0  0  0
 40 52  1  0  0  0
 40 53  2  0  0  0
 40 58  1  0  0  0
 41107  1  0  0  0
 41108  1  0  0  0
 41109  1  0  0  0
 41 48  1  0  0  0
 42 43  1  0  0  0
 42 66  1  0  0  0
 42110  1  0  0  0
 42111  1  0  0  0
 43 44  1  0  0  0
 44112  1  0  0  0
 45 46  2  0  0  0
 45113  1  0  0  0
 46114  1  0  0  0
 47115  1  0  0  0
 47116  1  0  0  0
 48 56  1  0  0  0
 48 65  1  0  0  0
 48117  1  0  0  0
 49 50  1  0  0  0
 49 53  1  0  0  0
 49 64  1  0  0  0
 49118  1  0  0  0
 50 51  1  0  0  0
 50119  1  0  0  0
 50120  1  0  0  0
 51 52  1  0  0  0
 51121  1  0  0  0
 51122  1  0  0  0
 52123  1  0  0  0
 52124  1  0  0  0
 53 54  1  0  0  0
 54 55  2  0  0  0
 54125  1  0  0  0
 55 57  1  0  0  0
 55126  1  0  0  0
 56 69  2  0  0  0
 57 58  2  0  0  0
 57127  1  0  0  0
 58128  1  0  0  0
 59 60  1  0  0  0
 59 61  1  0  0  0
 59 62  1  0  0  0
 60129  1  0  0  0
 60130  1  0  0  0
 60131  1  0  0  0
 61132  1  0  0  0
 61133  1  0  0  0
 61134  1  0  0  0
 62135  1  0  0  0
 62136  1  0  0  0
 62137  1  0  0  0
 63 65  1  0  0  0
 63138  1  0  0  0
 63139  1  0  0  0
 63140  1  0  0  0
 64141  1  0  0  0
 65142  1  0  0  0
 68 79  1  0  0  0
 71 72  2  0  0  0
 71 80  1  0  0  0
 71143  1  0  0  0
 72 82  1  0  0  0
 72 83  1  0  0  0
 73 80  2  0  0  0
 73 81  1  0  0  0
 73 83  1  0  0  0
 74 75  2  0  0  0
 74 76  1  0  0  0
 74144  1  0  0  0
 75 77  1  0  0  0
 75 79  1  0  0  0
 76 78  1  0  0  0
 76145  1  0  0  0
 76146  1  0  0  0
 77 81  1  0  0  0
 77147  1  0  0  0
 77148  1  0  0  0
 78 81  1  0  0  0
 78149  1  0  0  0
 78150  1  0  0  0
 79151  1  0  0  0
 79152  1  0  0  0
 82153  1  0  0  0
M  ISO  4   1 100  68 101  79 101  82 100
M  END
> <chiral flag>
0

> <version>
0

> <s_m_source_file>
/data/baiqing/PycharmProjects/Reinvent-master-3.2/result/LINK_invent/BTK/process_docking_weight1_custom_product_contain_oxygen_bond_distance_aromatic_linkinvent_7_9_3/rearranged_h_0157.sdf

> <i_m_source_file_index>
29

> <r_mmod_Potential_Energy-OPLS-2005>
202.590179443359

> <r_mmod_Stretch_Energy-OPLS-2005>
161.896194458008

> <r_mmod_Bend_Energy-OPLS-2005>
211.318420410156

> <r_mmod_Torsional_Energy-OPLS-2005>
199.444839477539

> <r_mmod_Improper_Torsional_Energy-OPLS-2005>
5.97067880630493

> <r_mmod_Van_der_Waal_Energy-OPLS-2005>
118.911567687988

> <r_mmod_Electrostatic_Energy-OPLS-2005>
-392.524963378906

> <r_mmod_Solvation_Energy-OPLS-2005>
-233.552627563477

> <b_mmod_Minimization_Converged-OPLS-2005>
0

> <r_mmod_RMS_Derivative-OPLS-2005>
13.5918760299683

$$$$
29
                    3D
 Structure written by MMmdl.
156164  0  0  1  0            999 V2000
  -30.6369  -14.7279   20.4754 C   0  0  0  0  0  0
  -30.4383  -12.4468   19.4941 C   0  0  0  0  0  0
  -29.5222  -12.5147   18.2514 C   0  0  0  0  0  0
  -28.0450  -12.3461   18.6515 C   0  0  0  0  0  0
  -27.6491  -13.2351   19.8583 C   0  0  2  0  0  0
  -28.6899  -13.1650   20.9983 C   0  0  0  0  0  0
  -25.2538  -13.8206   20.5676 C   0  0  0  0  0  0
  -24.1828  -13.0447   20.9191 C   0  0  0  0  0  0
  -24.6419  -11.6929   20.8735 C   0  0  0  0  0  0
  -23.9087  -10.4306   21.0405 C   0  0  0  0  0  0
  -24.3627   -9.4220   21.9184 C   0  0  0  0  0  0
  -23.6299   -8.2252   22.0764 C   0  0  0  0  0  0
  -22.4286   -8.0278   21.3538 C   0  0  0  0  0  0
  -21.9924   -9.0260   20.4643 C   0  0  0  0  0  0
  -22.7268  -10.2136   20.3052 C   0  0  0  0  0  0
  -21.6863   -6.0728   22.5288 C   0  0  0  0  0  0
  -21.4008   -6.5634   23.8214 C   0  0  0  0  0  0
  -21.3651   -5.6794   24.9180 C   0  0  0  0  0  0
  -21.6061   -4.3059   24.7244 C   0  0  0  0  0  0
  -21.8815   -3.8140   23.4364 C   0  0  0  0  0  0
  -21.9192   -4.6955   22.3413 C   0  0  0  0  0  0
  -22.7847  -13.5229   21.1837 C   0  0  0  0  0  0
  -22.1667   -4.2138   21.0991 F   0  0  0  0  0  0
  -21.5623   -3.4548   25.7749 F   0  0  0  0  0  0
  -30.0004  -13.5077   20.4322 N   0  0  0  0  0  0
  -26.2981  -12.9426   20.3308 N   0  0  0  0  0  0
  -25.9352  -11.6565   20.5762 N   0  0  0  0  0  0
  -22.0484  -12.8206   22.0385 N   0  0  0  0  0  0
  -25.4190  -15.1930   20.4078 N   0  0  0  0  0  0
  -31.8105  -14.8151   20.1023 O   0  0  0  0  0  0
  -21.6636   -6.8875   21.4249 O   0  0  0  0  0  0
  -22.3534  -14.5537   20.6700 O   0  0  0  0  0  0
  -24.6305  -31.8518   23.1990 C   0  0  0  0  0  0
  -25.9134  -32.4690   23.8320 C   0  0  1  0  0  0
  -27.2150  -27.2594   20.1435 C   0  0  0  0  0  0
  -25.5946  -33.8511   24.2216 N   0  0  0  0  0  0
  -23.4296  -30.4677   21.5433 C   0  0  2  0  0  0
  -24.8808  -28.9311   20.0982 C   0  0  0  0  0  0
  -22.7524  -29.4500   22.4928 C   0  0  0  0  0  0
  -18.0281  -28.1357   22.8457 C   0  0  0  0  0  0
  -24.1500  -36.7259   23.2644 C   0  0  0  0  0  0
  -25.9764  -30.7642   21.3860 C   0  0  0  0  0  0
  -26.0503  -29.3927   20.7178 C   0  0  0  0  0  0
  -27.2185  -28.5699   20.7322 C   0  0  0  0  0  0
  -26.0434  -26.8921   19.4428 C   0  0  0  0  0  0
  -24.8846  -27.6889   19.4451 C   0  0  0  0  0  0
  -23.6487  -29.8124   20.1559 C   0  0  0  0  0  0
  -25.4114  -36.3025   24.0331 C   0  0  1  0  0  0
  -20.5886  -28.3646   23.1300 C   0  0  2  0  0  0
  -20.6781  -26.9362   22.5425 C   0  0  0  0  0  0
  -19.5746  -26.6350   21.5226 C   0  0  0  0  0  0
  -18.1908  -26.7891   22.1622 C   0  0  0  0  0  0
  -19.1531  -28.8822   23.2854 C   0  0  0  0  0  0
  -18.9470  -30.1438   23.8838 C   0  0  0  0  0  0
  -17.6465  -30.6564   24.0532 C   0  0  0  0  0  0
  -25.9075  -34.9409   23.5058 C   0  0  0  0  0  0
  -16.5348  -29.9044   23.6355 C   0  0  0  0  0  0
  -16.7270  -28.6483   23.0327 C   0  0  0  0  0  0
  -26.4539  -31.6531   25.0708 C   0  0  0  0  0  0
  -25.3773  -31.3728   26.1426 C   0  0  0  0  0  0
  -27.0392  -30.2930   24.6206 C   0  0  0  0  0  0
  -27.6058  -32.4322   25.7493 C   0  0  0  0  0  0
  -27.5567  -37.1759   24.8466 C   0  0  0  0  0  0
  -21.4221  -29.2981   22.3700 N   0  0  0  0  0  0
  -26.4269  -37.3732   23.9431 N   0  0  0  0  0  0
  -24.6973  -31.0468   22.0987 N   0  0  0  0  0  0
  -23.4219  -28.7999   23.2983 O   0  0  0  0  0  0
  -28.2827  -26.3408   20.2850 O   0  0  0  0  0  0
  -26.5629  -34.8896   22.4610 O   0  0  0  0  0  0
  -23.5452  -32.1379   23.7260 O   0  0  0  0  0  0
  -29.6112  -18.4809   20.9495 C   0  0  0  0  0  0
  -30.4370  -19.9011   19.1462 C   0  0  0  0  0  0
  -30.7140  -17.4663   19.0313 C   0  0  0  0  0  0
  -29.7789  -19.8220   20.3918 C   0  0  0  0  0  0
  -30.0894  -17.2691   20.2881 C   0  0  0  0  0  0
  -30.8845  -18.7493   18.4746 C   0  0  0  0  0  0
  -29.4117  -21.1640   21.0399 C   0  0  0  0  0  0
  -26.8605  -24.5027   21.2644 C   0  0  0  0  0  0
  -29.2211  -23.8371   20.7267 C   0  0  0  0  0  0
  -28.0287  -24.8451   20.3098 C   0  0  2  0  0  0
  -29.4314  -21.2485   22.3682 N   0  0  0  0  0  0
  -29.9104  -15.8720   20.7841 N   0  0  0  0  0  0
  -29.1276  -22.3372   20.3498 N   0  3  0  0  0  0
  -31.4928  -18.8793   17.2701 F   0  0  0  0  0  0
  -31.4808  -12.5607   19.1948 H   0  0  0  0  0  0
  -30.3721  -11.4695   19.9734 H   0  0  0  0  0  0
  -29.8053  -11.7458   17.5316 H   0  0  0  0  0  0
  -29.6569  -13.4726   17.7477 H   0  0  0  0  0  0
  -27.8871  -11.2975   18.9012 H   0  0  0  0  0  0
  -27.3969  -12.5547   17.7993 H   0  0  0  0  0  0
  -27.6462  -14.2597   19.4855 H   0  0  0  0  0  0
  -28.7116  -12.1696   21.4421 H   0  0  0  0  0  0
  -28.4221  -13.8464   21.8057 H   0  0  0  0  0  0
  -25.2768   -9.5696   22.4776 H   0  0  0  0  0  0
  -24.0003   -7.4646   22.7497 H   0  0  0  0  0  0
  -21.0853   -8.8811   19.8943 H   0  0  0  0  0  0
  -22.3754  -10.9677   19.6165 H   0  0  0  0  0  0
  -21.1998   -7.6140   23.9725 H   0  0  0  0  0  0
  -21.1474   -6.0512   25.9078 H   0  0  0  0  0  0
  -22.0595   -2.7606   23.2882 H   0  0  0  0  0  0
  -22.4081  -11.9844   22.4750 H   0  0  0  0  0  0
  -21.1107  -13.1236   22.2580 H   0  0  0  0  0  0
  -24.6417  -15.8407   20.4807 H   0  0  0  0  0  0
  -26.2641  -15.6331   20.0661 H   0  0  0  0  0  0
  -26.7180  -32.5358   23.1054 H   0  0  0  0  0  0
  -25.0207  -33.9657   25.0425 H   0  0  0  0  0  0
  -22.7268  -31.2915   21.3975 H   0  0  0  0  0  0
  -23.3764  -35.9592   23.3294 H   0  0  0  0  0  0
  -24.3610  -36.8890   22.2062 H   0  0  0  0  0  0
  -23.7249  -37.6451   23.6688 H   0  0  0  0  0  0
  -26.1246  -31.5316   20.6254 H   0  0  0  0  0  0
  -26.8477  -30.8033   22.0281 H   0  0  0  0  0  0
  -28.1037  -28.9018   21.2566 H   0  0  0  0  0  0
  -25.9917  -25.9447   18.9257 H   0  0  0  0  0  0
  -23.9941  -27.3369   18.9430 H   0  0  0  0  0  0
  -23.7695  -30.5953   19.4050 H   0  0  0  0  0  0
  -22.7696  -29.2418   19.8564 H   0  0  0  0  0  0
  -25.1293  -36.1885   25.0818 H   0  0  0  0  0  0
  -20.9946  -28.3195   24.1433 H   0  0  0  0  0  0
  -20.5729  -26.2222   23.3615 H   0  0  0  0  0  0
  -21.6631  -26.7408   22.1139 H   0  0  0  0  0  0
  -19.6942  -25.6279   21.1216 H   0  0  0  0  0  0
  -19.6695  -27.3207   20.6790 H   0  0  0  0  0  0
  -17.4196  -26.6673   21.3995 H   0  0  0  0  0  0
  -18.0220  -26.0040   22.9017 H   0  0  0  0  0  0
  -19.7973  -30.7245   24.2152 H   0  0  0  0  0  0
  -17.5045  -31.6244   24.5131 H   0  0  0  0  0  0
  -15.5344  -30.2896   23.7761 H   0  0  0  0  0  0
  -15.8681  -28.0814   22.7010 H   0  0  0  0  0  0
  -24.5998  -30.6977   25.7822 H   0  0  0  0  0  0
  -24.8891  -32.2910   26.4713 H   0  0  0  0  0  0
  -25.8090  -30.9063   27.0280 H   0  0  0  0  0  0
  -26.2968  -29.6641   24.1250 H   0  0  0  0  0  0
  -27.4117  -29.7223   25.4724 H   0  0  0  0  0  0
  -27.8844  -30.4188   23.9428 H   0  0  0  0  0  0
  -27.2627  -33.3704   26.1895 H   0  0  0  0  0  0
  -28.3963  -32.6723   25.0366 H   0  0  0  0  0  0
  -28.0603  -31.8548   26.5571 H   0  0  0  0  0  0
  -28.2531  -38.0095   24.7495 H   0  0  0  0  0  0
  -28.1101  -36.2604   24.6301 H   0  0  0  0  0  0
  -27.2287  -37.1402   25.8867 H   0  0  0  0  0  0
  -20.9420  -29.8707   21.6912 H   0  0  0  0  0  0
  -26.0162  -38.2813   24.1424 H   0  0  0  0  0  0
  -29.1336  -18.3826   21.9146 H   0  0  0  0  0  0
  -30.6277  -20.8576   18.6871 H   0  0  0  0  0  0
  -31.0685  -16.6320   18.4460 H   0  0  0  0  0  0
  -26.8024  -23.4289   21.4374 H   0  0  0  0  0  0
  -25.8856  -24.7899   20.8771 H   0  0  0  0  0  0
  -26.9886  -24.9854   22.2338 H   0  0  0  0  0  0
  -29.4065  -23.9303   21.7982 H   0  0  0  0  0  0
  -30.1396  -24.2067   20.2669 H   0  0  0  0  0  0
  -27.7458  -24.5641   19.2952 H   0  0  0  0  0  0
  -29.7487  -20.4646   22.9163 H   0  0  0  0  0  0
  -29.0045  -22.0202   22.8524 H   0  0  0  0  0  0
  -29.0538  -15.7002   21.2889 H   0  0  0  0  0  0
  -28.9632  -22.1918   19.3620 H   0  0  0  0  0  0
  1 25  1  0  0  0
  1 30  2  0  0  0
  1 82  1  0  0  0
  2  3  1  0  0  0
  2 25  1  0  0  0
  2 85  1  0  0  0
  2 86  1  0  0  0
  3  4  1  0  0  0
  3 87  1  0  0  0
  3 88  1  0  0  0
  4  5  1  0  0  0
  4 89  1  0  0  0
  4 90  1  0  0  0
  5  6  1  0  0  0
  5 26  1  0  0  0
  5 91  1  0  0  0
  6 25  1  0  0  0
  6 92  1  0  0  0
  6 93  1  0  0  0
  7  8  2  0  0  0
  7 26  1  0  0  0
  7 29  1  0  0  0
  8  9  1  0  0  0
  8 22  1  0  0  0
  9 10  1  0  0  0
  9 27  2  0  0  0
 10 11  2  0  0  0
 10 15  1  0  0  0
 11 12  1  0  0  0
 11 94  1  0  0  0
 12 13  2  0  0  0
 12 95  1  0  0  0
 13 14  1  0  0  0
 13 31  1  0  0  0
 14 15  2  0  0  0
 14 96  1  0  0  0
 15 97  1  0  0  0
 16 17  2  0  0  0
 16 21  1  0  0  0
 16 31  1  0  0  0
 17 18  1  0  0  0
 17 98  1  0  0  0
 18 19  2  0  0  0
 18 99  1  0  0  0
 19 20  1  0  0  0
 19 24  1  0  0  0
 20 21  2  0  0  0
 20100  1  0  0  0
 21 23  1  0  0  0
 22 28  1  0  0  0
 22 32  2  0  0  0
 26 27  1  0  0  0
 28101  1  0  0  0
 28102  1  0  0  0
 29103  1  0  0  0
 29104  1  0  0  0
 33 34  1  0  0  0
 33 66  1  0  0  0
 33 70  2  0  0  0
 34 36  1  0  0  0
 34 59  1  0  0  0
 34105  1  0  0  0
 35 44  2  0  0  0
 35 45  1  0  0  0
 35 68  1  0  0  0
 36 56  1  0  0  0
 36106  1  0  0  0
 37 39  1  0  0  0
 37 47  1  0  0  0
 37 66  1  0  0  0
 37107  1  0  0  0
 38 43  2  0  0  0
 38 46  1  0  0  0
 38 47  1  0  0  0
 39 64  1  0  0  0
 39 67  2  0  0  0
 40 52  1  0  0  0
 40 53  2  0  0  0
 40 58  1  0  0  0
 41108  1  0  0  0
 41109  1  0  0  0
 41110  1  0  0  0
 41 48  1  0  0  0
 42 43  1  0  0  0
 42 66  1  0  0  0
 42111  1  0  0  0
 42112  1  0  0  0
 43 44  1  0  0  0
 44113  1  0  0  0
 45 46  2  0  0  0
 45114  1  0  0  0
 46115  1  0  0  0
 47116  1  0  0  0
 47117  1  0  0  0
 48 56  1  0  0  0
 48 65  1  0  0  0
 48118  1  0  0  0
 49 50  1  0  0  0
 49 53  1  0  0  0
 49 64  1  0  0  0
 49119  1  0  0  0
 50 51  1  0  0  0
 50120  1  0  0  0
 50121  1  0  0  0
 51 52  1  0  0  0
 51122  1  0  0  0
 51123  1  0  0  0
 52124  1  0  0  0
 52125  1  0  0  0
 53 54  1  0  0  0
 54 55  2  0  0  0
 54126  1  0  0  0
 55 57  1  0  0  0
 55127  1  0  0  0
 56 69  2  0  0  0
 57 58  2  0  0  0
 57128  1  0  0  0
 58129  1  0  0  0
 59 60  1  0  0  0
 59 61  1  0  0  0
 59 62  1  0  0  0
 60130  1  0  0  0
 60131  1  0  0  0
 60132  1  0  0  0
 61133  1  0  0  0
 61134  1  0  0  0
 61135  1  0  0  0
 62136  1  0  0  0
 62137  1  0  0  0
 62138  1  0  0  0
 63 65  1  0  0  0
 63139  1  0  0  0
 63140  1  0  0  0
 63141  1  0  0  0
 64142  1  0  0  0
 65143  1  0  0  0
 68 80  1  0  0  0
 71 74  2  0  0  0
 71 75  1  0  0  0
 71144  1  0  0  0
 72 74  1  0  0  0
 72 76  2  0  0  0
 72145  1  0  0  0
 73 75  2  0  0  0
 73 76  1  0  0  0
 73146  1  0  0  0
 74 77  1  0  0  0
 75 82  1  0  0  0
 76 84  1  0  0  0
 77 81  1  0  0  0
 77 83  2  0  0  0
 78147  1  0  0  0
 78148  1  0  0  0
 78149  1  0  0  0
 78 80  1  0  0  0
 79 80  1  0  0  0
 79 83  1  0  0  0
 79150  1  0  0  0
 79151  1  0  0  0
 80152  1  0  0  0
 81153  1  0  0  0
 81154  1  0  0  0
 82155  1  0  0  0
 83156  1  0  0  0
M  CHG  1  83   1
M  ISO  4   1 100  68 101  80 101  82 100
M  END
> <chiral flag>
0

> <version>
0

> <s_m_source_file>
/data/baiqing/PycharmProjects/Reinvent-master-3.2/result/LINK_invent/BTK/process_docking_weight1_custom_product_contain_oxygen_bond_distance_aromatic_linkinvent_7_9_3/rearranged_h_0157.sdf

> <i_m_source_file_index>
30

> <r_mmod_Potential_Energy-OPLS-2005>
-133.427307128906

> <r_mmod_Stretch_Energy-OPLS-2005>
126.339988708496

> <r_mmod_Bend_Energy-OPLS-2005>
156.7275390625

> <r_mmod_Torsional_Energy-OPLS-2005>
244.301345825195

> <r_mmod_Improper_Torsional_Energy-OPLS-2005>
5.21182727813721

> <r_mmod_Van_der_Waal_Energy-OPLS-2005>
146.346832275391

> <r_mmod_Electrostatic_Energy-OPLS-2005>
-469.696594238281

> <r_mmod_Solvation_Energy-OPLS-2005>
-431.029724121094

> <b_mmod_Minimization_Converged-OPLS-2005>
0

> <r_mmod_RMS_Derivative-OPLS-2005>
4.6534423828125

$$$$
30
                    3D
 Structure written by MMmdl.
166175  0  0  1  0            999 V2000
  -30.7116  -14.4481   20.5419 C   0  0  0  0  0  0
  -30.4197  -12.2891   19.4142 C   0  0  0  0  0  0
  -29.4890  -12.4827   18.1977 C   0  0  0  0  0  0
  -28.0075  -12.3596   18.6099 C   0  0  0  0  0  0
  -27.6548  -13.2017   19.8652 C   0  0  2  0  0  0
  -28.7012  -12.9836   20.9809 C   0  0  0  0  0  0
  -25.2567  -13.8143   20.5677 C   0  0  0  0  0  0
  -24.1818  -13.0427   20.9190 C   0  0  0  0  0  0
  -24.6369  -11.6892   20.8735 C   0  0  0  0  0  0
  -23.9032  -10.4280   21.0401 C   0  0  0  0  0  0
  -24.3608   -9.4193   21.9172 C   0  0  0  0  0  0
  -23.6297   -8.2226   22.0737 C   0  0  0  0  0  0
  -22.4270   -8.0261   21.3539 C   0  0  0  0  0  0
  -21.9901   -9.0220   20.4629 C   0  0  0  0  0  0
  -22.7216  -10.2111   20.3039 C   0  0  0  0  0  0
  -21.6850   -6.0729   22.5280 C   0  0  0  0  0  0
  -21.4005   -6.5635   23.8214 C   0  0  0  0  0  0
  -21.3655   -5.6785   24.9171 C   0  0  0  0  0  0
  -21.6063   -4.3052   24.7222 C   0  0  0  0  0  0
  -21.8817   -3.8139   23.4338 C   0  0  0  0  0  0
  -21.9191   -4.6960   22.3401 C   0  0  0  0  0  0
  -22.7846  -13.5224   21.1853 C   0  0  0  0  0  0
  -22.1659   -4.2148   21.0978 F   0  0  0  0  0  0
  -21.5633   -3.4537   25.7731 F   0  0  0  0  0  0
  -30.0283  -13.2819   20.4229 N   0  0  0  0  0  0
  -26.2986  -12.9306   20.3337 N   0  0  0  0  0  0
  -25.9296  -11.6474   20.5767 N   0  0  0  0  0  0
  -22.0491  -12.8215   22.0411 N   0  0  0  0  0  0
  -25.4322  -15.1853   20.4057 N   0  0  0  0  0  0
  -31.8947  -14.5534   20.1954 O   0  0  0  0  0  0
  -21.6639   -6.8863   21.4239 O   0  0  0  0  0  0
  -22.3527  -14.5533   20.6696 O   0  0  0  0  0  0
  -24.6117  -31.8706   23.2106 C   0  0  0  0  0  0
  -25.9024  -32.4835   23.8403 C   0  0  1  0  0  0
  -27.2436  -27.4862   20.0871 C   0  0  0  0  0  0
  -25.5879  -33.8625   24.2341 N   0  0  0  0  0  0
  -23.3984  -30.4923   21.5496 C   0  0  2  0  0  0
  -24.8485  -28.9614   20.1149 C   0  0  0  0  0  0
  -22.7392  -29.4678   22.4998 C   0  0  0  0  0  0
  -18.0275  -28.1380   22.8493 C   0  0  0  0  0  0
  -24.1491  -36.7333   23.2636 C   0  0  0  0  0  0
  -25.9213  -30.8537   21.3551 C   0  0  0  0  0  0
  -26.0034  -29.4895   20.7066 C   0  0  0  0  0  0
  -27.2076  -28.7579   20.6890 C   0  0  0  0  0  0
  -26.0761  -26.9554   19.5002 C   0  0  0  0  0  0
  -24.8775  -27.6928   19.5078 C   0  0  0  0  0  0
  -23.6056  -29.8194   20.1647 C   0  0  0  0  0  0
  -25.4110  -36.3123   24.0338 C   0  0  1  0  0  0
  -20.5861  -28.3664   23.1314 C   0  0  2  0  0  0
  -20.6767  -26.9405   22.5411 C   0  0  0  0  0  0
  -19.5739  -26.6389   21.5211 C   0  0  0  0  0  0
  -18.1916  -26.7931   22.1620 C   0  0  0  0  0  0
  -19.1519  -28.8839   23.2904 C   0  0  0  0  0  0
  -18.9456  -30.1446   23.8911 C   0  0  0  0  0  0
  -17.6453  -30.6587   24.0574 C   0  0  0  0  0  0
  -25.9023  -34.9479   23.5136 C   0  0  0  0  0  0
  -16.5347  -29.9099   23.6318 C   0  0  0  0  0  0
  -16.7260  -28.6521   23.0337 C   0  0  0  0  0  0
  -26.4458  -31.6597   25.0713 C   0  0  0  0  0  0
  -25.3738  -31.3703   26.1473 C   0  0  0  0  0  0
  -27.0271  -30.3044   24.6048 C   0  0  0  0  0  0
  -27.6043  -32.4301   25.7480 C   0  0  0  0  0  0
  -27.5586  -37.1818   24.8463 C   0  0  0  0  0  0
  -21.4128  -29.3030   22.3731 N   0  0  0  0  0  0
  -26.4303  -37.3803   23.9402 N   0  0  0  0  0  0
  -24.6616  -31.0851   22.0988 N   0  0  0  0  0  0
  -23.4187  -28.8221   23.3026 O   0  0  0  0  0  0
  -28.4189  -26.7842   20.0592 O   0  0  0  0  0  0
  -26.5589  -34.8918   22.4699 O   0  0  0  0  0  0
  -23.5311  -32.1432   23.7531 O   0  0  0  0  0  0
  -28.7225  -20.8810   20.6781 C   0  0  0  0  0  0
  -27.2719  -19.4903   19.3065 C   0  0  0  0  0  0
  -26.8229  -21.8785   19.5284 C   0  0  0  0  0  0
  -28.4153  -19.6142   20.1318 C   0  0  0  0  0  0
  -27.9377  -22.0080   20.3840 C   0  0  0  0  0  0
  -26.4871  -20.6179   18.9997 C   0  0  0  0  0  0
  -28.6765  -17.5086   21.5330 C   0  0  0  0  0  0
  -29.5066  -16.2318   21.8357 C   0  0  0  0  0  0
  -29.5984  -17.5766   19.1752 C   0  0  0  0  0  0
  -29.3043  -18.4074   20.4404 C   0  0  1  0  0  0
  -29.7280  -25.8254   21.7986 C   0  0  0  0  0  0
  -28.4241  -24.3818   20.1206 C   0  0  0  0  0  0
  -28.4577  -25.6773   20.9480 C   0  0  2  0  0  0
  -29.9180  -15.5468   20.6008 N   0  0  0  0  0  0
  -28.2949  -23.2180   20.9860 N   0  0  0  0  0  0
  -30.4864  -16.4771   19.5573 N   0  3  0  0  0  0
  -30.5810  -18.8077   20.9249 O   0  0  0  0  0  0
  -25.4013  -20.4852   18.2015 F   0  0  0  0  0  0
  -31.4638  -12.3851   19.1098 H   0  0  0  0  0  0
  -30.3219  -11.2816   19.8223 H   0  0  0  0  0  0
  -29.7236  -11.7460   17.4285 H   0  0  0  0  0  0
  -29.6658  -13.4586   17.7450 H   0  0  0  0  0  0
  -27.8082  -11.3052   18.8056 H   0  0  0  0  0  0
  -27.3622  -12.6403   17.7765 H   0  0  0  0  0  0
  -27.6928  -14.2480   19.5633 H   0  0  0  0  0  0
  -28.6758  -11.9487   21.3243 H   0  0  0  0  0  0
  -28.4698  -13.5848   21.8579 H   0  0  0  0  0  0
  -25.2754   -9.5684   22.4746 H   0  0  0  0  0  0
  -24.0015   -7.4616   22.7443 H   0  0  0  0  0  0
  -21.0842   -8.8722   19.8927 H   0  0  0  0  0  0
  -22.3665  -10.9647   19.6143 H   0  0  0  0  0  0
  -21.1989   -7.6140   23.9721 H   0  0  0  0  0  0
  -21.1488   -6.0508   25.9079 H   0  0  0  0  0  0
  -22.0605   -2.7602   23.2842 H   0  0  0  0  0  0
  -22.4105  -11.9887   22.4833 H   0  0  0  0  0  0
  -21.1083  -13.1201   22.2571 H   0  0  0  0  0  0
  -24.6687  -15.8443   20.5018 H   0  0  0  0  0  0
  -26.2828  -15.6115   20.0677 H   0  0  0  0  0  0
  -26.7109  -32.5573   23.1187 H   0  0  0  0  0  0
  -25.0049  -33.9801   25.0495 H   0  0  0  0  0  0
  -22.6848  -31.3070   21.4070 H   0  0  0  0  0  0
  -23.3737  -35.9680   23.3306 H   0  0  0  0  0  0
  -24.3601  -36.8939   22.2048 H   0  0  0  0  0  0
  -23.7241  -37.6540   23.6647 H   0  0  0  0  0  0
  -26.0187  -31.6168   20.5817 H   0  0  0  0  0  0
  -26.8154  -30.9165   21.9649 H   0  0  0  0  0  0
  -28.1061  -29.1646   21.1326 H   0  0  0  0  0  0
  -26.0934  -25.9837   19.0316 H   0  0  0  0  0  0
  -23.9922  -27.2823   19.0431 H   0  0  0  0  0  0
  -23.7055  -30.5903   19.3990 H   0  0  0  0  0  0
  -22.7347  -29.2294   19.8741 H   0  0  0  0  0  0
  -25.1283  -36.2002   25.0831 H   0  0  0  0  0  0
  -20.9953  -28.3227   24.1436 H   0  0  0  0  0  0
  -20.5667  -26.2271   23.3596 H   0  0  0  0  0  0
  -21.6634  -26.7453   22.1191 H   0  0  0  0  0  0
  -19.6893  -25.6303   21.1230 H   0  0  0  0  0  0
  -19.6678  -27.3213   20.6753 H   0  0  0  0  0  0
  -17.4187  -26.6688   21.4026 H   0  0  0  0  0  0
  -18.0313  -26.0077   22.9014 H   0  0  0  0  0  0
  -19.7931  -30.7265   24.2287 H   0  0  0  0  0  0
  -17.5012  -31.6267   24.5176 H   0  0  0  0  0  0
  -15.5349  -30.3009   23.7639 H   0  0  0  0  0  0
  -15.8661  -28.0853   22.7030 H   0  0  0  0  0  0
  -24.5888  -30.7085   25.7812 H   0  0  0  0  0  0
  -24.8968  -32.2865   26.4955 H   0  0  0  0  0  0
  -25.8089  -30.8835   27.0207 H   0  0  0  0  0  0
  -26.2798  -29.6821   24.1119 H   0  0  0  0  0  0
  -27.4074  -29.7259   25.4474 H   0  0  0  0  0  0
  -27.8612  -30.4366   23.9157 H   0  0  0  0  0  0
  -27.2664  -33.3580   26.2103 H   0  0  0  0  0  0
  -28.3837  -32.6889   25.0303 H   0  0  0  0  0  0
  -28.0729  -31.8398   26.5360 H   0  0  0  0  0  0
  -28.2601  -38.0119   24.7510 H   0  0  0  0  0  0
  -28.1085  -36.2644   24.6292 H   0  0  0  0  0  0
  -27.2308  -37.1478   25.8870 H   0  0  0  0  0  0
  -20.9293  -29.8753   21.6953 H   0  0  0  0  0  0
  -26.0194  -38.2885   24.1400 H   0  0  0  0  0  0
  -29.5766  -21.0030   21.3269 H   0  0  0  0  0  0
  -26.9790  -18.5378   18.8904 H   0  0  0  0  0  0
  -26.1998  -22.7271   19.2879 H   0  0  0  0  0  0
  -28.5391  -18.0800   22.4522 H   0  0  0  0  0  0
  -27.6727  -17.2111   21.2252 H   0  0  0  0  0  0
  -28.9327  -15.5792   22.4907 H   0  0  0  0  0  0
  -30.3997  -16.5046   22.4014 H   0  0  0  0  0  0
  -30.0890  -18.1879   18.4177 H   0  0  0  0  0  0
  -28.6984  -17.1638   18.7198 H   0  0  0  0  0  0
  -29.8261  -25.0088   22.5146 H   0  0  0  0  0  0
  -29.7033  -26.7583   22.3650 H   0  0  0  0  0  0
  -30.6259  -25.8387   21.1817 H   0  0  0  0  0  0
  -29.3347  -24.2912   19.5254 H   0  0  0  0  0  0
  -27.5976  -24.4255   19.4138 H   0  0  0  0  0  0
  -27.5968  -25.6874   21.6229 H   0  0  0  0  0  0
  -29.0505  -23.1450   21.6617 H   0  0  0  0  0  0
  -31.2994  -16.9152   19.9685 H   0  0  0  0  0  0
  -30.8042  -15.9277   18.7752 H   0  0  0  0  0  0
  -30.4431  -19.2946   21.7297 H   0  0  0  0  0  0
  1 25  1  0  0  0
  1 30  2  0  0  0
  1 84  1  0  0  0
  2  3  1  0  0  0
  2 25  1  0  0  0
  2 89  1  0  0  0
  2 90  1  0  0  0
  3  4  1  0  0  0
  3 91  1  0  0  0
  3 92  1  0  0  0
  4  5  1  0  0  0
  4 93  1  0  0  0
  4 94  1  0  0  0
  5  6  1  0  0  0
  5 26  1  0  0  0
  5 95  1  0  0  0
  6 25  1  0  0  0
  6 96  1  0  0  0
  6 97  1  0  0  0
  7  8  2  0  0  0
  7 26  1  0  0  0
  7 29  1  0  0  0
  8  9  1  0  0  0
  8 22  1  0  0  0
  9 10  1  0  0  0
  9 27  2  0  0  0
 10 11  2  0  0  0
 10 15  1  0  0  0
 11 12  1  0  0  0
 11 98  1  0  0  0
 12 13  2  0  0  0
 12 99  1  0  0  0
 13 14  1  0  0  0
 13 31  1  0  0  0
 14 15  2  0  0  0
 14100  1  0  0  0
 15101  1  0  0  0
 16 17  2  0  0  0
 16 21  1  0  0  0
 16 31  1  0  0  0
 17 18  1  0  0  0
 17102  1  0  0  0
 18 19  2  0  0  0
 18103  1  0  0  0
 19 20  1  0  0  0
 19 24  1  0  0  0
 20 21  2  0  0  0
 20104  1  0  0  0
 21 23  1  0  0  0
 22 28  1  0  0  0
 22 32  2  0  0  0
 26 27  1  0  0  0
 28105  1  0  0  0
 28106  1  0  0  0
 29107  1  0  0  0
 29108  1  0  0  0
 33 34  1  0  0  0
 33 66  1  0  0  0
 33 70  2  0  0  0
 34 36  1  0  0  0
 34 59  1  0  0  0
 34109  1  0  0  0
 35 44  2  0  0  0
 35 45  1  0  0  0
 35 68  1  0  0  0
 36 56  1  0  0  0
 36110  1  0  0  0
 37 39  1  0  0  0
 37 47  1  0  0  0
 37 66  1  0  0  0
 37111  1  0  0  0
 38 43  2  0  0  0
 38 46  1  0  0  0
 38 47  1  0  0  0
 39 64  1  0  0  0
 39 67  2  0  0  0
 40 52  1  0  0  0
 40 53  2  0  0  0
 40 58  1  0  0  0
 41112  1  0  0  0
 41113  1  0  0  0
 41114  1  0  0  0
 41 48  1  0  0  0
 42 43  1  0  0  0
 42 66  1  0  0  0
 42115  1  0  0  0
 42116  1  0  0  0
 43 44  1  0  0  0
 44117  1  0  0  0
 45 46  2  0  0  0
 45118  1  0  0  0
 46119  1  0  0  0
 47120  1  0  0  0
 47121  1  0  0  0
 48 56  1  0  0  0
 48 65  1  0  0  0
 48122  1  0  0  0
 49 50  1  0  0  0
 49 53  1  0  0  0
 49 64  1  0  0  0
 49123  1  0  0  0
 50 51  1  0  0  0
 50124  1  0  0  0
 50125  1  0  0  0
 51 52  1  0  0  0
 51126  1  0  0  0
 51127  1  0  0  0
 52128  1  0  0  0
 52129  1  0  0  0
 53 54  1  0  0  0
 54 55  2  0  0  0
 54130  1  0  0  0
 55 57  1  0  0  0
 55131  1  0  0  0
 56 69  2  0  0  0
 57 58  2  0  0  0
 57132  1  0  0  0
 58133  1  0  0  0
 59 60  1  0  0  0
 59 61  1  0  0  0
 59 62  1  0  0  0
 60134  1  0  0  0
 60135  1  0  0  0
 60136  1  0  0  0
 61137  1  0  0  0
 61138  1  0  0  0
 61139  1  0  0  0
 62140  1  0  0  0
 62141  1  0  0  0
 62142  1  0  0  0
 63 65  1  0  0  0
 63143  1  0  0  0
 63144  1  0  0  0
 63145  1  0  0  0
 64146  1  0  0  0
 65147  1  0  0  0
 68 83  1  0  0  0
 71 74  2  0  0  0
 71 75  1  0  0  0
 71148  1  0  0  0
 72 74  1  0  0  0
 72 76  2  0  0  0
 72149  1  0  0  0
 73 75  2  0  0  0
 73 76  1  0  0  0
 73150  1  0  0  0
 74 80  1  0  0  0
 75 85  1  0  0  0
 76 88  1  0  0  0
 77 78  1  0  0  0
 77 80  1  0  0  0
 77151  1  0  0  0
 77152  1  0  0  0
 78 84  1  0  0  0
 78153  1  0  0  0
 78154  1  0  0  0
 79 80  1  0  0  0
 79 86  1  0  0  0
 79155  1  0  0  0
 79156  1  0  0  0
 80 87  1  0  0  0
 81157  1  0  0  0
 81158  1  0  0  0
 81159  1  0  0  0
 81 83  1  0  0  0
 82 83  1  0  0  0
 82 85  1  0  0  0
 82160  1  0  0  0
 82161  1  0  0  0
 83162  1  0  0  0
 84 86  1  0  0  0
 85163  1  0  0  0
 86164  1  0  0  0
 86165  1  0  0  0
 87166  1  0  0  0
M  CHG  1  86   1
M  ISO  4   1 100  68 101  83 101  84 100
M  END
> <chiral flag>
0

> <version>
0

> <s_m_source_file>
/data/baiqing/PycharmProjects/Reinvent-master-3.2/result/LINK_invent/BTK/process_docking_weight1_custom_product_contain_oxygen_bond_distance_aromatic_linkinvent_7_9_3/rearranged_h_0157.sdf

> <i_m_source_file_index>
31

> <r_mmod_Potential_Energy-OPLS-2005>
-259.201812744141

> <r_mmod_Stretch_Energy-OPLS-2005>
34.946475982666

> <r_mmod_Bend_Energy-OPLS-2005>
92.8545761108398

> <r_mmod_Torsional_Energy-OPLS-2005>
330.045989990234

> <r_mmod_Improper_Torsional_Energy-OPLS-2005>
22.6061210632324

> <r_mmod_Van_der_Waal_Energy-OPLS-2005>
174.868713378906

> <r_mmod_Electrostatic_Energy-OPLS-2005>
-476.749145507812

> <r_mmod_Solvation_Energy-OPLS-2005>
-452.523284912109

> <b_mmod_Minimization_Converged-OPLS-2005>
0

> <r_mmod_RMS_Derivative-OPLS-2005>
2.57956027984619

$$$$
31
                    3D
 Structure written by MMmdl.
152160  0  0  1  0            999 V2000
  -30.5831  -14.7686   20.4418 C   0  0  0  0  0  0
  -30.4330  -12.4593   19.4920 C   0  0  0  0  0  0
  -29.5163  -12.5154   18.2483 C   0  0  0  0  0  0
  -28.0425  -12.3312   18.6545 C   0  0  0  0  0  0
  -27.6445  -13.2302   19.8548 C   0  0  2  0  0  0
  -28.6843  -13.1606   20.9952 C   0  0  0  0  0  0
  -25.2541  -13.8212   20.5681 C   0  0  0  0  0  0
  -24.1827  -13.0444   20.9182 C   0  0  0  0  0  0
  -24.6425  -11.6931   20.8742 C   0  0  0  0  0  0
  -23.9113  -10.4299   21.0397 C   0  0  0  0  0  0
  -24.3663   -9.4195   21.9167 C   0  0  0  0  0  0
  -23.6321   -8.2246   22.0752 C   0  0  0  0  0  0
  -22.4296   -8.0303   21.3547 C   0  0  0  0  0  0
  -21.9949   -9.0283   20.4644 C   0  0  0  0  0  0
  -22.7296  -10.2150   20.3042 C   0  0  0  0  0  0
  -21.6851   -6.0756   22.5284 C   0  0  0  0  0  0
  -21.4018   -6.5657   23.8222 C   0  0  0  0  0  0
  -21.3660   -5.6800   24.9187 C   0  0  0  0  0  0
  -21.6033   -4.3064   24.7239 C   0  0  0  0  0  0
  -21.8814   -3.8170   23.4359 C   0  0  0  0  0  0
  -21.9198   -4.6984   22.3412 C   0  0  0  0  0  0
  -22.7853  -13.5207   21.1845 C   0  0  0  0  0  0
  -22.1663   -4.2175   21.0991 F   0  0  0  0  0  0
  -21.5617   -3.4547   25.7750 F   0  0  0  0  0  0
  -29.9866  -13.5238   20.4237 N   0  0  0  0  0  0
  -26.2950  -12.9397   20.3290 N   0  0  0  0  0  0
  -25.9335  -11.6547   20.5745 N   0  0  0  0  0  0
  -22.0526  -12.8178   22.0417 N   0  0  0  0  0  0
  -25.4256  -15.1930   20.4097 N   0  0  0  0  0  0
  -31.7589  -14.8782   20.0805 O   0  0  0  0  0  0
  -21.6643   -6.8907   21.4254 O   0  0  0  0  0  0
  -22.3520  -14.5506   20.6694 O   0  0  0  0  0  0
  -24.6316  -31.8547   23.1971 C   0  0  0  0  0  0
  -25.9141  -32.4752   23.8320 C   0  0  1  0  0  0
  -27.2120  -27.2405   20.1434 C   0  0  0  0  0  0
  -25.5929  -33.8558   24.2236 N   0  0  0  0  0  0
  -23.4292  -30.4763   21.5416 C   0  0  2  0  0  0
  -24.8779  -28.9216   20.1136 C   0  0  0  0  0  0
  -22.7494  -29.4599   22.4912 C   0  0  0  0  0  0
  -18.0303  -28.1365   22.8481 C   0  0  0  0  0  0
  -24.1492  -36.7259   23.2642 C   0  0  0  0  0  0
  -25.9789  -30.7607   21.3834 C   0  0  0  0  0  0
  -26.0525  -29.3829   20.7236 C   0  0  0  0  0  0
  -27.2251  -28.5547   20.7285 C   0  0  0  0  0  0
  -26.0226  -26.8626   19.4857 C   0  0  0  0  0  0
  -24.8688  -27.6695   19.4838 C   0  0  0  0  0  0
  -23.6484  -29.8086   20.1594 C   0  0  0  0  0  0
  -25.4120  -36.3058   24.0324 C   0  0  1  0  0  0
  -20.5901  -28.3698   23.1274 C   0  0  2  0  0  0
  -20.6794  -26.9409   22.5413 C   0  0  0  0  0  0
  -19.5787  -26.6380   21.5203 C   0  0  0  0  0  0
  -18.1964  -26.7912   22.1610 C   0  0  0  0  0  0
  -19.1551  -28.8847   23.2870 C   0  0  0  0  0  0
  -18.9459  -30.1446   23.8877 C   0  0  0  0  0  0
  -17.6453  -30.6575   24.0530 C   0  0  0  0  0  0
  -25.9063  -34.9433   23.5086 C   0  0  0  0  0  0
  -16.5346  -29.9050   23.6313 C   0  0  0  0  0  0
  -16.7283  -28.6462   23.0353 C   0  0  0  0  0  0
  -26.4497  -31.6586   25.0724 C   0  0  0  0  0  0
  -25.3687  -31.3771   26.1417 C   0  0  0  0  0  0
  -27.0371  -30.2995   24.6265 C   0  0  0  0  0  0
  -27.6047  -32.4330   25.7496 C   0  0  0  0  0  0
  -27.5579  -37.1785   24.8469 C   0  0  0  0  0  0
  -21.4200  -29.3047   22.3649 N   0  0  0  0  0  0
  -26.4291  -37.3757   23.9413 N   0  0  0  0  0  0
  -24.6989  -31.0488   22.0967 N   0  0  0  0  0  0
  -23.4181  -28.8137   23.3022 O   0  0  0  0  0  0
  -28.2647  -26.2913   20.1921 O   0  0  0  0  0  0
  -26.5645  -34.8915   22.4662 O   0  0  0  0  0  0
  -23.5455  -32.1372   23.7245 O   0  0  0  0  0  0
  -29.1675  -18.4233   20.9266 C   0  0  0  0  0  0
  -30.1480  -20.1225   19.4915 C   0  0  0  0  0  0
  -30.8066  -17.7398   19.2954 C   0  0  0  0  0  0
  -29.2424  -19.8385   20.5316 C   0  0  0  0  0  0
  -29.9384  -17.3361   20.3394 C   0  0  0  0  0  0
  -30.9057  -19.0925   18.8853 C   0  0  0  0  0  0
  -28.3715  -20.9475   21.1730 C   0  0  0  0  0  0
  -28.6608  -23.5585   20.3439 C   0  0  0  0  0  0
  -27.9183  -24.9347   20.7790 C   0  0  0  0  0  0
  -29.7977  -15.8893   20.7211 N   0  0  0  0  0  0
  -28.1978  -22.3401   21.0768 N   0  0  0  0  0  0
  -27.5259  -20.4432   22.0799 N   0  3  0  0  0  0
  -29.5255  -23.5000   19.4647 O   0  0  0  0  0  0
  -31.7436  -19.4086   17.8680 F   0  0  0  0  0  0
  -31.4764  -12.5746   19.1982 H   0  0  0  0  0  0
  -30.3708  -11.4829   19.9753 H   0  0  0  0  0  0
  -29.8069  -11.7492   17.5297 H   0  0  0  0  0  0
  -29.6347  -13.4753   17.7422 H   0  0  0  0  0  0
  -27.9018  -11.2812   18.9153 H   0  0  0  0  0  0
  -27.3882  -12.5242   17.8042 H   0  0  0  0  0  0
  -27.6395  -14.2524   19.4753 H   0  0  0  0  0  0
  -28.7248  -12.1581   21.4266 H   0  0  0  0  0  0
  -28.4122  -13.8309   21.8111 H   0  0  0  0  0  0
  -25.2813   -9.5658   22.4728 H   0  0  0  0  0  0
  -24.0011   -7.4653   22.7490 H   0  0  0  0  0  0
  -21.0860   -8.8836   19.8973 H   0  0  0  0  0  0
  -22.3769  -10.9700   19.6150 H   0  0  0  0  0  0
  -21.2001   -7.6160   23.9748 H   0  0  0  0  0  0
  -21.1467   -6.0520   25.9090 H   0  0  0  0  0  0
  -22.0585   -2.7642   23.2848 H   0  0  0  0  0  0
  -22.4178  -11.9820   22.4743 H   0  0  0  0  0  0
  -21.1164  -13.1196   22.2676 H   0  0  0  0  0  0
  -24.6565  -15.8470   20.5113 H   0  0  0  0  0  0
  -26.2726  -15.6340   20.0732 H   0  0  0  0  0  0
  -26.7205  -32.5398   23.1053 H   0  0  0  0  0  0
  -25.0064  -33.9703   25.0370 H   0  0  0  0  0  0
  -22.7274  -31.2999   21.3926 H   0  0  0  0  0  0
  -23.3769  -35.9581   23.3312 H   0  0  0  0  0  0
  -24.3579  -36.8866   22.2055 H   0  0  0  0  0  0
  -23.7226  -37.6451   23.6664 H   0  0  0  0  0  0
  -26.1274  -31.5248   20.6184 H   0  0  0  0  0  0
  -26.8521  -30.8035   22.0231 H   0  0  0  0  0  0
  -28.1167  -28.8993   21.2307 H   0  0  0  0  0  0
  -25.9649  -25.9058   18.9882 H   0  0  0  0  0  0
  -23.9698  -27.3097   19.0023 H   0  0  0  0  0  0
  -23.7689  -30.5835   19.4016 H   0  0  0  0  0  0
  -22.7657  -29.2409   19.8574 H   0  0  0  0  0  0
  -25.1308  -36.1898   25.0817 H   0  0  0  0  0  0
  -21.0001  -28.3281   24.1395 H   0  0  0  0  0  0
  -20.5669  -26.2310   23.3617 H   0  0  0  0  0  0
  -21.6672  -26.7432   22.1245 H   0  0  0  0  0  0
  -19.6965  -25.6296   21.1238 H   0  0  0  0  0  0
  -19.6728  -27.3188   20.6737 H   0  0  0  0  0  0
  -17.4236  -26.6651   21.4008 H   0  0  0  0  0  0
  -18.0375  -26.0041   22.8999 H   0  0  0  0  0  0
  -19.7922  -30.7275   24.2242 H   0  0  0  0  0  0
  -17.4998  -31.6263   24.5112 H   0  0  0  0  0  0
  -15.5342  -30.2943   23.7641 H   0  0  0  0  0  0
  -15.8692  -28.0752   22.7104 H   0  0  0  0  0  0
  -24.5854  -30.7146   25.7716 H   0  0  0  0  0  0
  -24.8895  -32.2971   26.4782 H   0  0  0  0  0  0
  -25.7945  -30.8951   27.0227 H   0  0  0  0  0  0
  -26.3006  -29.6719   24.1236 H   0  0  0  0  0  0
  -27.3981  -29.7275   25.4822 H   0  0  0  0  0  0
  -27.8900  -30.4263   23.9593 H   0  0  0  0  0  0
  -27.2660  -33.3631   26.2072 H   0  0  0  0  0  0
  -28.3858  -32.6881   25.0325 H   0  0  0  0  0  0
  -28.0730  -31.8461   26.5405 H   0  0  0  0  0  0
  -28.2596  -38.0082   24.7518 H   0  0  0  0  0  0
  -28.1068  -36.2608   24.6296 H   0  0  0  0  0  0
  -27.2301  -37.1439   25.8873 H   0  0  0  0  0  0
  -20.9359  -29.8749   21.6839 H   0  0  0  0  0  0
  -26.0161  -38.2832   24.1403 H   0  0  0  0  0  0
  -28.4887  -18.1371   21.7150 H   0  0  0  0  0  0
  -30.2686  -21.1314   19.1302 H   0  0  0  0  0  0
  -31.4003  -17.0136   18.7649 H   0  0  0  0  0  0
  -28.0606  -25.0326   21.8554 H   0  0  0  0  0  0
  -26.8547  -24.7319   20.6664 H   0  0  0  0  0  0
  -28.9274  -15.6517   21.1724 H   0  0  0  0  0  0
  -27.5074  -22.5584   21.7694 H   0  0  0  0  0  0
  -27.5673  -19.4539   22.2575 H   0  0  0  0  0  0
  -26.8062  -20.9602   22.5595 H   0  0  0  0  0  0
  1 25  1  0  0  0
  1 30  2  0  0  0
  1 80  1  0  0  0
  2  3  1  0  0  0
  2 25  1  0  0  0
  2 85  1  0  0  0
  2 86  1  0  0  0
  3  4  1  0  0  0
  3 87  1  0  0  0
  3 88  1  0  0  0
  4  5  1  0  0  0
  4 89  1  0  0  0
  4 90  1  0  0  0
  5  6  1  0  0  0
  5 26  1  0  0  0
  5 91  1  0  0  0
  6 25  1  0  0  0
  6 92  1  0  0  0
  6 93  1  0  0  0
  7  8  2  0  0  0
  7 26  1  0  0  0
  7 29  1  0  0  0
  8  9  1  0  0  0
  8 22  1  0  0  0
  9 10  1  0  0  0
  9 27  2  0  0  0
 10 11  2  0  0  0
 10 15  1  0  0  0
 11 12  1  0  0  0
 11 94  1  0  0  0
 12 13  2  0  0  0
 12 95  1  0  0  0
 13 14  1  0  0  0
 13 31  1  0  0  0
 14 15  2  0  0  0
 14 96  1  0  0  0
 15 97  1  0  0  0
 16 17  2  0  0  0
 16 21  1  0  0  0
 16 31  1  0  0  0
 17 18  1  0  0  0
 17 98  1  0  0  0
 18 19  2  0  0  0
 18 99  1  0  0  0
 19 20  1  0  0  0
 19 24  1  0  0  0
 20 21  2  0  0  0
 20100  1  0  0  0
 21 23  1  0  0  0
 22 28  1  0  0  0
 22 32  2  0  0  0
 26 27  1  0  0  0
 28101  1  0  0  0
 28102  1  0  0  0
 29103  1  0  0  0
 29104  1  0  0  0
 33 34  1  0  0  0
 33 66  1  0  0  0
 33 70  2  0  0  0
 34 36  1  0  0  0
 34 59  1  0  0  0
 34105  1  0  0  0
 35 44  2  0  0  0
 35 45  1  0  0  0
 35 68  1  0  0  0
 36 56  1  0  0  0
 36106  1  0  0  0
 37 39  1  0  0  0
 37 47  1  0  0  0
 37 66  1  0  0  0
 37107  1  0  0  0
 38 43  2  0  0  0
 38 46  1  0  0  0
 38 47  1  0  0  0
 39 64  1  0  0  0
 39 67  2  0  0  0
 40 52  1  0  0  0
 40 53  2  0  0  0
 40 58  1  0  0  0
 41108  1  0  0  0
 41109  1  0  0  0
 41110  1  0  0  0
 41 48  1  0  0  0
 42 43  1  0  0  0
 42 66  1  0  0  0
 42111  1  0  0  0
 42112  1  0  0  0
 43 44  1  0  0  0
 44113  1  0  0  0
 45 46  2  0  0  0
 45114  1  0  0  0
 46115  1  0  0  0
 47116  1  0  0  0
 47117  1  0  0  0
 48 56  1  0  0  0
 48 65  1  0  0  0
 48118  1  0  0  0
 49 50  1  0  0  0
 49 53  1  0  0  0
 49 64  1  0  0  0
 49119  1  0  0  0
 50 51  1  0  0  0
 50120  1  0  0  0
 50121  1  0  0  0
 51 52  1  0  0  0
 51122  1  0  0  0
 51123  1  0  0  0
 52124  1  0  0  0
 52125  1  0  0  0
 53 54  1  0  0  0
 54 55  2  0  0  0
 54126  1  0  0  0
 55 57  1  0  0  0
 55127  1  0  0  0
 56 69  2  0  0  0
 57 58  2  0  0  0
 57128  1  0  0  0
 58129  1  0  0  0
 59 60  1  0  0  0
 59 61  1  0  0  0
 59 62  1  0  0  0
 60130  1  0  0  0
 60131  1  0  0  0
 60132  1  0  0  0
 61133  1  0  0  0
 61134  1  0  0  0
 61135  1  0  0  0
 62136  1  0  0  0
 62137  1  0  0  0
 62138  1  0  0  0
 63 65  1  0  0  0
 63139  1  0  0  0
 63140  1  0  0  0
 63141  1  0  0  0
 64142  1  0  0  0
 65143  1  0  0  0
 68 79  1  0  0  0
 71 74  2  0  0  0
 71 75  1  0  0  0
 71144  1  0  0  0
 72 74  1  0  0  0
 72 76  2  0  0  0
 72145  1  0  0  0
 73 75  2  0  0  0
 73 76  1  0  0  0
 73146  1  0  0  0
 74 77  1  0  0  0
 75 80  1  0  0  0
 76 84  1  0  0  0
 77 81  1  0  0  0
 77 82  2  0  0  0
 78 79  1  0  0  0
 78 81  1  0  0  0
 78 83  2  0  0  0
 79147  1  0  0  0
 79148  1  0  0  0
 80149  1  0  0  0
 81150  1  0  0  0
 82151  1  0  0  0
 82152  1  0  0  0
M  CHG  1  82   1
M  ISO  4   1 100  68 101  79 101  80 100
M  END
> <chiral flag>
0

> <version>
0

> <s_m_source_file>
/data/baiqing/PycharmProjects/Reinvent-master-3.2/result/LINK_invent/BTK/process_docking_weight1_custom_product_contain_oxygen_bond_distance_aromatic_linkinvent_7_9_3/rearranged_h_0157.sdf

> <i_m_source_file_index>
32

> <r_mmod_Potential_Energy-OPLS-2005>
-45.3202781677246

> <r_mmod_Stretch_Energy-OPLS-2005>
144.813674926758

> <r_mmod_Bend_Energy-OPLS-2005>
259.843597412109

> <r_mmod_Torsional_Energy-OPLS-2005>
232.667175292969

> <r_mmod_Improper_Torsional_Energy-OPLS-2005>
3.92983198165894

> <r_mmod_Van_der_Waal_Energy-OPLS-2005>
140.432144165039

> <r_mmod_Electrostatic_Energy-OPLS-2005>
-418.25341796875

> <r_mmod_Solvation_Energy-OPLS-2005>
-509.326873779297

> <b_mmod_Minimization_Converged-OPLS-2005>
0

> <r_mmod_RMS_Derivative-OPLS-2005>
2.59356594085693

$$$$
32
                    3D
 Structure written by MMmdl.
160169  0  0  1  0            999 V2000
  -28.0763  -16.9162   21.0290 C   0  0  0  0  0  0
  -29.6891  -14.4470   19.8673 C   0  0  0  0  0  0
  -29.4224  -13.3059   18.7168 C   0  0  0  0  0  0
  -28.2211  -12.4185   19.0288 C   0  0  0  0  0  0
  -27.3707  -13.3366   19.8913 C   0  0  2  0  0  0
  -28.0097  -13.9836   21.1448 C   0  0  0  0  0  0
  -25.0886  -13.7983   20.5437 C   0  0  0  0  0  0
  -24.0673  -13.0082   20.9306 C   0  0  0  0  0  0
  -24.5617  -11.6661   20.8833 C   0  0  0  0  0  0
  -23.8624  -10.4057   21.0513 C   0  0  0  0  0  0
  -24.3378   -9.4059   21.9247 C   0  0  0  0  0  0
  -23.6159   -8.2056   22.0764 C   0  0  0  0  0  0
  -22.4150   -8.0084   21.3537 C   0  0  0  0  0  0
  -21.9684   -8.9992   20.4637 C   0  0  0  0  0  0
  -22.6891  -10.1899   20.3082 C   0  0  0  0  0  0
  -21.6790   -6.0628   22.5299 C   0  0  0  0  0  0
  -21.3962   -6.5576   23.8217 C   0  0  0  0  0  0
  -21.3644   -5.6753   24.9196 C   0  0  0  0  0  0
  -21.6048   -4.3016   24.7261 C   0  0  0  0  0  0
  -21.8828   -3.8082   23.4393 C   0  0  0  0  0  0
  -21.9176   -4.6874   22.3436 C   0  0  0  0  0  0
  -22.6863  -13.4906   21.2094 C   0  0  0  0  0  0
  -22.1658   -4.2070   21.1012 F   0  0  0  0  0  0
  -21.5642   -3.4516   25.7783 F   0  0  0  0  0  0
  -28.4563  -15.3192   20.6528 N   0  0  0  0  0  0
  -26.1061  -12.9176   20.2787 N   0  0  0  0  0  0
  -25.8418  -11.6314   20.5533 N   0  0  0  0  0  0
  -21.9679  -12.7953   22.0779 N   0  0  0  0  0  0
  -25.2350  -15.1773   20.3792 N   0  0  0  0  0  0
  -29.3903  -17.0081   20.8409 O   0  0  0  0  0  0
  -21.6545   -6.8698   21.4236 O   0  0  0  0  0  0
  -22.2645  -14.5271   20.6965 O   0  0  0  0  0  0
  -24.6721  -31.9330   23.2681 C   0  0  0  0  0  0
  -25.9505  -32.5201   23.9083 C   0  0  1  0  0  0
  -26.3735  -27.3467   20.1804 C   0  0  0  0  0  0
  -25.6245  -33.8960   24.2836 N   0  0  0  0  0  0
  -23.5802  -30.5655   21.5766 C   0  0  2  0  0  0
  -25.1582  -29.5705   19.7267 C   0  0  0  0  0  0
  -23.3009  -29.3182   22.5211 C   0  0  0  0  0  0
  -18.7773  -26.6308   22.5000 C   0  0  0  0  0  0
  -24.1496  -36.7417   23.2580 C   0  0  0  0  0  0
  -26.1047  -30.8516   21.5623 C   0  0  0  0  0  0
  -26.1025  -29.6073   20.7241 C   0  0  0  0  0  0
  -26.9156  -28.4738   20.8662 C   0  0  0  0  0  0
  -26.2017  -27.5327   18.8477 C   0  0  0  0  0  0
  -25.4101  -28.6813   18.6351 C   0  0  0  0  0  0
  -23.9380  -30.4063   20.0099 C   0  0  0  0  0  0
  -25.4095  -36.3302   24.0358 C   0  0  1  0  0  0
  -21.8935  -27.2805   22.9567 C   0  0  2  0  0  0
  -22.4648  -25.7961   21.7159 C   0  0  0  0  0  0
  -20.7463  -24.4992   20.9056 C   0  0  0  0  0  0
  -18.9809  -25.0893   21.7155 C   0  0  0  0  0  0
  -20.3250  -27.5755   23.2823 C   0  0  0  0  0  0
  -19.8820  -29.0523   24.0569 C   0  0  0  0  0  0
  -18.3820  -29.5811   24.1122 C   0  0  0  0  0  0
  -25.9071  -34.9652   23.5298 C   0  0  0  0  0  0
  -17.1900  -28.8320   23.4844 C   0  0  0  0  0  0
  -17.3118  -27.4457   22.7207 C   0  0  0  0  0  0
  -26.4640  -31.6815   25.1386 C   0  0  0  0  0  0
  -25.3667  -31.3903   26.1861 C   0  0  0  0  0  0
  -27.0589  -30.3168   24.7164 C   0  0  0  0  0  0
  -27.6174  -32.4500   25.8192 C   0  0  0  0  0  0
  -27.5602  -37.1900   24.8459 C   0  0  0  0  0  0
  -22.1356  -28.7515   22.6574 N   0  0  0  0  0  0
  -26.4320  -37.3934   23.9401 N   0  0  0  0  0  0
  -24.7853  -31.1784   22.1587 N   0  0  0  0  0  0
  -24.1476  -28.8058   23.2219 O   0  0  0  0  0  0
  -25.0124  -27.1022   20.5388 O   0  0  0  0  0  0
  -26.5466  -34.8958   22.4759 O   0  0  0  0  0  0
  -23.5711  -32.1772   23.7827 O   0  0  0  0  0  0
  -24.4686  -21.4551   22.1856 C   0  0  0  0  0  0
  -22.3316  -21.2082   22.5199 C   0  0  0  0  0  0
  -22.7474  -22.5880   22.6136 C   0  0  0  0  0  0
  -25.2519  -19.7717   21.8500 C   0  0  0  0  0  0
  -18.6847  -27.0800   24.6559 C   0  0  0  0  0  0
  -19.8264  -25.3584   24.4567 C   0  0  0  0  0  0
  -19.1068  -28.7720   21.8564 C   0  0  0  0  0  0
  -20.5599  -26.6928   20.9883 C   0  0  0  0  0  0
  -21.1327  -24.6782   23.1094 C   0  0  2  0  0  0
  -21.7925  -28.4820   20.0598 C   0  0  0  0  0  0
  -23.3959  -27.4763   19.8579 C   0  0  0  0  0  0
  -26.6030  -18.2726   21.4347 N   0  0  0  0  0  0
  -20.4117  -28.1311   20.8847 N   0  3  1  0  0  0
  -23.3945  -19.5528   22.1314 S   0  0  0  0  0  0
  -30.2929  -15.2042   19.3655 H   0  0  0  0  0  0
  -30.3990  -14.0595   20.6027 H   0  0  0  0  0  0
  -30.3178  -12.7083   18.5429 H   0  0  0  0  0  0
  -29.2240  -13.8229   17.7769 H   0  0  0  0  0  0
  -28.5239  -11.5379   19.5961 H   0  0  0  0  0  0
  -27.7055  -12.0851   18.1270 H   0  0  0  0  0  0
  -27.1365  -14.1179   19.1618 H   0  0  0  0  0  0
  -28.7312  -13.3411   21.6569 H   0  0  0  0  0  0
  -27.2851  -14.2006   21.9315 H   0  0  0  0  0  0
  -25.2507   -9.5638   22.4820 H   0  0  0  0  0  0
  -23.9903   -7.4449   22.7464 H   0  0  0  0  0  0
  -21.0623   -8.8435   19.8951 H   0  0  0  0  0  0
  -22.3304  -10.9440   19.6215 H   0  0  0  0  0  0
  -21.1927   -7.6083   23.9693 H   0  0  0  0  0  0
  -21.1472   -6.0496   25.9096 H   0  0  0  0  0  0
  -22.0629   -2.7545   23.2916 H   0  0  0  0  0  0
  -22.3360  -11.9616   22.5111 H   0  0  0  0  0  0
  -21.0352  -13.1013   22.3164 H   0  0  0  0  0  0
  -24.4303  -15.7902   20.4554 H   0  0  0  0  0  0
  -25.9862  -15.5747   19.8333 H   0  0  0  0  0  0
  -26.7738  -32.5854   23.2002 H   0  0  0  0  0  0
  -25.0531  -34.0235   25.1061 H   0  0  0  0  0  0
  -22.7335  -31.2511   21.6482 H   0  0  0  0  0  0
  -23.3768  -35.9743   23.3282 H   0  0  0  0  0  0
  -24.3635  -36.8959   22.1993 H   0  0  0  0  0  0
  -23.7208  -37.6644   23.6501 H   0  0  0  0  0  0
  -26.4049  -31.6880   20.9295 H   0  0  0  0  0  0
  -26.9142  -30.7145   22.2620 H   0  0  0  0  0  0
  -27.6143  -28.3743   21.6848 H   0  0  0  0  0  0
  -26.1909  -26.7233   18.1309 H   0  0  0  0  0  0
  -24.8683  -28.7830   17.7033 H   0  0  0  0  0  0
  -24.2424  -31.4098   19.7077 H   0  0  0  0  0  0
  -23.1910  -30.2834   19.2341 H   0  0  0  0  0  0
  -25.1203  -36.2296   25.0848 H   0  0  0  0  0  0
  -22.3728  -27.1035   23.9234 H   0  0  0  0  0  0
  -23.1526  -25.2346   22.3622 H   0  0  0  0  0  0
  -23.4039  -25.6801   21.2161 H   0  0  0  0  0  0
  -20.8875  -23.4255   21.0453 H   0  0  0  0  0  0
  -20.6950  -24.5051   19.8114 H   0  0  0  0  0  0
  -18.2302  -25.0458   20.9237 H   0  0  0  0  0  0
  -18.6222  -24.3083   22.3855 H   0  0  0  0  0  0
  -20.6436  -29.6705   24.5158 H   0  0  0  0  0  0
  -18.1876  -30.5200   24.6115 H   0  0  0  0  0  0
  -16.2073  -29.2727   23.5799 H   0  0  0  0  0  0
  -16.4091  -26.9939   22.3325 H   0  0  0  0  0  0
  -24.5997  -30.7175   25.7999 H   0  0  0  0  0  0
  -24.8700  -32.3033   26.5156 H   0  0  0  0  0  0
  -25.7800  -30.9122   27.0750 H   0  0  0  0  0  0
  -26.3424  -29.6892   24.1903 H   0  0  0  0  0  0
  -27.3708  -29.7468   25.5927 H   0  0  0  0  0  0
  -27.9516  -30.4301   24.1011 H   0  0  0  0  0  0
  -27.2825  -33.3829   26.2735 H   0  0  0  0  0  0
  -28.4050  -32.7005   25.1069 H   0  0  0  0  0  0
  -28.0760  -31.8640   26.6170 H   0  0  0  0  0  0
  -28.2616  -38.0207   24.7553 H   0  0  0  0  0  0
  -28.1116  -36.2752   24.6236 H   0  0  0  0  0  0
  -27.2318  -37.1473   25.8861 H   0  0  0  0  0  0
  -21.3437  -29.3804   22.6092 H   0  0  0  0  0  0
  -26.0259  -38.3032   24.1417 H   0  0  0  0  0  0
  -25.2610  -22.1888   22.1306 H   0  0  0  0  0  0
  -21.2819  -20.9791   22.6667 H   0  0  0  0  0  0
  -19.0161  -27.5319   25.5992 H   0  0  0  0  0  0
  -17.6727  -26.7808   24.9544 H   0  0  0  0  0  0
  -19.0978  -24.5540   24.5555 H   0  0  0  0  0  0
  -20.3551  -25.2943   25.4083 H   0  0  0  0  0  0
  -19.2919  -29.8534   21.8936 H   0  0  0  0  0  0
  -18.2979  -28.7782   21.1141 H   0  0  0  0  0  0
  -19.7031  -26.5957   20.2988 H   0  0  0  0  0  0
  -21.0848  -26.4967   20.0435 H   0  0  0  0  0  0
  -21.8355  -25.0331   23.8672 H   0  0  0  0  0  0
  -21.4280  -28.5260   19.0315 H   0  0  0  0  0  0
  -21.7836  -29.5261   20.2964 H   0  0  0  0  0  0
  -23.4396  -27.6628   18.7959 H   0  0  0  0  0  0
  -23.0888  -26.4976   19.4961 H   0  0  0  0  0  0
  -27.3816  -18.9194   21.4470 H   0  0  0  0  0  0
  -20.9617  -28.2802   21.7220 H   0  0  0  0  0  0
  1 25  1  0  0  0
  1 30  2  0  0  0
  1 82  1  0  0  0
  2  3  1  0  0  0
  2 25  1  0  0  0
  2 85  1  0  0  0
  2 86  1  0  0  0
  3  4  1  0  0  0
  3 87  1  0  0  0
  3 88  1  0  0  0
  4  5  1  0  0  0
  4 89  1  0  0  0
  4 90  1  0  0  0
  5  6  1  0  0  0
  5 26  1  0  0  0
  5 91  1  0  0  0
  6 25  1  0  0  0
  6 92  1  0  0  0
  6 93  1  0  0  0
  7  8  2  0  0  0
  7 26  1  0  0  0
  7 29  1  0  0  0
  8  9  1  0  0  0
  8 22  1  0  0  0
  9 10  1  0  0  0
  9 27  2  0  0  0
 10 11  2  0  0  0
 10 15  1  0  0  0
 11 12  1  0  0  0
 11 94  1  0  0  0
 12 13  2  0  0  0
 12 95  1  0  0  0
 13 14  1  0  0  0
 13 31  1  0  0  0
 14 15  2  0  0  0
 14 96  1  0  0  0
 15 97  1  0  0  0
 16 17  2  0  0  0
 16 21  1  0  0  0
 16 31  1  0  0  0
 17 18  1  0  0  0
 17 98  1  0  0  0
 18 19  2  0  0  0
 18 99  1  0  0  0
 19 20  1  0  0  0
 19 24  1  0  0  0
 20 21  2  0  0  0
 20100  1  0  0  0
 21 23  1  0  0  0
 22 28  1  0  0  0
 22 32  2  0  0  0
 26 27  1  0  0  0
 28101  1  0  0  0
 28102  1  0  0  0
 29103  1  0  0  0
 29104  1  0  0  0
 33 34  1  0  0  0
 33 66  1  0  0  0
 33 70  2  0  0  0
 34 36  1  0  0  0
 34 59  1  0  0  0
 34105  1  0  0  0
 35 44  2  0  0  0
 35 45  1  0  0  0
 35 68  1  0  0  0
 36 56  1  0  0  0
 36106  1  0  0  0
 37 39  1  0  0  0
 37 47  1  0  0  0
 37 66  1  0  0  0
 37107  1  0  0  0
 38 43  2  0  0  0
 38 46  1  0  0  0
 38 47  1  0  0  0
 39 64  1  0  0  0
 39 67  2  0  0  0
 40 52  1  0  0  0
 40 53  2  0  0  0
 40 58  1  0  0  0
 41108  1  0  0  0
 41109  1  0  0  0
 41110  1  0  0  0
 41 48  1  0  0  0
 42 43  1  0  0  0
 42 66  1  0  0  0
 42111  1  0  0  0
 42112  1  0  0  0
 43 44  1  0  0  0
 44113  1  0  0  0
 45 46  2  0  0  0
 45114  1  0  0  0
 46115  1  0  0  0
 47116  1  0  0  0
 47117  1  0  0  0
 48 56  1  0  0  0
 48 65  1  0  0  0
 48118  1  0  0  0
 49 50  1  0  0  0
 49 53  1  0  0  0
 49 64  1  0  0  0
 49119  1  0  0  0
 50 51  1  0  0  0
 50120  1  0  0  0
 50121  1  0  0  0
 51 52  1  0  0  0
 51122  1  0  0  0
 51123  1  0  0  0
 52124  1  0  0  0
 52125  1  0  0  0
 53 54  1  0  0  0
 54 55  2  0  0  0
 54126  1  0  0  0
 55 57  1  0  0  0
 55127  1  0  0  0
 56 69  2  0  0  0
 57 58  2  0  0  0
 57128  1  0  0  0
 58129  1  0  0  0
 59 60  1  0  0  0
 59 61  1  0  0  0
 59 62  1  0  0  0
 60130  1  0  0  0
 60131  1  0  0  0
 60132  1  0  0  0
 61133  1  0  0  0
 61134  1  0  0  0
 61135  1  0  0  0
 62136  1  0  0  0
 62137  1  0  0  0
 62138  1  0  0  0
 63 65  1  0  0  0
 63139  1  0  0  0
 63140  1  0  0  0
 63141  1  0  0  0
 64142  1  0  0  0
 65143  1  0  0  0
 68 81  1  0  0  0
 71 73  1  0  0  0
 71 74  2  0  0  0
 71144  1  0  0  0
 72 73  2  0  0  0
 72 84  1  0  0  0
 72145  1  0  0  0
 73 79  1  0  0  0
 74 82  1  0  0  0
 74 84  1  0  0  0
 75 76  1  0  0  0
 75 77  1  0  0  0
 75146  1  0  0  0
 75147  1  0  0  0
 76 79  1  0  0  0
 76148  1  0  0  0
 76149  1  0  0  0
 77 83  1  0  0  0
 77150  1  0  0  0
 77151  1  0  0  0
 78 79  1  0  0  0
 78 83  1  0  0  0
 78152  1  0  0  0
 78153  1  0  0  0
 79154  1  0  0  0
 80 81  1  0  0  0
 80155  1  0  0  0
 80156  1  0  0  0
 80 83  1  0  0  0
 81157  1  0  0  0
 81158  1  0  0  0
 82159  1  0  0  0
 83160  1  0  0  0
M  CHG  1  83   1
M  ISO  4   1 100  68 101  81 101  82 100
M  END
> <chiral flag>
0

> <version>
0

> <s_m_source_file>
/data/baiqing/PycharmProjects/Reinvent-master-3.2/result/LINK_invent/BTK/process_docking_weight1_custom_product_contain_oxygen_bond_distance_aromatic_linkinvent_7_9_3/rearranged_h_0157.sdf

> <i_m_source_file_index>
33

> <r_mmod_Potential_Energy-OPLS-2005>
31250.806640625

> <r_mmod_Stretch_Energy-OPLS-2005>
15221.6708984375

> <r_mmod_Bend_Energy-OPLS-2005>
2852.99267578125

> <r_mmod_Torsional_Energy-OPLS-2005>
620.153503417969

> <r_mmod_Improper_Torsional_Energy-OPLS-2005>
37.0946655273438

> <r_mmod_Van_der_Waal_Energy-OPLS-2005>
4023.72924804688

> <r_mmod_Electrostatic_Energy-OPLS-2005>
-284.391998291016

> <r_mmod_Solvation_Energy-OPLS-2005>
-399.754302978516

> <b_mmod_Minimization_Converged-OPLS-2005>
0

> <r_mmod_RMS_Derivative-OPLS-2005>
1.93016052246094

$$$$
33
                    3D
 Structure written by MMmdl.
154163  0  0  1  0            999 V2000
  -30.6415  -14.6172   20.4880 C   0  0  0  0  0  0
  -30.4281  -12.3722   19.4643 C   0  0  0  0  0  0
  -29.5077  -12.5041   18.2308 C   0  0  0  0  0  0
  -28.0295  -12.3499   18.6378 C   0  0  0  0  0  0
  -27.6540  -13.2208   19.8668 C   0  0  2  0  0  0
  -28.6947  -13.0789   21.0010 C   0  0  0  0  0  0
  -25.2557  -13.8186   20.5691 C   0  0  0  0  0  0
  -24.1824  -13.0445   20.9183 C   0  0  0  0  0  0
  -24.6396  -11.6917   20.8732 C   0  0  0  0  0  0
  -23.9067  -10.4297   21.0402 C   0  0  0  0  0  0
  -24.3619   -9.4212   21.9181 C   0  0  0  0  0  0
  -23.6293   -8.2248   22.0754 C   0  0  0  0  0  0
  -22.4275   -8.0283   21.3544 C   0  0  0  0  0  0
  -21.9910   -9.0258   20.4647 C   0  0  0  0  0  0
  -22.7238  -10.2138   20.3053 C   0  0  0  0  0  0
  -21.6855   -6.0735   22.5278 C   0  0  0  0  0  0
  -21.4016   -6.5640   23.8212 C   0  0  0  0  0  0
  -21.3659   -5.6793   24.9174 C   0  0  0  0  0  0
  -21.6044   -4.3055   24.7224 C   0  0  0  0  0  0
  -21.8820   -3.8147   23.4345 C   0  0  0  0  0  0
  -21.9194   -4.6963   22.3401 C   0  0  0  0  0  0
  -22.7846  -13.5235   21.1847 C   0  0  0  0  0  0
  -22.1662   -4.2149   21.0978 F   0  0  0  0  0  0
  -21.5628   -3.4538   25.7736 F   0  0  0  0  0  0
  -30.0159  -13.4000   20.4422 N   0  0  0  0  0  0
  -26.2991  -12.9377   20.3332 N   0  0  0  0  0  0
  -25.9327  -11.6526   20.5760 N   0  0  0  0  0  0
  -22.0492  -12.8227   22.0407 N   0  0  0  0  0  0
  -25.4278  -15.1907   20.4124 N   0  0  0  0  0  0
  -31.7969  -14.7562   20.0741 O   0  0  0  0  0  0
  -21.6641   -6.8879   21.4240 O   0  0  0  0  0  0
  -22.3531  -14.5542   20.6698 O   0  0  0  0  0  0
  -24.6235  -31.8603   23.2026 C   0  0  0  0  0  0
  -25.9090  -32.4781   23.8352 C   0  0  1  0  0  0
  -27.2316  -27.3449   20.1056 C   0  0  0  0  0  0
  -25.5911  -33.8582   24.2282 N   0  0  0  0  0  0
  -23.4167  -30.4827   21.5440 C   0  0  2  0  0  0
  -24.8644  -28.9399   20.1054 C   0  0  0  0  0  0
  -22.7462  -29.4621   22.4937 C   0  0  0  0  0  0
  -18.0283  -28.1383   22.8489 C   0  0  0  0  0  0
  -24.1488  -36.7298   23.2640 C   0  0  0  0  0  0
  -25.9542  -30.7986   21.3692 C   0  0  0  0  0  0
  -26.0294  -29.4282   20.7096 C   0  0  0  0  0  0
  -27.2132  -28.6385   20.7051 C   0  0  0  0  0  0
  -26.0429  -26.8950   19.4880 C   0  0  0  0  0  0
  -24.8713  -27.6779   19.4876 C   0  0  0  0  0  0
  -23.6297  -29.8160   20.1584 C   0  0  0  0  0  0
  -25.4112  -36.3088   24.0332 C   0  0  1  0  0  0
  -20.5881  -28.3683   23.1290 C   0  0  2  0  0  0
  -20.6771  -26.9408   22.5413 C   0  0  0  0  0  0
  -19.5748  -26.6384   21.5213 C   0  0  0  0  0  0
  -18.1928  -26.7927   22.1625 C   0  0  0  0  0  0
  -19.1535  -28.8850   23.2886 C   0  0  0  0  0  0
  -18.9460  -30.1452   23.8902 C   0  0  0  0  0  0
  -17.6460  -30.6587   24.0564 C   0  0  0  0  0  0
  -25.9046  -34.9455   23.5109 C   0  0  0  0  0  0
  -16.5351  -29.9088   23.6327 C   0  0  0  0  0  0
  -16.7271  -28.6503   23.0351 C   0  0  0  0  0  0
  -26.4487  -31.6588   25.0716 C   0  0  0  0  0  0
  -25.3731  -31.3716   26.1450 C   0  0  0  0  0  0
  -27.0330  -30.3020   24.6150 C   0  0  0  0  0  0
  -27.6050  -32.4322   25.7483 C   0  0  0  0  0  0
  -27.5579  -37.1804   24.8467 C   0  0  0  0  0  0
  -21.4178  -29.3037   22.3684 N   0  0  0  0  0  0
  -26.4293  -37.3779   23.9407 N   0  0  0  0  0  0
  -24.6834  -31.0633   22.0962 N   0  0  0  0  0  0
  -23.4195  -28.8167   23.3014 O   0  0  0  0  0  0
  -28.3470  -26.5096   20.2143 O   0  0  0  0  0  0
  -26.5617  -34.8920   22.4678 O   0  0  0  0  0  0
  -23.5405  -32.1390   23.7369 O   0  0  0  0  0  0
  -29.4675  -18.1853   20.9096 C   0  0  0  0  0  0
  -29.4310  -19.3350   20.0102 C   0  0  0  0  0  0
  -29.8102  -18.9441   18.7565 C   0  0  0  0  0  0
  -29.8782  -16.9719   20.3439 C   0  0  0  0  0  0
  -28.4997  -25.3736   19.4135 C   0  0  0  0  0  0
  -28.6836  -24.0692   19.8188 C   0  0  0  0  0  0
  -28.9356  -23.0322   18.7746 C   0  0  0  0  0  0
  -28.9852  -20.8211   20.2510 C   0  0  0  0  0  0
  -29.6961  -19.8262   17.5699 C   0  0  0  0  0  0
  -28.5443  -20.8133   17.8173 C   0  0  0  0  0  0
  -28.8114  -21.6661   19.0064 N   0  0  0  0  0  0
  -29.9001  -15.6961   20.8909 N   0  0  0  0  0  0
  -29.1968  -23.4110   17.6256 O   0  0  0  0  0  0
  -28.6467  -23.7536   21.1207 O   0  0  0  0  0  0
  -30.2634  -17.2598   18.6574 S   0  0  0  0  0  0
  -31.4736  -12.4739   19.1683 H   0  0  0  0  0  0
  -30.3414  -11.3778   19.9049 H   0  0  0  0  0  0
  -29.7690  -11.7542   17.4829 H   0  0  0  0  0  0
  -29.6596  -13.4755   17.7574 H   0  0  0  0  0  0
  -27.8610  -11.2969   18.8666 H   0  0  0  0  0  0
  -27.3788  -12.5848   17.7947 H   0  0  0  0  0  0
  -27.6742  -14.2569   19.5276 H   0  0  0  0  0  0
  -28.6942  -12.0625   21.3978 H   0  0  0  0  0  0
  -28.4437  -13.7270   21.8418 H   0  0  0  0  0  0
  -25.2766   -9.5687   22.4753 H   0  0  0  0  0  0
  -24.0002   -7.4640   22.7475 H   0  0  0  0  0  0
  -21.0841   -8.8777   19.8953 H   0  0  0  0  0  0
  -22.3697  -10.9676   19.6160 H   0  0  0  0  0  0
  -21.2010   -7.6149   23.9715 H   0  0  0  0  0  0
  -21.1480   -6.0524   25.9077 H   0  0  0  0  0  0
  -22.0598   -2.7608   23.2846 H   0  0  0  0  0  0
  -22.4113  -11.9889   22.4791 H   0  0  0  0  0  0
  -21.1109  -13.1252   22.2614 H   0  0  0  0  0  0
  -24.6632  -15.8476   20.5250 H   0  0  0  0  0  0
  -26.2834  -15.6301   20.0968 H   0  0  0  0  0  0
  -26.7159  -32.5460   23.1104 H   0  0  0  0  0  0
  -25.0054  -33.9728   25.0424 H   0  0  0  0  0  0
  -22.7096  -31.3025   21.4014 H   0  0  0  0  0  0
  -23.3747  -35.9634   23.3310 H   0  0  0  0  0  0
  -24.3578  -36.8910   22.2053 H   0  0  0  0  0  0
  -23.7244  -37.6504   23.6656 H   0  0  0  0  0  0
  -26.0816  -31.5637   20.6022 H   0  0  0  0  0  0
  -26.8361  -30.8478   21.9964 H   0  0  0  0  0  0
  -28.1058  -29.0018   21.1949 H   0  0  0  0  0  0
  -25.9963  -25.9164   19.0324 H   0  0  0  0  0  0
  -23.9743  -27.2942   19.0210 H   0  0  0  0  0  0
  -23.7445  -30.5923   19.4011 H   0  0  0  0  0  0
  -22.7509  -29.2423   19.8585 H   0  0  0  0  0  0
  -25.1293  -36.1945   25.0825 H   0  0  0  0  0  0
  -20.9976  -28.3258   24.1410 H   0  0  0  0  0  0
  -20.5669  -26.2293   23.3611 H   0  0  0  0  0  0
  -21.6640  -26.7438   22.1208 H   0  0  0  0  0  0
  -19.6909  -25.6296   21.1240 H   0  0  0  0  0  0
  -19.6686  -27.3197   20.6745 H   0  0  0  0  0  0
  -17.4197  -26.6675   21.4028 H   0  0  0  0  0  0
  -18.0329  -26.0068   22.9021 H   0  0  0  0  0  0
  -19.7936  -30.7265   24.2276 H   0  0  0  0  0  0
  -17.5016  -31.6267   24.5166 H   0  0  0  0  0  0
  -15.5352  -30.2993   23.7646 H   0  0  0  0  0  0
  -15.8671  -28.0824   22.7065 H   0  0  0  0  0  0
  -24.5906  -30.7063   25.7781 H   0  0  0  0  0  0
  -24.8920  -32.2877   26.4885 H   0  0  0  0  0  0
  -25.8066  -30.8890   27.0218 H   0  0  0  0  0  0
  -26.2896  -29.6770   24.1187 H   0  0  0  0  0  0
  -27.4056  -29.7272   25.4639 H   0  0  0  0  0  0
  -27.8751  -30.4318   23.9348 H   0  0  0  0  0  0
  -27.2661  -33.3618   26.2069 H   0  0  0  0  0  0
  -28.3854  -32.6889   25.0308 H   0  0  0  0  0  0
  -28.0725  -31.8444   26.5393 H   0  0  0  0  0  0
  -28.2604  -38.0094   24.7505 H   0  0  0  0  0  0
  -28.1067  -36.2625   24.6305 H   0  0  0  0  0  0
  -27.2296  -37.1470   25.8870 H   0  0  0  0  0  0
  -20.9352  -29.8760   21.6898 H   0  0  0  0  0  0
  -26.0178  -38.2858   24.1400 H   0  0  0  0  0  0
  -29.1580  -18.2883   21.9405 H   0  0  0  0  0  0
  -28.4912  -25.6572   18.3685 H   0  0  0  0  0  0
  -29.7164  -21.3105   20.8947 H   0  0  0  0  0  0
  -28.0436  -20.8418   20.8003 H   0  0  0  0  0  0
  -29.4963  -19.2334   16.6764 H   0  0  0  0  0  0
  -30.6325  -20.3583   17.3969 H   0  0  0  0  0  0
  -27.6214  -20.2601   18.0001 H   0  0  0  0  0  0
  -28.3425  -21.3607   16.8957 H   0  0  0  0  0  0
  -29.1013  -15.4626   21.4619 H   0  0  0  0  0  0
  -28.4844  -24.5603   21.5935 H   0  0  0  0  0  0
  1 25  1  0  0  0
  1 30  2  0  0  0
  1 82  1  0  0  0
  2  3  1  0  0  0
  2 25  1  0  0  0
  2 86  1  0  0  0
  2 87  1  0  0  0
  3  4  1  0  0  0
  3 88  1  0  0  0
  3 89  1  0  0  0
  4  5  1  0  0  0
  4 90  1  0  0  0
  4 91  1  0  0  0
  5  6  1  0  0  0
  5 26  1  0  0  0
  5 92  1  0  0  0
  6 25  1  0  0  0
  6 93  1  0  0  0
  6 94  1  0  0  0
  7  8  2  0  0  0
  7 26  1  0  0  0
  7 29  1  0  0  0
  8  9  1  0  0  0
  8 22  1  0  0  0
  9 10  1  0  0  0
  9 27  2  0  0  0
 10 11  2  0  0  0
 10 15  1  0  0  0
 11 12  1  0  0  0
 11 95  1  0  0  0
 12 13  2  0  0  0
 12 96  1  0  0  0
 13 14  1  0  0  0
 13 31  1  0  0  0
 14 15  2  0  0  0
 14 97  1  0  0  0
 15 98  1  0  0  0
 16 17  2  0  0  0
 16 21  1  0  0  0
 16 31  1  0  0  0
 17 18  1  0  0  0
 17 99  1  0  0  0
 18 19  2  0  0  0
 18100  1  0  0  0
 19 20  1  0  0  0
 19 24  1  0  0  0
 20 21  2  0  0  0
 20101  1  0  0  0
 21 23  1  0  0  0
 22 28  1  0  0  0
 22 32  2  0  0  0
 26 27  1  0  0  0
 28102  1  0  0  0
 28103  1  0  0  0
 29104  1  0  0  0
 29105  1  0  0  0
 33 34  1  0  0  0
 33 66  1  0  0  0
 33 70  2  0  0  0
 34 36  1  0  0  0
 34 59  1  0  0  0
 34106  1  0  0  0
 35 44  2  0  0  0
 35 45  1  0  0  0
 35 68  1  0  0  0
 36 56  1  0  0  0
 36107  1  0  0  0
 37 39  1  0  0  0
 37 47  1  0  0  0
 37 66  1  0  0  0
 37108  1  0  0  0
 38 43  2  0  0  0
 38 46  1  0  0  0
 38 47  1  0  0  0
 39 64  1  0  0  0
 39 67  2  0  0  0
 40 52  1  0  0  0
 40 53  2  0  0  0
 40 58  1  0  0  0
 41109  1  0  0  0
 41110  1  0  0  0
 41111  1  0  0  0
 41 48  1  0  0  0
 42 43  1  0  0  0
 42 66  1  0  0  0
 42112  1  0  0  0
 42113  1  0  0  0
 43 44  1  0  0  0
 44114  1  0  0  0
 45 46  2  0  0  0
 45115  1  0  0  0
 46116  1  0  0  0
 47117  1  0  0  0
 47118  1  0  0  0
 48 56  1  0  0  0
 48 65  1  0  0  0
 48119  1  0  0  0
 49 50  1  0  0  0
 49 53  1  0  0  0
 49 64  1  0  0  0
 49120  1  0  0  0
 50 51  1  0  0  0
 50121  1  0  0  0
 50122  1  0  0  0
 51 52  1  0  0  0
 51123  1  0  0  0
 51124  1  0  0  0
 52125  1  0  0  0
 52126  1  0  0  0
 53 54  1  0  0  0
 54 55  2  0  0  0
 54127  1  0  0  0
 55 57  1  0  0  0
 55128  1  0  0  0
 56 69  2  0  0  0
 57 58  2  0  0  0
 57129  1  0  0  0
 58130  1  0  0  0
 59 60  1  0  0  0
 59 61  1  0  0  0
 59 62  1  0  0  0
 60131  1  0  0  0
 60132  1  0  0  0
 60133  1  0  0  0
 61134  1  0  0  0
 61135  1  0  0  0
 61136  1  0  0  0
 62137  1  0  0  0
 62138  1  0  0  0
 62139  1  0  0  0
 63 65  1  0  0  0
 63140  1  0  0  0
 63141  1  0  0  0
 63142  1  0  0  0
 64143  1  0  0  0
 65144  1  0  0  0
 68 75  1  0  0  0
 71 72  1  0  0  0
 71 74  2  0  0  0
 71145  1  0  0  0
 72 73  2  0  0  0
 72 78  1  0  0  0
 73 79  1  0  0  0
 73 85  1  0  0  0
 74 82  1  0  0  0
 74 85  1  0  0  0
 75 76  2  0  0  0
 75146  1  0  0  0
 76 77  1  0  0  0
 76 84  1  0  0  0
 77 81  1  0  0  0
 77 83  2  0  0  0
 78 81  1  0  0  0
 78147  1  0  0  0
 78148  1  0  0  0
 79 80  1  0  0  0
 79149  1  0  0  0
 79150  1  0  0  0
 80 81  1  0  0  0
 80151  1  0  0  0
 80152  1  0  0  0
 82153  1  0  0  0
 84154  1  0  0  0
M  ISO  4   1 100  68 101  75 101  82 100
M  END
> <chiral flag>
0

> <version>
0

> <s_m_source_file>
/data/baiqing/PycharmProjects/Reinvent-master-3.2/result/LINK_invent/BTK/process_docking_weight1_custom_product_contain_oxygen_bond_distance_aromatic_linkinvent_7_9_3/rearranged_h_0157.sdf

> <i_m_source_file_index>
34

> <r_mmod_Potential_Energy-OPLS-2005>
84.6852188110352

> <r_mmod_Stretch_Energy-OPLS-2005>
78.0523452758789

> <r_mmod_Bend_Energy-OPLS-2005>
157.510055541992

> <r_mmod_Torsional_Energy-OPLS-2005>
262.329528808594

> <r_mmod_Improper_Torsional_Energy-OPLS-2005>
5.67926740646362

> <r_mmod_Van_der_Waal_Energy-OPLS-2005>
147.05924987793

> <r_mmod_Electrostatic_Energy-OPLS-2005>
-375.852844238281

> <r_mmod_Solvation_Energy-OPLS-2005>
-232.791595458984

> <b_mmod_Minimization_Converged-OPLS-2005>
0

> <r_mmod_RMS_Derivative-OPLS-2005>
0.25333970785141

$$$$
34
                    3D
 Structure written by MMmdl.
146154  0  0  1  0            999 V2000
  -30.4884  -15.1500   20.4265 C   0  0  0  0  0  0
  -30.4352  -12.7151   19.5784 C   0  0  0  0  0  0
  -29.5469  -12.5542   18.3186 C   0  0  0  0  0  0
  -28.0873  -12.2961   18.7238 C   0  0  0  0  0  0
  -27.6173  -13.2688   19.8337 C   0  0  2  0  0  0
  -28.6366  -13.4057   20.9851 C   0  0  0  0  0  0
  -25.2392  -13.8255   20.5742 C   0  0  0  0  0  0
  -24.1735  -13.0444   20.9261 C   0  0  0  0  0  0
  -24.6376  -11.6933   20.8739 C   0  0  0  0  0  0
  -23.9054  -10.4308   21.0387 C   0  0  0  0  0  0
  -24.3600   -9.4235   21.9179 C   0  0  0  0  0  0
  -23.6294   -8.2264   22.0751 C   0  0  0  0  0  0
  -22.4281   -8.0277   21.3535 C   0  0  0  0  0  0
  -21.9899   -9.0245   20.4639 C   0  0  0  0  0  0
  -22.7218  -10.2141   20.3055 C   0  0  0  0  0  0
  -21.6851   -6.0729   22.5281 C   0  0  0  0  0  0
  -21.4011   -6.5626   23.8222 C   0  0  0  0  0  0
  -21.3677   -5.6771   24.9177 C   0  0  0  0  0  0
  -21.6065   -4.3035   24.7225 C   0  0  0  0  0  0
  -21.8814   -3.8136   23.4346 C   0  0  0  0  0  0
  -21.9184   -4.6958   22.3398 C   0  0  0  0  0  0
  -22.7751  -13.5223   21.1909 C   0  0  0  0  0  0
  -22.1650   -4.2137   21.0971 F   0  0  0  0  0  0
  -21.5642   -3.4525   25.7744 F   0  0  0  0  0  0
  -29.9110  -13.8561   20.4075 N   0  0  0  0  0  0
  -26.2807  -12.9509   20.3205 N   0  0  0  0  0  0
  -25.9306  -11.6611   20.5697 N   0  0  0  0  0  0
  -22.0384  -12.8219   22.0463 N   0  0  0  0  0  0
  -25.4104  -15.1995   20.4261 N   0  0  0  0  0  0
  -31.6697  -15.1491   20.0645 O   0  0  0  0  0  0
  -21.6639   -6.8872   21.4239 O   0  0  0  0  0  0
  -22.3437  -14.5511   20.6738 O   0  0  0  0  0  0
  -24.6552  -31.8350   23.1798 C   0  0  0  0  0  0
  -25.9282  -32.4638   23.8224 C   0  0  1  0  0  0
  -27.1940  -26.9820   20.1862 C   0  0  0  0  0  0
  -25.5993  -33.8447   24.2146 N   0  0  0  0  0  0
  -23.4654  -30.4553   21.5247 C   0  0  2  0  0  0
  -24.9205  -28.8675   20.1036 C   0  0  0  0  0  0
  -22.7647  -29.4512   22.4746 C   0  0  0  0  0  0
  -18.0350  -28.1407   22.8476 C   0  0  0  0  0  0
  -24.1501  -36.7233   23.2640 C   0  0  0  0  0  0
  -26.0315  -30.6533   21.4125 C   0  0  0  0  0  0
  -26.0939  -29.2489   20.7638 C   0  0  0  0  0  0
  -27.2236  -28.3207   20.8006 C   0  0  0  0  0  0
  -26.0286  -26.7932   19.4108 C   0  0  0  0  0  0
  -24.9147  -27.6609   19.3974 C   0  0  0  0  0  0
  -23.7027  -29.7845   20.1440 C   0  0  0  0  0  0
  -25.4129  -36.2982   24.0304 C   0  0  1  0  0  0
  -20.5971  -28.3755   23.1174 C   0  0  2  0  0  0
  -20.6822  -26.9430   22.5387 C   0  0  0  0  0  0
  -19.5787  -26.6378   21.5212 C   0  0  0  0  0  0
  -18.1978  -26.7944   22.1624 C   0  0  0  0  0  0
  -19.1606  -28.8901   23.2830 C   0  0  0  0  0  0
  -18.9505  -30.1490   23.8859 C   0  0  0  0  0  0
  -17.6490  -30.6588   24.0566 C   0  0  0  0  0  0
  -25.9094  -34.9366   23.5030 C   0  0  0  0  0  0
  -16.5388  -29.9073   23.6335 C   0  0  0  0  0  0
  -16.7322  -28.6507   23.0348 C   0  0  0  0  0  0
  -26.4556  -31.6526   25.0696 C   0  0  0  0  0  0
  -25.3725  -31.3742   26.1382 C   0  0  0  0  0  0
  -27.0444  -30.2894   24.6387 C   0  0  0  0  0  0
  -27.6072  -32.4283   25.7495 C   0  0  0  0  0  0
  -27.5578  -37.1786   24.8472 C   0  0  0  0  0  0
  -21.4326  -29.3062   22.3523 N   0  0  0  0  0  0
  -26.4303  -37.3703   23.9386 N   0  0  0  0  0  0
  -24.7371  -31.0067   22.0920 N   0  0  0  0  0  0
  -23.4252  -28.8078   23.2958 O   0  0  0  0  0  0
  -28.1965  -25.8890   20.2547 O   0  0  0  0  0  0
  -26.5657  -34.8881   22.4601 O   0  0  0  0  0  0
  -23.5626  -32.1285   23.6906 O   0  0  0  0  0  0
  -29.7642  -20.4014   19.5497 C   0  0  0  0  0  0
  -29.5242  -19.2974   20.3289 C   0  0  0  0  0  0
  -29.9850  -17.6839   20.2042 C   0  0  0  0  0  0
  -26.9085  -23.7731   19.3290 C   0  0  0  0  0  0
  -29.0679  -22.9181   20.5397 C   0  0  0  0  0  0
  -27.9448  -24.2672   20.3521 C   0  0  1  0  0  0
  -29.7303  -16.4328   20.7466 N   0  0  0  0  0  0
  -28.8781  -21.3467   20.1773 N   0  0  0  0  0  0
  -28.7361  -20.1740   21.1564 O   0  0  0  0  0  0
  -31.4706  -12.8666   19.2732 H   0  0  0  0  0  0
  -30.4411  -11.7951   20.1659 H   0  0  0  0  0  0
  -29.9210  -11.7307   17.7076 H   0  0  0  0  0  0
  -29.6087  -13.4526   17.7030 H   0  0  0  0  0  0
  -28.0366  -11.2722   19.0947 H   0  0  0  0  0  0
  -27.4291  -12.3404   17.8567 H   0  0  0  0  0  0
  -27.5544  -14.2462   19.3530 H   0  0  0  0  0  0
  -28.7493  -12.4693   21.5337 H   0  0  0  0  0  0
  -28.2716  -14.1416   21.7034 H   0  0  0  0  0  0
  -25.2728   -9.5722   22.4781 H   0  0  0  0  0  0
  -23.9998   -7.4652   22.7480 H   0  0  0  0  0  0
  -21.0837   -8.8753   19.8949 H   0  0  0  0  0  0
  -22.3648  -10.9669   19.6182 H   0  0  0  0  0  0
  -21.1987   -7.6128   23.9714 H   0  0  0  0  0  0
  -21.1518   -6.0504   25.9081 H   0  0  0  0  0  0
  -22.0579   -2.7605   23.2838 H   0  0  0  0  0  0
  -22.3971  -11.9883   22.4852 H   0  0  0  0  0  0
  -21.1011  -13.1294   22.2657 H   0  0  0  0  0  0
  -24.6635  -15.8653   20.5894 H   0  0  0  0  0  0
  -26.2853  -15.6386   20.1635 H   0  0  0  0  0  0
  -26.7376  -32.5223   23.0973 H   0  0  0  0  0  0
  -25.0158  -33.9559   25.0302 H   0  0  0  0  0  0
  -22.7757  -31.2858   21.3609 H   0  0  0  0  0  0
  -23.3752  -35.9584   23.3305 H   0  0  0  0  0  0
  -24.3596  -36.8860   22.2061 H   0  0  0  0  0  0
  -23.7298  -37.6445   23.6682 H   0  0  0  0  0  0
  -26.2010  -31.3899   20.6254 H   0  0  0  0  0  0
  -26.9008  -30.7199   22.0555 H   0  0  0  0  0  0
  -28.0976  -28.5971   21.3727 H   0  0  0  0  0  0
  -25.9439  -25.9508   18.7517 H   0  0  0  0  0  0
  -24.0560  -27.3894   18.7989 H   0  0  0  0  0  0
  -23.8408  -30.5544   19.3825 H   0  0  0  0  0  0
  -22.8181  -29.2254   19.8345 H   0  0  0  0  0  0
  -25.1336  -36.1795   25.0802 H   0  0  0  0  0  0
  -21.0103  -28.3359   24.1284 H   0  0  0  0  0  0
  -20.5702  -26.2369   23.3634 H   0  0  0  0  0  0
  -21.6688  -26.7398   22.1198 H   0  0  0  0  0  0
  -19.6921  -25.6289   21.1264 H   0  0  0  0  0  0
  -19.6720  -27.3184   20.6745 H   0  0  0  0  0  0
  -17.4243  -26.6714   21.4023 H   0  0  0  0  0  0
  -18.0342  -26.0103   22.9029 H   0  0  0  0  0  0
  -19.7974  -30.7338   24.2198 H   0  0  0  0  0  0
  -17.5030  -31.6258   24.5177 H   0  0  0  0  0  0
  -15.5380  -30.2949   23.7667 H   0  0  0  0  0  0
  -15.8743  -28.0809   22.7036 H   0  0  0  0  0  0
  -24.5931  -30.7057   25.7714 H   0  0  0  0  0  0
  -24.8894  -32.2931   26.4711 H   0  0  0  0  0  0
  -25.8008  -30.8991   27.0224 H   0  0  0  0  0  0
  -26.3102  -29.6570   24.1387 H   0  0  0  0  0  0
  -27.4003  -29.7237   25.5016 H   0  0  0  0  0  0
  -27.9038  -30.4085   23.9782 H   0  0  0  0  0  0
  -27.2692  -33.3628   26.1991 H   0  0  0  0  0  0
  -28.3954  -32.6768   25.0371 H   0  0  0  0  0  0
  -28.0681  -31.8452   26.5489 H   0  0  0  0  0  0
  -28.2588  -38.0085   24.7456 H   0  0  0  0  0  0
  -28.1080  -36.2600   24.6367 H   0  0  0  0  0  0
  -27.2290  -37.1522   25.8880 H   0  0  0  0  0  0
  -20.9525  -29.8802   21.6732 H   0  0  0  0  0  0
  -26.0143  -38.2769   24.1349 H   0  0  0  0  0  0
  -30.2847  -20.7000   18.6436 H   0  0  0  0  0  0
  -30.7241  -17.6678   19.3959 H   0  0  0  0  0  0
  -26.8115  -22.6879   19.3397 H   0  0  0  0  0  0
  -27.1692  -24.0672   18.3133 H   0  0  0  0  0  0
  -25.9050  -24.1140   19.5751 H   0  0  0  0  0  0
  -29.4683  -22.9575   21.5543 H   0  0  0  0  0  0
  -29.9174  -23.2085   19.9208 H   0  0  0  0  0  0
  -27.4053  -24.2167   21.2993 H   0  0  0  0  0  0
  1 25  1  0  0  0
  1 30  2  0  0  0
  1 77  1  0  0  0
  2  3  1  0  0  0
  2 25  1  0  0  0
  2 80  1  0  0  0
  2 81  1  0  0  0
  3  4  1  0  0  0
  3 82  1  0  0  0
  3 83  1  0  0  0
  4  5  1  0  0  0
  4 84  1  0  0  0
  4 85  1  0  0  0
  5  6  1  0  0  0
  5 26  1  0  0  0
  5 86  1  0  0  0
  6 25  1  0  0  0
  6 87  1  0  0  0
  6 88  1  0  0  0
  7  8  2  0  0  0
  7 26  1  0  0  0
  7 29  1  0  0  0
  8  9  1  0  0  0
  8 22  1  0  0  0
  9 10  1  0  0  0
  9 27  2  0  0  0
 10 11  2  0  0  0
 10 15  1  0  0  0
 11 12  1  0  0  0
 11 89  1  0  0  0
 12 13  2  0  0  0
 12 90  1  0  0  0
 13 14  1  0  0  0
 13 31  1  0  0  0
 14 15  2  0  0  0
 14 91  1  0  0  0
 15 92  1  0  0  0
 16 17  2  0  0  0
 16 21  1  0  0  0
 16 31  1  0  0  0
 17 18  1  0  0  0
 17 93  1  0  0  0
 18 19  2  0  0  0
 18 94  1  0  0  0
 19 20  1  0  0  0
 19 24  1  0  0  0
 20 21  2  0  0  0
 20 95  1  0  0  0
 21 23  1  0  0  0
 22 28  1  0  0  0
 22 32  2  0  0  0
 26 27  1  0  0  0
 28 96  1  0  0  0
 28 97  1  0  0  0
 29 98  1  0  0  0
 29 99  1  0  0  0
 33 34  1  0  0  0
 33 66  1  0  0  0
 33 70  2  0  0  0
 34 36  1  0  0  0
 34 59  1  0  0  0
 34100  1  0  0  0
 35 44  2  0  0  0
 35 45  1  0  0  0
 35 68  1  0  0  0
 36 56  1  0  0  0
 36101  1  0  0  0
 37 39  1  0  0  0
 37 47  1  0  0  0
 37 66  1  0  0  0
 37102  1  0  0  0
 38 43  2  0  0  0
 38 46  1  0  0  0
 38 47  1  0  0  0
 39 64  1  0  0  0
 39 67  2  0  0  0
 40 52  1  0  0  0
 40 53  2  0  0  0
 40 58  1  0  0  0
 41103  1  0  0  0
 41104  1  0  0  0
 41105  1  0  0  0
 41 48  1  0  0  0
 42 43  1  0  0  0
 42 66  1  0  0  0
 42106  1  0  0  0
 42107  1  0  0  0
 43 44  1  0  0  0
 44108  1  0  0  0
 45 46  2  0  0  0
 45109  1  0  0  0
 46110  1  0  0  0
 47111  1  0  0  0
 47112  1  0  0  0
 48 56  1  0  0  0
 48 65  1  0  0  0
 48113  1  0  0  0
 49 50  1  0  0  0
 49 53  1  0  0  0
 49 64  1  0  0  0
 49114  1  0  0  0
 50 51  1  0  0  0
 50115  1  0  0  0
 50116  1  0  0  0
 51 52  1  0  0  0
 51117  1  0  0  0
 51118  1  0  0  0
 52119  1  0  0  0
 52120  1  0  0  0
 53 54  1  0  0  0
 54 55  2  0  0  0
 54121  1  0  0  0
 55 57  1  0  0  0
 55122  1  0  0  0
 56 69  2  0  0  0
 57 58  2  0  0  0
 57123  1  0  0  0
 58124  1  0  0  0
 59 60  1  0  0  0
 59 61  1  0  0  0
 59 62  1  0  0  0
 60125  1  0  0  0
 60126  1  0  0  0
 60127  1  0  0  0
 61128  1  0  0  0
 61129  1  0  0  0
 61130  1  0  0  0
 62131  1  0  0  0
 62132  1  0  0  0
 62133  1  0  0  0
 63 65  1  0  0  0
 63134  1  0  0  0
 63135  1  0  0  0
 63136  1  0  0  0
 64137  1  0  0  0
 65138  1  0  0  0
 68 76  1  0  0  0
 71 72  2  0  0  0
 71 78  1  0  0  0
 71139  1  0  0  0
 72 73  1  0  0  0
 72 79  1  0  0  0
 73 77  2  0  0  0
 73140  1  0  0  0
 74141  1  0  0  0
 74142  1  0  0  0
 74143  1  0  0  0
 74 76  1  0  0  0
 75 76  1  0  0  0
 75 78  1  0  0  0
 75144  1  0  0  0
 75145  1  0  0  0
 76146  1  0  0  0
 78 79  1  0  0  0
M  ISO  4   1 100  68 101  76 101  77 100
M  END
> <chiral flag>
0

> <version>
0

> <s_m_source_file>
/data/baiqing/PycharmProjects/Reinvent-master-3.2/result/LINK_invent/BTK/process_docking_weight1_custom_product_contain_oxygen_bond_distance_aromatic_linkinvent_7_9_3/rearranged_h_0157.sdf

> <i_m_source_file_index>
35

> <r_mmod_Potential_Energy-OPLS-2005>
1071.5615234375

> <r_mmod_Stretch_Energy-OPLS-2005>
454.752075195312

> <r_mmod_Bend_Energy-OPLS-2005>
447.755432128906

> <r_mmod_Torsional_Energy-OPLS-2005>
193.046081542969

> <r_mmod_Improper_Torsional_Energy-OPLS-2005>
6.92469787597656

> <r_mmod_Van_der_Waal_Energy-OPLS-2005>
124.157676696777

> <r_mmod_Electrostatic_Energy-OPLS-2005>
-314.763549804688

> <r_mmod_Solvation_Energy-OPLS-2005>
-200.732803344727

> <b_mmod_Minimization_Converged-OPLS-2005>
0

> <r_mmod_RMS_Derivative-OPLS-2005>
4.55131435394287

$$$$
35
                    3D
 Structure written by MMmdl.
157166  0  0  1  0            999 V2000
  -30.5882  -14.7639   20.4672 C   0  0  0  0  0  0
  -30.4448  -12.4695   19.4690 C   0  0  0  0  0  0
  -29.5167  -12.5273   18.2335 C   0  0  0  0  0  0
  -28.0397  -12.3528   18.6418 C   0  0  0  0  0  0
  -27.6475  -13.2340   19.8582 C   0  0  2  0  0  0
  -28.6953  -13.1434   20.9902 C   0  0  0  0  0  0
  -25.2525  -13.8196   20.5691 C   0  0  0  0  0  0
  -24.1815  -13.0438   20.9210 C   0  0  0  0  0  0
  -24.6410  -11.6918   20.8741 C   0  0  0  0  0  0
  -23.9081  -10.4297   21.0397 C   0  0  0  0  0  0
  -24.3630   -9.4207   21.9174 C   0  0  0  0  0  0
  -23.6301   -8.2243   22.0745 C   0  0  0  0  0  0
  -22.4278   -8.0287   21.3544 C   0  0  0  0  0  0
  -21.9917   -9.0259   20.4640 C   0  0  0  0  0  0
  -22.7250  -10.2136   20.3047 C   0  0  0  0  0  0
  -21.6853   -6.0736   22.5282 C   0  0  0  0  0  0
  -21.4013   -6.5637   23.8218 C   0  0  0  0  0  0
  -21.3660   -5.6787   24.9179 C   0  0  0  0  0  0
  -21.6047   -4.3053   24.7226 C   0  0  0  0  0  0
  -21.8818   -3.8144   23.4350 C   0  0  0  0  0  0
  -21.9191   -4.6959   22.3404 C   0  0  0  0  0  0
  -22.7831  -13.5218   21.1879 C   0  0  0  0  0  0
  -22.1661   -4.2143   21.0982 F   0  0  0  0  0  0
  -21.5629   -3.4538   25.7742 F   0  0  0  0  0  0
  -29.9963  -13.5178   20.4162 N   0  0  0  0  0  0
  -26.2971  -12.9412   20.3306 N   0  0  0  0  0  0
  -25.9347  -11.6548   20.5741 N   0  0  0  0  0  0
  -22.0475  -12.8201   22.0430 N   0  0  0  0  0  0
  -25.4193  -15.1928   20.4110 N   0  0  0  0  0  0
  -31.7664  -14.8983   20.1217 O   0  0  0  0  0  0
  -21.6643   -6.8881   21.4246 O   0  0  0  0  0  0
  -22.3508  -14.5522   20.6728 O   0  0  0  0  0  0
  -24.6330  -31.8551   23.1988 C   0  0  0  0  0  0
  -25.9143  -32.4764   23.8354 C   0  0  1  0  0  0
  -27.2194  -27.2482   20.1328 C   0  0  0  0  0  0
  -25.5932  -33.8570   24.2268 N   0  0  0  0  0  0
  -23.4343  -30.4751   21.5418 C   0  0  2  0  0  0
  -24.8877  -28.9270   20.1057 C   0  0  0  0  0  0
  -22.7525  -29.4593   22.4912 C   0  0  0  0  0  0
  -18.0287  -28.1392   22.8477 C   0  0  0  0  0  0
  -24.1479  -36.7279   23.2635 C   0  0  0  0  0  0
  -25.9833  -30.7592   21.3885 C   0  0  0  0  0  0
  -26.0596  -29.3829   20.7265 C   0  0  0  0  0  0
  -27.2317  -28.5524   20.7365 C   0  0  0  0  0  0
  -26.0350  -26.8787   19.4597 C   0  0  0  0  0  0
  -24.8815  -27.6836   19.4578 C   0  0  0  0  0  0
  -23.6571  -29.8121   20.1572 C   0  0  0  0  0  0
  -25.4111  -36.3087   24.0330 C   0  0  1  0  0  0
  -20.5891  -28.3713   23.1255 C   0  0  2  0  0  0
  -20.6775  -26.9423   22.5406 C   0  0  0  0  0  0
  -19.5756  -26.6384   21.5204 C   0  0  0  0  0  0
  -18.1936  -26.7929   22.1618 C   0  0  0  0  0  0
  -19.1538  -28.8868   23.2860 C   0  0  0  0  0  0
  -18.9462  -30.1463   23.8892 C   0  0  0  0  0  0
  -17.6462  -30.6590   24.0553 C   0  0  0  0  0  0
  -25.9059  -34.9457   23.5102 C   0  0  0  0  0  0
  -16.5353  -29.9083   23.6336 C   0  0  0  0  0  0
  -16.7276  -28.6498   23.0366 C   0  0  0  0  0  0
  -26.4502  -31.6592   25.0747 C   0  0  0  0  0  0
  -25.3714  -31.3772   26.1465 C   0  0  0  0  0  0
  -27.0335  -30.2985   24.6278 C   0  0  0  0  0  0
  -27.6067  -32.4334   25.7514 C   0  0  0  0  0  0
  -27.5581  -37.1789   24.8466 C   0  0  0  0  0  0
  -21.4232  -29.3048   22.3641 N   0  0  0  0  0  0
  -26.4291  -37.3782   23.9410 N   0  0  0  0  0  0
  -24.7023  -31.0482   22.0993 N   0  0  0  0  0  0
  -23.4202  -28.8131   23.3027 O   0  0  0  0  0  0
  -28.2245  -26.2485   20.2291 O   0  0  0  0  0  0
  -26.5633  -34.8937   22.4675 O   0  0  0  0  0  0
  -23.5472  -32.1396   23.7249 O   0  0  0  0  0  0
  -30.9465  -18.0679   20.2014 C   0  0  0  0  0  0
  -30.6740  -19.5067   20.1420 C   0  0  0  0  0  0
  -29.4002  -19.9199   20.5184 C   0  0  0  0  0  0
  -29.8950  -17.2551   20.5951 C   0  0  0  0  0  0
  -28.0819  -23.6587   20.8405 C   0  0  0  0  0  0
  -27.7674  -25.0246   20.8111 C   0  0  0  0  0  0
  -31.7439  -20.4315   19.7056 C   0  0  0  0  0  0
  -27.1496  -22.7599   21.6346 C   0  0  0  0  0  0
  -29.1515  -22.6415   20.2749 C   0  0  0  0  0  0
  -27.3860  -21.3034   21.2029 C   0  0  0  0  0  0
  -32.9346  -20.5868   20.6272 C   0  0  0  0  0  0
  -31.7019  -21.0775   18.6181 N   0  0  0  0  0  0
  -28.7310  -21.2281   20.6511 N   0  0  0  0  0  0
  -29.7685  -15.8541   20.7422 N   0  0  0  0  0  0
  -28.5449  -18.3889   20.9231 S   0  0  0  0  0  0
  -31.4825  -12.6120   19.1629 H   0  0  0  0  0  0
  -30.4022  -11.4851   19.9381 H   0  0  0  0  0  0
  -29.7985  -11.7604   17.5107 H   0  0  0  0  0  0
  -29.6435  -13.4848   17.7254 H   0  0  0  0  0  0
  -27.8849  -11.3005   18.8814 H   0  0  0  0  0  0
  -27.3876  -12.5704   17.7948 H   0  0  0  0  0  0
  -27.6455  -14.2620   19.4961 H   0  0  0  0  0  0
  -28.7344  -12.1319   21.3976 H   0  0  0  0  0  0
  -28.4269  -13.7945   21.8238 H   0  0  0  0  0  0
  -25.2774   -9.5677   22.4752 H   0  0  0  0  0  0
  -24.0008   -7.4627   22.7462 H   0  0  0  0  0  0
  -21.0846   -8.8781   19.8948 H   0  0  0  0  0  0
  -22.3708  -10.9676   19.6159 H   0  0  0  0  0  0
  -21.2007   -7.6145   23.9721 H   0  0  0  0  0  0
  -21.1483   -6.0518   25.9081 H   0  0  0  0  0  0
  -22.0596   -2.7605   23.2854 H   0  0  0  0  0  0
  -22.4088  -11.9868   22.4831 H   0  0  0  0  0  0
  -21.1086  -13.1212   22.2627 H   0  0  0  0  0  0
  -24.6454  -15.8400   20.5165 H   0  0  0  0  0  0
  -26.2550  -15.6345   20.0508 H   0  0  0  0  0  0
  -26.7199  -32.5405   23.1091 H   0  0  0  0  0  0
  -25.0068  -33.9715   25.0406 H   0  0  0  0  0  0
  -22.7306  -31.2959   21.3928 H   0  0  0  0  0  0
  -23.3763  -35.9587   23.3308 H   0  0  0  0  0  0
  -24.3551  -36.8894   22.2043 H   0  0  0  0  0  0
  -23.7227  -37.6479   23.6656 H   0  0  0  0  0  0
  -26.1281  -31.5218   20.6228 H   0  0  0  0  0  0
  -26.8572  -30.8055   22.0268 H   0  0  0  0  0  0
  -28.1197  -28.8796   21.2592 H   0  0  0  0  0  0
  -25.9821  -25.9150   18.9732 H   0  0  0  0  0  0
  -23.9878  -27.3299   18.9617 H   0  0  0  0  0  0
  -23.7808  -30.5919   19.4043 H   0  0  0  0  0  0
  -22.7773  -29.2426   19.8523 H   0  0  0  0  0  0
  -25.1289  -36.1942   25.0822 H   0  0  0  0  0  0
  -20.9971  -28.3312   24.1380 H   0  0  0  0  0  0
  -20.5652  -26.2341   23.3628 H   0  0  0  0  0  0
  -21.6652  -26.7436   22.1205 H   0  0  0  0  0  0
  -19.6926  -25.6293   21.1240 H   0  0  0  0  0  0
  -19.6691  -27.3198   20.6730 H   0  0  0  0  0  0
  -17.4200  -26.6672   21.4025 H   0  0  0  0  0  0
  -18.0332  -26.0068   22.9011 H   0  0  0  0  0  0
  -19.7943  -30.7264   24.2280 H   0  0  0  0  0  0
  -17.5019  -31.6275   24.5155 H   0  0  0  0  0  0
  -15.5355  -30.2981   23.7666 H   0  0  0  0  0  0
  -15.8674  -28.0809   22.7107 H   0  0  0  0  0  0
  -24.5903  -30.7101   25.7797 H   0  0  0  0  0  0
  -24.8887  -32.2945   26.4841 H   0  0  0  0  0  0
  -25.8011  -30.8991   27.0275 H   0  0  0  0  0  0
  -26.2927  -29.6743   24.1259 H   0  0  0  0  0  0
  -27.3917  -29.7258   25.4842 H   0  0  0  0  0  0
  -27.8858  -30.4203   23.9592 H   0  0  0  0  0  0
  -27.2689  -33.3655   26.2060 H   0  0  0  0  0  0
  -28.3892  -32.6857   25.0345 H   0  0  0  0  0  0
  -28.0713  -31.8478   26.5460 H   0  0  0  0  0  0
  -28.2608  -38.0075   24.7508 H   0  0  0  0  0  0
  -28.1072  -36.2616   24.6295 H   0  0  0  0  0  0
  -27.2295  -37.1433   25.8865 H   0  0  0  0  0  0
  -20.9450  -29.8755   21.6816 H   0  0  0  0  0  0
  -26.0187  -38.2859   24.1423 H   0  0  0  0  0  0
  -31.9227  -17.6874   19.9348 H   0  0  0  0  0  0
  -26.8983  -25.2651   21.4105 H   0  0  0  0  0  0
  -26.1028  -23.0449   21.5116 H   0  0  0  0  0  0
  -27.3948  -22.8737   22.6910 H   0  0  0  0  0  0
  -30.1288  -22.8713   20.7017 H   0  0  0  0  0  0
  -29.2252  -22.7477   19.1917 H   0  0  0  0  0  0
  -26.6723  -21.0177   20.4280 H   0  0  0  0  0  0
  -27.2411  -20.6270   22.0464 H   0  0  0  0  0  0
  -32.7494  -20.1182   21.5940 H   0  0  0  0  0  0
  -33.1427  -21.6429   20.7997 H   0  0  0  0  0  0
  -33.8192  -20.1266   20.1867 H   0  0  0  0  0  0
  -30.8495  -20.8774   18.1049 H   0  0  0  0  0  0
  -28.8479  -15.5595   21.0319 H   0  0  0  0  0  0
  1 25  1  0  0  0
  1 30  2  0  0  0
  1 84  1  0  0  0
  2  3  1  0  0  0
  2 25  1  0  0  0
  2 86  1  0  0  0
  2 87  1  0  0  0
  3  4  1  0  0  0
  3 88  1  0  0  0
  3 89  1  0  0  0
  4  5  1  0  0  0
  4 90  1  0  0  0
  4 91  1  0  0  0
  5  6  1  0  0  0
  5 26  1  0  0  0
  5 92  1  0  0  0
  6 25  1  0  0  0
  6 93  1  0  0  0
  6 94  1  0  0  0
  7  8  2  0  0  0
  7 26  1  0  0  0
  7 29  1  0  0  0
  8  9  1  0  0  0
  8 22  1  0  0  0
  9 10  1  0  0  0
  9 27  2  0  0  0
 10 11  2  0  0  0
 10 15  1  0  0  0
 11 12  1  0  0  0
 11 95  1  0  0  0
 12 13  2  0  0  0
 12 96  1  0  0  0
 13 14  1  0  0  0
 13 31  1  0  0  0
 14 15  2  0  0  0
 14 97  1  0  0  0
 15 98  1  0  0  0
 16 17  2  0  0  0
 16 21  1  0  0  0
 16 31  1  0  0  0
 17 18  1  0  0  0
 17 99  1  0  0  0
 18 19  2  0  0  0
 18100  1  0  0  0
 19 20  1  0  0  0
 19 24  1  0  0  0
 20 21  2  0  0  0
 20101  1  0  0  0
 21 23  1  0  0  0
 22 28  1  0  0  0
 22 32  2  0  0  0
 26 27  1  0  0  0
 28102  1  0  0  0
 28103  1  0  0  0
 29104  1  0  0  0
 29105  1  0  0  0
 33 34  1  0  0  0
 33 66  1  0  0  0
 33 70  2  0  0  0
 34 36  1  0  0  0
 34 59  1  0  0  0
 34106  1  0  0  0
 35 44  2  0  0  0
 35 45  1  0  0  0
 35 68  1  0  0  0
 36 56  1  0  0  0
 36107  1  0  0  0
 37 39  1  0  0  0
 37 47  1  0  0  0
 37 66  1  0  0  0
 37108  1  0  0  0
 38 43  2  0  0  0
 38 46  1  0  0  0
 38 47  1  0  0  0
 39 64  1  0  0  0
 39 67  2  0  0  0
 40 52  1  0  0  0
 40 53  2  0  0  0
 40 58  1  0  0  0
 41109  1  0  0  0
 41110  1  0  0  0
 41111  1  0  0  0
 41 48  1  0  0  0
 42 43  1  0  0  0
 42 66  1  0  0  0
 42112  1  0  0  0
 42113  1  0  0  0
 43 44  1  0  0  0
 44114  1  0  0  0
 45 46  2  0  0  0
 45115  1  0  0  0
 46116  1  0  0  0
 47117  1  0  0  0
 47118  1  0  0  0
 48 56  1  0  0  0
 48 65  1  0  0  0
 48119  1  0  0  0
 49 50  1  0  0  0
 49 53  1  0  0  0
 49 64  1  0  0  0
 49120  1  0  0  0
 50 51  1  0  0  0
 50121  1  0  0  0
 50122  1  0  0  0
 51 52  1  0  0  0
 51123  1  0  0  0
 51124  1  0  0  0
 52125  1  0  0  0
 52126  1  0  0  0
 53 54  1  0  0  0
 54 55  2  0  0  0
 54127  1  0  0  0
 55 57  1  0  0  0
 55128  1  0  0  0
 56 69  2  0  0  0
 57 58  2  0  0  0
 57129  1  0  0  0
 58130  1  0  0  0
 59 60  1  0  0  0
 59 61  1  0  0  0
 59 62  1  0  0  0
 60131  1  0  0  0
 60132  1  0  0  0
 60133  1  0  0  0
 61134  1  0  0  0
 61135  1  0  0  0
 61136  1  0  0  0
 62137  1  0  0  0
 62138  1  0  0  0
 62139  1  0  0  0
 63 65  1  0  0  0
 63140  1  0  0  0
 63141  1  0  0  0
 63142  1  0  0  0
 64143  1  0  0  0
 65144  1  0  0  0
 68 76  1  0  0  0
 71 72  1  0  0  0
 71 74  2  0  0  0
 71145  1  0  0  0
 72 73  2  0  0  0
 72 77  1  0  0  0
 73 83  1  0  0  0
 73 85  1  0  0  0
 74 84  1  0  0  0
 74 85  1  0  0  0
 75 76  2  0  0  0
 75 78  1  0  0  0
 75 79  1  0  0  0
 76146  1  0  0  0
 77 81  1  0  0  0
 77 82  2  0  0  0
 78 80  1  0  0  0
 78147  1  0  0  0
 78148  1  0  0  0
 79 83  1  0  0  0
 79149  1  0  0  0
 79150  1  0  0  0
 80 83  1  0  0  0
 80151  1  0  0  0
 80152  1  0  0  0
 81153  1  0  0  0
 81154  1  0  0  0
 81155  1  0  0  0
 82156  1  0  0  0
 84157  1  0  0  0
M  ISO  4   1 100  68 101  76 101  84 100
M  END
> <chiral flag>
0

> <version>
0

> <s_m_source_file>
/data/baiqing/PycharmProjects/Reinvent-master-3.2/result/LINK_invent/BTK/process_docking_weight1_custom_product_contain_oxygen_bond_distance_aromatic_linkinvent_7_9_3/rearranged_h_0157.sdf

> <i_m_source_file_index>
36

> <r_mmod_Potential_Energy-OPLS-2005>
332.609558105469

> <r_mmod_Stretch_Energy-OPLS-2005>
120.039535522461

> <r_mmod_Bend_Energy-OPLS-2005>
267.304168701172

> <r_mmod_Torsional_Energy-OPLS-2005>
255.722900390625

> <r_mmod_Improper_Torsional_Energy-OPLS-2005>
4.44344520568848

> <r_mmod_Van_der_Waal_Energy-OPLS-2005>
115.631286621094

> <r_mmod_Electrostatic_Energy-OPLS-2005>
-305.147277832031

> <r_mmod_Solvation_Energy-OPLS-2005>
-230.699737548828

> <b_mmod_Minimization_Converged-OPLS-2005>
0

> <r_mmod_RMS_Derivative-OPLS-2005>
1.94679999351501

$$$$
36
                    3D
 Structure written by MMmdl.
158167  0  0  1  0            999 V2000
  -30.6259  -14.5702   20.4997 C   0  0  0  0  0  0
  -30.4317  -12.3476   19.4390 C   0  0  0  0  0  0
  -29.5075  -12.5377   18.2159 C   0  0  0  0  0  0
  -28.0244  -12.3860   18.6170 C   0  0  0  0  0  0
  -27.6580  -13.2089   19.8819 C   0  0  2  0  0  0
  -28.7029  -12.9977   21.0012 C   0  0  0  0  0  0
  -25.2534  -13.8154   20.5691 C   0  0  0  0  0  0
  -24.1785  -13.0420   20.9195 C   0  0  0  0  0  0
  -24.6360  -11.6908   20.8756 C   0  0  0  0  0  0
  -23.9036  -10.4295   21.0421 C   0  0  0  0  0  0
  -24.3602   -9.4218   21.9195 C   0  0  0  0  0  0
  -23.6277   -8.2254   22.0762 C   0  0  0  0  0  0
  -22.4256   -8.0297   21.3552 C   0  0  0  0  0  0
  -21.9890   -9.0266   20.4651 C   0  0  0  0  0  0
  -22.7216  -10.2146   20.3058 C   0  0  0  0  0  0
  -21.6845   -6.0744   22.5291 C   0  0  0  0  0  0
  -21.4028   -6.5638   23.8231 C   0  0  0  0  0  0
  -21.3669   -5.6782   24.9185 C   0  0  0  0  0  0
  -21.6032   -4.3049   24.7225 C   0  0  0  0  0  0
  -21.8805   -3.8148   23.4342 C   0  0  0  0  0  0
  -21.9179   -4.6977   22.3402 C   0  0  0  0  0  0
  -22.7804  -13.5259   21.1833 C   0  0  0  0  0  0
  -22.1635   -4.2163   21.0976 F   0  0  0  0  0  0
  -21.5630   -3.4526   25.7725 F   0  0  0  0  0  0
  -30.0244  -13.3423   20.4483 N   0  0  0  0  0  0
  -26.2990  -12.9326   20.3389 N   0  0  0  0  0  0
  -25.9291  -11.6487   20.5767 N   0  0  0  0  0  0
  -22.0383  -12.8317   22.0414 N   0  0  0  0  0  0
  -25.4189  -15.1882   20.4134 N   0  0  0  0  0  0
  -31.7634  -14.7628   20.0610 O   0  0  0  0  0  0
  -21.6614   -6.8900   21.4254 O   0  0  0  0  0  0
  -22.3533  -14.5554   20.6656 O   0  0  0  0  0  0
  -24.6186  -31.8693   23.2016 C   0  0  0  0  0  0
  -25.9051  -32.4838   23.8351 C   0  0  1  0  0  0
  -27.2273  -27.3680   20.0733 C   0  0  0  0  0  0
  -25.5908  -33.8635   24.2315 N   0  0  0  0  0  0
  -23.4099  -30.4867   21.5488 C   0  0  2  0  0  0
  -24.8524  -28.9480   20.1033 C   0  0  0  0  0  0
  -22.7452  -29.4688   22.5037 C   0  0  0  0  0  0
  -18.0279  -28.1431   22.8500 C   0  0  0  0  0  0
  -24.1476  -36.7269   23.2634 C   0  0  0  0  0  0
  -25.9440  -30.8065   21.3657 C   0  0  0  0  0  0
  -26.0142  -29.4343   20.7114 C   0  0  0  0  0  0
  -27.1976  -28.6461   20.7045 C   0  0  0  0  0  0
  -26.0478  -26.9376   19.4266 C   0  0  0  0  0  0
  -24.8670  -27.7027   19.4568 C   0  0  0  0  0  0
  -23.6138  -29.8132   20.1651 C   0  0  0  0  0  0
  -25.4108  -36.3110   24.0342 C   0  0  1  0  0  0
  -20.5876  -28.3727   23.1327 C   0  0  2  0  0  0
  -20.6791  -26.9476   22.5399 C   0  0  0  0  0  0
  -19.5750  -26.6448   21.5214 C   0  0  0  0  0  0
  -18.1934  -26.7976   22.1630 C   0  0  0  0  0  0
  -19.1531  -28.8890   23.2904 C   0  0  0  0  0  0
  -18.9462  -30.1494   23.8903 C   0  0  0  0  0  0
  -17.6471  -30.6629   24.0581 C   0  0  0  0  0  0
  -25.9050  -34.9491   23.5134 C   0  0  0  0  0  0
  -16.5362  -29.9135   23.6340 C   0  0  0  0  0  0
  -16.7269  -28.6554   23.0354 C   0  0  0  0  0  0
  -26.4433  -31.6610   25.0703 C   0  0  0  0  0  0
  -25.3670  -31.3735   26.1432 C   0  0  0  0  0  0
  -27.0231  -30.3040   24.6093 C   0  0  0  0  0  0
  -27.6045  -32.4299   25.7454 C   0  0  0  0  0  0
  -27.5584  -37.1798   24.8495 C   0  0  0  0  0  0
  -21.4182  -29.3073   22.3754 N   0  0  0  0  0  0
  -26.4297  -37.3801   23.9427 N   0  0  0  0  0  0
  -24.6768  -31.0734   22.0949 N   0  0  0  0  0  0
  -23.4206  -28.8258   23.3121 O   0  0  0  0  0  0
  -28.3700  -26.5664   20.1379 O   0  0  0  0  0  0
  -26.5621  -34.8951   22.4705 O   0  0  0  0  0  0
  -23.5368  -32.1481   23.7380 O   0  0  0  0  0  0
  -30.2272  -18.0673   20.5731 C   0  0  0  0  0  0
  -29.6549  -19.1549   19.7996 C   0  0  0  0  0  0
  -29.6664  -16.8156   20.3160 C   0  0  0  0  0  0
  -28.6849  -18.6952   18.9567 C   0  0  0  0  0  0
  -27.5316  -23.1932   19.9936 C   0  0  0  0  0  0
  -28.5791  -23.9851   19.7137 C   0  0  0  0  0  0
  -30.1408  -20.5735   19.7955 C   0  0  0  0  0  0
  -27.9098  -21.7295   20.1609 C   0  0  0  0  0  0
  -29.8359  -23.1118   19.6367 C   0  0  0  0  0  0
  -26.0627  -23.5535   20.0208 C   0  0  0  0  0  0
  -28.5888  -25.4655   19.2027 C   0  0  0  0  0  0
  -29.3533  -21.7065   19.8538 N   0  0  0  0  0  0
  -29.8525  -15.6000   20.9392 N   0  0  0  0  0  0
  -31.4705  -20.7493   19.6929 N   0  3  0  0  0  0
  -28.0226  -19.4507   18.0495 F   0  0  0  0  0  0
  -28.4293  -16.9788   19.0758 S   0  0  0  0  0  0
  -31.4796  -12.4570   19.1533 H   0  0  0  0  0  0
  -30.3402  -11.3335   19.8333 H   0  0  0  0  0  0
  -29.7614  -11.8237   17.4317 H   0  0  0  0  0  0
  -29.6694  -13.5318   17.7924 H   0  0  0  0  0  0
  -27.8354  -11.3268   18.7956 H   0  0  0  0  0  0
  -27.3796  -12.6765   17.7866 H   0  0  0  0  0  0
  -27.6960  -14.2559   19.5937 H   0  0  0  0  0  0
  -28.6928  -11.9514   21.3143 H   0  0  0  0  0  0
  -28.4627  -13.5763   21.8946 H   0  0  0  0  0  0
  -25.2744   -9.5690   22.4781 H   0  0  0  0  0  0
  -23.9968   -7.4646   22.7485 H   0  0  0  0  0  0
  -21.0811   -8.8790   19.8973 H   0  0  0  0  0  0
  -22.3671  -10.9685   19.6170 H   0  0  0  0  0  0
  -21.2038   -7.6145   23.9754 H   0  0  0  0  0  0
  -21.1499   -6.0498   25.9089 H   0  0  0  0  0  0
  -22.0575   -2.7610   23.2820 H   0  0  0  0  0  0
  -22.3905  -11.9997   22.4893 H   0  0  0  0  0  0
  -21.1009  -13.1436   22.2540 H   0  0  0  0  0  0
  -24.6449  -15.8320   20.5351 H   0  0  0  0  0  0
  -26.2627  -15.6441   20.0952 H   0  0  0  0  0  0
  -26.7144  -32.5526   23.1129 H   0  0  0  0  0  0
  -25.0070  -33.9774   25.0473 H   0  0  0  0  0  0
  -22.6991  -31.3035   21.4057 H   0  0  0  0  0  0
  -23.3771  -35.9569   23.3320 H   0  0  0  0  0  0
  -24.3566  -36.8840   22.2038 H   0  0  0  0  0  0
  -23.7174  -37.6467   23.6616 H   0  0  0  0  0  0
  -26.0719  -31.5702   20.5979 H   0  0  0  0  0  0
  -26.8280  -30.8597   21.9878 H   0  0  0  0  0  0
  -28.0849  -29.0176   21.1963 H   0  0  0  0  0  0
  -26.0037  -25.9995   18.8987 H   0  0  0  0  0  0
  -23.9783  -27.3332   18.9633 H   0  0  0  0  0  0
  -23.7055  -30.5800   19.3962 H   0  0  0  0  0  0
  -22.7401  -29.2211   19.8836 H   0  0  0  0  0  0
  -25.1283  -36.1980   25.0832 H   0  0  0  0  0  0
  -20.9941  -28.3268   24.1462 H   0  0  0  0  0  0
  -20.5775  -26.2325   23.3579 H   0  0  0  0  0  0
  -21.6657  -26.7597   22.1139 H   0  0  0  0  0  0
  -19.6932  -25.6372   21.1209 H   0  0  0  0  0  0
  -19.6648  -27.3287   20.6768 H   0  0  0  0  0  0
  -17.4209  -26.6724   21.4030 H   0  0  0  0  0  0
  -18.0342  -26.0131   22.9033 H   0  0  0  0  0  0
  -19.7941  -30.7320   24.2264 H   0  0  0  0  0  0
  -17.5029  -31.6294   24.5212 H   0  0  0  0  0  0
  -15.5363  -30.3048   23.7676 H   0  0  0  0  0  0
  -15.8661  -28.0878   22.7079 H   0  0  0  0  0  0
  -24.5967  -30.6919   25.7803 H   0  0  0  0  0  0
  -24.8685  -32.2858   26.4726 H   0  0  0  0  0  0
  -25.8016  -30.9085   27.0285 H   0  0  0  0  0  0
  -26.2748  -29.6844   24.1136 H   0  0  0  0  0  0
  -27.3970  -29.7250   25.4544 H   0  0  0  0  0  0
  -27.8605  -30.4346   23.9237 H   0  0  0  0  0  0
  -27.2752  -33.3675   26.1938 H   0  0  0  0  0  0
  -28.3891  -32.6712   25.0274 H   0  0  0  0  0  0
  -28.0641  -31.8445   26.5422 H   0  0  0  0  0  0
  -28.2654  -38.0050   24.7562 H   0  0  0  0  0  0
  -28.1032  -36.2605   24.6322 H   0  0  0  0  0  0
  -27.2311  -37.1449   25.8898 H   0  0  0  0  0  0
  -20.9413  -29.8689   21.6839 H   0  0  0  0  0  0
  -26.0194  -38.2887   24.1418 H   0  0  0  0  0  0
  -31.0086  -18.2479   21.2970 H   0  0  0  0  0  0
  -27.3338  -21.1136   19.4756 H   0  0  0  0  0  0
  -27.7283  -21.3995   21.1853 H   0  0  0  0  0  0
  -30.5666  -23.4062   20.3896 H   0  0  0  0  0  0
  -30.2853  -23.1955   18.6477 H   0  0  0  0  0  0
  -25.8967  -24.4849   20.5570 H   0  0  0  0  0  0
  -25.5040  -22.7809   20.5479 H   0  0  0  0  0  0
  -25.6581  -23.6267   19.0105 H   0  0  0  0  0  0
  -29.6065  -25.6358   18.8493 H   0  0  0  0  0  0
  -27.9896  -25.5535   18.2972 H   0  0  0  0  0  0
  -29.0162  -15.2582   21.3897 H   0  0  0  0  0  0
  -31.8827  -21.6676   19.6849 H   0  0  0  0  0  0
  -32.0946  -19.9636   19.5838 H   0  0  0  0  0  0
  1 25  1  0  0  0
  1 30  2  0  0  0
  1 83  1  0  0  0
  2  3  1  0  0  0
  2 25  1  0  0  0
  2 87  1  0  0  0
  2 88  1  0  0  0
  3  4  1  0  0  0
  3 89  1  0  0  0
  3 90  1  0  0  0
  4  5  1  0  0  0
  4 91  1  0  0  0
  4 92  1  0  0  0
  5  6  1  0  0  0
  5 26  1  0  0  0
  5 93  1  0  0  0
  6 25  1  0  0  0
  6 94  1  0  0  0
  6 95  1  0  0  0
  7  8  2  0  0  0
  7 26  1  0  0  0
  7 29  1  0  0  0
  8  9  1  0  0  0
  8 22  1  0  0  0
  9 10  1  0  0  0
  9 27  2  0  0  0
 10 11  2  0  0  0
 10 15  1  0  0  0
 11 12  1  0  0  0
 11 96  1  0  0  0
 12 13  2  0  0  0
 12 97  1  0  0  0
 13 14  1  0  0  0
 13 31  1  0  0  0
 14 15  2  0  0  0
 14 98  1  0  0  0
 15 99  1  0  0  0
 16 17  2  0  0  0
 16 21  1  0  0  0
 16 31  1  0  0  0
 17 18  1  0  0  0
 17100  1  0  0  0
 18 19  2  0  0  0
 18101  1  0  0  0
 19 20  1  0  0  0
 19 24  1  0  0  0
 20 21  2  0  0  0
 20102  1  0  0  0
 21 23  1  0  0  0
 22 28  1  0  0  0
 22 32  2  0  0  0
 26 27  1  0  0  0
 28103  1  0  0  0
 28104  1  0  0  0
 29105  1  0  0  0
 29106  1  0  0  0
 33 34  1  0  0  0
 33 66  1  0  0  0
 33 70  2  0  0  0
 34 36  1  0  0  0
 34 59  1  0  0  0
 34107  1  0  0  0
 35 44  2  0  0  0
 35 45  1  0  0  0
 35 68  1  0  0  0
 36 56  1  0  0  0
 36108  1  0  0  0
 37 39  1  0  0  0
 37 47  1  0  0  0
 37 66  1  0  0  0
 37109  1  0  0  0
 38 43  2  0  0  0
 38 46  1  0  0  0
 38 47  1  0  0  0
 39 64  1  0  0  0
 39 67  2  0  0  0
 40 52  1  0  0  0
 40 53  2  0  0  0
 40 58  1  0  0  0
 41110  1  0  0  0
 41111  1  0  0  0
 41112  1  0  0  0
 41 48  1  0  0  0
 42 43  1  0  0  0
 42 66  1  0  0  0
 42113  1  0  0  0
 42114  1  0  0  0
 43 44  1  0  0  0
 44115  1  0  0  0
 45 46  2  0  0  0
 45116  1  0  0  0
 46117  1  0  0  0
 47118  1  0  0  0
 47119  1  0  0  0
 48 56  1  0  0  0
 48 65  1  0  0  0
 48120  1  0  0  0
 49 50  1  0  0  0
 49 53  1  0  0  0
 49 64  1  0  0  0
 49121  1  0  0  0
 50 51  1  0  0  0
 50122  1  0  0  0
 50123  1  0  0  0
 51 52  1  0  0  0
 51124  1  0  0  0
 51125  1  0  0  0
 52126  1  0  0  0
 52127  1  0  0  0
 53 54  1  0  0  0
 54 55  2  0  0  0
 54128  1  0  0  0
 55 57  1  0  0  0
 55129  1  0  0  0
 56 69  2  0  0  0
 57 58  2  0  0  0
 57130  1  0  0  0
 58131  1  0  0  0
 59 60  1  0  0  0
 59 61  1  0  0  0
 59 62  1  0  0  0
 60132  1  0  0  0
 60133  1  0  0  0
 60134  1  0  0  0
 61135  1  0  0  0
 61136  1  0  0  0
 61137  1  0  0  0
 62138  1  0  0  0
 62139  1  0  0  0
 62140  1  0  0  0
 63 65  1  0  0  0
 63141  1  0  0  0
 63142  1  0  0  0
 63143  1  0  0  0
 64144  1  0  0  0
 65145  1  0  0  0
 68 81  1  0  0  0
 71 72  1  0  0  0
 71 73  2  0  0  0
 71146  1  0  0  0
 72 74  2  0  0  0
 72 77  1  0  0  0
 73 83  1  0  0  0
 73 86  1  0  0  0
 74 85  1  0  0  0
 74 86  1  0  0  0
 75 76  2  0  0  0
 75 78  1  0  0  0
 75 80  1  0  0  0
 76 79  1  0  0  0
 76 81  1  0  0  0
 77 82  1  0  0  0
 77 84  2  0  0  0
 78 82  1  0  0  0
 78147  1  0  0  0
 78148  1  0  0  0
 79 82  1  0  0  0
 79149  1  0  0  0
 79150  1  0  0  0
 80151  1  0  0  0
 80152  1  0  0  0
 80153  1  0  0  0
 81154  1  0  0  0
 81155  1  0  0  0
 83156  1  0  0  0
 84157  1  0  0  0
 84158  1  0  0  0
M  CHG  1  84   1
M  ISO  4   1 100  68 101  81 101  83 100
M  END
> <chiral flag>
0

> <version>
0

> <s_m_source_file>
/data/baiqing/PycharmProjects/Reinvent-master-3.2/result/LINK_invent/BTK/process_docking_weight1_custom_product_contain_oxygen_bond_distance_aromatic_linkinvent_7_9_3/rearranged_h_0157.sdf

> <i_m_source_file_index>
37

> <r_mmod_Potential_Energy-OPLS-2005>
-33.3063659667969

> <r_mmod_Stretch_Energy-OPLS-2005>
58.6309700012207

> <r_mmod_Bend_Energy-OPLS-2005>
187.118576049805

> <r_mmod_Torsional_Energy-OPLS-2005>
256.938385009766

> <r_mmod_Improper_Torsional_Energy-OPLS-2005>
8.13194751739502

> <r_mmod_Van_der_Waal_Energy-OPLS-2005>
116.146148681641

> <r_mmod_Electrostatic_Energy-OPLS-2005>
-240.459091186523

> <r_mmod_Solvation_Energy-OPLS-2005>
-450.147430419922

> <b_mmod_Minimization_Converged-OPLS-2005>
0

> <r_mmod_RMS_Derivative-OPLS-2005>
3.85733509063721

$$$$
37
                    3D
 Structure written by MMmdl.
162171  0  0  1  0            999 V2000
  -30.6362  -14.5811   20.5377 C   0  0  0  0  0  0
  -30.4398  -12.3657   19.4395 C   0  0  0  0  0  0
  -29.5047  -12.5157   18.2185 C   0  0  0  0  0  0
  -28.0267  -12.3594   18.6294 C   0  0  0  0  0  0
  -27.6594  -13.2103   19.8741 C   0  0  2  0  0  0
  -28.7038  -13.0197   20.9982 C   0  0  0  0  0  0
  -25.2568  -13.8147   20.5673 C   0  0  0  0  0  0
  -24.1827  -13.0417   20.9164 C   0  0  0  0  0  0
  -24.6399  -11.6893   20.8730 C   0  0  0  0  0  0
  -23.9065  -10.4282   21.0404 C   0  0  0  0  0  0
  -24.3617   -9.4199   21.9184 C   0  0  0  0  0  0
  -23.6289   -8.2236   22.0756 C   0  0  0  0  0  0
  -22.4273   -8.0278   21.3543 C   0  0  0  0  0  0
  -21.9907   -9.0250   20.4643 C   0  0  0  0  0  0
  -22.7237  -10.2129   20.3053 C   0  0  0  0  0  0
  -21.6851   -6.0736   22.5280 C   0  0  0  0  0  0
  -21.4014   -6.5641   23.8213 C   0  0  0  0  0  0
  -21.3658   -5.6796   24.9175 C   0  0  0  0  0  0
  -21.6046   -4.3059   24.7226 C   0  0  0  0  0  0
  -21.8820   -3.8147   23.4348 C   0  0  0  0  0  0
  -21.9193   -4.6963   22.3404 C   0  0  0  0  0  0
  -22.7853  -13.5222   21.1833 C   0  0  0  0  0  0
  -22.1661   -4.2152   21.0979 F   0  0  0  0  0  0
  -21.5628   -3.4539   25.7736 F   0  0  0  0  0  0
  -30.0263  -13.3612   20.4457 N   0  0  0  0  0  0
  -26.3016  -12.9329   20.3368 N   0  0  0  0  0  0
  -25.9330  -11.6485   20.5768 N   0  0  0  0  0  0
  -22.0500  -12.8213   22.0397 N   0  0  0  0  0  0
  -25.4262  -15.1864   20.4111 N   0  0  0  0  0  0
  -31.7747  -14.7814   20.1068 O   0  0  0  0  0  0
  -21.6634   -6.8880   21.4244 O   0  0  0  0  0  0
  -22.3533  -14.5529   20.6693 O   0  0  0  0  0  0
  -24.6211  -31.8623   23.2045 C   0  0  0  0  0  0
  -25.9080  -32.4791   23.8360 C   0  0  1  0  0  0
  -27.2381  -27.3678   20.0967 C   0  0  0  0  0  0
  -25.5910  -33.8592   24.2290 N   0  0  0  0  0  0
  -23.4129  -30.4847   21.5463 C   0  0  2  0  0  0
  -24.8607  -28.9428   20.1108 C   0  0  0  0  0  0
  -22.7442  -29.4633   22.4959 C   0  0  0  0  0  0
  -18.0276  -28.1381   22.8497 C   0  0  0  0  0  0
  -24.1490  -36.7300   23.2638 C   0  0  0  0  0  0
  -25.9485  -30.8057   21.3692 C   0  0  0  0  0  0
  -26.0242  -29.4351   20.7143 C   0  0  0  0  0  0
  -27.2105  -28.6525   20.7097 C   0  0  0  0  0  0
  -26.0444  -26.9021   19.4985 C   0  0  0  0  0  0
  -24.8690  -27.6779   19.5003 C   0  0  0  0  0  0
  -23.6249  -29.8160   20.1617 C   0  0  0  0  0  0
  -25.4114  -36.3096   24.0331 C   0  0  1  0  0  0
  -20.5874  -28.3679   23.1305 C   0  0  2  0  0  0
  -20.6767  -26.9408   22.5419 C   0  0  0  0  0  0
  -19.5742  -26.6387   21.5219 C   0  0  0  0  0  0
  -18.1921  -26.7927   22.1628 C   0  0  0  0  0  0
  -19.1528  -28.8847   23.2898 C   0  0  0  0  0  0
  -18.9452  -30.1453   23.8910 C   0  0  0  0  0  0
  -17.6454  -30.6591   24.0564 C   0  0  0  0  0  0
  -25.9047  -34.9463   23.5112 C   0  0  0  0  0  0
  -16.5346  -29.9089   23.6329 C   0  0  0  0  0  0
  -16.7265  -28.6503   23.0359 C   0  0  0  0  0  0
  -26.4483  -31.6585   25.0712 C   0  0  0  0  0  0
  -25.3730  -31.3703   26.1444 C   0  0  0  0  0  0
  -27.0318  -30.3017   24.6130 C   0  0  0  0  0  0
  -27.6048  -32.4312   25.7484 C   0  0  0  0  0  0
  -27.5584  -37.1806   24.8464 C   0  0  0  0  0  0
  -21.4160  -29.3037   22.3701 N   0  0  0  0  0  0
  -26.4296  -37.3784   23.9408 N   0  0  0  0  0  0
  -24.6794  -31.0666   22.0977 N   0  0  0  0  0  0
  -23.4181  -28.8182   23.3035 O   0  0  0  0  0  0
  -28.3844  -26.5734   20.1545 O   0  0  0  0  0  0
  -26.5619  -34.8922   22.4681 O   0  0  0  0  0  0
  -23.5386  -32.1406   23.7400 O   0  0  0  0  0  0
  -30.9903  -17.7841   20.3607 C   0  0  0  0  0  0
  -29.8922  -17.0269   20.8320 C   0  0  0  0  0  0
  -30.8854  -19.1976   20.2316 C   0  0  0  0  0  0
  -29.6657  -19.8648   20.5731 C   0  0  0  0  0  0
  -28.7371  -17.7728   21.1530 C   0  0  0  0  0  0
  -27.8471  -23.2869   20.0948 C   0  0  0  0  0  0
  -30.2521  -23.6794   20.0160 C   0  0  0  0  0  0
  -28.0870  -21.7330   20.0875 C   0  0  0  0  0  0
  -30.5365  -22.1433   19.9822 C   0  0  0  0  0  0
  -28.9275  -24.0702   19.3126 C   0  0  0  0  0  0
  -29.8548  -23.8384   17.0388 C   0  0  0  0  0  0
  -28.6811  -25.6334   19.0854 C   0  0  0  0  0  0
  -28.6251  -19.1221   21.0262 N   0  0  0  0  0  0
  -29.4441  -21.2909   20.4850 N   0  0  0  0  0  0
  -29.8470  -15.5832   21.0085 N   0  0  0  0  0  0
  -28.8703  -23.4713   18.0062 O   0  0  0  0  0  0
  -31.9676  -19.8694   19.7691 F   0  0  0  0  0  0
  -27.6550  -17.0989   21.6074 F   0  0  0  0  0  0
  -31.4803  -12.4945   19.1359 H   0  0  0  0  0  0
  -30.3720  -11.3591   19.8552 H   0  0  0  0  0  0
  -29.7584  -11.7797   17.4545 H   0  0  0  0  0  0
  -29.6544  -13.4945   17.7599 H   0  0  0  0  0  0
  -27.8513  -11.3036   18.8401 H   0  0  0  0  0  0
  -27.3741  -12.6137   17.7936 H   0  0  0  0  0  0
  -27.6907  -14.2534   19.5592 H   0  0  0  0  0  0
  -28.7040  -11.9846   21.3439 H   0  0  0  0  0  0
  -28.4515  -13.6174   21.8755 H   0  0  0  0  0  0
  -25.2768   -9.5672   22.4753 H   0  0  0  0  0  0
  -23.9999   -7.4628   22.7478 H   0  0  0  0  0  0
  -21.0838   -8.8770   19.8947 H   0  0  0  0  0  0
  -22.3702  -10.9668   19.6157 H   0  0  0  0  0  0
  -21.2009   -7.6151   23.9719 H   0  0  0  0  0  0
  -21.1477   -6.0524   25.9080 H   0  0  0  0  0  0
  -22.0602   -2.7608   23.2847 H   0  0  0  0  0  0
  -22.4117  -11.9873   22.4781 H   0  0  0  0  0  0
  -21.1121  -13.1242   22.2611 H   0  0  0  0  0  0
  -24.6654  -15.8416   20.5530 H   0  0  0  0  0  0
  -26.2946  -15.6399   20.1611 H   0  0  0  0  0  0
  -26.7145  -32.5483   23.1114 H   0  0  0  0  0  0
  -25.0053  -33.9741   25.0431 H   0  0  0  0  0  0
  -22.7052  -31.3043   21.4039 H   0  0  0  0  0  0
  -23.3755  -35.9631   23.3305 H   0  0  0  0  0  0
  -24.3579  -36.8915   22.2052 H   0  0  0  0  0  0
  -23.7243  -37.6502   23.6655 H   0  0  0  0  0  0
  -26.0719  -31.5699   20.6007 H   0  0  0  0  0  0
  -26.8318  -30.8566   21.9940 H   0  0  0  0  0  0
  -28.1046  -29.0262   21.1888 H   0  0  0  0  0  0
  -25.9918  -25.9185   19.0553 H   0  0  0  0  0  0
  -23.9710  -27.2867   19.0418 H   0  0  0  0  0  0
  -23.7365  -30.5905   19.4019 H   0  0  0  0  0  0
  -22.7467  -29.2393   19.8652 H   0  0  0  0  0  0
  -25.1295  -36.1952   25.0824 H   0  0  0  0  0  0
  -20.9967  -28.3251   24.1425 H   0  0  0  0  0  0
  -20.5678  -26.2284   23.3611 H   0  0  0  0  0  0
  -21.6637  -26.7449   22.1209 H   0  0  0  0  0  0
  -19.6906  -25.6300   21.1242 H   0  0  0  0  0  0
  -19.6681  -27.3204   20.6756 H   0  0  0  0  0  0
  -17.4194  -26.6690   21.4025 H   0  0  0  0  0  0
  -18.0310  -26.0064   22.9014 H   0  0  0  0  0  0
  -19.7927  -30.7266   24.2285 H   0  0  0  0  0  0
  -17.5008  -31.6274   24.5158 H   0  0  0  0  0  0
  -15.5346  -30.2996   23.7644 H   0  0  0  0  0  0
  -15.8664  -28.0822   22.7076 H   0  0  0  0  0  0
  -24.5908  -30.7050   25.7771 H   0  0  0  0  0  0
  -24.8917  -32.2860   26.4886 H   0  0  0  0  0  0
  -25.8068  -30.8869   27.0205 H   0  0  0  0  0  0
  -26.2872  -29.6775   24.1175 H   0  0  0  0  0  0
  -27.4051  -29.7264   25.4612 H   0  0  0  0  0  0
  -27.8726  -30.4316   23.9315 H   0  0  0  0  0  0
  -27.2664  -33.3612   26.2066 H   0  0  0  0  0  0
  -28.3859  -32.6869   25.0311 H   0  0  0  0  0  0
  -28.0712  -31.8428   26.5397 H   0  0  0  0  0  0
  -28.2601  -38.0105   24.7520 H   0  0  0  0  0  0
  -28.1082  -36.2637   24.6284 H   0  0  0  0  0  0
  -27.2298  -37.1448   25.8866 H   0  0  0  0  0  0
  -20.9329  -29.8755   21.6914 H   0  0  0  0  0  0
  -26.0183  -38.2860   24.1409 H   0  0  0  0  0  0
  -31.9199  -17.3055   20.0944 H   0  0  0  0  0  0
  -27.8101  -23.6476   21.1240 H   0  0  0  0  0  0
  -26.8636  -23.4980   19.6736 H   0  0  0  0  0  0
  -31.0933  -24.2106   19.5706 H   0  0  0  0  0  0
  -30.2200  -24.0201   21.0519 H   0  0  0  0  0  0
  -27.8846  -21.3408   19.0899 H   0  0  0  0  0  0
  -27.3457  -21.2782   20.7456 H   0  0  0  0  0  0
  -31.4284  -21.9626   20.5824 H   0  0  0  0  0  0
  -30.7712  -21.8382   18.9619 H   0  0  0  0  0  0
  -29.6962  -23.2482   16.1364 H   0  0  0  0  0  0
  -30.8709  -23.6363   17.3756 H   0  0  0  0  0  0
  -29.7860  -24.8855   16.7465 H   0  0  0  0  0  0
  -27.9718  -25.7488   18.2674 H   0  0  0  0  0  0
  -29.6021  -26.0374   18.6662 H   0  0  0  0  0  0
  -28.9703  -15.2503   21.3843 H   0  0  0  0  0  0
  1 25  1  0  0  0
  1 30  2  0  0  0
  1 85  1  0  0  0
  2  3  1  0  0  0
  2 25  1  0  0  0
  2 89  1  0  0  0
  2 90  1  0  0  0
  3  4  1  0  0  0
  3 91  1  0  0  0
  3 92  1  0  0  0
  4  5  1  0  0  0
  4 93  1  0  0  0
  4 94  1  0  0  0
  5  6  1  0  0  0
  5 26  1  0  0  0
  5 95  1  0  0  0
  6 25  1  0  0  0
  6 96  1  0  0  0
  6 97  1  0  0  0
  7  8  2  0  0  0
  7 26  1  0  0  0
  7 29  1  0  0  0
  8  9  1  0  0  0
  8 22  1  0  0  0
  9 10  1  0  0  0
  9 27  2  0  0  0
 10 11  2  0  0  0
 10 15  1  0  0  0
 11 12  1  0  0  0
 11 98  1  0  0  0
 12 13  2  0  0  0
 12 99  1  0  0  0
 13 14  1  0  0  0
 13 31  1  0  0  0
 14 15  2  0  0  0
 14100  1  0  0  0
 15101  1  0  0  0
 16 17  2  0  0  0
 16 21  1  0  0  0
 16 31  1  0  0  0
 17 18  1  0  0  0
 17102  1  0  0  0
 18 19  2  0  0  0
 18103  1  0  0  0
 19 20  1  0  0  0
 19 24  1  0  0  0
 20 21  2  0  0  0
 20104  1  0  0  0
 21 23  1  0  0  0
 22 28  1  0  0  0
 22 32  2  0  0  0
 26 27  1  0  0  0
 28105  1  0  0  0
 28106  1  0  0  0
 29107  1  0  0  0
 29108  1  0  0  0
 33 34  1  0  0  0
 33 66  1  0  0  0
 33 70  2  0  0  0
 34 36  1  0  0  0
 34 59  1  0  0  0
 34109  1  0  0  0
 35 44  2  0  0  0
 35 45  1  0  0  0
 35 68  1  0  0  0
 36 56  1  0  0  0
 36110  1  0  0  0
 37 39  1  0  0  0
 37 47  1  0  0  0
 37 66  1  0  0  0
 37111  1  0  0  0
 38 43  2  0  0  0
 38 46  1  0  0  0
 38 47  1  0  0  0
 39 64  1  0  0  0
 39 67  2  0  0  0
 40 52  1  0  0  0
 40 53  2  0  0  0
 40 58  1  0  0  0
 41112  1  0  0  0
 41113  1  0  0  0
 41114  1  0  0  0
 41 48  1  0  0  0
 42 43  1  0  0  0
 42 66  1  0  0  0
 42115  1  0  0  0
 42116  1  0  0  0
 43 44  1  0  0  0
 44117  1  0  0  0
 45 46  2  0  0  0
 45118  1  0  0  0
 46119  1  0  0  0
 47120  1  0  0  0
 47121  1  0  0  0
 48 56  1  0  0  0
 48 65  1  0  0  0
 48122  1  0  0  0
 49 50  1  0  0  0
 49 53  1  0  0  0
 49 64  1  0  0  0
 49123  1  0  0  0
 50 51  1  0  0  0
 50124  1  0  0  0
 50125  1  0  0  0
 51 52  1  0  0  0
 51126  1  0  0  0
 51127  1  0  0  0
 52128  1  0  0  0
 52129  1  0  0  0
 53 54  1  0  0  0
 54 55  2  0  0  0
 54130  1  0  0  0
 55 57  1  0  0  0
 55131  1  0  0  0
 56 69  2  0  0  0
 57 58  2  0  0  0
 57132  1  0  0  0
 58133  1  0  0  0
 59 60  1  0  0  0
 59 61  1  0  0  0
 59 62  1  0  0  0
 60134  1  0  0  0
 60135  1  0  0  0
 60136  1  0  0  0
 61137  1  0  0  0
 61138  1  0  0  0
 61139  1  0  0  0
 62140  1  0  0  0
 62141  1  0  0  0
 62142  1  0  0  0
 63 65  1  0  0  0
 63143  1  0  0  0
 63144  1  0  0  0
 63145  1  0  0  0
 64146  1  0  0  0
 65147  1  0  0  0
 68 82  1  0  0  0
 71 72  2  0  0  0
 71 73  1  0  0  0
 71148  1  0  0  0
 72 75  1  0  0  0
 72 85  1  0  0  0
 73 74  2  0  0  0
 73 87  1  0  0  0
 74 83  1  0  0  0
 74 84  1  0  0  0
 75 83  2  0  0  0
 75 88  1  0  0  0
 76 78  1  0  0  0
 76 80  1  0  0  0
 76149  1  0  0  0
 76150  1  0  0  0
 77 79  1  0  0  0
 77 80  1  0  0  0
 77151  1  0  0  0
 77152  1  0  0  0
 78 84  1  0  0  0
 78153  1  0  0  0
 78154  1  0  0  0
 79 84  1  0  0  0
 79155  1  0  0  0
 79156  1  0  0  0
 80 82  1  0  0  0
 80 86  1  0  0  0
 81 86  1  0  0  0
 81157  1  0  0  0
 81158  1  0  0  0
 81159  1  0  0  0
 82160  1  0  0  0
 82161  1  0  0  0
 85162  1  0  0  0
M  ISO  4   1 100  68 101  82 101  85 100
M  END
> <chiral flag>
0

> <version>
0

> <s_m_source_file>
/data/baiqing/PycharmProjects/Reinvent-master-3.2/result/LINK_invent/BTK/process_docking_weight1_custom_product_contain_oxygen_bond_distance_aromatic_linkinvent_7_9_3/rearranged_h_0157.sdf

> <i_m_source_file_index>
38

> <r_mmod_Potential_Energy-OPLS-2005>
-94.8781509399414

> <r_mmod_Stretch_Energy-OPLS-2005>
66.8745346069336

> <r_mmod_Bend_Energy-OPLS-2005>
163.191848754883

> <r_mmod_Torsional_Energy-OPLS-2005>
249.136276245117

> <r_mmod_Improper_Torsional_Energy-OPLS-2005>
6.73850107192993

> <r_mmod_Van_der_Waal_Energy-OPLS-2005>
170.808502197266

> <r_mmod_Electrostatic_Energy-OPLS-2005>
-565.278991699219

> <r_mmod_Solvation_Energy-OPLS-2005>
-216.69841003418

> <b_mmod_Minimization_Converged-OPLS-2005>
0

> <r_mmod_RMS_Derivative-OPLS-2005>
0.706219613552094

$$$$
38
                    3D
 Structure written by MMmdl.
158167  0  0  1  0            999 V2000
  -30.6129  -14.7779   20.4618 C   0  0  0  0  0  0
  -30.4295  -12.4787   19.4796 C   0  0  0  0  0  0
  -29.5105  -12.5129   18.2390 C   0  0  0  0  0  0
  -28.0374  -12.3304   18.6526 C   0  0  0  0  0  0
  -27.6379  -13.2363   19.8480 C   0  0  2  0  0  0
  -28.6821  -13.1923   20.9851 C   0  0  0  0  0  0
  -25.2491  -13.8204   20.5696 C   0  0  0  0  0  0
  -24.1795  -13.0445   20.9223 C   0  0  0  0  0  0
  -24.6395  -11.6923   20.8757 C   0  0  0  0  0  0
  -23.9076  -10.4297   21.0413 C   0  0  0  0  0  0
  -24.3624   -9.4212   21.9190 C   0  0  0  0  0  0
  -23.6298   -8.2247   22.0756 C   0  0  0  0  0  0
  -22.4281   -8.0285   21.3547 C   0  0  0  0  0  0
  -21.9920   -9.0262   20.4648 C   0  0  0  0  0  0
  -22.7250  -10.2140   20.3058 C   0  0  0  0  0  0
  -21.6852   -6.0739   22.5282 C   0  0  0  0  0  0
  -21.4016   -6.5642   23.8218 C   0  0  0  0  0  0
  -21.3660   -5.6794   24.9177 C   0  0  0  0  0  0
  -21.6041   -4.3056   24.7226 C   0  0  0  0  0  0
  -21.8820   -3.8152   23.4348 C   0  0  0  0  0  0
  -21.9195   -4.6969   22.3403 C   0  0  0  0  0  0
  -22.7815  -13.5226   21.1883 C   0  0  0  0  0  0
  -22.1661   -4.2155   21.0980 F   0  0  0  0  0  0
  -21.5628   -3.4540   25.7738 F   0  0  0  0  0  0
  -29.9786  -13.5527   20.3985 N   0  0  0  0  0  0
  -26.2916  -12.9419   20.3268 N   0  0  0  0  0  0
  -25.9325  -11.6557   20.5751 N   0  0  0  0  0  0
  -22.0456  -12.8207   22.0425 N   0  0  0  0  0  0
  -25.4166  -15.1931   20.4089 N   0  0  0  0  0  0
  -31.8042  -14.8371   20.1464 O   0  0  0  0  0  0
  -21.6643   -6.8886   21.4244 O   0  0  0  0  0  0
  -22.3501  -14.5532   20.6724 O   0  0  0  0  0  0
  -24.6341  -31.8514   23.1942 C   0  0  0  0  0  0
  -25.9152  -32.4729   23.8302 C   0  0  1  0  0  0
  -27.2233  -27.2333   20.1346 C   0  0  0  0  0  0
  -25.5942  -33.8532   24.2223 N   0  0  0  0  0  0
  -23.4316  -30.4730   21.5375 C   0  0  2  0  0  0
  -24.8776  -28.9103   20.1077 C   0  0  0  0  0  0
  -22.7515  -29.4585   22.4890 C   0  0  0  0  0  0
  -18.0297  -28.1400   22.8486 C   0  0  0  0  0  0
  -24.1485  -36.7265   23.2644 C   0  0  0  0  0  0
  -25.9776  -30.7557   21.3759 C   0  0  0  0  0  0
  -26.0476  -29.3748   20.7192 C   0  0  0  0  0  0
  -27.2182  -28.5486   20.7206 C   0  0  0  0  0  0
  -26.0261  -26.8360   19.4983 C   0  0  0  0  0  0
  -24.8735  -27.6506   19.4869 C   0  0  0  0  0  0
  -23.6505  -29.8026   20.1543 C   0  0  0  0  0  0
  -25.4115  -36.3048   24.0323 C   0  0  1  0  0  0
  -20.5901  -28.3707   23.1259 C   0  0  2  0  0  0
  -20.6780  -26.9422   22.5403 C   0  0  0  0  0  0
  -19.5748  -26.6390   21.5215 C   0  0  0  0  0  0
  -18.1932  -26.7943   22.1630 C   0  0  0  0  0  0
  -19.1551  -28.8873   23.2867 C   0  0  0  0  0  0
  -18.9471  -30.1474   23.8883 C   0  0  0  0  0  0
  -17.6468  -30.6595   24.0570 C   0  0  0  0  0  0
  -25.9061  -34.9422   23.5073 C   0  0  0  0  0  0
  -16.5358  -29.9088   23.6345 C   0  0  0  0  0  0
  -16.7284  -28.6512   23.0358 C   0  0  0  0  0  0
  -26.4513  -31.6572   25.0711 C   0  0  0  0  0  0
  -25.3727  -31.3737   26.1429 C   0  0  0  0  0  0
  -27.0371  -30.2988   24.6215 C   0  0  0  0  0  0
  -27.6055  -32.4328   25.7492 C   0  0  0  0  0  0
  -27.5571  -37.1792   24.8470 C   0  0  0  0  0  0
  -21.4218  -29.3045   22.3642 N   0  0  0  0  0  0
  -26.4283  -37.3756   23.9408 N   0  0  0  0  0  0
  -24.7004  -31.0464   22.0920 N   0  0  0  0  0  0
  -23.4200  -28.8142   23.3013 O   0  0  0  0  0  0
  -28.3370  -26.3585   20.2271 O   0  0  0  0  0  0
  -26.5635  -34.8911   22.4643 O   0  0  0  0  0  0
  -23.5486  -32.1350   23.7221 O   0  0  0  0  0  0
  -31.0627  -20.1718   20.8928 C   0  0  0  0  0  0
  -29.2952  -18.5238   20.6064 C   0  0  0  0  0  0
  -31.5871  -17.7650   20.8521 C   0  0  0  0  0  0
  -29.6858  -19.9365   20.7032 C   0  0  0  0  0  0
  -31.9937  -19.1152   20.9564 C   0  0  0  0  0  0
  -30.2295  -17.3946   20.6812 C   0  0  0  0  0  0
  -28.0272  -23.6926   20.5783 C   0  0  0  0  0  0
  -28.7357  -21.1559   20.8152 C   0  0  0  0  0  0
  -29.8310  -24.5250   19.3195 C   0  0  0  0  0  0
  -29.9113  -22.9692   19.3835 C   0  0  0  0  0  0
  -28.3974  -24.9455   19.6744 C   0  0  2  0  0  0
  -28.8782  -22.4812   20.3270 N   0  0  0  0  0  0
  -33.3423  -19.4174   21.1587 N   0  0  0  0  0  0
  -29.8518  -15.9376   20.6520 N   0  0  0  0  0  0
  -27.6459  -20.8974   21.5396 N   0  3  0  0  0  0
  -27.0872  -23.6856   21.3811 O   0  0  0  0  0  0
  -31.4707  -12.5992   19.1758 H   0  0  0  0  0  0
  -30.3755  -11.5073   19.9735 H   0  0  0  0  0  0
  -29.8011  -11.7362   17.5303 H   0  0  0  0  0  0
  -29.6305  -13.4637   17.7173 H   0  0  0  0  0  0
  -27.8992  -11.2823   18.9205 H   0  0  0  0  0  0
  -27.3804  -12.5135   17.8016 H   0  0  0  0  0  0
  -27.6260  -14.2539   19.4576 H   0  0  0  0  0  0
  -28.7267  -12.1997   21.4358 H   0  0  0  0  0  0
  -28.4101  -13.8805   21.7870 H   0  0  0  0  0  0
  -25.2772   -9.5684   22.4762 H   0  0  0  0  0  0
  -24.0011   -7.4636   22.7469 H   0  0  0  0  0  0
  -21.0857   -8.8784   19.8945 H   0  0  0  0  0  0
  -22.3720  -10.9677   19.6158 H   0  0  0  0  0  0
  -21.2006   -7.6150   23.9721 H   0  0  0  0  0  0
  -21.1477   -6.0522   25.9080 H   0  0  0  0  0  0
  -22.0596   -2.7615   23.2845 H   0  0  0  0  0  0
  -22.4068  -11.9860   22.4799 H   0  0  0  0  0  0
  -21.1065  -13.1216   22.2623 H   0  0  0  0  0  0
  -24.6419  -15.8401   20.5090 H   0  0  0  0  0  0
  -26.2504  -15.6312   20.0405 H   0  0  0  0  0  0
  -26.7220  -32.5358   23.1039 H   0  0  0  0  0  0
  -25.0113  -33.9662   25.0388 H   0  0  0  0  0  0
  -22.7287  -31.2956   21.3895 H   0  0  0  0  0  0
  -23.3746  -35.9604   23.3311 H   0  0  0  0  0  0
  -24.3575  -36.8883   22.2060 H   0  0  0  0  0  0
  -23.7237  -37.6465   23.6665 H   0  0  0  0  0  0
  -26.1199  -31.5141   20.6047 H   0  0  0  0  0  0
  -26.8540  -30.8039   22.0109 H   0  0  0  0  0  0
  -28.1131  -28.8992   21.2151 H   0  0  0  0  0  0
  -25.9398  -25.8666   19.0327 H   0  0  0  0  0  0
  -23.9746  -27.2870   19.0078 H   0  0  0  0  0  0
  -23.7789  -30.5773   19.3973 H   0  0  0  0  0  0
  -22.7676  -29.2386   19.8494 H   0  0  0  0  0  0
  -25.1302  -36.1895   25.0819 H   0  0  0  0  0  0
  -20.9994  -28.3283   24.1379 H   0  0  0  0  0  0
  -20.5676  -26.2323   23.3610 H   0  0  0  0  0  0
  -21.6652  -26.7438   22.1204 H   0  0  0  0  0  0
  -19.6901  -25.6296   21.1252 H   0  0  0  0  0  0
  -19.6692  -27.3201   20.6746 H   0  0  0  0  0  0
  -17.4211  -26.6708   21.4021 H   0  0  0  0  0  0
  -18.0320  -26.0080   22.9020 H   0  0  0  0  0  0
  -19.7943  -30.7303   24.2230 H   0  0  0  0  0  0
  -17.5025  -31.6273   24.5179 H   0  0  0  0  0  0
  -15.5357  -30.2988   23.7675 H   0  0  0  0  0  0
  -15.8688  -28.0831   22.7067 H   0  0  0  0  0  0
  -24.5906  -30.7080   25.7764 H   0  0  0  0  0  0
  -24.8928  -32.2919   26.4826 H   0  0  0  0  0  0
  -25.8053  -30.8938   27.0215 H   0  0  0  0  0  0
  -26.2970  -29.6715   24.1239 H   0  0  0  0  0  0
  -27.4045  -29.7275   25.4745 H   0  0  0  0  0  0
  -27.8842  -30.4262   23.9474 H   0  0  0  0  0  0
  -27.2657  -33.3646   26.2025 H   0  0  0  0  0  0
  -28.3892  -32.6854   25.0338 H   0  0  0  0  0  0
  -28.0690  -31.8481   26.5448 H   0  0  0  0  0  0
  -28.2593  -38.0085   24.7503 H   0  0  0  0  0  0
  -28.1056  -36.2608   24.6310 H   0  0  0  0  0  0
  -27.2291  -37.1468   25.8878 H   0  0  0  0  0  0
  -20.9411  -29.8758   21.6836 H   0  0  0  0  0  0
  -26.0147  -38.2826   24.1407 H   0  0  0  0  0  0
  -31.4140  -21.1778   21.0617 H   0  0  0  0  0  0
  -28.2429  -18.3018   20.5014 H   0  0  0  0  0  0
  -32.3524  -17.0111   20.9450 H   0  0  0  0  0  0
  -30.1073  -24.8926   18.3311 H   0  0  0  0  0  0
  -30.5382  -24.9581   20.0269 H   0  0  0  0  0  0
  -30.9205  -22.6717   19.6591 H   0  0  0  0  0  0
  -29.7140  -22.5404   18.3997 H   0  0  0  0  0  0
  -27.8054  -24.8734   18.7633 H   0  0  0  0  0  0
  -33.5917  -20.3292   21.5282 H   0  0  0  0  0  0
  -33.9609  -18.6812   21.4849 H   0  0  0  0  0  0
  -28.8692  -15.7512   20.7753 H   0  0  0  0  0  0
  -27.5349  -20.0026   21.9883 H   0  0  0  0  0  0
  -27.0003  -21.6484   21.7478 H   0  0  0  0  0  0
  1 25  1  0  0  0
  1 30  2  0  0  0
  1 84  1  0  0  0
  2  3  1  0  0  0
  2 25  1  0  0  0
  2 87  1  0  0  0
  2 88  1  0  0  0
  3  4  1  0  0  0
  3 89  1  0  0  0
  3 90  1  0  0  0
  4  5  1  0  0  0
  4 91  1  0  0  0
  4 92  1  0  0  0
  5  6  1  0  0  0
  5 26  1  0  0  0
  5 93  1  0  0  0
  6 25  1  0  0  0
  6 94  1  0  0  0
  6 95  1  0  0  0
  7  8  2  0  0  0
  7 26  1  0  0  0
  7 29  1  0  0  0
  8  9  1  0  0  0
  8 22  1  0  0  0
  9 10  1  0  0  0
  9 27  2  0  0  0
 10 11  2  0  0  0
 10 15  1  0  0  0
 11 12  1  0  0  0
 11 96  1  0  0  0
 12 13  2  0  0  0
 12 97  1  0  0  0
 13 14  1  0  0  0
 13 31  1  0  0  0
 14 15  2  0  0  0
 14 98  1  0  0  0
 15 99  1  0  0  0
 16 17  2  0  0  0
 16 21  1  0  0  0
 16 31  1  0  0  0
 17 18  1  0  0  0
 17100  1  0  0  0
 18 19  2  0  0  0
 18101  1  0  0  0
 19 20  1  0  0  0
 19 24  1  0  0  0
 20 21  2  0  0  0
 20102  1  0  0  0
 21 23  1  0  0  0
 22 28  1  0  0  0
 22 32  2  0  0  0
 26 27  1  0  0  0
 28103  1  0  0  0
 28104  1  0  0  0
 29105  1  0  0  0
 29106  1  0  0  0
 33 34  1  0  0  0
 33 66  1  0  0  0
 33 70  2  0  0  0
 34 36  1  0  0  0
 34 59  1  0  0  0
 34107  1  0  0  0
 35 44  2  0  0  0
 35 45  1  0  0  0
 35 68  1  0  0  0
 36 56  1  0  0  0
 36108  1  0  0  0
 37 39  1  0  0  0
 37 47  1  0  0  0
 37 66  1  0  0  0
 37109  1  0  0  0
 38 43  2  0  0  0
 38 46  1  0  0  0
 38 47  1  0  0  0
 39 64  1  0  0  0
 39 67  2  0  0  0
 40 52  1  0  0  0
 40 53  2  0  0  0
 40 58  1  0  0  0
 41110  1  0  0  0
 41111  1  0  0  0
 41112  1  0  0  0
 41 48  1  0  0  0
 42 43  1  0  0  0
 42 66  1  0  0  0
 42113  1  0  0  0
 42114  1  0  0  0
 43 44  1  0  0  0
 44115  1  0  0  0
 45 46  2  0  0  0
 45116  1  0  0  0
 46117  1  0  0  0
 47118  1  0  0  0
 47119  1  0  0  0
 48 56  1  0  0  0
 48 65  1  0  0  0
 48120  1  0  0  0
 49 50  1  0  0  0
 49 53  1  0  0  0
 49 64  1  0  0  0
 49121  1  0  0  0
 50 51  1  0  0  0
 50122  1  0  0  0
 50123  1  0  0  0
 51 52  1  0  0  0
 51124  1  0  0  0
 51125  1  0  0  0
 52126  1  0  0  0
 52127  1  0  0  0
 53 54  1  0  0  0
 54 55  2  0  0  0
 54128  1  0  0  0
 55 57  1  0  0  0
 55129  1  0  0  0
 56 69  2  0  0  0
 57 58  2  0  0  0
 57130  1  0  0  0
 58131  1  0  0  0
 59 60  1  0  0  0
 59 61  1  0  0  0
 59 62  1  0  0  0
 60132  1  0  0  0
 60133  1  0  0  0
 60134  1  0  0  0
 61135  1  0  0  0
 61136  1  0  0  0
 61137  1  0  0  0
 62138  1  0  0  0
 62139  1  0  0  0
 62140  1  0  0  0
 63 65  1  0  0  0
 63141  1  0  0  0
 63142  1  0  0  0
 63143  1  0  0  0
 64144  1  0  0  0
 65145  1  0  0  0
 68 81  1  0  0  0
 71 74  2  0  0  0
 71 75  1  0  0  0
 71146  1  0  0  0
 72 74  1  0  0  0
 72 76  2  0  0  0
 72147  1  0  0  0
 73 75  2  0  0  0
 73 76  1  0  0  0
 73148  1  0  0  0
 74 78  1  0  0  0
 75 83  1  0  0  0
 76 84  1  0  0  0
 77 81  1  0  0  0
 77 82  1  0  0  0
 77 86  2  0  0  0
 78 82  1  0  0  0
 78 85  2  0  0  0
 79 80  1  0  0  0
 79 81  1  0  0  0
 79149  1  0  0  0
 79150  1  0  0  0
 80 82  1  0  0  0
 80151  1  0  0  0
 80152  1  0  0  0
 81153  1  0  0  0
 83154  1  0  0  0
 83155  1  0  0  0
 84156  1  0  0  0
 85157  1  0  0  0
 85158  1  0  0  0
M  CHG  1  85   1
M  ISO  4   1 100  68 101  81 101  84 100
M  END
> <chiral flag>
0

> <version>
0

> <s_m_source_file>
/data/baiqing/PycharmProjects/Reinvent-master-3.2/result/LINK_invent/BTK/process_docking_weight1_custom_product_contain_oxygen_bond_distance_aromatic_linkinvent_7_9_3/rearranged_h_0157.sdf

> <i_m_source_file_index>
39

> <r_mmod_Potential_Energy-OPLS-2005>
23.014612197876

> <r_mmod_Stretch_Energy-OPLS-2005>
148.328063964844

> <r_mmod_Bend_Energy-OPLS-2005>
224.569122314453

> <r_mmod_Torsional_Energy-OPLS-2005>
241.334136962891

> <r_mmod_Improper_Torsional_Energy-OPLS-2005>
9.90060329437256

> <r_mmod_Van_der_Waal_Energy-OPLS-2005>
143.272567749023

> <r_mmod_Electrostatic_Energy-OPLS-2005>
-408.697845458984

> <r_mmod_Solvation_Energy-OPLS-2005>
-434.822601318359

> <b_mmod_Minimization_Converged-OPLS-2005>
0

> <r_mmod_RMS_Derivative-OPLS-2005>
1.26335680484772

$$$$
39
                    3D
 Structure written by MMmdl.
148156  0  0  1  0            999 V2000
  -30.5902  -14.7894   20.4505 C   0  0  0  0  0  0
  -30.4374  -12.4795   19.4876 C   0  0  0  0  0  0
  -29.5167  -12.5175   18.2464 C   0  0  0  0  0  0
  -28.0433  -12.3330   18.6570 C   0  0  0  0  0  0
  -27.6433  -13.2352   19.8545 C   0  0  2  0  0  0
  -28.6864  -13.1786   20.9932 C   0  0  0  0  0  0
  -25.2514  -13.8200   20.5697 C   0  0  0  0  0  0
  -24.1807  -13.0440   20.9205 C   0  0  0  0  0  0
  -24.6400  -11.6920   20.8745 C   0  0  0  0  0  0
  -23.9073  -10.4295   21.0406 C   0  0  0  0  0  0
  -24.3625   -9.4207   21.9183 C   0  0  0  0  0  0
  -23.6299   -8.2243   22.0753 C   0  0  0  0  0  0
  -22.4279   -8.0282   21.3543 C   0  0  0  0  0  0
  -21.9915   -9.0257   20.4648 C   0  0  0  0  0  0
  -22.7245  -10.2137   20.3056 C   0  0  0  0  0  0
  -21.6853   -6.0739   22.5281 C   0  0  0  0  0  0
  -21.4015   -6.5641   23.8215 C   0  0  0  0  0  0
  -21.3659   -5.6792   24.9175 C   0  0  0  0  0  0
  -21.6046   -4.3057   24.7225 C   0  0  0  0  0  0
  -21.8818   -3.8148   23.4345 C   0  0  0  0  0  0
  -21.9193   -4.6966   22.3403 C   0  0  0  0  0  0
  -22.7827  -13.5221   21.1868 C   0  0  0  0  0  0
  -22.1660   -4.2151   21.0980 F   0  0  0  0  0  0
  -21.5630   -3.4538   25.7737 F   0  0  0  0  0  0
  -29.9875  -13.5454   20.4177 N   0  0  0  0  0  0
  -26.2947  -12.9413   20.3294 N   0  0  0  0  0  0
  -25.9335  -11.6552   20.5757 N   0  0  0  0  0  0
  -22.0476  -12.8215   22.0428 N   0  0  0  0  0  0
  -25.4195  -15.1925   20.4109 N   0  0  0  0  0  0
  -31.7691  -14.8895   20.0937 O   0  0  0  0  0  0
  -21.6642   -6.8881   21.4241 O   0  0  0  0  0  0
  -22.3510  -14.5522   20.6710 O   0  0  0  0  0  0
  -24.6348  -31.8525   23.1971 C   0  0  0  0  0  0
  -25.9160  -32.4737   23.8327 C   0  0  1  0  0  0
  -27.2160  -27.2220   20.1298 C   0  0  0  0  0  0
  -25.5945  -33.8544   24.2243 N   0  0  0  0  0  0
  -23.4336  -30.4757   21.5408 C   0  0  2  0  0  0
  -24.8813  -28.9210   20.1073 C   0  0  0  0  0  0
  -22.7524  -29.4590   22.4892 C   0  0  0  0  0  0
  -18.0297  -28.1391   22.8480 C   0  0  0  0  0  0
  -24.1492  -36.7276   23.2640 C   0  0  0  0  0  0
  -25.9837  -30.7502   21.3873 C   0  0  0  0  0  0
  -26.0535  -29.3705   20.7275 C   0  0  0  0  0  0
  -27.2197  -28.5316   20.7332 C   0  0  0  0  0  0
  -26.0245  -26.8659   19.4548 C   0  0  0  0  0  0
  -24.8748  -27.6786   19.4593 C   0  0  0  0  0  0
  -23.6547  -29.8125   20.1563 C   0  0  0  0  0  0
  -25.4120  -36.3061   24.0323 C   0  0  1  0  0  0
  -20.5905  -28.3710   23.1255 C   0  0  2  0  0  0
  -20.6784  -26.9422   22.5406 C   0  0  0  0  0  0
  -19.5758  -26.6383   21.5212 C   0  0  0  0  0  0
  -18.1939  -26.7931   22.1625 C   0  0  0  0  0  0
  -19.1552  -28.8867   23.2862 C   0  0  0  0  0  0
  -18.9470  -30.1464   23.8885 C   0  0  0  0  0  0
  -17.6468  -30.6590   24.0561 C   0  0  0  0  0  0
  -25.9065  -34.9431   23.5087 C   0  0  0  0  0  0
  -16.5359  -29.9085   23.6332 C   0  0  0  0  0  0
  -16.7283  -28.6504   23.0353 C   0  0  0  0  0  0
  -26.4511  -31.6578   25.0735 C   0  0  0  0  0  0
  -25.3720  -31.3748   26.1448 C   0  0  0  0  0  0
  -27.0363  -30.2982   24.6266 C   0  0  0  0  0  0
  -27.6059  -32.4330   25.7507 C   0  0  0  0  0  0
  -27.5580  -37.1794   24.8464 C   0  0  0  0  0  0
  -21.4227  -29.3050   22.3638 N   0  0  0  0  0  0
  -26.4291  -37.3763   23.9408 N   0  0  0  0  0  0
  -24.7029  -31.0454   22.0971 N   0  0  0  0  0  0
  -23.4206  -28.8128   23.3004 O   0  0  0  0  0  0
  -28.2890  -26.2886   20.2247 O   0  0  0  0  0  0
  -26.5640  -34.8910   22.4658 O   0  0  0  0  0  0
  -23.5488  -32.1371   23.7238 O   0  0  0  0  0  0
  -30.7933  -17.8575   19.5119 C   0  0  0  0  0  0
  -30.5476  -19.2830   19.4765 C   0  0  0  0  0  0
  -29.9596  -17.2913   20.4495 C   0  0  0  0  0  0
  -29.5756  -19.5691   20.3999 C   0  0  0  0  0  0
  -28.8361  -23.6261   20.5672 C   0  0  0  0  0  0
  -28.9935  -22.1466   19.9162 C   0  0  0  0  0  0
  -28.1000  -24.8393   19.7919 C   0  0  0  0  0  0
  -29.8123  -15.9128   20.7439 N   0  0  0  0  0  0
  -29.0558  -20.8816   20.7809 N   0  0  0  0  0  0
  -29.2768  -23.8150   21.7060 O   0  0  0  0  0  0
  -29.1959  -18.3492   21.0088 O   0  0  0  0  0  0
  -31.4782  -12.6063   19.1860 H   0  0  0  0  0  0
  -30.3883  -11.5044   19.9747 H   0  0  0  0  0  0
  -29.8074  -11.7426   17.5358 H   0  0  0  0  0  0
  -29.6371  -13.4698   17.7275 H   0  0  0  0  0  0
  -27.9066  -11.2845   18.9245 H   0  0  0  0  0  0
  -27.3859  -12.5181   17.8065 H   0  0  0  0  0  0
  -27.6350  -14.2556   19.4706 H   0  0  0  0  0  0
  -28.7296  -12.1810   21.4326 H   0  0  0  0  0  0
  -28.4109  -13.8547   21.8039 H   0  0  0  0  0  0
  -25.2771   -9.5683   22.4759 H   0  0  0  0  0  0
  -24.0009   -7.4631   22.7471 H   0  0  0  0  0  0
  -21.0845   -8.8776   19.8956 H   0  0  0  0  0  0
  -22.3700  -10.9677   19.6168 H   0  0  0  0  0  0
  -21.2007   -7.6149   23.9717 H   0  0  0  0  0  0
  -21.1485   -6.0524   25.9079 H   0  0  0  0  0  0
  -22.0597   -2.7609   23.2843 H   0  0  0  0  0  0
  -22.4095  -11.9877   22.4823 H   0  0  0  0  0  0
  -21.1093  -13.1239   22.2636 H   0  0  0  0  0  0
  -24.6489  -15.8433   20.5168 H   0  0  0  0  0  0
  -26.2630  -15.6334   20.0672 H   0  0  0  0  0  0
  -26.7225  -32.5369   23.1062 H   0  0  0  0  0  0
  -25.0083  -33.9677   25.0383 H   0  0  0  0  0  0
  -22.7320  -31.2995   21.3940 H   0  0  0  0  0  0
  -23.3756  -35.9607   23.3297 H   0  0  0  0  0  0
  -24.3580  -36.8908   22.2056 H   0  0  0  0  0  0
  -23.7244  -37.6473   23.6672 H   0  0  0  0  0  0
  -26.1328  -31.5091   20.6179 H   0  0  0  0  0  0
  -26.8577  -30.7959   22.0257 H   0  0  0  0  0  0
  -28.1101  -28.8654   21.2474 H   0  0  0  0  0  0
  -25.9357  -25.9340   18.9192 H   0  0  0  0  0  0
  -23.9821  -27.3354   18.9548 H   0  0  0  0  0  0
  -23.7845  -30.5904   19.4031 H   0  0  0  0  0  0
  -22.7716  -29.2503   19.8472 H   0  0  0  0  0  0
  -25.1302  -36.1902   25.0815 H   0  0  0  0  0  0
  -20.9996  -28.3293   24.1377 H   0  0  0  0  0  0
  -20.5682  -26.2324   23.3617 H   0  0  0  0  0  0
  -21.6651  -26.7441   22.1202 H   0  0  0  0  0  0
  -19.6921  -25.6290   21.1251 H   0  0  0  0  0  0
  -19.6693  -27.3185   20.6734 H   0  0  0  0  0  0
  -17.4208  -26.6674   21.4029 H   0  0  0  0  0  0
  -18.0343  -26.0076   22.9026 H   0  0  0  0  0  0
  -19.7946  -30.7283   24.2250 H   0  0  0  0  0  0
  -17.5023  -31.6268   24.5167 H   0  0  0  0  0  0
  -15.5360  -30.2984   23.7661 H   0  0  0  0  0  0
  -15.8684  -28.0818   22.7075 H   0  0  0  0  0  0
  -24.5895  -30.7098   25.7775 H   0  0  0  0  0  0
  -24.8914  -32.2924   26.4850 H   0  0  0  0  0  0
  -25.8023  -30.8938   27.0241 H   0  0  0  0  0  0
  -26.2962  -29.6721   24.1269 H   0  0  0  0  0  0
  -27.3992  -29.7260   25.4814 H   0  0  0  0  0  0
  -27.8865  -30.4232   23.9558 H   0  0  0  0  0  0
  -27.2663  -33.3637   26.2062 H   0  0  0  0  0  0
  -28.3878  -32.6878   25.0342 H   0  0  0  0  0  0
  -28.0719  -31.8473   26.5441 H   0  0  0  0  0  0
  -28.2593  -38.0096   24.7513 H   0  0  0  0  0  0
  -28.1081  -36.2627   24.6286 H   0  0  0  0  0  0
  -27.2300  -37.1438   25.8868 H   0  0  0  0  0  0
  -20.9420  -29.8775   21.6839 H   0  0  0  0  0  0
  -26.0166  -38.2835   24.1408 H   0  0  0  0  0  0
  -31.5015  -17.3181   18.8987 H   0  0  0  0  0  0
  -31.0489  -20.0075   18.8510 H   0  0  0  0  0  0
  -29.8922  -22.1766   19.2996 H   0  0  0  0  0  0
  -28.1664  -22.0248   19.2159 H   0  0  0  0  0  0
  -27.0496  -24.5720   19.8791 H   0  0  0  0  0  0
  -28.3497  -24.7657   18.7337 H   0  0  0  0  0  0
  -28.9279  -15.6770   21.1667 H   0  0  0  0  0  0
  -28.3997  -20.8953   21.5581 H   0  0  0  0  0  0
  1 25  1  0  0  0
  1 30  2  0  0  0
  1 78  1  0  0  0
  2  3  1  0  0  0
  2 25  1  0  0  0
  2 82  1  0  0  0
  2 83  1  0  0  0
  3  4  1  0  0  0
  3 84  1  0  0  0
  3 85  1  0  0  0
  4  5  1  0  0  0
  4 86  1  0  0  0
  4 87  1  0  0  0
  5  6  1  0  0  0
  5 26  1  0  0  0
  5 88  1  0  0  0
  6 25  1  0  0  0
  6 89  1  0  0  0
  6 90  1  0  0  0
  7  8  2  0  0  0
  7 26  1  0  0  0
  7 29  1  0  0  0
  8  9  1  0  0  0
  8 22  1  0  0  0
  9 10  1  0  0  0
  9 27  2  0  0  0
 10 11  2  0  0  0
 10 15  1  0  0  0
 11 12  1  0  0  0
 11 91  1  0  0  0
 12 13  2  0  0  0
 12 92  1  0  0  0
 13 14  1  0  0  0
 13 31  1  0  0  0
 14 15  2  0  0  0
 14 93  1  0  0  0
 15 94  1  0  0  0
 16 17  2  0  0  0
 16 21  1  0  0  0
 16 31  1  0  0  0
 17 18  1  0  0  0
 17 95  1  0  0  0
 18 19  2  0  0  0
 18 96  1  0  0  0
 19 20  1  0  0  0
 19 24  1  0  0  0
 20 21  2  0  0  0
 20 97  1  0  0  0
 21 23  1  0  0  0
 22 28  1  0  0  0
 22 32  2  0  0  0
 26 27  1  0  0  0
 28 98  1  0  0  0
 28 99  1  0  0  0
 29100  1  0  0  0
 29101  1  0  0  0
 33 34  1  0  0  0
 33 66  1  0  0  0
 33 70  2  0  0  0
 34 36  1  0  0  0
 34 59  1  0  0  0
 34102  1  0  0  0
 35 44  2  0  0  0
 35 45  1  0  0  0
 35 68  1  0  0  0
 36 56  1  0  0  0
 36103  1  0  0  0
 37 39  1  0  0  0
 37 47  1  0  0  0
 37 66  1  0  0  0
 37104  1  0  0  0
 38 43  2  0  0  0
 38 46  1  0  0  0
 38 47  1  0  0  0
 39 64  1  0  0  0
 39 67  2  0  0  0
 40 52  1  0  0  0
 40 53  2  0  0  0
 40 58  1  0  0  0
 41105  1  0  0  0
 41106  1  0  0  0
 41107  1  0  0  0
 41 48  1  0  0  0
 42 43  1  0  0  0
 42 66  1  0  0  0
 42108  1  0  0  0
 42109  1  0  0  0
 43 44  1  0  0  0
 44110  1  0  0  0
 45 46  2  0  0  0
 45111  1  0  0  0
 46112  1  0  0  0
 47113  1  0  0  0
 47114  1  0  0  0
 48 56  1  0  0  0
 48 65  1  0  0  0
 48115  1  0  0  0
 49 50  1  0  0  0
 49 53  1  0  0  0
 49 64  1  0  0  0
 49116  1  0  0  0
 50 51  1  0  0  0
 50117  1  0  0  0
 50118  1  0  0  0
 51 52  1  0  0  0
 51119  1  0  0  0
 51120  1  0  0  0
 52121  1  0  0  0
 52122  1  0  0  0
 53 54  1  0  0  0
 54 55  2  0  0  0
 54123  1  0  0  0
 55 57  1  0  0  0
 55124  1  0  0  0
 56 69  2  0  0  0
 57 58  2  0  0  0
 57125  1  0  0  0
 58126  1  0  0  0
 59 60  1  0  0  0
 59 61  1  0  0  0
 59 62  1  0  0  0
 60127  1  0  0  0
 60128  1  0  0  0
 60129  1  0  0  0
 61130  1  0  0  0
 61131  1  0  0  0
 61132  1  0  0  0
 62133  1  0  0  0
 62134  1  0  0  0
 62135  1  0  0  0
 63 65  1  0  0  0
 63136  1  0  0  0
 63137  1  0  0  0
 63138  1  0  0  0
 64139  1  0  0  0
 65140  1  0  0  0
 68 77  1  0  0  0
 71 72  1  0  0  0
 71 73  2  0  0  0
 71141  1  0  0  0
 72 74  2  0  0  0
 72142  1  0  0  0
 73 78  1  0  0  0
 73 81  1  0  0  0
 74 79  1  0  0  0
 74 81  1  0  0  0
 75 76  1  0  0  0
 75 77  1  0  0  0
 75 80  2  0  0  0
 76 79  1  0  0  0
 76143  1  0  0  0
 76144  1  0  0  0
 77145  1  0  0  0
 77146  1  0  0  0
 78147  1  0  0  0
 79148  1  0  0  0
M  ISO  4   1 100  68 101  77 101  78 100
M  END
> <chiral flag>
0

> <version>
0

> <s_m_source_file>
/data/baiqing/PycharmProjects/Reinvent-master-3.2/result/LINK_invent/BTK/process_docking_weight1_custom_product_contain_oxygen_bond_distance_aromatic_linkinvent_7_9_3/rearranged_h_0157.sdf

> <i_m_source_file_index>
40

> <r_mmod_Potential_Energy-OPLS-2005>
193.042266845703

> <r_mmod_Stretch_Energy-OPLS-2005>
142.704147338867

> <r_mmod_Bend_Energy-OPLS-2005>
192.762298583984

> <r_mmod_Torsional_Energy-OPLS-2005>
216.503204345703

> <r_mmod_Improper_Torsional_Energy-OPLS-2005>
4.95895957946777

> <r_mmod_Van_der_Waal_Energy-OPLS-2005>
120.631721496582

> <r_mmod_Electrostatic_Energy-OPLS-2005>
-340.916717529297

> <r_mmod_Solvation_Energy-OPLS-2005>
-253.150100708008

> <b_mmod_Minimization_Converged-OPLS-2005>
0

> <r_mmod_RMS_Derivative-OPLS-2005>
0.500250220298767

$$$$
40
                    3D
 Structure written by MMmdl.
158167  0  0  1  0            999 V2000
  -30.5189  -14.8548   20.4505 C   0  0  0  0  0  0
  -30.4562  -12.5257   19.4802 C   0  0  0  0  0  0
  -29.5224  -12.5265   18.2456 C   0  0  0  0  0  0
  -28.0513  -12.3223   18.6609 C   0  0  0  0  0  0
  -27.6430  -13.2280   19.8516 C   0  0  2  0  0  0
  -28.6882  -13.1705   20.9875 C   0  0  0  0  0  0
  -25.2525  -13.8180   20.5688 C   0  0  0  0  0  0
  -24.1813  -13.0433   20.9209 C   0  0  0  0  0  0
  -24.6400  -11.6908   20.8749 C   0  0  0  0  0  0
  -23.9072  -10.4288   21.0408 C   0  0  0  0  0  0
  -24.3622   -9.4203   21.9186 C   0  0  0  0  0  0
  -23.6294   -8.2239   22.0755 C   0  0  0  0  0  0
  -22.4275   -8.0281   21.3545 C   0  0  0  0  0  0
  -21.9914   -9.0255   20.4647 C   0  0  0  0  0  0
  -22.7246  -10.2132   20.3058 C   0  0  0  0  0  0
  -21.6853   -6.0737   22.5279 C   0  0  0  0  0  0
  -21.4013   -6.5639   23.8213 C   0  0  0  0  0  0
  -21.3660   -5.6792   24.9174 C   0  0  0  0  0  0
  -21.6043   -4.3055   24.7224 C   0  0  0  0  0  0
  -21.8820   -3.8147   23.4345 C   0  0  0  0  0  0
  -21.9191   -4.6965   22.3401 C   0  0  0  0  0  0
  -22.7834  -13.5219   21.1867 C   0  0  0  0  0  0
  -22.1660   -4.2151   21.0979 F   0  0  0  0  0  0
  -21.5629   -3.4538   25.7737 F   0  0  0  0  0  0
  -29.9791  -13.5786   20.4113 N   0  0  0  0  0  0
  -26.2944  -12.9372   20.3274 N   0  0  0  0  0  0
  -25.9329  -11.6522   20.5748 N   0  0  0  0  0  0
  -22.0479  -12.8210   22.0424 N   0  0  0  0  0  0
  -25.4218  -15.1906   20.4094 N   0  0  0  0  0  0
  -31.6962  -15.0231   20.1121 O   0  0  0  0  0  0
  -21.6637   -6.8880   21.4241 O   0  0  0  0  0  0
  -22.3519  -14.5525   20.6714 O   0  0  0  0  0  0
  -24.6386  -31.8483   23.1905 C   0  0  0  0  0  0
  -25.9178  -32.4717   23.8279 C   0  0  1  0  0  0
  -27.2278  -27.1898   20.1226 C   0  0  0  0  0  0
  -25.5945  -33.8521   24.2202 N   0  0  0  0  0  0
  -23.4385  -30.4691   21.5358 C   0  0  2  0  0  0
  -24.8849  -28.9027   20.1090 C   0  0  0  0  0  0
  -22.7541  -29.4568   22.4875 C   0  0  0  0  0  0
  -18.0302  -28.1397   22.8478 C   0  0  0  0  0  0
  -24.1491  -36.7268   23.2643 C   0  0  0  0  0  0
  -25.9903  -30.7400   21.3773 C   0  0  0  0  0  0
  -26.0613  -29.3564   20.7160 C   0  0  0  0  0  0
  -27.2283  -28.5141   20.7077 C   0  0  0  0  0  0
  -26.0069  -26.8072   19.5248 C   0  0  0  0  0  0
  -24.8664  -27.6375   19.5040 C   0  0  0  0  0  0
  -23.6602  -29.8001   20.1537 C   0  0  0  0  0  0
  -25.4121  -36.3047   24.0317 C   0  0  1  0  0  0
  -20.5911  -28.3715   23.1250 C   0  0  2  0  0  0
  -20.6789  -26.9425   22.5404 C   0  0  0  0  0  0
  -19.5762  -26.6386   21.5212 C   0  0  0  0  0  0
  -18.1942  -26.7936   22.1623 C   0  0  0  0  0  0
  -19.1558  -28.8872   23.2857 C   0  0  0  0  0  0
  -18.9479  -30.1470   23.8882 C   0  0  0  0  0  0
  -17.6477  -30.6594   24.0563 C   0  0  0  0  0  0
  -25.9066  -34.9421   23.5066 C   0  0  0  0  0  0
  -16.5368  -29.9090   23.6337 C   0  0  0  0  0  0
  -16.7288  -28.6511   23.0353 C   0  0  0  0  0  0
  -26.4514  -31.6577   25.0706 C   0  0  0  0  0  0
  -25.3709  -31.3761   26.1411 C   0  0  0  0  0  0
  -27.0375  -30.2988   24.6242 C   0  0  0  0  0  0
  -27.6048  -32.4340   25.7492 C   0  0  0  0  0  0
  -27.5575  -37.1789   24.8466 C   0  0  0  0  0  0
  -21.4238  -29.3051   22.3632 N   0  0  0  0  0  0
  -26.4288  -37.3756   23.9407 N   0  0  0  0  0  0
  -24.7092  -31.0387   22.0909 N   0  0  0  0  0  0
  -23.4213  -28.8109   23.2999 O   0  0  0  0  0  0
  -28.3396  -26.2891   20.2192 O   0  0  0  0  0  0
  -26.5649  -34.8913   22.4643 O   0  0  0  0  0  0
  -23.5521  -32.1333   23.7163 O   0  0  0  0  0  0
  -30.0311  -18.4610   20.0782 C   0  0  0  0  0  0
  -29.5224  -19.8240   20.4816 C   0  0  0  0  0  0
  -29.5443  -17.3262   20.7792 C   0  0  0  0  0  0
  -28.6281  -19.6839   21.5150 C   0  0  0  0  0  0
  -28.5123  -23.4803   20.1674 C   0  0  0  0  0  0
  -30.0765  -21.1836   19.9324 C   0  0  0  0  0  0
  -30.1485  -24.9775   19.3577 C   0  0  0  0  0  0
  -30.6157  -23.5216   19.1628 C   0  0  0  0  0  0
  -28.6268  -24.9609   19.4841 C   0  0  2  0  0  0
  -28.0206  -24.9324   18.0585 C   0  0  0  0  0  0
  -29.6778  -22.5718   19.8263 N   0  0  0  0  0  0
  -27.9335  -20.6419   22.2430 N   0  0  0  0  0  0
  -29.6231  -15.9003   20.7192 N   0  0  0  0  0  0
  -31.3069  -20.9345   19.4264 N   0  3  0  0  0  0
  -27.5327  -23.1050   20.8226 O   0  0  0  0  0  0
  -28.3954  -17.9840   21.9424 S   0  0  0  0  0  0
  -31.4880  -12.6992   19.1704 H   0  0  0  0  0  0
  -30.4505  -11.5514   19.9712 H   0  0  0  0  0  0
  -29.8246  -11.7491   17.5428 H   0  0  0  0  0  0
  -29.6216  -13.4744   17.7140 H   0  0  0  0  0  0
  -27.9307  -11.2749   18.9398 H   0  0  0  0  0  0
  -27.3889  -12.4891   17.8108 H   0  0  0  0  0  0
  -27.6304  -14.2455   19.4605 H   0  0  0  0  0  0
  -28.7526  -12.1646   21.4053 H   0  0  0  0  0  0
  -28.3994  -13.8203   21.8152 H   0  0  0  0  0  0
  -25.2768   -9.5673   22.4761 H   0  0  0  0  0  0
  -24.0001   -7.4629   22.7473 H   0  0  0  0  0  0
  -21.0846   -8.8777   19.8952 H   0  0  0  0  0  0
  -22.3709  -10.9672   19.6166 H   0  0  0  0  0  0
  -21.2006   -7.6148   23.9717 H   0  0  0  0  0  0
  -21.1481   -6.0522   25.9078 H   0  0  0  0  0  0
  -22.0599   -2.7610   23.2844 H   0  0  0  0  0  0
  -22.4093  -11.9868   22.4807 H   0  0  0  0  0  0
  -21.1097  -13.1236   22.2634 H   0  0  0  0  0  0
  -24.6476  -15.8382   20.5086 H   0  0  0  0  0  0
  -26.2566  -15.6294   20.0432 H   0  0  0  0  0  0
  -26.7240  -32.5339   23.1008 H   0  0  0  0  0  0
  -25.0083  -33.9645   25.0344 H   0  0  0  0  0  0
  -22.7386  -31.2937   21.3847 H   0  0  0  0  0  0
  -23.3757  -35.9595   23.3298 H   0  0  0  0  0  0
  -24.3579  -36.8910   22.2060 H   0  0  0  0  0  0
  -23.7241  -37.6460   23.6682 H   0  0  0  0  0  0
  -26.1363  -31.4984   20.6069 H   0  0  0  0  0  0
  -26.8647  -30.7896   22.0149 H   0  0  0  0  0  0
  -28.1285  -28.8606   21.1964 H   0  0  0  0  0  0
  -25.8743  -25.8213   19.1207 H   0  0  0  0  0  0
  -23.9569  -27.2715   19.0471 H   0  0  0  0  0  0
  -23.7929  -30.5753   19.3983 H   0  0  0  0  0  0
  -22.7756  -29.2405   19.8449 H   0  0  0  0  0  0
  -25.1308  -36.1880   25.0809 H   0  0  0  0  0  0
  -21.0003  -28.3301   24.1371 H   0  0  0  0  0  0
  -20.5693  -26.2326   23.3617 H   0  0  0  0  0  0
  -21.6655  -26.7441   22.1196 H   0  0  0  0  0  0
  -19.6925  -25.6291   21.1256 H   0  0  0  0  0  0
  -19.6702  -27.3185   20.6733 H   0  0  0  0  0  0
  -17.4212  -26.6685   21.4027 H   0  0  0  0  0  0
  -18.0340  -26.0078   22.9022 H   0  0  0  0  0  0
  -19.7956  -30.7290   24.2243 H   0  0  0  0  0  0
  -17.5035  -31.6273   24.5171 H   0  0  0  0  0  0
  -15.5369  -30.2993   23.7669 H   0  0  0  0  0  0
  -15.8687  -28.0832   22.7070 H   0  0  0  0  0  0
  -24.5890  -30.7103   25.7742 H   0  0  0  0  0  0
  -24.8890  -32.2944   26.4781 H   0  0  0  0  0  0
  -25.7999  -30.8979   27.0226 H   0  0  0  0  0  0
  -26.2980  -29.6722   24.1244 H   0  0  0  0  0  0
  -27.4021  -29.7271   25.4785 H   0  0  0  0  0  0
  -27.8866  -30.4258   23.9522 H   0  0  0  0  0  0
  -27.2642  -33.3662   26.2013 H   0  0  0  0  0  0
  -28.3885  -32.6872   25.0338 H   0  0  0  0  0  0
  -28.0679  -31.8503   26.5457 H   0  0  0  0  0  0
  -28.2583  -38.0094   24.7512 H   0  0  0  0  0  0
  -28.1081  -36.2624   24.6293 H   0  0  0  0  0  0
  -27.2293  -37.1438   25.8869 H   0  0  0  0  0  0
  -20.9436  -29.8784   21.6835 H   0  0  0  0  0  0
  -26.0159  -38.2825   24.1418 H   0  0  0  0  0  0
  -30.7407  -18.3619   19.2704 H   0  0  0  0  0  0
  -30.4745  -25.6102   18.5310 H   0  0  0  0  0  0
  -30.6063  -25.3874   20.2601 H   0  0  0  0  0  0
  -31.6267  -23.4309   19.5596 H   0  0  0  0  0  0
  -30.6546  -23.2822   18.0991 H   0  0  0  0  0  0
  -28.6055  -24.3115   17.3799 H   0  0  0  0  0  0
  -27.9859  -25.9283   17.6167 H   0  0  0  0  0  0
  -27.0204  -24.5031   18.0395 H   0  0  0  0  0  0
  -27.6802  -21.5493   21.8482 H   0  0  0  0  0  0
  -27.2405  -20.3401   22.9223 H   0  0  0  0  0  0
  -28.7644  -15.4803   21.0418 H   0  0  0  0  0  0
  -31.7030  -20.0110   19.5038 H   0  0  0  0  0  0
  -31.8803  -21.6513   19.0109 H   0  0  0  0  0  0
  1 25  1  0  0  0
  1 30  2  0  0  0
  1 83  1  0  0  0
  2  3  1  0  0  0
  2 25  1  0  0  0
  2 87  1  0  0  0
  2 88  1  0  0  0
  3  4  1  0  0  0
  3 89  1  0  0  0
  3 90  1  0  0  0
  4  5  1  0  0  0
  4 91  1  0  0  0
  4 92  1  0  0  0
  5  6  1  0  0  0
  5 26  1  0  0  0
  5 93  1  0  0  0
  6 25  1  0  0  0
  6 94  1  0  0  0
  6 95  1  0  0  0
  7  8  2  0  0  0
  7 26  1  0  0  0
  7 29  1  0  0  0
  8  9  1  0  0  0
  8 22  1  0  0  0
  9 10  1  0  0  0
  9 27  2  0  0  0
 10 11  2  0  0  0
 10 15  1  0  0  0
 11 12  1  0  0  0
 11 96  1  0  0  0
 12 13  2  0  0  0
 12 97  1  0  0  0
 13 14  1  0  0  0
 13 31  1  0  0  0
 14 15  2  0  0  0
 14 98  1  0  0  0
 15 99  1  0  0  0
 16 17  2  0  0  0
 16 21  1  0  0  0
 16 31  1  0  0  0
 17 18  1  0  0  0
 17100  1  0  0  0
 18 19  2  0  0  0
 18101  1  0  0  0
 19 20  1  0  0  0
 19 24  1  0  0  0
 20 21  2  0  0  0
 20102  1  0  0  0
 21 23  1  0  0  0
 22 28  1  0  0  0
 22 32  2  0  0  0
 26 27  1  0  0  0
 28103  1  0  0  0
 28104  1  0  0  0
 29105  1  0  0  0
 29106  1  0  0  0
 33 34  1  0  0  0
 33 66  1  0  0  0
 33 70  2  0  0  0
 34 36  1  0  0  0
 34 59  1  0  0  0
 34107  1  0  0  0
 35 44  2  0  0  0
 35 45  1  0  0  0
 35 68  1  0  0  0
 36 56  1  0  0  0
 36108  1  0  0  0
 37 39  1  0  0  0
 37 47  1  0  0  0
 37 66  1  0  0  0
 37109  1  0  0  0
 38 43  2  0  0  0
 38 46  1  0  0  0
 38 47  1  0  0  0
 39 64  1  0  0  0
 39 67  2  0  0  0
 40 52  1  0  0  0
 40 53  2  0  0  0
 40 58  1  0  0  0
 41110  1  0  0  0
 41111  1  0  0  0
 41112  1  0  0  0
 41 48  1  0  0  0
 42 43  1  0  0  0
 42 66  1  0  0  0
 42113  1  0  0  0
 42114  1  0  0  0
 43 44  1  0  0  0
 44115  1  0  0  0
 45 46  2  0  0  0
 45116  1  0  0  0
 46117  1  0  0  0
 47118  1  0  0  0
 47119  1  0  0  0
 48 56  1  0  0  0
 48 65  1  0  0  0
 48120  1  0  0  0
 49 50  1  0  0  0
 49 53  1  0  0  0
 49 64  1  0  0  0
 49121  1  0  0  0
 50 51  1  0  0  0
 50122  1  0  0  0
 50123  1  0  0  0
 51 52  1  0  0  0
 51124  1  0  0  0
 51125  1  0  0  0
 52126  1  0  0  0
 52127  1  0  0  0
 53 54  1  0  0  0
 54 55  2  0  0  0
 54128  1  0  0  0
 55 57  1  0  0  0
 55129  1  0  0  0
 56 69  2  0  0  0
 57 58  2  0  0  0
 57130  1  0  0  0
 58131  1  0  0  0
 59 60  1  0  0  0
 59 61  1  0  0  0
 59 62  1  0  0  0
 60132  1  0  0  0
 60133  1  0  0  0
 60134  1  0  0  0
 61135  1  0  0  0
 61136  1  0  0  0
 61137  1  0  0  0
 62138  1  0  0  0
 62139  1  0  0  0
 62140  1  0  0  0
 63 65  1  0  0  0
 63141  1  0  0  0
 63142  1  0  0  0
 63143  1  0  0  0
 64144  1  0  0  0
 65145  1  0  0  0
 68 79  1  0  0  0
 71 72  1  0  0  0
 71 73  2  0  0  0
 71146  1  0  0  0
 72 74  2  0  0  0
 72 76  1  0  0  0
 73 83  1  0  0  0
 73 86  1  0  0  0
 74 82  1  0  0  0
 74 86  1  0  0  0
 75 79  1  0  0  0
 75 81  1  0  0  0
 75 85  2  0  0  0
 76 81  1  0  0  0
 76 84  2  0  0  0
 77 78  1  0  0  0
 77 79  1  0  0  0
 77147  1  0  0  0
 77148  1  0  0  0
 78 81  1  0  0  0
 78149  1  0  0  0
 78150  1  0  0  0
 79 80  1  0  0  0
 80151  1  0  0  0
 80152  1  0  0  0
 80153  1  0  0  0
 82154  1  0  0  0
 82155  1  0  0  0
 83156  1  0  0  0
 84157  1  0  0  0
 84158  1  0  0  0
M  CHG  1  84   1
M  ISO  4   1 100  68 101  79 101  83 100
M  END
> <chiral flag>
0

> <version>
0

> <s_m_source_file>
/data/baiqing/PycharmProjects/Reinvent-master-3.2/result/LINK_invent/BTK/process_docking_weight1_custom_product_contain_oxygen_bond_distance_aromatic_linkinvent_7_9_3/rearranged_h_0157.sdf

> <i_m_source_file_index>
41

> <r_mmod_Potential_Energy-OPLS-2005>
447.984802246094

> <r_mmod_Stretch_Energy-OPLS-2005>
194.887130737305

> <r_mmod_Bend_Energy-OPLS-2005>
378.629028320312

> <r_mmod_Torsional_Energy-OPLS-2005>
258.152587890625

> <r_mmod_Improper_Torsional_Energy-OPLS-2005>
8.51357078552246

> <r_mmod_Van_der_Waal_Energy-OPLS-2005>
126.835716247559

> <r_mmod_Electrostatic_Energy-OPLS-2005>
-168.041290283203

> <r_mmod_Solvation_Energy-OPLS-2005>
-487.600769042969

> <b_mmod_Minimization_Converged-OPLS-2005>
0

> <r_mmod_RMS_Derivative-OPLS-2005>
0.536994516849518

$$$$
41
                    3D
 Structure written by MMmdl.
155164  0  0  1  0            999 V2000
  -30.6206  -14.7906   20.4373 C   0  0  0  0  0  0
  -30.4274  -12.4872   19.4746 C   0  0  0  0  0  0
  -29.5051  -12.4981   18.2358 C   0  0  0  0  0  0
  -28.0330  -12.3227   18.6537 C   0  0  0  0  0  0
  -27.6314  -13.2408   19.8394 C   0  0  2  0  0  0
  -28.6799  -13.2249   20.9721 C   0  0  0  0  0  0
  -25.2472  -13.8221   20.5726 C   0  0  0  0  0  0
  -24.1773  -13.0447   20.9216 C   0  0  0  0  0  0
  -24.6375  -11.6927   20.8740 C   0  0  0  0  0  0
  -23.9048  -10.4295   21.0393 C   0  0  0  0  0  0
  -24.3603   -9.4212   21.9167 C   0  0  0  0  0  0
  -23.6289   -8.2243   22.0734 C   0  0  0  0  0  0
  -22.4267   -8.0270   21.3533 C   0  0  0  0  0  0
  -21.9898   -9.0242   20.4633 C   0  0  0  0  0  0
  -22.7219  -10.2125   20.3050 C   0  0  0  0  0  0
  -21.6851   -6.0720   22.5272 C   0  0  0  0  0  0
  -21.4027   -6.5631   23.8203 C   0  0  0  0  0  0
  -21.3664   -5.6786   24.9164 C   0  0  0  0  0  0
  -21.6051   -4.3051   24.7220 C   0  0  0  0  0  0
  -21.8815   -3.8131   23.4344 C   0  0  0  0  0  0
  -21.9194   -4.6947   22.3396 C   0  0  0  0  0  0
  -22.7785  -13.5212   21.1872 C   0  0  0  0  0  0
  -22.1657   -4.2132   21.0974 F   0  0  0  0  0  0
  -21.5623   -3.4526   25.7736 F   0  0  0  0  0  0
  -29.9688  -13.5762   20.3679 N   0  0  0  0  0  0
  -26.2882  -12.9441   20.3259 N   0  0  0  0  0  0
  -25.9307  -11.6571   20.5742 N   0  0  0  0  0  0
  -22.0445  -12.8199   22.0441 N   0  0  0  0  0  0
  -25.4161  -15.1956   20.4196 N   0  0  0  0  0  0
  -31.8412  -14.8144   20.2455 O   0  0  0  0  0  0
  -21.6644   -6.8860   21.4237 O   0  0  0  0  0  0
  -22.3453  -14.5501   20.6699 O   0  0  0  0  0  0
  -24.6345  -31.8554   23.1969 C   0  0  0  0  0  0
  -25.9154  -32.4750   23.8337 C   0  0  1  0  0  0
  -27.2055  -27.2316   20.1321 C   0  0  0  0  0  0
  -25.5947  -33.8551   24.2262 N   0  0  0  0  0  0
  -23.4324  -30.4789   21.5403 C   0  0  2  0  0  0
  -24.8798  -28.9240   20.1096 C   0  0  0  0  0  0
  -22.7528  -29.4610   22.4881 C   0  0  0  0  0  0
  -18.0309  -28.1390   22.8488 C   0  0  0  0  0  0
  -24.1492  -36.7262   23.2641 C   0  0  0  0  0  0
  -25.9836  -30.7538   21.3879 C   0  0  0  0  0  0
  -26.0534  -29.3755   20.7271 C   0  0  0  0  0  0
  -27.2216  -28.5417   20.7284 C   0  0  0  0  0  0
  -26.0167  -26.8681   19.4633 C   0  0  0  0  0  0
  -24.8672  -27.6791   19.4660 C   0  0  0  0  0  0
  -23.6544  -29.8159   20.1563 C   0  0  0  0  0  0
  -25.4122  -36.3064   24.0334 C   0  0  1  0  0  0
  -20.5914  -28.3714   23.1239 C   0  0  2  0  0  0
  -20.6796  -26.9425   22.5388 C   0  0  0  0  0  0
  -19.5769  -26.6392   21.5198 C   0  0  0  0  0  0
  -18.1955  -26.7937   22.1619 C   0  0  0  0  0  0
  -19.1562  -28.8870   23.2865 C   0  0  0  0  0  0
  -18.9482  -30.1465   23.8894 C   0  0  0  0  0  0
  -17.6478  -30.6587   24.0563 C   0  0  0  0  0  0
  -25.9059  -34.9433   23.5095 C   0  0  0  0  0  0
  -16.5367  -29.9081   23.6333 C   0  0  0  0  0  0
  -16.7296  -28.6493   23.0371 C   0  0  0  0  0  0
  -26.4509  -31.6575   25.0727 C   0  0  0  0  0  0
  -25.3722  -31.3741   26.1437 C   0  0  0  0  0  0
  -27.0362  -30.2986   24.6235 C   0  0  0  0  0  0
  -27.6063  -32.4325   25.7503 C   0  0  0  0  0  0
  -27.5582  -37.1797   24.8474 C   0  0  0  0  0  0
  -21.4234  -29.3054   22.3620 N   0  0  0  0  0  0
  -26.4300  -37.3762   23.9403 N   0  0  0  0  0  0
  -24.7024  -31.0481   22.0969 N   0  0  0  0  0  0
  -23.4213  -28.8150   23.2994 O   0  0  0  0  0  0
  -28.2612  -26.2829   20.1778 O   0  0  0  0  0  0
  -26.5622  -34.8913   22.4658 O   0  0  0  0  0  0
  -23.5479  -32.1400   23.7228 O   0  0  0  0  0  0
  -28.9585  -19.8562   21.1308 C   0  0  0  0  0  0
  -29.5168  -18.6047   20.5788 C   0  0  0  0  0  0
  -30.0907  -18.8718   19.3759 C   0  0  0  0  0  0
  -29.1109  -21.0447   20.3809 C   0  0  0  0  0  0
  -28.8360  -23.6160   20.1370 C   0  0  0  0  0  0
  -29.5392  -17.1107   21.1206 C   0  0  0  0  0  0
  -30.6742  -17.7836   18.5375 C   0  0  0  0  0  0
  -29.9366  -16.4306   18.7576 C   0  0  0  0  0  0
  -27.7395  -24.8821   22.1344 C   0  0  0  0  0  0
  -27.9142  -24.8632   20.6055 C   0  0  2  0  0  0
  -29.8904  -15.9590   20.1670 N   0  0  0  0  0  0
  -28.6174  -22.3395   20.6626 N   0  0  0  0  0  0
  -29.7149  -23.8202   19.2964 O   0  0  0  0  0  0
  -29.9871  -20.5817   18.9203 S   0  0  0  0  0  0
  -31.4667  -12.6140   19.1660 H   0  0  0  0  0  0
  -30.3757  -11.5264   19.9900 H   0  0  0  0  0  0
  -29.7951  -11.7073   17.5424 H   0  0  0  0  0  0
  -29.6188  -13.4373   17.6935 H   0  0  0  0  0  0
  -27.8957  -11.2783   18.9344 H   0  0  0  0  0  0
  -27.3739  -12.4954   17.8021 H   0  0  0  0  0  0
  -27.6109  -14.2530   19.4367 H   0  0  0  0  0  0
  -28.7267  -12.2457   21.4506 H   0  0  0  0  0  0
  -28.4112  -13.9416   21.7508 H   0  0  0  0  0  0
  -25.2746   -9.5695   22.4745 H   0  0  0  0  0  0
  -24.0000   -7.4633   22.7456 H   0  0  0  0  0  0
  -21.0824   -8.8746   19.8951 H   0  0  0  0  0  0
  -22.3652  -10.9655   19.6166 H   0  0  0  0  0  0
  -21.2031   -7.6136   23.9704 H   0  0  0  0  0  0
  -21.1496   -6.0512   25.9068 H   0  0  0  0  0  0
  -22.0597   -2.7594   23.2842 H   0  0  0  0  0  0
  -22.4074  -11.9890   22.4877 H   0  0  0  0  0  0
  -21.1058  -13.1207   22.2639 H   0  0  0  0  0  0
  -24.6494  -15.8496   20.5317 H   0  0  0  0  0  0
  -26.2737  -15.6389   20.1165 H   0  0  0  0  0  0
  -26.7209  -32.5389   23.1072 H   0  0  0  0  0  0
  -25.0134  -33.9688   25.0434 H   0  0  0  0  0  0
  -22.7305  -31.3022   21.3924 H   0  0  0  0  0  0
  -23.3761  -35.9585   23.3319 H   0  0  0  0  0  0
  -24.3579  -36.8864   22.2049 H   0  0  0  0  0  0
  -23.7236  -37.6470   23.6646 H   0  0  0  0  0  0
  -26.1347  -31.5147   20.6205 H   0  0  0  0  0  0
  -26.8579  -30.7976   22.0271 H   0  0  0  0  0  0
  -28.1165  -28.8745   21.2355 H   0  0  0  0  0  0
  -25.9514  -25.9292   18.9337 H   0  0  0  0  0  0
  -23.9728  -27.3349   18.9648 H   0  0  0  0  0  0
  -23.7838  -30.5936   19.4020 H   0  0  0  0  0  0
  -22.7725  -29.2521   19.8479 H   0  0  0  0  0  0
  -25.1303  -36.1924   25.0830 H   0  0  0  0  0  0
  -21.0022  -28.3296   24.1353 H   0  0  0  0  0  0
  -20.5694  -26.2327   23.3600 H   0  0  0  0  0  0
  -21.6667  -26.7445   22.1186 H   0  0  0  0  0  0
  -19.6930  -25.6302   21.1237 H   0  0  0  0  0  0
  -19.6704  -27.3196   20.6724 H   0  0  0  0  0  0
  -17.4223  -26.6696   21.4020 H   0  0  0  0  0  0
  -18.0356  -26.0070   22.9009 H   0  0  0  0  0  0
  -19.7953  -30.7287   24.2262 H   0  0  0  0  0  0
  -17.5027  -31.6268   24.5165 H   0  0  0  0  0  0
  -15.5367  -30.2988   23.7645 H   0  0  0  0  0  0
  -15.8703  -28.0799   22.7107 H   0  0  0  0  0  0
  -24.5918  -30.7060   25.7774 H   0  0  0  0  0  0
  -24.8872  -32.2906   26.4808 H   0  0  0  0  0  0
  -25.8029  -30.8973   27.0248 H   0  0  0  0  0  0
  -26.2951  -29.6734   24.1231 H   0  0  0  0  0  0
  -27.4011  -29.7252   25.4766 H   0  0  0  0  0  0
  -27.8853  -30.4261   23.9516 H   0  0  0  0  0  0
  -27.2680  -33.3656   26.2030 H   0  0  0  0  0  0
  -28.3899  -32.6841   25.0338 H   0  0  0  0  0  0
  -28.0696  -31.8472   26.5460 H   0  0  0  0  0  0
  -28.2614  -38.0083   24.7507 H   0  0  0  0  0  0
  -28.1075  -36.2612   24.6333 H   0  0  0  0  0  0
  -27.2294  -37.1480   25.8879 H   0  0  0  0  0  0
  -20.9422  -29.8760   21.6812 H   0  0  0  0  0  0
  -26.0185  -38.2843   24.1393 H   0  0  0  0  0  0
  -28.4407  -19.8317   22.0798 H   0  0  0  0  0  0
  -28.5624  -16.8745   21.5436 H   0  0  0  0  0  0
  -30.2279  -17.0555   21.9647 H   0  0  0  0  0  0
  -31.7332  -17.6698   18.7717 H   0  0  0  0  0  0
  -30.6223  -18.0603   17.4843 H   0  0  0  0  0  0
  -30.3845  -15.6816   18.1019 H   0  0  0  0  0  0
  -28.9062  -16.5287   18.4160 H   0  0  0  0  0  0
  -27.4703  -23.9030   22.5284 H   0  0  0  0  0  0
  -26.9420  -25.5656   22.4245 H   0  0  0  0  0  0
  -28.6498  -25.2107   22.6345 H   0  0  0  0  0  0
  -26.9458  -24.5817   20.1975 H   0  0  0  0  0  0
  -27.9304  -22.3592   21.4044 H   0  0  0  0  0  0
  1 25  1  0  0  0
  1 30  2  0  0  0
  1 81  1  0  0  0
  2  3  1  0  0  0
  2 25  1  0  0  0
  2 85  1  0  0  0
  2 86  1  0  0  0
  3  4  1  0  0  0
  3 87  1  0  0  0
  3 88  1  0  0  0
  4  5  1  0  0  0
  4 89  1  0  0  0
  4 90  1  0  0  0
  5  6  1  0  0  0
  5 26  1  0  0  0
  5 91  1  0  0  0
  6 25  1  0  0  0
  6 92  1  0  0  0
  6 93  1  0  0  0
  7  8  2  0  0  0
  7 26  1  0  0  0
  7 29  1  0  0  0
  8  9  1  0  0  0
  8 22  1  0  0  0
  9 10  1  0  0  0
  9 27  2  0  0  0
 10 11  2  0  0  0
 10 15  1  0  0  0
 11 12  1  0  0  0
 11 94  1  0  0  0
 12 13  2  0  0  0
 12 95  1  0  0  0
 13 14  1  0  0  0
 13 31  1  0  0  0
 14 15  2  0  0  0
 14 96  1  0  0  0
 15 97  1  0  0  0
 16 17  2  0  0  0
 16 21  1  0  0  0
 16 31  1  0  0  0
 17 18  1  0  0  0
 17 98  1  0  0  0
 18 19  2  0  0  0
 18 99  1  0  0  0
 19 20  1  0  0  0
 19 24  1  0  0  0
 20 21  2  0  0  0
 20100  1  0  0  0
 21 23  1  0  0  0
 22 28  1  0  0  0
 22 32  2  0  0  0
 26 27  1  0  0  0
 28101  1  0  0  0
 28102  1  0  0  0
 29103  1  0  0  0
 29104  1  0  0  0
 33 34  1  0  0  0
 33 66  1  0  0  0
 33 70  2  0  0  0
 34 36  1  0  0  0
 34 59  1  0  0  0
 34105  1  0  0  0
 35 44  2  0  0  0
 35 45  1  0  0  0
 35 68  1  0  0  0
 36 56  1  0  0  0
 36106  1  0  0  0
 37 39  1  0  0  0
 37 47  1  0  0  0
 37 66  1  0  0  0
 37107  1  0  0  0
 38 43  2  0  0  0
 38 46  1  0  0  0
 38 47  1  0  0  0
 39 64  1  0  0  0
 39 67  2  0  0  0
 40 52  1  0  0  0
 40 53  2  0  0  0
 40 58  1  0  0  0
 41108  1  0  0  0
 41109  1  0  0  0
 41110  1  0  0  0
 41 48  1  0  0  0
 42 43  1  0  0  0
 42 66  1  0  0  0
 42111  1  0  0  0
 42112  1  0  0  0
 43 44  1  0  0  0
 44113  1  0  0  0
 45 46  2  0  0  0
 45114  1  0  0  0
 46115  1  0  0  0
 47116  1  0  0  0
 47117  1  0  0  0
 48 56  1  0  0  0
 48 65  1  0  0  0
 48118  1  0  0  0
 49 50  1  0  0  0
 49 53  1  0  0  0
 49 64  1  0  0  0
 49119  1  0  0  0
 50 51  1  0  0  0
 50120  1  0  0  0
 50121  1  0  0  0
 51 52  1  0  0  0
 51122  1  0  0  0
 51123  1  0  0  0
 52124  1  0  0  0
 52125  1  0  0  0
 53 54  1  0  0  0
 54 55  2  0  0  0
 54126  1  0  0  0
 55 57  1  0  0  0
 55127  1  0  0  0
 56 69  2  0  0  0
 57 58  2  0  0  0
 57128  1  0  0  0
 58129  1  0  0  0
 59 60  1  0  0  0
 59 61  1  0  0  0
 59 62  1  0  0  0
 60130  1  0  0  0
 60131  1  0  0  0
 60132  1  0  0  0
 61133  1  0  0  0
 61134  1  0  0  0
 61135  1  0  0  0
 62136  1  0  0  0
 62137  1  0  0  0
 62138  1  0  0  0
 63 65  1  0  0  0
 63139  1  0  0  0
 63140  1  0  0  0
 63141  1  0  0  0
 64142  1  0  0  0
 65143  1  0  0  0
 68 80  1  0  0  0
 71 72  1  0  0  0
 71 74  2  0  0  0
 71144  1  0  0  0
 72 73  2  0  0  0
 72 76  1  0  0  0
 73 77  1  0  0  0
 73 84  1  0  0  0
 74 82  1  0  0  0
 74 84  1  0  0  0
 75 80  1  0  0  0
 75 82  1  0  0  0
 75 83  2  0  0  0
 76 81  1  0  0  0
 76145  1  0  0  0
 76146  1  0  0  0
 77 78  1  0  0  0
 77147  1  0  0  0
 77148  1  0  0  0
 78 81  1  0  0  0
 78149  1  0  0  0
 78150  1  0  0  0
 79151  1  0  0  0
 79152  1  0  0  0
 79153  1  0  0  0
 79 80  1  0  0  0
 80154  1  0  0  0
 82155  1  0  0  0
M  ISO  4   1 100  68 101  80 101  81 100
M  END
> <chiral flag>
0

> <version>
0

> <s_m_source_file>
/data/baiqing/PycharmProjects/Reinvent-master-3.2/result/LINK_invent/BTK/process_docking_weight1_custom_product_contain_oxygen_bond_distance_aromatic_linkinvent_7_9_3/rearranged_h_0157.sdf

> <i_m_source_file_index>
42

> <r_mmod_Potential_Energy-OPLS-2005>
338.171661376953

> <r_mmod_Stretch_Energy-OPLS-2005>
137.479293823242

> <r_mmod_Bend_Energy-OPLS-2005>
183.854278564453

> <r_mmod_Torsional_Energy-OPLS-2005>
325.454254150391

> <r_mmod_Improper_Torsional_Energy-OPLS-2005>
20.1677513122559

> <r_mmod_Van_der_Waal_Energy-OPLS-2005>
118.476135253906

> <r_mmod_Electrostatic_Energy-OPLS-2005>
-326.5498046875

> <r_mmod_Solvation_Energy-OPLS-2005>
-235.041580200195

> <b_mmod_Minimization_Converged-OPLS-2005>
0

> <r_mmod_RMS_Derivative-OPLS-2005>
2.24693870544434

$$$$
42
                    3D
 Structure written by MMmdl.
160168  0  0  1  0            999 V2000
  -30.6041  -14.7453   20.4517 C   0  0  0  0  0  0
  -30.4172  -12.4441   19.4943 C   0  0  0  0  0  0
  -29.5199  -12.5189   18.2393 C   0  0  0  0  0  0
  -28.0360  -12.3618   18.6310 C   0  0  0  0  0  0
  -27.6354  -13.2429   19.8484 C   0  0  2  0  0  0
  -28.6744  -13.1750   20.9901 C   0  0  0  0  0  0
  -25.2455  -13.8208   20.5671 C   0  0  0  0  0  0
  -24.1790  -13.0414   20.9198 C   0  0  0  0  0  0
  -24.6414  -11.6909   20.8735 C   0  0  0  0  0  0
  -23.9081  -10.4279   21.0393 C   0  0  0  0  0  0
  -24.3630   -9.4200   21.9166 C   0  0  0  0  0  0
  -23.6306   -8.2239   22.0750 C   0  0  0  0  0  0
  -22.4288   -8.0279   21.3543 C   0  0  0  0  0  0
  -21.9914   -9.0249   20.4648 C   0  0  0  0  0  0
  -22.7250  -10.2115   20.3050 C   0  0  0  0  0  0
  -21.6845   -6.0724   22.5275 C   0  0  0  0  0  0
  -21.4028   -6.5637   23.8208 C   0  0  0  0  0  0
  -21.3665   -5.6798   24.9179 C   0  0  0  0  0  0
  -21.6035   -4.3054   24.7236 C   0  0  0  0  0  0
  -21.8817   -3.8137   23.4356 C   0  0  0  0  0  0
  -21.9201   -4.6951   22.3407 C   0  0  0  0  0  0
  -22.7815  -13.5186   21.1866 C   0  0  0  0  0  0
  -22.1653   -4.2137   21.0981 F   0  0  0  0  0  0
  -21.5636   -3.4536   25.7740 F   0  0  0  0  0  0
  -29.9759  -13.5214   20.4102 N   0  0  0  0  0  0
  -26.2898  -12.9445   20.3235 N   0  0  0  0  0  0
  -25.9333  -11.6560   20.5705 N   0  0  0  0  0  0
  -22.0459  -12.8196   22.0446 N   0  0  0  0  0  0
  -25.4079  -15.1933   20.4070 N   0  0  0  0  0  0
  -31.7934  -14.8098   20.1277 O   0  0  0  0  0  0
  -21.6652   -6.8875   21.4240 O   0  0  0  0  0  0
  -22.3486  -14.5491   20.6729 O   0  0  0  0  0  0
  -24.6304  -31.8554   23.1973 C   0  0  0  0  0  0
  -25.9125  -32.4753   23.8321 C   0  0  1  0  0  0
  -27.2215  -27.2917   20.1174 C   0  0  0  0  0  0
  -25.5931  -33.8544   24.2281 N   0  0  0  0  0  0
  -23.4249  -30.4769   21.5436 C   0  0  2  0  0  0
  -24.8696  -28.9212   20.1174 C   0  0  0  0  0  0
  -22.7491  -29.4604   22.4952 C   0  0  0  0  0  0
  -18.0286  -28.1396   22.8487 C   0  0  0  0  0  0
  -24.1487  -36.7283   23.2640 C   0  0  0  0  0  0
  -25.9665  -30.7822   21.3644 C   0  0  0  0  0  0
  -26.0436  -29.4021   20.7149 C   0  0  0  0  0  0
  -27.2261  -28.6006   20.6982 C   0  0  0  0  0  0
  -26.0275  -26.8665   19.5005 C   0  0  0  0  0  0
  -24.8639  -27.6609   19.4983 C   0  0  0  0  0  0
  -23.6393  -29.8044   20.1612 C   0  0  0  0  0  0
  -25.4105  -36.3078   24.0350 C   0  0  1  0  0  0
  -20.5882  -28.3689   23.1288 C   0  0  2  0  0  0
  -20.6779  -26.9422   22.5394 C   0  0  0  0  0  0
  -19.5763  -26.6420   21.5188 C   0  0  0  0  0  0
  -18.1939  -26.7951   22.1604 C   0  0  0  0  0  0
  -19.1532  -28.8862   23.2889 C   0  0  0  0  0  0
  -18.9461  -30.1463   23.8908 C   0  0  0  0  0  0
  -17.6463  -30.6589   24.0575 C   0  0  0  0  0  0
  -25.9046  -34.9442   23.5124 C   0  0  0  0  0  0
  -16.5356  -29.9091   23.6334 C   0  0  0  0  0  0
  -16.7277  -28.6517   23.0341 C   0  0  0  0  0  0
  -26.4539  -31.6534   25.0658 C   0  0  0  0  0  0
  -25.3799  -31.3636   26.1400 C   0  0  0  0  0  0
  -27.0354  -30.2965   24.6048 C   0  0  0  0  0  0
  -27.6141  -32.4226   25.7387 C   0  0  0  0  0  0
  -27.5585  -37.1780   24.8482 C   0  0  0  0  0  0
  -21.4204  -29.3041   22.3684 N   0  0  0  0  0  0
  -26.4301  -37.3769   23.9429 N   0  0  0  0  0  0
  -24.6941  -31.0552   22.0925 N   0  0  0  0  0  0
  -23.4205  -28.8154   23.3045 O   0  0  0  0  0  0
  -28.3199  -26.4111   20.0972 O   0  0  0  0  0  0
  -26.5603  -34.8918   22.4680 O   0  0  0  0  0  0
  -23.5454  -32.1343   23.7295 O   0  0  0  0  0  0
  -31.5562  -17.7123   20.7555 C   0  0  0  0  0  0
  -31.0867  -20.1004   20.4934 C   0  0  0  0  0  0
  -29.2675  -18.4719   20.3969 C   0  0  0  0  0  0
  -30.2006  -17.3489   20.5798 C   0  0  0  0  0  0
  -29.7006  -19.8755   20.3501 C   0  0  0  0  0  0
  -31.9910  -19.0461   20.7019 C   0  0  0  0  0  0
  -28.7053  -23.7751   19.9748 C   0  0  0  0  0  0
  -27.0513  -18.3401   21.6233 C   0  0  0  0  0  0
  -28.7365  -25.2280   22.1532 C   0  0  0  0  0  0
  -27.7777  -18.1774   20.2786 C   0  0  0  0  0  0
  -29.0468  -22.4113   20.7494 C   0  0  0  0  0  0
  -28.1441  -25.0714   20.7440 C   0  0  2  0  0  0
  -29.8362  -15.8970   20.6292 N   0  0  0  0  0  0
  -28.8522  -21.0338   20.1193 N   0  0  0  0  0  0
  -28.8799  -23.8291   18.7529 O   0  0  0  0  0  0
  -33.3073  -19.3212   20.8580 F   0  0  0  0  0  0
  -31.4690  -12.5296   19.2190 H   0  0  0  0  0  0
  -30.3170  -11.4680   19.9758 H   0  0  0  0  0  0
  -29.8053  -11.7471   17.5236 H   0  0  0  0  0  0
  -29.6733  -13.4727   17.7332 H   0  0  0  0  0  0
  -27.8677  -11.3072   18.8635 H   0  0  0  0  0  0
  -27.3982  -12.5904   17.7776 H   0  0  0  0  0  0
  -27.6292  -14.2690   19.4785 H   0  0  0  0  0  0
  -28.7048  -12.1810   21.4392 H   0  0  0  0  0  0
  -28.4098  -13.8643   21.7944 H   0  0  0  0  0  0
  -25.2766   -9.5672   22.4735 H   0  0  0  0  0  0
  -23.9998   -7.4639   22.7475 H   0  0  0  0  0  0
  -21.0826   -8.8765   19.8971 H   0  0  0  0  0  0
  -22.3689  -10.9653   19.6162 H   0  0  0  0  0  0
  -21.2012   -7.6139   23.9711 H   0  0  0  0  0  0
  -21.1496   -6.0522   25.9079 H   0  0  0  0  0  0
  -22.0592   -2.7595   23.2861 H   0  0  0  0  0  0
  -22.4100  -11.9857   22.4823 H   0  0  0  0  0  0
  -21.1077  -13.1203   22.2670 H   0  0  0  0  0  0
  -24.6248  -15.8300   20.5112 H   0  0  0  0  0  0
  -26.2346  -15.6340   20.0286 H   0  0  0  0  0  0
  -26.7163  -32.5436   23.1050 H   0  0  0  0  0  0
  -25.0122  -33.9670   25.0452 H   0  0  0  0  0  0
  -22.7226  -31.2979   21.3969 H   0  0  0  0  0  0
  -23.3763  -35.9597   23.3295 H   0  0  0  0  0  0
  -24.3611  -36.8889   22.2058 H   0  0  0  0  0  0
  -23.7211  -37.6480   23.6648 H   0  0  0  0  0  0
  -26.0805  -31.5383   20.5858 H   0  0  0  0  0  0
  -26.8557  -30.8463   21.9825 H   0  0  0  0  0  0
  -28.1339  -28.9693   21.1526 H   0  0  0  0  0  0
  -25.9893  -25.8971   19.0231 H   0  0  0  0  0  0
  -23.9670  -27.2924   19.0187 H   0  0  0  0  0  0
  -23.7581  -30.5768   19.3995 H   0  0  0  0  0  0
  -22.7595  -29.2308   19.8628 H   0  0  0  0  0  0
  -25.1279  -36.1943   25.0846 H   0  0  0  0  0  0
  -20.9969  -28.3236   24.1409 H   0  0  0  0  0  0
  -20.5674  -26.2287   23.3567 H   0  0  0  0  0  0
  -21.6649  -26.7458   22.1187 H   0  0  0  0  0  0
  -19.6924  -25.6350   21.1169 H   0  0  0  0  0  0
  -19.6697  -27.3269   20.6748 H   0  0  0  0  0  0
  -17.4206  -26.6698   21.4003 H   0  0  0  0  0  0
  -18.0359  -26.0080   22.8990 H   0  0  0  0  0  0
  -19.7932  -30.7274   24.2274 H   0  0  0  0  0  0
  -17.5015  -31.6260   24.5185 H   0  0  0  0  0  0
  -15.5356  -30.2990   23.7658 H   0  0  0  0  0  0
  -15.8684  -28.0844   22.7034 H   0  0  0  0  0  0
  -24.6046  -30.6891   25.7759 H   0  0  0  0  0  0
  -24.8905  -32.2766   26.4795 H   0  0  0  0  0  0
  -25.8172  -30.8883   27.0186 H   0  0  0  0  0  0
  -26.2879  -29.6690   24.1187 H   0  0  0  0  0  0
  -27.4219  -29.7241   25.4492 H   0  0  0  0  0  0
  -27.8681  -30.4288   23.9134 H   0  0  0  0  0  0
  -27.2834  -33.3562   26.1946 H   0  0  0  0  0  0
  -28.3940  -32.6685   25.0168 H   0  0  0  0  0  0
  -28.0807  -31.8322   26.5287 H   0  0  0  0  0  0
  -28.2622  -38.0062   24.7541 H   0  0  0  0  0  0
  -28.1068  -36.2601   24.6303 H   0  0  0  0  0  0
  -27.2318  -37.1416   25.8892 H   0  0  0  0  0  0
  -20.9383  -29.8763   21.6898 H   0  0  0  0  0  0
  -26.0194  -38.2846   24.1441 H   0  0  0  0  0  0
  -32.3161  -16.9727   20.9536 H   0  0  0  0  0  0
  -31.4947  -21.0980   20.4296 H   0  0  0  0  0  0
  -27.4761  -17.6817   22.3824 H   0  0  0  0  0  0
  -27.1337  -19.3625   21.9927 H   0  0  0  0  0  0
  -25.9905  -18.1020   21.5267 H   0  0  0  0  0  0
  -28.2686  -26.0652   22.6723 H   0  0  0  0  0  0
  -29.8092  -25.4237   22.1115 H   0  0  0  0  0  0
  -28.5689  -24.3407   22.7631 H   0  0  0  0  0  0
  -27.6247  -17.1704   19.8904 H   0  0  0  0  0  0
  -27.3276  -18.8282   19.5291 H   0  0  0  0  0  0
  -28.4486  -22.4190   21.6592 H   0  0  0  0  0  0
  -30.0778  -22.5189   21.0805 H   0  0  0  0  0  0
  -27.0758  -24.8874   20.8594 H   0  0  0  0  0  0
  -28.8563  -15.7097   20.7716 H   0  0  0  0  0  0
  -27.8858  -20.8387   19.8686 H   0  0  0  0  0  0
  1 25  1  0  0  0
  1 30  2  0  0  0
  1 83  1  0  0  0
  2  3  1  0  0  0
  2 25  1  0  0  0
  2 87  1  0  0  0
  2 88  1  0  0  0
  3  4  1  0  0  0
  3 89  1  0  0  0
  3 90  1  0  0  0
  4  5  1  0  0  0
  4 91  1  0  0  0
  4 92  1  0  0  0
  5  6  1  0  0  0
  5 26  1  0  0  0
  5 93  1  0  0  0
  6 25  1  0  0  0
  6 94  1  0  0  0
  6 95  1  0  0  0
  7  8  2  0  0  0
  7 26  1  0  0  0
  7 29  1  0  0  0
  8  9  1  0  0  0
  8 22  1  0  0  0
  9 10  1  0  0  0
  9 27  2  0  0  0
 10 11  2  0  0  0
 10 15  1  0  0  0
 11 12  1  0  0  0
 11 96  1  0  0  0
 12 13  2  0  0  0
 12 97  1  0  0  0
 13 14  1  0  0  0
 13 31  1  0  0  0
 14 15  2  0  0  0
 14 98  1  0  0  0
 15 99  1  0  0  0
 16 17  2  0  0  0
 16 21  1  0  0  0
 16 31  1  0  0  0
 17 18  1  0  0  0
 17100  1  0  0  0
 18 19  2  0  0  0
 18101  1  0  0  0
 19 20  1  0  0  0
 19 24  1  0  0  0
 20 21  2  0  0  0
 20102  1  0  0  0
 21 23  1  0  0  0
 22 28  1  0  0  0
 22 32  2  0  0  0
 26 27  1  0  0  0
 28103  1  0  0  0
 28104  1  0  0  0
 29105  1  0  0  0
 29106  1  0  0  0
 33 34  1  0  0  0
 33 66  1  0  0  0
 33 70  2  0  0  0
 34 36  1  0  0  0
 34 59  1  0  0  0
 34107  1  0  0  0
 35 44  2  0  0  0
 35 45  1  0  0  0
 35 68  1  0  0  0
 36 56  1  0  0  0
 36108  1  0  0  0
 37 39  1  0  0  0
 37 47  1  0  0  0
 37 66  1  0  0  0
 37109  1  0  0  0
 38 43  2  0  0  0
 38 46  1  0  0  0
 38 47  1  0  0  0
 39 64  1  0  0  0
 39 67  2  0  0  0
 40 52  1  0  0  0
 40 53  2  0  0  0
 40 58  1  0  0  0
 41110  1  0  0  0
 41111  1  0  0  0
 41112  1  0  0  0
 41 48  1  0  0  0
 42 43  1  0  0  0
 42 66  1  0  0  0
 42113  1  0  0  0
 42114  1  0  0  0
 43 44  1  0  0  0
 44115  1  0  0  0
 45 46  2  0  0  0
 45116  1  0  0  0
 46117  1  0  0  0
 47118  1  0  0  0
 47119  1  0  0  0
 48 56  1  0  0  0
 48 65  1  0  0  0
 48120  1  0  0  0
 49 50  1  0  0  0
 49 53  1  0  0  0
 49 64  1  0  0  0
 49121  1  0  0  0
 50 51  1  0  0  0
 50122  1  0  0  0
 50123  1  0  0  0
 51 52  1  0  0  0
 51124  1  0  0  0
 51125  1  0  0  0
 52126  1  0  0  0
 52127  1  0  0  0
 53 54  1  0  0  0
 54 55  2  0  0  0
 54128  1  0  0  0
 55 57  1  0  0  0
 55129  1  0  0  0
 56 69  2  0  0  0
 57 58  2  0  0  0
 57130  1  0  0  0
 58131  1  0  0  0
 59 60  1  0  0  0
 59 61  1  0  0  0
 59 62  1  0  0  0
 60132  1  0  0  0
 60133  1  0  0  0
 60134  1  0  0  0
 61135  1  0  0  0
 61136  1  0  0  0
 61137  1  0  0  0
 62138  1  0  0  0
 62139  1  0  0  0
 62140  1  0  0  0
 63 65  1  0  0  0
 63141  1  0  0  0
 63142  1  0  0  0
 63143  1  0  0  0
 64144  1  0  0  0
 65145  1  0  0  0
 68 82  1  0  0  0
 71 74  2  0  0  0
 71 76  1  0  0  0
 71146  1  0  0  0
 72 75  1  0  0  0
 72 76  2  0  0  0
 72147  1  0  0  0
 73 74  1  0  0  0
 73 75  2  0  0  0
 73 80  1  0  0  0
 74 83  1  0  0  0
 75 84  1  0  0  0
 76 86  1  0  0  0
 77 81  1  0  0  0
 77 82  1  0  0  0
 77 85  2  0  0  0
 78 80  1  0  0  0
 78148  1  0  0  0
 78149  1  0  0  0
 78150  1  0  0  0
 79151  1  0  0  0
 79152  1  0  0  0
 79153  1  0  0  0
 79 82  1  0  0  0
 80154  1  0  0  0
 80155  1  0  0  0
 81 84  1  0  0  0
 81156  1  0  0  0
 81157  1  0  0  0
 82158  1  0  0  0
 83159  1  0  0  0
 84160  1  0  0  0
M  ISO  4   1 100  68 101  82 101  83 100
M  END
> <chiral flag>
0

> <version>
0

> <s_m_source_file>
/data/baiqing/PycharmProjects/Reinvent-master-3.2/result/LINK_invent/BTK/process_docking_weight1_custom_product_contain_oxygen_bond_distance_aromatic_linkinvent_7_9_3/rearranged_h_0157.sdf

> <i_m_source_file_index>
43

> <r_mmod_Potential_Energy-OPLS-2005>
249.777633666992

> <r_mmod_Stretch_Energy-OPLS-2005>
128.650726318359

> <r_mmod_Bend_Energy-OPLS-2005>
166.103515625

> <r_mmod_Torsional_Energy-OPLS-2005>
236.272232055664

> <r_mmod_Improper_Torsional_Energy-OPLS-2005>
7.2114634513855

> <r_mmod_Van_der_Waal_Energy-OPLS-2005>
133.66227722168

> <r_mmod_Electrostatic_Energy-OPLS-2005>
-264.264801025391

> <r_mmod_Solvation_Energy-OPLS-2005>
-234.212860107422

> <b_mmod_Minimization_Converged-OPLS-2005>
0

> <r_mmod_RMS_Derivative-OPLS-2005>
4.95592021942139

$$$$
43
                    3D
 Structure written by MMmdl.
157166  0  0  1  0            999 V2000
  -30.6763  -14.5913   20.5167 C   0  0  0  0  0  0
  -30.4391  -12.3652   19.4514 C   0  0  0  0  0  0
  -29.5149  -12.4967   18.2239 C   0  0  0  0  0  0
  -28.0355  -12.3504   18.6358 C   0  0  0  0  0  0
  -27.6622  -13.2160   19.8681 C   0  0  2  0  0  0
  -28.7061  -13.0755   20.9976 C   0  0  0  0  0  0
  -25.2641  -13.8137   20.5711 C   0  0  0  0  0  0
  -24.1887  -13.0430   20.9198 C   0  0  0  0  0  0
  -24.6437  -11.6901   20.8726 C   0  0  0  0  0  0
  -23.9092  -10.4288   21.0398 C   0  0  0  0  0  0
  -24.3623   -9.4207   21.9176 C   0  0  0  0  0  0
  -23.6289   -8.2254   22.0767 C   0  0  0  0  0  0
  -22.4269   -8.0298   21.3565 C   0  0  0  0  0  0
  -21.9899   -9.0269   20.4672 C   0  0  0  0  0  0
  -22.7251  -10.2145   20.3072 C   0  0  0  0  0  0
  -21.6856   -6.0742   22.5265 C   0  0  0  0  0  0
  -21.4002   -6.5630   23.8198 C   0  0  0  0  0  0
  -21.3667   -5.6791   24.9147 C   0  0  0  0  0  0
  -21.6038   -4.3046   24.7199 C   0  0  0  0  0  0
  -21.8827   -3.8155   23.4317 C   0  0  0  0  0  0
  -21.9203   -4.6973   22.3385 C   0  0  0  0  0  0
  -22.7912  -13.5271   21.1821 C   0  0  0  0  0  0
  -22.1685   -4.2164   21.0960 F   0  0  0  0  0  0
  -21.5633   -3.4539   25.7712 F   0  0  0  0  0  0
  -30.0249  -13.3915   20.4277 N   0  0  0  0  0  0
  -26.3054  -12.9318   20.3330 N   0  0  0  0  0  0
  -25.9360  -11.6474   20.5741 N   0  0  0  0  0  0
  -22.0503  -12.8304   22.0355 N   0  0  0  0  0  0
  -25.4384  -15.1841   20.4100 N   0  0  0  0  0  0
  -31.8491  -14.7072   20.1483 O   0  0  0  0  0  0
  -21.6637   -6.8898   21.4251 O   0  0  0  0  0  0
  -22.3625  -14.5593   20.6682 O   0  0  0  0  0  0
  -24.6221  -31.8620   23.2056 C   0  0  0  0  0  0
  -25.9079  -32.4778   23.8360 C   0  0  1  0  0  0
  -27.2296  -27.3680   20.1011 C   0  0  0  0  0  0
  -25.5907  -33.8579   24.2288 N   0  0  0  0  0  0
  -23.4124  -30.4873   21.5484 C   0  0  2  0  0  0
  -24.8615  -28.9481   20.1128 C   0  0  0  0  0  0
  -22.7454  -29.4631   22.4957 C   0  0  0  0  0  0
  -18.0285  -28.1368   22.8480 C   0  0  0  0  0  0
  -24.1486  -36.7295   23.2628 C   0  0  0  0  0  0
  -25.9497  -30.8085   21.3698 C   0  0  0  0  0  0
  -26.0271  -29.4386   20.7138 C   0  0  0  0  0  0
  -27.2193  -28.6592   20.7011 C   0  0  0  0  0  0
  -26.0458  -26.9222   19.4733 C   0  0  0  0  0  0
  -24.8682  -27.6910   19.4867 C   0  0  0  0  0  0
  -23.6250  -29.8209   20.1633 C   0  0  0  0  0  0
  -25.4106  -36.3087   24.0332 C   0  0  1  0  0  0
  -20.5876  -28.3657   23.1309 C   0  0  2  0  0  0
  -20.6776  -26.9385   22.5427 C   0  0  0  0  0  0
  -19.5752  -26.6377   21.5216 C   0  0  0  0  0  0
  -18.1922  -26.7903   22.1625 C   0  0  0  0  0  0
  -19.1536  -28.8835   23.2885 C   0  0  0  0  0  0
  -18.9461  -30.1444   23.8901 C   0  0  0  0  0  0
  -17.6462  -30.6568   24.0568 C   0  0  0  0  0  0
  -25.9050  -34.9445   23.5101 C   0  0  0  0  0  0
  -16.5352  -29.9082   23.6320 C   0  0  0  0  0  0
  -16.7278  -28.6504   23.0336 C   0  0  0  0  0  0
  -26.4496  -31.6579   25.0713 C   0  0  0  0  0  0
  -25.3748  -31.3723   26.1462 C   0  0  0  0  0  0
  -27.0319  -30.2986   24.6148 C   0  0  0  0  0  0
  -27.6060  -32.4305   25.7478 C   0  0  0  0  0  0
  -27.5585  -37.1786   24.8454 C   0  0  0  0  0  0
  -21.4168  -29.3016   22.3714 N   0  0  0  0  0  0
  -26.4277  -37.3786   23.9428 N   0  0  0  0  0  0
  -24.6794  -31.0682   22.0977 N   0  0  0  0  0  0
  -23.4204  -28.8151   23.2997 O   0  0  0  0  0  0
  -28.3373  -26.5207   20.1247 O   0  0  0  0  0  0
  -26.5627  -34.8918   22.4686 O   0  0  0  0  0  0
  -23.5399  -32.1395   23.7425 O   0  0  0  0  0  0
  -29.2914  -18.1791   20.7446 C   0  0  0  0  0  0
  -31.5422  -17.5745   20.9171 C   0  0  0  0  0  0
  -30.2594  -17.0979   20.8246 C   0  0  0  0  0  0
  -29.8501  -19.4576   20.7569 C   0  0  0  0  0  0
  -29.3079  -21.6306   19.3828 C   0  0  0  0  0  0
  -28.5967  -23.0259   19.4113 C   0  0  0  0  0  0
  -29.7399  -21.8317   21.8147 C   0  0  0  0  0  0
  -29.1916  -20.8599   20.7278 C   0  0  2  0  0  0
  -29.0302  -23.9669   20.5821 C   0  0  1  0  0  0
  -28.0955  -25.2388   20.7946 C   0  0  0  0  0  0
  -29.9137  -15.6808   20.8392 N   0  0  0  0  0  0
  -29.0580  -23.1601   21.8454 N   0  3  0  0  0  0
  -31.5942  -19.3198   20.8432 S   0  0  0  0  0  0
  -31.4806  -12.4761   19.1434 H   0  0  0  0  0  0
  -30.3640  -11.3664   19.8844 H   0  0  0  0  0  0
  -29.7728  -11.7407   17.4808 H   0  0  0  0  0  0
  -29.6774  -13.4620   17.7420 H   0  0  0  0  0  0
  -27.8562  -11.2972   18.8557 H   0  0  0  0  0  0
  -27.3896  -12.6008   17.7945 H   0  0  0  0  0  0
  -27.6898  -14.2516   19.5293 H   0  0  0  0  0  0
  -28.7047  -12.0627   21.4071 H   0  0  0  0  0  0
  -28.4631  -13.7343   21.8328 H   0  0  0  0  0  0
  -25.2756   -9.5680   22.4755 H   0  0  0  0  0  0
  -23.9982   -7.4654   22.7501 H   0  0  0  0  0  0
  -21.0825   -8.8805   19.8987 H   0  0  0  0  0  0
  -22.3700  -10.9680   19.6192 H   0  0  0  0  0  0
  -21.1975   -7.6125   23.9696 H   0  0  0  0  0  0
  -21.1495   -6.0502   25.9053 H   0  0  0  0  0  0
  -22.0612   -2.7623   23.2792 H   0  0  0  0  0  0
  -22.4040  -11.9947   22.4741 H   0  0  0  0  0  0
  -21.1154  -13.1449   22.2569 H   0  0  0  0  0  0
  -24.6755  -15.8414   20.5228 H   0  0  0  0  0  0
  -26.2642  -15.6041   20.0016 H   0  0  0  0  0  0
  -26.7148  -32.5480   23.1111 H   0  0  0  0  0  0
  -25.0065  -33.9722   25.0442 H   0  0  0  0  0  0
  -22.7015  -31.3045   21.4090 H   0  0  0  0  0  0
  -23.3761  -35.9609   23.3253 H   0  0  0  0  0  0
  -24.3601  -36.8964   22.2051 H   0  0  0  0  0  0
  -23.7210  -37.6473   23.6685 H   0  0  0  0  0  0
  -26.0753  -31.5744   20.6037 H   0  0  0  0  0  0
  -26.8304  -30.8579   21.9971 H   0  0  0  0  0  0
  -28.1139  -29.0311   21.1822 H   0  0  0  0  0  0
  -26.0246  -25.9654   18.9736 H   0  0  0  0  0  0
  -23.9749  -27.3123   19.0085 H   0  0  0  0  0  0
  -23.7355  -30.5969   19.4047 H   0  0  0  0  0  0
  -22.7454  -29.2455   19.8666 H   0  0  0  0  0  0
  -25.1276  -36.1911   25.0821 H   0  0  0  0  0  0
  -20.9983  -28.3217   24.1423 H   0  0  0  0  0  0
  -20.5666  -26.2256   23.3614 H   0  0  0  0  0  0
  -21.6644  -26.7410   22.1215 H   0  0  0  0  0  0
  -19.6916  -25.6294   21.1226 H   0  0  0  0  0  0
  -19.6676  -27.3207   20.6754 H   0  0  0  0  0  0
  -17.4186  -26.6650   21.4031 H   0  0  0  0  0  0
  -18.0329  -26.0048   22.9035 H   0  0  0  0  0  0
  -19.7944  -30.7266   24.2252 H   0  0  0  0  0  0
  -17.5021  -31.6254   24.5172 H   0  0  0  0  0  0
  -15.5348  -30.2997   23.7646 H   0  0  0  0  0  0
  -15.8675  -28.0853   22.7027 H   0  0  0  0  0  0
  -24.5880  -30.7116   25.7801 H   0  0  0  0  0  0
  -24.9006  -32.2910   26.4905 H   0  0  0  0  0  0
  -25.8084  -30.8867   27.0206 H   0  0  0  0  0  0
  -26.2879  -29.6737   24.1180 H   0  0  0  0  0  0
  -27.4031  -29.7221   25.4631 H   0  0  0  0  0  0
  -27.8750  -30.4262   23.9350 H   0  0  0  0  0  0
  -27.2658  -33.3584   26.2071 H   0  0  0  0  0  0
  -28.3849  -32.6887   25.0297 H   0  0  0  0  0  0
  -28.0746  -31.8423   26.5371 H   0  0  0  0  0  0
  -28.2553  -38.0132   24.7582 H   0  0  0  0  0  0
  -28.1132  -36.2671   24.6171 H   0  0  0  0  0  0
  -27.2330  -37.1301   25.8860 H   0  0  0  0  0  0
  -20.9330  -29.8746   21.6949 H   0  0  0  0  0  0
  -26.0152  -38.2849   24.1480 H   0  0  0  0  0  0
  -28.2302  -17.9798   20.6806 H   0  0  0  0  0  0
  -32.4696  -17.0216   21.0135 H   0  0  0  0  0  0
  -30.3593  -21.7665   19.1251 H   0  0  0  0  0  0
  -28.8824  -21.0263   18.5798 H   0  0  0  0  0  0
  -27.5212  -22.8538   19.4666 H   0  0  0  0  0  0
  -28.7591  -23.5425   18.4633 H   0  0  0  0  0  0
  -30.8080  -21.9996   21.6682 H   0  0  0  0  0  0
  -29.6357  -21.3765   22.8002 H   0  0  0  0  0  0
  -28.1278  -20.7169   20.9260 H   0  0  0  0  0  0
  -30.0487  -24.3108   20.3955 H   0  0  0  0  0  0
  -28.1468  -25.5025   21.8505 H   0  0  0  0  0  0
  -27.0672  -24.9031   20.6587 H   0  0  0  0  0  0
  -28.9462  -15.4646   21.0299 H   0  0  0  0  0  0
  -29.5189  -23.7071   22.5564 H   0  0  0  0  0  0
  -28.1147  -23.0093   22.1674 H   0  0  0  0  0  0
  1 25  1  0  0  0
  1 30  2  0  0  0
  1 81  1  0  0  0
  2  3  1  0  0  0
  2 25  1  0  0  0
  2 84  1  0  0  0
  2 85  1  0  0  0
  3  4  1  0  0  0
  3 86  1  0  0  0
  3 87  1  0  0  0
  4  5  1  0  0  0
  4 88  1  0  0  0
  4 89  1  0  0  0
  5  6  1  0  0  0
  5 26  1  0  0  0
  5 90  1  0  0  0
  6 25  1  0  0  0
  6 91  1  0  0  0
  6 92  1  0  0  0
  7  8  2  0  0  0
  7 26  1  0  0  0
  7 29  1  0  0  0
  8  9  1  0  0  0
  8 22  1  0  0  0
  9 10  1  0  0  0
  9 27  2  0  0  0
 10 11  2  0  0  0
 10 15  1  0  0  0
 11 12  1  0  0  0
 11 93  1  0  0  0
 12 13  2  0  0  0
 12 94  1  0  0  0
 13 14  1  0  0  0
 13 31  1  0  0  0
 14 15  2  0  0  0
 14 95  1  0  0  0
 15 96  1  0  0  0
 16 17  2  0  0  0
 16 21  1  0  0  0
 16 31  1  0  0  0
 17 18  1  0  0  0
 17 97  1  0  0  0
 18 19  2  0  0  0
 18 98  1  0  0  0
 19 20  1  0  0  0
 19 24  1  0  0  0
 20 21  2  0  0  0
 20 99  1  0  0  0
 21 23  1  0  0  0
 22 28  1  0  0  0
 22 32  2  0  0  0
 26 27  1  0  0  0
 28100  1  0  0  0
 28101  1  0  0  0
 29102  1  0  0  0
 29103  1  0  0  0
 33 34  1  0  0  0
 33 66  1  0  0  0
 33 70  2  0  0  0
 34 36  1  0  0  0
 34 59  1  0  0  0
 34104  1  0  0  0
 35 44  2  0  0  0
 35 45  1  0  0  0
 35 68  1  0  0  0
 36 56  1  0  0  0
 36105  1  0  0  0
 37 39  1  0  0  0
 37 47  1  0  0  0
 37 66  1  0  0  0
 37106  1  0  0  0
 38 43  2  0  0  0
 38 46  1  0  0  0
 38 47  1  0  0  0
 39 64  1  0  0  0
 39 67  2  0  0  0
 40 52  1  0  0  0
 40 53  2  0  0  0
 40 58  1  0  0  0
 41107  1  0  0  0
 41108  1  0  0  0
 41109  1  0  0  0
 41 48  1  0  0  0
 42 43  1  0  0  0
 42 66  1  0  0  0
 42110  1  0  0  0
 42111  1  0  0  0
 43 44  1  0  0  0
 44112  1  0  0  0
 45 46  2  0  0  0
 45113  1  0  0  0
 46114  1  0  0  0
 47115  1  0  0  0
 47116  1  0  0  0
 48 56  1  0  0  0
 48 65  1  0  0  0
 48117  1  0  0  0
 49 50  1  0  0  0
 49 53  1  0  0  0
 49 64  1  0  0  0
 49118  1  0  0  0
 50 51  1  0  0  0
 50119  1  0  0  0
 50120  1  0  0  0
 51 52  1  0  0  0
 51121  1  0  0  0
 51122  1  0  0  0
 52123  1  0  0  0
 52124  1  0  0  0
 53 54  1  0  0  0
 54 55  2  0  0  0
 54125  1  0  0  0
 55 57  1  0  0  0
 55126  1  0  0  0
 56 69  2  0  0  0
 57 58  2  0  0  0
 57127  1  0  0  0
 58128  1  0  0  0
 59 60  1  0  0  0
 59 61  1  0  0  0
 59 62  1  0  0  0
 60129  1  0  0  0
 60130  1  0  0  0
 60131  1  0  0  0
 61132  1  0  0  0
 61133  1  0  0  0
 61134  1  0  0  0
 62135  1  0  0  0
 62136  1  0  0  0
 62137  1  0  0  0
 63 65  1  0  0  0
 63138  1  0  0  0
 63139  1  0  0  0
 63140  1  0  0  0
 64141  1  0  0  0
 65142  1  0  0  0
 68 80  1  0  0  0
 71 73  1  0  0  0
 71 74  2  0  0  0
 71143  1  0  0  0
 72 73  2  0  0  0
 72 83  1  0  0  0
 72144  1  0  0  0
 73 81  1  0  0  0
 74 83  1  0  0  0
 74 78  1  0  0  0
 75 76  1  0  0  0
 75 78  1  0  0  0
 75145  1  0  0  0
 75146  1  0  0  0
 76 79  1  0  0  0
 76147  1  0  0  0
 76148  1  0  0  0
 77 78  1  0  0  0
 77 82  1  0  0  0
 77149  1  0  0  0
 77150  1  0  0  0
 78151  1  0  0  0
 79 80  1  0  0  0
 79 82  1  0  0  0
 79152  1  0  0  0
 80153  1  0  0  0
 80154  1  0  0  0
 81155  1  0  0  0
 82156  1  0  0  0
 82157  1  0  0  0
M  CHG  1  82   1
M  ISO  4   1 100  68 101  80 101  81 100
M  END
> <chiral flag>
0

> <version>
0

> <s_m_source_file>
/data/baiqing/PycharmProjects/Reinvent-master-3.2/result/LINK_invent/BTK/process_docking_weight1_custom_product_contain_oxygen_bond_distance_aromatic_linkinvent_7_9_3/rearranged_h_0157.sdf

> <i_m_source_file_index>
44

> <r_mmod_Potential_Energy-OPLS-2005>
-90.8922958374023

> <r_mmod_Stretch_Energy-OPLS-2005>
63.5245094299316

> <r_mmod_Bend_Energy-OPLS-2005>
127.071327209473

> <r_mmod_Torsional_Energy-OPLS-2005>
243.195037841797

> <r_mmod_Improper_Torsional_Energy-OPLS-2005>
4.6727819442749

> <r_mmod_Van_der_Waal_Energy-OPLS-2005>
129.780044555664

> <r_mmod_Electrostatic_Energy-OPLS-2005>
-243.173156738281

> <r_mmod_Solvation_Energy-OPLS-2005>
-450.561614990234

> <b_mmod_Minimization_Converged-OPLS-2005>
0

> <r_mmod_RMS_Derivative-OPLS-2005>
4.04023027420044

$$$$
44
                    3D
 Structure written by MMmdl.
158167  0  0  1  0            999 V2000
  -30.7525  -14.5178   20.5803 C   0  0  0  0  0  0
  -30.4154  -12.3501   19.4359 C   0  0  0  0  0  0
  -29.4905  -12.5023   18.2139 C   0  0  0  0  0  0
  -28.0179  -12.3378   18.6348 C   0  0  0  0  0  0
  -27.6529  -13.2083   19.8646 C   0  0  2  0  0  0
  -28.7013  -13.0603   20.9933 C   0  0  0  0  0  0
  -25.2537  -13.8148   20.5641 C   0  0  0  0  0  0
  -24.1818  -13.0436   20.9192 C   0  0  0  0  0  0
  -24.6386  -11.6905   20.8766 C   0  0  0  0  0  0
  -23.9052  -10.4300   21.0419 C   0  0  0  0  0  0
  -24.3626   -9.4207   21.9173 C   0  0  0  0  0  0
  -23.6306   -8.2238   22.0738 C   0  0  0  0  0  0
  -22.4280   -8.0280   21.3535 C   0  0  0  0  0  0
  -21.9921   -9.0252   20.4630 C   0  0  0  0  0  0
  -22.7244  -10.2134   20.3042 C   0  0  0  0  0  0
  -21.6858   -6.0734   22.5275 C   0  0  0  0  0  0
  -21.4020   -6.5633   23.8209 C   0  0  0  0  0  0
  -21.3657   -5.6783   24.9167 C   0  0  0  0  0  0
  -21.6035   -4.3045   24.7218 C   0  0  0  0  0  0
  -21.8824   -3.8141   23.4339 C   0  0  0  0  0  0
  -21.9202   -4.6962   22.3396 C   0  0  0  0  0  0
  -22.7837  -13.5217   21.1862 C   0  0  0  0  0  0
  -22.1665   -4.2146   21.0975 F   0  0  0  0  0  0
  -21.5639   -3.4530   25.7735 F   0  0  0  0  0  0
  -30.0253  -13.3679   20.4327 N   0  0  0  0  0  0
  -26.2984  -12.9324   20.3347 N   0  0  0  0  0  0
  -25.9312  -11.6493   20.5814 N   0  0  0  0  0  0
  -22.0510  -12.8204   22.0434 N   0  0  0  0  0  0
  -25.4185  -15.1871   20.3953 N   0  0  0  0  0  0
  -31.8635  -14.6489   20.0668 O   0  0  0  0  0  0
  -21.6634   -6.8883   21.4239 O   0  0  0  0  0  0
  -22.3507  -14.5522   20.6713 O   0  0  0  0  0  0
  -24.6189  -31.8653   23.2085 C   0  0  0  0  0  0
  -25.9065  -32.4799   23.8384 C   0  0  1  0  0  0
  -27.2234  -27.3923   20.1049 C   0  0  0  0  0  0
  -25.5906  -33.8600   24.2306 N   0  0  0  0  0  0
  -23.4087  -30.4913   21.5488 C   0  0  2  0  0  0
  -24.8539  -28.9561   20.1113 C   0  0  0  0  0  0
  -22.7413  -29.4668   22.4960 C   0  0  0  0  0  0
  -18.0288  -28.1364   22.8433 C   0  0  0  0  0  0
  -24.1491  -36.7316   23.2638 C   0  0  0  0  0  0
  -25.9443  -30.8194   21.3682 C   0  0  0  0  0  0
  -26.0202  -29.4540   20.7085 C   0  0  0  0  0  0
  -27.2121  -28.6829   20.6959 C   0  0  0  0  0  0
  -26.0422  -26.9306   19.4841 C   0  0  0  0  0  0
  -24.8616  -27.6953   19.4940 C   0  0  0  0  0  0
  -23.6203  -29.8291   20.1617 C   0  0  0  0  0  0
  -25.4114  -36.3102   24.0328 C   0  0  1  0  0  0
  -20.5876  -28.3636   23.1284 C   0  0  2  0  0  0
  -20.6767  -26.9398   22.5319 C   0  0  0  0  0  0
  -19.5724  -26.6410   21.5123 C   0  0  0  0  0  0
  -18.1916  -26.7932   22.1530 C   0  0  0  0  0  0
  -19.1532  -28.8787   23.2911 C   0  0  0  0  0  0
  -18.9462  -30.1347   23.9013 C   0  0  0  0  0  0
  -17.6471  -30.6487   24.0674 C   0  0  0  0  0  0
  -25.9040  -34.9463   23.5115 C   0  0  0  0  0  0
  -16.5373  -29.9045   23.6324 C   0  0  0  0  0  0
  -16.7287  -28.6495   23.0267 C   0  0  0  0  0  0
  -26.4481  -31.6587   25.0726 C   0  0  0  0  0  0
  -25.3738  -31.3711   26.1470 C   0  0  0  0  0  0
  -27.0314  -30.3019   24.6134 C   0  0  0  0  0  0
  -27.6042  -32.4319   25.7493 C   0  0  0  0  0  0
  -27.5581  -37.1825   24.8467 C   0  0  0  0  0  0
  -21.4131  -29.3062   22.3717 N   0  0  0  0  0  0
  -26.4300  -37.3788   23.9403 N   0  0  0  0  0  0
  -24.6758  -31.0735   22.0993 N   0  0  0  0  0  0
  -23.4178  -28.8196   23.2997 O   0  0  0  0  0  0
  -28.3434  -26.5714   20.1374 O   0  0  0  0  0  0
  -26.5612  -34.8933   22.4679 O   0  0  0  0  0  0
  -23.5370  -32.1417   23.7466 O   0  0  0  0  0  0
  -29.4726  -19.0656   20.7559 C   0  0  0  0  0  0
  -28.3702  -20.1769   22.6991 C   0  0  0  0  0  0
  -29.1539  -17.8451   21.3984 C   0  0  0  0  0  0
  -28.4152  -17.8071   22.6161 C   0  0  0  0  0  0
  -28.0173  -18.9440   23.3134 C   0  0  0  0  0  0
  -29.0308  -20.2679   21.4216 C   0  0  0  0  0  0
  -28.4675  -22.6825   20.9190 C   0  0  0  0  0  0
  -28.2664  -16.3102   22.6125 C   0  0  0  0  0  0
  -29.0841  -16.3149   21.2287 C   0  0  1  0  0  0
  -27.2413  -18.8588   24.6105 C   0  0  0  0  0  0
  -28.9235  -24.0326   20.2781 C   0  0  0  0  0  0
  -28.1331  -25.2878   20.8004 C   0  0  0  0  0  0
  -29.2491  -21.5691   20.8153 N   0  0  0  0  0  0
  -30.3126  -15.5165   21.3745 N   0  0  0  0  0  0
  -27.3689  -22.6472   21.4801 O   0  0  0  0  0  0
  -31.4575  -12.4357   19.1220 H   0  0  0  0  0  0
  -30.3205  -11.3513   19.8628 H   0  0  0  0  0  0
  -29.7475  -11.7655   17.4513 H   0  0  0  0  0  0
  -29.6388  -13.4827   17.7600 H   0  0  0  0  0  0
  -27.8561  -11.2861   18.8730 H   0  0  0  0  0  0
  -27.3557  -12.5648   17.7989 H   0  0  0  0  0  0
  -27.6683  -14.2374   19.5127 H   0  0  0  0  0  0
  -28.6983  -12.0415   21.3827 H   0  0  0  0  0  0
  -28.4565  -13.6966   21.8416 H   0  0  0  0  0  0
  -25.2786   -9.5697   22.4725 H   0  0  0  0  0  0
  -24.0012   -7.4636   22.7466 H   0  0  0  0  0  0
  -21.0848   -8.8794   19.8943 H   0  0  0  0  0  0
  -22.3717  -10.9674   19.6145 H   0  0  0  0  0  0
  -21.2010   -7.6143   23.9714 H   0  0  0  0  0  0
  -21.1468   -6.0509   25.9068 H   0  0  0  0  0  0
  -22.0609   -2.7603   23.2841 H   0  0  0  0  0  0
  -22.4162  -11.9871   22.4802 H   0  0  0  0  0  0
  -21.1115  -13.1186   22.2627 H   0  0  0  0  0  0
  -24.6399  -15.8298   20.4895 H   0  0  0  0  0  0
  -26.2508  -15.6268   20.0249 H   0  0  0  0  0  0
  -26.7132  -32.5498   23.1142 H   0  0  0  0  0  0
  -25.0039  -33.9735   25.0444 H   0  0  0  0  0  0
  -22.6996  -31.3105   21.4106 H   0  0  0  0  0  0
  -23.3741  -35.9659   23.3314 H   0  0  0  0  0  0
  -24.3587  -36.8927   22.2050 H   0  0  0  0  0  0
  -23.7258  -37.6532   23.6648 H   0  0  0  0  0  0
  -26.0694  -31.5878   20.6044 H   0  0  0  0  0  0
  -26.8276  -30.8632   21.9931 H   0  0  0  0  0  0
  -28.1107  -29.0594   21.1638 H   0  0  0  0  0  0
  -26.0264  -25.9613   19.0065 H   0  0  0  0  0  0
  -23.9645  -27.3067   19.0311 H   0  0  0  0  0  0
  -23.7395  -30.6118   19.4115 H   0  0  0  0  0  0
  -22.7410  -29.2578   19.8545 H   0  0  0  0  0  0
  -25.1296  -36.1970   25.0821 H   0  0  0  0  0  0
  -21.0001  -28.3134   24.1390 H   0  0  0  0  0  0
  -20.5726  -26.2208   23.3465 H   0  0  0  0  0  0
  -21.6618  -26.7501   22.1054 H   0  0  0  0  0  0
  -19.6866  -25.6356   21.1077 H   0  0  0  0  0  0
  -19.6641  -27.3269   20.6690 H   0  0  0  0  0  0
  -17.4194  -26.6753   21.3912 H   0  0  0  0  0  0
  -18.0301  -26.0027   22.8874 H   0  0  0  0  0  0
  -19.7944  -30.7078   24.2506 H   0  0  0  0  0  0
  -17.5035  -31.6104   24.5407 H   0  0  0  0  0  0
  -15.5370  -30.2946   23.7638 H   0  0  0  0  0  0
  -15.8693  -28.0839   22.6904 H   0  0  0  0  0  0
  -24.5906  -30.7060   25.7819 H   0  0  0  0  0  0
  -24.8935  -32.2867   26.4919 H   0  0  0  0  0  0
  -25.8085  -30.8885   27.0230 H   0  0  0  0  0  0
  -26.2866  -29.6781   24.1180 H   0  0  0  0  0  0
  -27.4054  -29.7260   25.4610 H   0  0  0  0  0  0
  -27.8710  -30.4322   23.9306 H   0  0  0  0  0  0
  -27.2640  -33.3608   26.2087 H   0  0  0  0  0  0
  -28.3839  -32.6908   25.0315 H   0  0  0  0  0  0
  -28.0719  -31.8443   26.5405 H   0  0  0  0  0  0
  -28.2624  -38.0102   24.7498 H   0  0  0  0  0  0
  -28.1059  -36.2637   24.6315 H   0  0  0  0  0  0
  -27.2300  -37.1503   25.8874 H   0  0  0  0  0  0
  -20.9262  -29.8776   21.6953 H   0  0  0  0  0  0
  -26.0189  -38.2870   24.1389 H   0  0  0  0  0  0
  -29.9574  -19.0815   19.7894 H   0  0  0  0  0  0
  -28.0867  -21.0827   23.2157 H   0  0  0  0  0  0
  -28.7762  -15.8468   23.4577 H   0  0  0  0  0  0
  -27.2257  -15.9953   22.5294 H   0  0  0  0  0  0
  -28.4745  -16.0716   20.3606 H   0  0  0  0  0  0
  -26.4898  -18.0714   24.5501 H   0  0  0  0  0  0
  -26.7316  -19.7965   24.8322 H   0  0  0  0  0  0
  -27.9124  -18.6290   25.4399 H   0  0  0  0  0  0
  -28.7917  -23.9460   19.1989 H   0  0  0  0  0  0
  -29.9916  -24.1723   20.4482 H   0  0  0  0  0  0
  -28.3890  -25.4369   21.8510 H   0  0  0  0  0  0
  -27.0740  -25.0321   20.8081 H   0  0  0  0  0  0
  -30.0601  -21.6541   20.2168 H   0  0  0  0  0  0
  -31.0798  -16.1013   21.6690 H   0  0  0  0  0  0
  1 25  1  0  0  0
  1 30  2  0  0  0
  1 84  1  0  0  0
  2  3  1  0  0  0
  2 25  1  0  0  0
  2 86  1  0  0  0
  2 87  1  0  0  0
  3  4  1  0  0  0
  3 88  1  0  0  0
  3 89  1  0  0  0
  4  5  1  0  0  0
  4 90  1  0  0  0
  4 91  1  0  0  0
  5  6  1  0  0  0
  5 26  1  0  0  0
  5 92  1  0  0  0
  6 25  1  0  0  0
  6 93  1  0  0  0
  6 94  1  0  0  0
  7  8  2  0  0  0
  7 26  1  0  0  0
  7 29  1  0  0  0
  8  9  1  0  0  0
  8 22  1  0  0  0
  9 10  1  0  0  0
  9 27  2  0  0  0
 10 11  2  0  0  0
 10 15  1  0  0  0
 11 12  1  0  0  0
 11 95  1  0  0  0
 12 13  2  0  0  0
 12 96  1  0  0  0
 13 14  1  0  0  0
 13 31  1  0  0  0
 14 15  2  0  0  0
 14 97  1  0  0  0
 15 98  1  0  0  0
 16 17  2  0  0  0
 16 21  1  0  0  0
 16 31  1  0  0  0
 17 18  1  0  0  0
 17 99  1  0  0  0
 18 19  2  0  0  0
 18100  1  0  0  0
 19 20  1  0  0  0
 19 24  1  0  0  0
 20 21  2  0  0  0
 20101  1  0  0  0
 21 23  1  0  0  0
 22 28  1  0  0  0
 22 32  2  0  0  0
 26 27  1  0  0  0
 28102  1  0  0  0
 28103  1  0  0  0
 29104  1  0  0  0
 29105  1  0  0  0
 33 34  1  0  0  0
 33 66  1  0  0  0
 33 70  2  0  0  0
 34 36  1  0  0  0
 34 59  1  0  0  0
 34106  1  0  0  0
 35 44  2  0  0  0
 35 45  1  0  0  0
 35 68  1  0  0  0
 36 56  1  0  0  0
 36107  1  0  0  0
 37 39  1  0  0  0
 37 47  1  0  0  0
 37 66  1  0  0  0
 37108  1  0  0  0
 38 43  2  0  0  0
 38 46  1  0  0  0
 38 47  1  0  0  0
 39 64  1  0  0  0
 39 67  2  0  0  0
 40 52  1  0  0  0
 40 53  2  0  0  0
 40 58  1  0  0  0
 41109  1  0  0  0
 41110  1  0  0  0
 41111  1  0  0  0
 41 48  1  0  0  0
 42 43  1  0  0  0
 42 66  1  0  0  0
 42112  1  0  0  0
 42113  1  0  0  0
 43 44  1  0  0  0
 44114  1  0  0  0
 45 46  2  0  0  0
 45115  1  0  0  0
 46116  1  0  0  0
 47117  1  0  0  0
 47118  1  0  0  0
 48 56  1  0  0  0
 48 65  1  0  0  0
 48119  1  0  0  0
 49 50  1  0  0  0
 49 53  1  0  0  0
 49 64  1  0  0  0
 49120  1  0  0  0
 50 51  1  0  0  0
 50121  1  0  0  0
 50122  1  0  0  0
 51 52  1  0  0  0
 51123  1  0  0  0
 51124  1  0  0  0
 52125  1  0  0  0
 52126  1  0  0  0
 53 54  1  0  0  0
 54 55  2  0  0  0
 54127  1  0  0  0
 55 57  1  0  0  0
 55128  1  0  0  0
 56 69  2  0  0  0
 57 58  2  0  0  0
 57129  1  0  0  0
 58130  1  0  0  0
 59 60  1  0  0  0
 59 61  1  0  0  0
 59 62  1  0  0  0
 60131  1  0  0  0
 60132  1  0  0  0
 60133  1  0  0  0
 61134  1  0  0  0
 61135  1  0  0  0
 61136  1  0  0  0
 62137  1  0  0  0
 62138  1  0  0  0
 62139  1  0  0  0
 63 65  1  0  0  0
 63140  1  0  0  0
 63141  1  0  0  0
 63142  1  0  0  0
 64143  1  0  0  0
 65144  1  0  0  0
 68 82  1  0  0  0
 71 73  2  0  0  0
 71 76  1  0  0  0
 71145  1  0  0  0
 72 75  1  0  0  0
 72 76  2  0  0  0
 72146  1  0  0  0
 73 74  1  0  0  0
 73 79  1  0  0  0
 74 75  2  0  0  0
 74 78  1  0  0  0
 75 80  1  0  0  0
 76 83  1  0  0  0
 77 81  1  0  0  0
 77 83  1  0  0  0
 77 85  2  0  0  0
 78 79  1  0  0  0
 78147  1  0  0  0
 78148  1  0  0  0
 79 84  1  0  0  0
 79149  1  0  0  0
 80150  1  0  0  0
 80151  1  0  0  0
 80152  1  0  0  0
 81 82  1  0  0  0
 81153  1  0  0  0
 81154  1  0  0  0
 82155  1  0  0  0
 82156  1  0  0  0
 83157  1  0  0  0
 84158  1  0  0  0
M  ISO  4   1 100  68 101  82 101  84 100
M  END
> <chiral flag>
0

> <version>
0

> <s_m_source_file>
/data/baiqing/PycharmProjects/Reinvent-master-3.2/result/LINK_invent/BTK/process_docking_weight1_custom_product_contain_oxygen_bond_distance_aromatic_linkinvent_7_9_3/rearranged_h_0157.sdf

> <i_m_source_file_index>
45

> <r_mmod_Potential_Energy-OPLS-2005>
341.378326416016

> <r_mmod_Stretch_Energy-OPLS-2005>
71.5507965087891

> <r_mmod_Bend_Energy-OPLS-2005>
486.111724853516

> <r_mmod_Torsional_Energy-OPLS-2005>
301.422332763672

> <r_mmod_Improper_Torsional_Energy-OPLS-2005>
7.81887340545654

> <r_mmod_Van_der_Waal_Energy-OPLS-2005>
146.007537841797

> <r_mmod_Electrostatic_Energy-OPLS-2005>
-468.860443115234

> <r_mmod_Solvation_Energy-OPLS-2005>
-226.279449462891

> <b_mmod_Minimization_Converged-OPLS-2005>
0

> <r_mmod_RMS_Derivative-OPLS-2005>
2.40232419967651

$$$$
45
                    3D
 Structure written by MMmdl.
151159  0  0  1  0            999 V2000
  -30.5976  -14.7449   20.4182 C   0  0  0  0  0  0
  -30.4361  -12.4486   19.4713 C   0  0  0  0  0  0
  -29.5135  -12.5141   18.2339 C   0  0  0  0  0  0
  -28.0388  -12.3419   18.6416 C   0  0  0  0  0  0
  -27.6461  -13.2336   19.8509 C   0  0  2  0  0  0
  -28.6911  -13.1502   20.9860 C   0  0  0  0  0  0
  -25.2524  -13.8213   20.5632 C   0  0  0  0  0  0
  -24.1819  -13.0456   20.9173 C   0  0  0  0  0  0
  -24.6404  -11.6931   20.8705 C   0  0  0  0  0  0
  -23.9071  -10.4314   21.0386 C   0  0  0  0  0  0
  -24.3622   -9.4216   21.9160 C   0  0  0  0  0  0
  -23.6292   -8.2259   22.0740 C   0  0  0  0  0  0
  -22.4261   -8.0311   21.3538 C   0  0  0  0  0  0
  -21.9897   -9.0292   20.4651 C   0  0  0  0  0  0
  -22.7236  -10.2153   20.3058 C   0  0  0  0  0  0
  -21.6859   -6.0740   22.5273 C   0  0  0  0  0  0
  -21.4020   -6.5634   23.8207 C   0  0  0  0  0  0
  -21.3654   -5.6770   24.9162 C   0  0  0  0  0  0
  -21.6046   -4.3041   24.7209 C   0  0  0  0  0  0
  -21.8828   -3.8145   23.4327 C   0  0  0  0  0  0
  -21.9197   -4.6959   22.3389 C   0  0  0  0  0  0
  -22.7843  -13.5257   21.1849 C   0  0  0  0  0  0
  -22.1665   -4.2163   21.0959 F   0  0  0  0  0  0
  -21.5614   -3.4525   25.7701 F   0  0  0  0  0  0
  -29.9953  -13.5049   20.4108 N   0  0  0  0  0  0
  -26.2960  -12.9422   20.3234 N   0  0  0  0  0  0
  -25.9339  -11.6567   20.5694 N   0  0  0  0  0  0
  -22.0492  -12.8266   22.0430 N   0  0  0  0  0  0
  -25.4239  -15.1938   20.4023 N   0  0  0  0  0  0
  -31.7770  -14.8475   20.0686 O   0  0  0  0  0  0
  -21.6651   -6.8890   21.4234 O   0  0  0  0  0  0
  -22.3534  -14.5566   20.6694 O   0  0  0  0  0  0
  -24.6317  -31.8560   23.1983 C   0  0  0  0  0  0
  -25.9137  -32.4765   23.8329 C   0  0  1  0  0  0
  -27.2232  -27.2650   20.1180 C   0  0  0  0  0  0
  -25.5929  -33.8552   24.2259 N   0  0  0  0  0  0
  -23.4293  -30.4798   21.5417 C   0  0  2  0  0  0
  -24.8776  -28.9332   20.1065 C   0  0  0  0  0  0
  -22.7503  -29.4604   22.4903 C   0  0  0  0  0  0
  -18.0297  -28.1414   22.8474 C   0  0  0  0  0  0
  -24.1483  -36.7295   23.2634 C   0  0  0  0  0  0
  -25.9749  -30.7695   21.3779 C   0  0  0  0  0  0
  -26.0486  -29.3923   20.7209 C   0  0  0  0  0  0
  -27.2234  -28.5698   20.7196 C   0  0  0  0  0  0
  -26.0303  -26.8887   19.4541 C   0  0  0  0  0  0
  -24.8742  -27.6903   19.4614 C   0  0  0  0  0  0
  -23.6466  -29.8170   20.1570 C   0  0  0  0  0  0
  -25.4103  -36.3073   24.0327 C   0  0  1  0  0  0
  -20.5897  -28.3723   23.1271 C   0  0  2  0  0  0
  -20.6781  -26.9438   22.5418 C   0  0  0  0  0  0
  -19.5759  -26.6389   21.5220 C   0  0  0  0  0  0
  -18.1937  -26.7951   22.1623 C   0  0  0  0  0  0
  -19.1550  -28.8881   23.2863 C   0  0  0  0  0  0
  -18.9467  -30.1483   23.8892 C   0  0  0  0  0  0
  -17.6463  -30.6600   24.0574 C   0  0  0  0  0  0
  -25.9050  -34.9448   23.5105 C   0  0  0  0  0  0
  -16.5357  -29.9104   23.6327 C   0  0  0  0  0  0
  -16.7281  -28.6526   23.0334 C   0  0  0  0  0  0
  -26.4499  -31.6578   25.0709 C   0  0  0  0  0  0
  -25.3733  -31.3768   26.1448 C   0  0  0  0  0  0
  -27.0292  -30.2977   24.6191 C   0  0  0  0  0  0
  -27.6088  -32.4301   25.7443 C   0  0  0  0  0  0
  -27.5598  -37.1773   24.8445 C   0  0  0  0  0  0
  -21.4217  -29.3066   22.3648 N   0  0  0  0  0  0
  -26.4276  -37.3786   23.9440 N   0  0  0  0  0  0
  -24.6974  -31.0531   22.0960 N   0  0  0  0  0  0
  -23.4213  -28.8137   23.2985 O   0  0  0  0  0  0
  -28.3072  -26.3516   20.1970 O   0  0  0  0  0  0
  -26.5624  -34.8926   22.4674 O   0  0  0  0  0  0
  -23.5466  -32.1364   23.7300 O   0  0  0  0  0  0
  -30.2878  -18.6008   18.0480 C   0  0  0  0  0  0
  -29.9636  -19.7976   18.7257 C   0  0  0  0  0  0
  -30.2645  -17.3472   18.6986 C   0  0  0  0  0  0
  -29.5410  -18.4727   20.7240 C   0  0  0  0  0  0
  -29.5791  -19.7814   20.0825 C   0  0  0  0  0  0
  -29.9026  -17.2287   20.0591 C   0  0  0  0  0  0
  -28.9859  -23.7554   20.4921 C   0  0  0  0  0  0
  -29.3224  -21.1633   20.8363 C   0  0  0  0  0  0
  -28.0503  -24.8995   19.8758 C   0  0  0  0  0  0
  -29.8225  -15.8716   20.6626 N   0  0  0  0  0  0
  -28.8143  -22.4231   20.1364 N   0  0  0  0  0  0
  -29.8265  -24.0713   21.3367 O   0  0  0  0  0  0
  -31.4751  -12.5749   19.1640 H   0  0  0  0  0  0
  -30.3821  -11.4688   19.9483 H   0  0  0  0  0  0
  -29.7869  -11.7464   17.5066 H   0  0  0  0  0  0
  -29.6430  -13.4737   17.7315 H   0  0  0  0  0  0
  -27.8819  -11.2907   18.8847 H   0  0  0  0  0  0
  -27.3958  -12.5578   17.7873 H   0  0  0  0  0  0
  -27.6447  -14.2580   19.4752 H   0  0  0  0  0  0
  -28.7210  -12.1420   21.4028 H   0  0  0  0  0  0
  -28.4330  -13.8153   21.8109 H   0  0  0  0  0  0
  -25.2782   -9.5684   22.4727 H   0  0  0  0  0  0
  -24.0008   -7.4637   22.7450 H   0  0  0  0  0  0
  -21.0822   -8.8839   19.8955 H   0  0  0  0  0  0
  -22.3719  -10.9699   19.6186 H   0  0  0  0  0  0
  -21.2029   -7.6141   23.9713 H   0  0  0  0  0  0
  -21.1453   -6.0497   25.9053 H   0  0  0  0  0  0
  -22.0608   -2.7617   23.2829 H   0  0  0  0  0  0
  -22.4110  -11.9964   22.4879 H   0  0  0  0  0  0
  -21.1132  -13.1327   22.2648 H   0  0  0  0  0  0
  -24.6646  -15.8548   20.5226 H   0  0  0  0  0  0
  -26.2679  -15.6215   20.0424 H   0  0  0  0  0  0
  -26.7202  -32.5421   23.1069 H   0  0  0  0  0  0
  -25.0053  -33.9679   25.0396 H   0  0  0  0  0  0
  -22.7255  -31.3015   21.3960 H   0  0  0  0  0  0
  -23.3759  -35.9614   23.3253 H   0  0  0  0  0  0
  -24.3592  -36.8962   22.2061 H   0  0  0  0  0  0
  -23.7207  -37.6469   23.6689 H   0  0  0  0  0  0
  -26.1096  -31.5300   20.6072 H   0  0  0  0  0  0
  -26.8540  -30.8221   22.0074 H   0  0  0  0  0  0
  -28.1162  -28.9163   21.2224 H   0  0  0  0  0  0
  -25.9516  -25.9513   18.9252 H   0  0  0  0  0  0
  -23.9839  -27.3402   18.9582 H   0  0  0  0  0  0
  -23.7690  -30.5922   19.3997 H   0  0  0  0  0  0
  -22.7652  -29.2496   19.8533 H   0  0  0  0  0  0
  -25.1271  -36.1917   25.0812 H   0  0  0  0  0  0
  -20.9985  -28.3318   24.1393 H   0  0  0  0  0  0
  -20.5665  -26.2340   23.3631 H   0  0  0  0  0  0
  -21.6655  -26.7439   22.1236 H   0  0  0  0  0  0
  -19.6917  -25.6287   21.1278 H   0  0  0  0  0  0
  -19.6702  -27.3176   20.6734 H   0  0  0  0  0  0
  -17.4197  -26.6688   21.4038 H   0  0  0  0  0  0
  -18.0340  -26.0112   22.9038 H   0  0  0  0  0  0
  -19.7937  -30.7310   24.2265 H   0  0  0  0  0  0
  -17.5011  -31.6279   24.5186 H   0  0  0  0  0  0
  -15.5362  -30.3006   23.7652 H   0  0  0  0  0  0
  -15.8681  -28.0855   22.7039 H   0  0  0  0  0  0
  -24.5901  -30.7100   25.7820 H   0  0  0  0  0  0
  -24.8922  -32.2943   26.4846 H   0  0  0  0  0  0
  -25.8055  -30.8981   27.0244 H   0  0  0  0  0  0
  -26.2835  -29.6751   24.1227 H   0  0  0  0  0  0
  -27.3952  -29.7226   25.4708 H   0  0  0  0  0  0
  -27.8744  -30.4208   23.9418 H   0  0  0  0  0  0
  -27.2735  -33.3621   26.2012 H   0  0  0  0  0  0
  -28.3883  -32.6825   25.0238 H   0  0  0  0  0  0
  -28.0770  -31.8418   26.5350 H   0  0  0  0  0  0
  -28.2570  -38.0121   24.7581 H   0  0  0  0  0  0
  -28.1142  -36.2662   24.6135 H   0  0  0  0  0  0
  -27.2352  -37.1261   25.8856 H   0  0  0  0  0  0
  -20.9410  -29.8799   21.6858 H   0  0  0  0  0  0
  -26.0156  -38.2846   24.1515 H   0  0  0  0  0  0
  -30.5656  -18.6424   17.0019 H   0  0  0  0  0  0
  -30.0301  -20.7395   18.1979 H   0  0  0  0  0  0
  -30.5060  -16.4665   18.1171 H   0  0  0  0  0  0
  -29.2439  -18.4349   21.7632 H   0  0  0  0  0  0
  -30.2665  -21.4156   21.3210 H   0  0  0  0  0  0
  -28.6338  -20.9604   21.6561 H   0  0  0  0  0  0
  -27.0603  -24.6304   20.2430 H   0  0  0  0  0  0
  -28.0381  -24.7813   18.7930 H   0  0  0  0  0  0
  -28.9644  -15.6855   21.1623 H   0  0  0  0  0  0
  -28.1178  -22.2650   19.4212 H   0  0  0  0  0  0
  1 25  1  0  0  0
  1 30  2  0  0  0
  1 80  1  0  0  0
  2  3  1  0  0  0
  2 25  1  0  0  0
  2 83  1  0  0  0
  2 84  1  0  0  0
  3  4  1  0  0  0
  3 85  1  0  0  0
  3 86  1  0  0  0
  4  5  1  0  0  0
  4 87  1  0  0  0
  4 88  1  0  0  0
  5  6  1  0  0  0
  5 26  1  0  0  0
  5 89  1  0  0  0
  6 25  1  0  0  0
  6 90  1  0  0  0
  6 91  1  0  0  0
  7  8  2  0  0  0
  7 26  1  0  0  0
  7 29  1  0  0  0
  8  9  1  0  0  0
  8 22  1  0  0  0
  9 10  1  0  0  0
  9 27  2  0  0  0
 10 11  2  0  0  0
 10 15  1  0  0  0
 11 12  1  0  0  0
 11 92  1  0  0  0
 12 13  2  0  0  0
 12 93  1  0  0  0
 13 14  1  0  0  0
 13 31  1  0  0  0
 14 15  2  0  0  0
 14 94  1  0  0  0
 15 95  1  0  0  0
 16 17  2  0  0  0
 16 21  1  0  0  0
 16 31  1  0  0  0
 17 18  1  0  0  0
 17 96  1  0  0  0
 18 19  2  0  0  0
 18 97  1  0  0  0
 19 20  1  0  0  0
 19 24  1  0  0  0
 20 21  2  0  0  0
 20 98  1  0  0  0
 21 23  1  0  0  0
 22 28  1  0  0  0
 22 32  2  0  0  0
 26 27  1  0  0  0
 28 99  1  0  0  0
 28100  1  0  0  0
 29101  1  0  0  0
 29102  1  0  0  0
 33 34  1  0  0  0
 33 66  1  0  0  0
 33 70  2  0  0  0
 34 36  1  0  0  0
 34 59  1  0  0  0
 34103  1  0  0  0
 35 44  2  0  0  0
 35 45  1  0  0  0
 35 68  1  0  0  0
 36 56  1  0  0  0
 36104  1  0  0  0
 37 39  1  0  0  0
 37 47  1  0  0  0
 37 66  1  0  0  0
 37105  1  0  0  0
 38 43  2  0  0  0
 38 46  1  0  0  0
 38 47  1  0  0  0
 39 64  1  0  0  0
 39 67  2  0  0  0
 40 52  1  0  0  0
 40 53  2  0  0  0
 40 58  1  0  0  0
 41106  1  0  0  0
 41107  1  0  0  0
 41108  1  0  0  0
 41 48  1  0  0  0
 42 43  1  0  0  0
 42 66  1  0  0  0
 42109  1  0  0  0
 42110  1  0  0  0
 43 44  1  0  0  0
 44111  1  0  0  0
 45 46  2  0  0  0
 45112  1  0  0  0
 46113  1  0  0  0
 47114  1  0  0  0
 47115  1  0  0  0
 48 56  1  0  0  0
 48 65  1  0  0  0
 48116  1  0  0  0
 49 50  1  0  0  0
 49 53  1  0  0  0
 49 64  1  0  0  0
 49117  1  0  0  0
 50 51  1  0  0  0
 50118  1  0  0  0
 50119  1  0  0  0
 51 52  1  0  0  0
 51120  1  0  0  0
 51121  1  0  0  0
 52122  1  0  0  0
 52123  1  0  0  0
 53 54  1  0  0  0
 54 55  2  0  0  0
 54124  1  0  0  0
 55 57  1  0  0  0
 55125  1  0  0  0
 56 69  2  0  0  0
 57 58  2  0  0  0
 57126  1  0  0  0
 58127  1  0  0  0
 59 60  1  0  0  0
 59 61  1  0  0  0
 59 62  1  0  0  0
 60128  1  0  0  0
 60129  1  0  0  0
 60130  1  0  0  0
 61131  1  0  0  0
 61132  1  0  0  0
 61133  1  0  0  0
 62134  1  0  0  0
 62135  1  0  0  0
 62136  1  0  0  0
 63 65  1  0  0  0
 63137  1  0  0  0
 63138  1  0  0  0
 63139  1  0  0  0
 64140  1  0  0  0
 65141  1  0  0  0
 68 79  1  0  0  0
 71 72  2  0  0  0
 71 73  1  0  0  0
 71142  1  0  0  0
 72 75  1  0  0  0
 72143  1  0  0  0
 73 76  2  0  0  0
 73144  1  0  0  0
 74 75  2  0  0  0
 74 76  1  0  0  0
 74145  1  0  0  0
 75 78  1  0  0  0
 76 80  1  0  0  0
 77 79  1  0  0  0
 77 81  1  0  0  0
 77 82  2  0  0  0
 78 81  1  0  0  0
 78146  1  0  0  0
 78147  1  0  0  0
 79148  1  0  0  0
 79149  1  0  0  0
 80150  1  0  0  0
 81151  1  0  0  0
M  ISO  4   1 100  68 101  79 101  80 100
M  END
> <chiral flag>
0

> <version>
0

> <s_m_source_file>
/data/baiqing/PycharmProjects/Reinvent-master-3.2/result/LINK_invent/BTK/process_docking_weight1_custom_product_contain_oxygen_bond_distance_aromatic_linkinvent_7_9_3/rearranged_h_0157.sdf

> <i_m_source_file_index>
46

> <r_mmod_Potential_Energy-OPLS-2005>
85.4810256958008

> <r_mmod_Stretch_Energy-OPLS-2005>
120.807792663574

> <r_mmod_Bend_Energy-OPLS-2005>
152.481475830078

> <r_mmod_Torsional_Energy-OPLS-2005>
231.772384643555

> <r_mmod_Improper_Torsional_Energy-OPLS-2005>
5.49780511856079

> <r_mmod_Van_der_Waal_Energy-OPLS-2005>
140.538269042969

> <r_mmod_Electrostatic_Energy-OPLS-2005>
-398.400085449219

> <r_mmod_Solvation_Energy-OPLS-2005>
-253.995498657227

> <b_mmod_Minimization_Converged-OPLS-2005>
0

> <r_mmod_RMS_Derivative-OPLS-2005>
3.58414220809937

$$$$
46
                    3D
 Structure written by MMmdl.
151160  0  0  1  0            999 V2000
  -30.6018  -14.8011   20.4402 C   0  0  0  0  0  0
  -30.4335  -12.4881   19.4894 C   0  0  0  0  0  0
  -29.5166  -12.5161   18.2461 C   0  0  0  0  0  0
  -28.0441  -12.3310   18.6574 C   0  0  0  0  0  0
  -27.6410  -13.2392   19.8495 C   0  0  2  0  0  0
  -28.6833  -13.2021   20.9893 C   0  0  0  0  0  0
  -25.2503  -13.8211   20.5688 C   0  0  0  0  0  0
  -24.1801  -13.0450   20.9202 C   0  0  0  0  0  0
  -24.6404  -11.6930   20.8749 C   0  0  0  0  0  0
  -23.9088  -10.4298   21.0412 C   0  0  0  0  0  0
  -24.3632   -9.4208   21.9188 C   0  0  0  0  0  0
  -23.6295   -8.2252   22.0760 C   0  0  0  0  0  0
  -22.4276   -8.0288   21.3552 C   0  0  0  0  0  0
  -21.9916   -9.0266   20.4657 C   0  0  0  0  0  0
  -22.7255  -10.2138   20.3064 C   0  0  0  0  0  0
  -21.6854   -6.0735   22.5276 C   0  0  0  0  0  0
  -21.4018   -6.5640   23.8206 C   0  0  0  0  0  0
  -21.3658   -5.6790   24.9168 C   0  0  0  0  0  0
  -21.6042   -4.3054   24.7217 C   0  0  0  0  0  0
  -21.8823   -3.8147   23.4339 C   0  0  0  0  0  0
  -21.9197   -4.6967   22.3394 C   0  0  0  0  0  0
  -22.7822  -13.5234   21.1855 C   0  0  0  0  0  0
  -22.1668   -4.2155   21.0974 F   0  0  0  0  0  0
  -21.5626   -3.4538   25.7732 F   0  0  0  0  0  0
  -29.9831  -13.5644   20.4093 N   0  0  0  0  0  0
  -26.2935  -12.9432   20.3265 N   0  0  0  0  0  0
  -25.9334  -11.6570   20.5737 N   0  0  0  0  0  0
  -22.0462  -12.8231   22.0411 N   0  0  0  0  0  0
  -25.4195  -15.1932   20.4099 N   0  0  0  0  0  0
  -31.7888  -14.8721   20.1052 O   0  0  0  0  0  0
  -21.6642   -6.8883   21.4240 O   0  0  0  0  0  0
  -22.3517  -14.5551   20.6711 O   0  0  0  0  0  0
  -24.6357  -31.8520   23.1981 C   0  0  0  0  0  0
  -25.9173  -32.4728   23.8333 C   0  0  1  0  0  0
  -27.2083  -27.2078   20.1361 C   0  0  0  0  0  0
  -25.5956  -33.8536   24.2250 N   0  0  0  0  0  0
  -23.4347  -30.4768   21.5417 C   0  0  2  0  0  0
  -24.8823  -28.9237   20.1081 C   0  0  0  0  0  0
  -22.7526  -29.4585   22.4885 C   0  0  0  0  0  0
  -18.0299  -28.1390   22.8472 C   0  0  0  0  0  0
  -24.1496  -36.7272   23.2636 C   0  0  0  0  0  0
  -25.9869  -30.7434   21.3946 C   0  0  0  0  0  0
  -26.0540  -29.3624   20.7370 C   0  0  0  0  0  0
  -27.2153  -28.5136   20.7510 C   0  0  0  0  0  0
  -26.0243  -26.8800   19.4325 C   0  0  0  0  0  0
  -24.8754  -27.6913   19.4444 C   0  0  0  0  0  0
  -23.6567  -29.8176   20.1563 C   0  0  0  0  0  0
  -25.4120  -36.3051   24.0322 C   0  0  1  0  0  0
  -20.5903  -28.3711   23.1246 C   0  0  2  0  0  0
  -20.6786  -26.9422   22.5397 C   0  0  0  0  0  0
  -19.5763  -26.6383   21.5202 C   0  0  0  0  0  0
  -18.1946  -26.7927   22.1621 C   0  0  0  0  0  0
  -19.1553  -28.8868   23.2853 C   0  0  0  0  0  0
  -18.9471  -30.1463   23.8880 C   0  0  0  0  0  0
  -17.6469  -30.6587   24.0555 C   0  0  0  0  0  0
  -25.9064  -34.9420   23.5088 C   0  0  0  0  0  0
  -16.5359  -29.9080   23.6330 C   0  0  0  0  0  0
  -16.7284  -28.6501   23.0347 C   0  0  0  0  0  0
  -26.4523  -31.6562   25.0738 C   0  0  0  0  0  0
  -25.3728  -31.3739   26.1446 C   0  0  0  0  0  0
  -27.0370  -30.2956   24.6285 C   0  0  0  0  0  0
  -27.6072  -32.4310   25.7509 C   0  0  0  0  0  0
  -27.5579  -37.1794   24.8464 C   0  0  0  0  0  0
  -21.4228  -29.3050   22.3629 N   0  0  0  0  0  0
  -26.4293  -37.3752   23.9402 N   0  0  0  0  0  0
  -24.7045  -31.0439   22.0993 N   0  0  0  0  0  0
  -23.4202  -28.8111   23.2991 O   0  0  0  0  0  0
  -28.2696  -26.2529   20.2110 O   0  0  0  0  0  0
  -26.5634  -34.8899   22.4655 O   0  0  0  0  0  0
  -23.5498  -32.1377   23.7241 O   0  0  0  0  0  0
  -29.3896  -18.6198   20.8550 C   0  0  0  0  0  0
  -31.0049  -17.7794   19.3908 C   0  0  0  0  0  0
  -30.0823  -17.4041   20.3354 C   0  0  0  0  0  0
  -29.8188  -19.8747   20.3424 C   0  0  0  0  0  0
  -28.8087  -23.7084   20.3974 C   0  0  0  0  0  0
  -28.0103  -24.8291   20.1545 C   0  0  0  0  0  0
  -30.2357  -23.6851   20.8818 C   0  0  0  0  0  0
  -28.4431  -22.1736   20.2473 C   0  0  0  0  0  0
  -30.7273  -22.2140   20.7319 C   0  0  0  0  0  0
  -29.5791  -21.2897   20.6935 N   0  0  0  0  0  0
  -29.8468  -15.9575   20.6868 N   0  0  0  0  0  0
  -31.0571  -19.5193   19.1437 S   0  0  0  0  0  0
  -31.4750  -12.6075   19.1865 H   0  0  0  0  0  0
  -30.3807  -11.5173   19.9843 H   0  0  0  0  0  0
  -29.8086  -11.7360   17.5416 H   0  0  0  0  0  0
  -29.6362  -13.4642   17.7198 H   0  0  0  0  0  0
  -27.9081  -11.2834   18.9281 H   0  0  0  0  0  0
  -27.3892  -12.5115   17.8047 H   0  0  0  0  0  0
  -27.6279  -14.2558   19.4552 H   0  0  0  0  0  0
  -28.7284  -12.2122   21.4458 H   0  0  0  0  0  0
  -28.4066  -13.8947   21.7856 H   0  0  0  0  0  0
  -25.2772   -9.5679   22.4766 H   0  0  0  0  0  0
  -23.9998   -7.4646   22.7483 H   0  0  0  0  0  0
  -21.0848   -8.8798   19.8963 H   0  0  0  0  0  0
  -22.3716  -10.9685   19.6181 H   0  0  0  0  0  0
  -21.2014   -7.6145   23.9711 H   0  0  0  0  0  0
  -21.1475   -6.0520   25.9070 H   0  0  0  0  0  0
  -22.0603   -2.7610   23.2837 H   0  0  0  0  0  0
  -22.4069  -11.9895   22.4809 H   0  0  0  0  0  0
  -21.1086  -13.1284   22.2616 H   0  0  0  0  0  0
  -24.6528  -15.8474   20.5219 H   0  0  0  0  0  0
  -26.2572  -15.6282   20.0453 H   0  0  0  0  0  0
  -26.7229  -32.5363   23.1058 H   0  0  0  0  0  0
  -25.0091  -33.9671   25.0386 H   0  0  0  0  0  0
  -22.7336  -31.3012   21.3969 H   0  0  0  0  0  0
  -23.3754  -35.9608   23.3292 H   0  0  0  0  0  0
  -24.3586  -36.8902   22.2051 H   0  0  0  0  0  0
  -23.7261  -37.6474   23.6668 H   0  0  0  0  0  0
  -26.1414  -31.5003   20.6243 H   0  0  0  0  0  0
  -26.8588  -30.7872   22.0351 H   0  0  0  0  0  0
  -28.1036  -28.8364   21.2760 H   0  0  0  0  0  0
  -25.9431  -25.9694   18.8610 H   0  0  0  0  0  0
  -23.9879  -27.3612   18.9221 H   0  0  0  0  0  0
  -23.7883  -30.5973   19.4053 H   0  0  0  0  0  0
  -22.7731  -29.2577   19.8448 H   0  0  0  0  0  0
  -25.1302  -36.1892   25.0814 H   0  0  0  0  0  0
  -20.9996  -28.3295   24.1365 H   0  0  0  0  0  0
  -20.5685  -26.2317   23.3605 H   0  0  0  0  0  0
  -21.6654  -26.7442   22.1194 H   0  0  0  0  0  0
  -19.6925  -25.6290   21.1243 H   0  0  0  0  0  0
  -19.6695  -27.3179   20.6717 H   0  0  0  0  0  0
  -17.4205  -26.6650   21.4035 H   0  0  0  0  0  0
  -18.0364  -26.0080   22.9034 H   0  0  0  0  0  0
  -19.7947  -30.7283   24.2243 H   0  0  0  0  0  0
  -17.5023  -31.6268   24.5159 H   0  0  0  0  0  0
  -15.5359  -30.2975   23.7668 H   0  0  0  0  0  0
  -15.8684  -28.0816   22.7070 H   0  0  0  0  0  0
  -24.5882  -30.7119   25.7763 H   0  0  0  0  0  0
  -24.8954  -32.2923   26.4871 H   0  0  0  0  0  0
  -25.8021  -30.8895   27.0226 H   0  0  0  0  0  0
  -26.2971  -29.6689   24.1293 H   0  0  0  0  0  0
  -27.3984  -29.7240   25.4845 H   0  0  0  0  0  0
  -27.8886  -30.4181   23.9588 H   0  0  0  0  0  0
  -27.2675  -33.3613   26.2071 H   0  0  0  0  0  0
  -28.3887  -32.6866   25.0338 H   0  0  0  0  0  0
  -28.0735  -31.8448   26.5437 H   0  0  0  0  0  0
  -28.2592  -38.0093   24.7502 H   0  0  0  0  0  0
  -28.1084  -36.2626   24.6302 H   0  0  0  0  0  0
  -27.2299  -37.1451   25.8867 H   0  0  0  0  0  0
  -20.9419  -29.8775   21.6831 H   0  0  0  0  0  0
  -26.0168  -38.2827   24.1385 H   0  0  0  0  0  0
  -28.6366  -18.5318   21.6248 H   0  0  0  0  0  0
  -31.6699  -17.1518   18.8101 H   0  0  0  0  0  0
  -26.9996  -24.6098   19.8623 H   0  0  0  0  0  0
  -30.2427  -23.9731   21.9342 H   0  0  0  0  0  0
  -30.8620  -24.3945   20.3397 H   0  0  0  0  0  0
  -28.2067  -21.9674   19.2022 H   0  0  0  0  0  0
  -27.5469  -21.9552   20.8302 H   0  0  0  0  0  0
  -31.4168  -21.9493   21.5352 H   0  0  0  0  0  0
  -31.2871  -22.1420   19.7989 H   0  0  0  0  0  0
  -28.9389  -15.7622   21.0816 H   0  0  0  0  0  0
  1 25  1  0  0  0
  1 30  2  0  0  0
  1 81  1  0  0  0
  2  3  1  0  0  0
  2 25  1  0  0  0
  2 83  1  0  0  0
  2 84  1  0  0  0
  3  4  1  0  0  0
  3 85  1  0  0  0
  3 86  1  0  0  0
  4  5  1  0  0  0
  4 87  1  0  0  0
  4 88  1  0  0  0
  5  6  1  0  0  0
  5 26  1  0  0  0
  5 89  1  0  0  0
  6 25  1  0  0  0
  6 90  1  0  0  0
  6 91  1  0  0  0
  7  8  2  0  0  0
  7 26  1  0  0  0
  7 29  1  0  0  0
  8  9  1  0  0  0
  8 22  1  0  0  0
  9 10  1  0  0  0
  9 27  2  0  0  0
 10 11  2  0  0  0
 10 15  1  0  0  0
 11 12  1  0  0  0
 11 92  1  0  0  0
 12 13  2  0  0  0
 12 93  1  0  0  0
 13 14  1  0  0  0
 13 31  1  0  0  0
 14 15  2  0  0  0
 14 94  1  0  0  0
 15 95  1  0  0  0
 16 17  2  0  0  0
 16 21  1  0  0  0
 16 31  1  0  0  0
 17 18  1  0  0  0
 17 96  1  0  0  0
 18 19  2  0  0  0
 18 97  1  0  0  0
 19 20  1  0  0  0
 19 24  1  0  0  0
 20 21  2  0  0  0
 20 98  1  0  0  0
 21 23  1  0  0  0
 22 28  1  0  0  0
 22 32  2  0  0  0
 26 27  1  0  0  0
 28 99  1  0  0  0
 28100  1  0  0  0
 29101  1  0  0  0
 29102  1  0  0  0
 33 34  1  0  0  0
 33 66  1  0  0  0
 33 70  2  0  0  0
 34 36  1  0  0  0
 34 59  1  0  0  0
 34103  1  0  0  0
 35 44  2  0  0  0
 35 45  1  0  0  0
 35 68  1  0  0  0
 36 56  1  0  0  0
 36104  1  0  0  0
 37 39  1  0  0  0
 37 47  1  0  0  0
 37 66  1  0  0  0
 37105  1  0  0  0
 38 43  2  0  0  0
 38 46  1  0  0  0
 38 47  1  0  0  0
 39 64  1  0  0  0
 39 67  2  0  0  0
 40 52  1  0  0  0
 40 53  2  0  0  0
 40 58  1  0  0  0
 41106  1  0  0  0
 41107  1  0  0  0
 41108  1  0  0  0
 41 48  1  0  0  0
 42 43  1  0  0  0
 42 66  1  0  0  0
 42109  1  0  0  0
 42110  1  0  0  0
 43 44  1  0  0  0
 44111  1  0  0  0
 45 46  2  0  0  0
 45112  1  0  0  0
 46113  1  0  0  0
 47114  1  0  0  0
 47115  1  0  0  0
 48 56  1  0  0  0
 48 65  1  0  0  0
 48116  1  0  0  0
 49 50  1  0  0  0
 49 53  1  0  0  0
 49 64  1  0  0  0
 49117  1  0  0  0
 50 51  1  0  0  0
 50118  1  0  0  0
 50119  1  0  0  0
 51 52  1  0  0  0
 51120  1  0  0  0
 51121  1  0  0  0
 52122  1  0  0  0
 52123  1  0  0  0
 53 54  1  0  0  0
 54 55  2  0  0  0
 54124  1  0  0  0
 55 57  1  0  0  0
 55125  1  0  0  0
 56 69  2  0  0  0
 57 58  2  0  0  0
 57126  1  0  0  0
 58127  1  0  0  0
 59 60  1  0  0  0
 59 61  1  0  0  0
 59 62  1  0  0  0
 60128  1  0  0  0
 60129  1  0  0  0
 60130  1  0  0  0
 61131  1  0  0  0
 61132  1  0  0  0
 61133  1  0  0  0
 62134  1  0  0  0
 62135  1  0  0  0
 62136  1  0  0  0
 63 65  1  0  0  0
 63137  1  0  0  0
 63138  1  0  0  0
 63139  1  0  0  0
 64140  1  0  0  0
 65141  1  0  0  0
 68 76  1  0  0  0
 71 73  1  0  0  0
 71 74  2  0  0  0
 71142  1  0  0  0
 72 73  2  0  0  0
 72 82  1  0  0  0
 72143  1  0  0  0
 73 81  1  0  0  0
 74 80  1  0  0  0
 74 82  1  0  0  0
 75 76  2  0  0  0
 75 77  1  0  0  0
 75 78  1  0  0  0
 76144  1  0  0  0
 77 79  1  0  0  0
 77145  1  0  0  0
 77146  1  0  0  0
 78 80  1  0  0  0
 78147  1  0  0  0
 78148  1  0  0  0
 79 80  1  0  0  0
 79149  1  0  0  0
 79150  1  0  0  0
 81151  1  0  0  0
M  ISO  4   1 100  68 101  76 101  81 100
M  END
> <chiral flag>
0

> <version>
0

> <s_m_source_file>
/data/baiqing/PycharmProjects/Reinvent-master-3.2/result/LINK_invent/BTK/process_docking_weight1_custom_product_contain_oxygen_bond_distance_aromatic_linkinvent_7_9_3/rearranged_h_0157.sdf

> <i_m_source_file_index>
47

> <r_mmod_Potential_Energy-OPLS-2005>
298.131317138672

> <r_mmod_Stretch_Energy-OPLS-2005>
140.947219848633

> <r_mmod_Bend_Energy-OPLS-2005>
203.779022216797

> <r_mmod_Torsional_Energy-OPLS-2005>
259.825317382812

> <r_mmod_Improper_Torsional_Energy-OPLS-2005>
7.88485336303711

> <r_mmod_Van_der_Waal_Energy-OPLS-2005>
124.259254455566

> <r_mmod_Electrostatic_Energy-OPLS-2005>
-325.909027099609

> <r_mmod_Solvation_Energy-OPLS-2005>
-231.584213256836

> <b_mmod_Minimization_Converged-OPLS-2005>
0

> <r_mmod_RMS_Derivative-OPLS-2005>
1.10461580753326

$$$$
47
                    3D
 Structure written by MMmdl.
152160  0  0  1  0            999 V2000
  -30.6625  -14.6223   20.4844 C   0  0  0  0  0  0
  -30.4310  -12.3689   19.4842 C   0  0  0  0  0  0
  -29.5178  -12.4850   18.2443 C   0  0  0  0  0  0
  -28.0395  -12.3249   18.6475 C   0  0  0  0  0  0
  -27.6519  -13.2192   19.8541 C   0  0  2  0  0  0
  -28.6885  -13.1164   20.9969 C   0  0  0  0  0  0
  -25.2560  -13.8203   20.5614 C   0  0  0  0  0  0
  -24.1831  -13.0464   20.9172 C   0  0  0  0  0  0
  -24.6396  -11.6936   20.8746 C   0  0  0  0  0  0
  -23.9068  -10.4313   21.0407 C   0  0  0  0  0  0
  -24.3625   -9.4220   21.9180 C   0  0  0  0  0  0
  -23.6305   -8.2252   22.0752 C   0  0  0  0  0  0
  -22.4282   -8.0292   21.3549 C   0  0  0  0  0  0
  -21.9904   -9.0268   20.4652 C   0  0  0  0  0  0
  -22.7233  -10.2145   20.3064 C   0  0  0  0  0  0
  -21.6863   -6.0738   22.5277 C   0  0  0  0  0  0
  -21.4024   -6.5633   23.8218 C   0  0  0  0  0  0
  -21.3668   -5.6783   24.9175 C   0  0  0  0  0  0
  -21.6055   -4.3051   24.7224 C   0  0  0  0  0  0
  -21.8819   -3.8141   23.4345 C   0  0  0  0  0  0
  -21.9197   -4.6959   22.3401 C   0  0  0  0  0  0
  -22.7855  -13.5254   21.1828 C   0  0  0  0  0  0
  -22.1659   -4.2141   21.0976 F   0  0  0  0  0  0
  -21.5637   -3.4534   25.7737 F   0  0  0  0  0  0
  -30.0201  -13.4122   20.4473 N   0  0  0  0  0  0
  -26.2983  -12.9376   20.3259 N   0  0  0  0  0  0
  -25.9330  -11.6540   20.5770 N   0  0  0  0  0  0
  -22.0487  -12.8285   22.0418 N   0  0  0  0  0  0
  -25.4236  -15.1930   20.3934 N   0  0  0  0  0  0
  -31.8248  -14.7307   20.0838 O   0  0  0  0  0  0
  -21.6665   -6.8883   21.4239 O   0  0  0  0  0  0
  -22.3543  -14.5540   20.6659 O   0  0  0  0  0  0
  -24.6253  -31.8580   23.2011 C   0  0  0  0  0  0
  -25.9090  -32.4781   23.8328 C   0  0  1  0  0  0
  -27.2243  -27.3185   20.1439 C   0  0  0  0  0  0
  -25.5871  -33.8579   24.2256 N   0  0  0  0  0  0
  -23.4196  -30.4800   21.5432 C   0  0  2  0  0  0
  -24.8700  -28.9307   20.1121 C   0  0  0  0  0  0
  -22.7470  -29.4619   22.4938 C   0  0  0  0  0  0
  -18.0278  -28.1385   22.8482 C   0  0  0  0  0  0
  -24.1465  -36.7324   23.2654 C   0  0  0  0  0  0
  -25.9563  -30.7923   21.3665 C   0  0  0  0  0  0
  -26.0339  -29.4154   20.7225 C   0  0  0  0  0  0
  -27.2162  -28.6209   20.7301 C   0  0  0  0  0  0
  -26.0529  -26.8927   19.4855 C   0  0  0  0  0  0
  -24.8814  -27.6745   19.4818 C   0  0  0  0  0  0
  -23.6360  -29.8090   20.1584 C   0  0  0  0  0  0
  -25.4095  -36.3090   24.0324 C   0  0  1  0  0  0
  -20.5867  -28.3691   23.1283 C   0  0  2  0  0  0
  -20.6760  -26.9411   22.5416 C   0  0  0  0  0  0
  -19.5735  -26.6383   21.5213 C   0  0  0  0  0  0
  -18.1920  -26.7924   22.1620 C   0  0  0  0  0  0
  -19.1528  -28.8847   23.2880 C   0  0  0  0  0  0
  -18.9467  -30.1453   23.8891 C   0  0  0  0  0  0
  -17.6474  -30.6584   24.0567 C   0  0  0  0  0  0
  -25.9020  -34.9458   23.5096 C   0  0  0  0  0  0
  -16.5359  -29.9098   23.6327 C   0  0  0  0  0  0
  -16.7269  -28.6509   23.0347 C   0  0  0  0  0  0
  -26.4514  -31.6611   25.0690 C   0  0  0  0  0  0
  -25.3771  -31.3745   26.1437 C   0  0  0  0  0  0
  -27.0412  -30.3054   24.6158 C   0  0  0  0  0  0
  -27.6062  -32.4388   25.7434 C   0  0  0  0  0  0
  -27.5555  -37.1827   24.8474 C   0  0  0  0  0  0
  -21.4180  -29.3044   22.3681 N   0  0  0  0  0  0
  -26.4290  -37.3776   23.9380 N   0  0  0  0  0  0
  -24.6864  -31.0599   22.0942 N   0  0  0  0  0  0
  -23.4195  -28.8170   23.3021 O   0  0  0  0  0  0
  -28.3321  -26.4626   20.1865 O   0  0  0  0  0  0
  -26.5634  -34.8927   22.4692 O   0  0  0  0  0  0
  -23.5413  -32.1373   23.7337 O   0  0  0  0  0  0
  -30.4815  -20.9869   20.3283 C   0  0  0  0  0  0
  -30.7476  -19.5736   20.1614 C   0  0  0  0  0  0
  -29.1596  -21.2922   20.5769 C   0  0  0  0  0  0
  -29.6337  -18.7682   20.2581 C   0  0  0  0  0  0
  -26.9341  -24.9086   21.6674 C   0  0  0  0  0  0
  -28.7364  -23.8333   20.1115 C   0  0  0  0  0  0
  -28.2543  -25.1508   20.8926 C   0  0  1  0  0  0
  -28.4991  -22.5358   20.8241 N   0  0  0  0  0  0
  -29.9591  -15.7964   20.8713 N   0  0  0  0  0  0
  -28.0012  -16.8257   19.5254 O   0  0  0  0  0  0
  -30.3311  -16.9091   18.5220 O   0  0  0  0  0  0
  -28.2412  -19.7764   20.6517 S   0  0  0  0  0  0
  -29.4515  -17.0193   19.7010 S   0  0  0  0  0  0
  -31.4771  -12.4596   19.1911 H   0  0  0  0  0  0
  -30.3396  -11.3832   19.9425 H   0  0  0  0  0  0
  -29.7861  -11.7258   17.5089 H   0  0  0  0  0  0
  -29.6676  -13.4526   17.7610 H   0  0  0  0  0  0
  -27.8851  -11.2749   18.9031 H   0  0  0  0  0  0
  -27.3880  -12.5272   17.7961 H   0  0  0  0  0  0
  -27.6606  -14.2444   19.4879 H   0  0  0  0  0  0
  -28.6817  -12.1187   21.4383 H   0  0  0  0  0  0
  -28.4317  -13.8073   21.8021 H   0  0  0  0  0  0
  -25.2772   -9.5712   22.4743 H   0  0  0  0  0  0
  -24.0028   -7.4657   22.7469 H   0  0  0  0  0  0
  -21.0838   -8.8795   19.8964 H   0  0  0  0  0  0
  -22.3693  -10.9691   19.6183 H   0  0  0  0  0  0
  -21.2004   -7.6139   23.9712 H   0  0  0  0  0  0
  -21.1494   -6.0514   25.9081 H   0  0  0  0  0  0
  -22.0582   -2.7597   23.2849 H   0  0  0  0  0  0
  -22.4111  -12.0000   22.4890 H   0  0  0  0  0  0
  -21.1101  -13.1336   22.2580 H   0  0  0  0  0  0
  -24.6341  -15.8275   20.4366 H   0  0  0  0  0  0
  -26.2675  -15.6350   20.0393 H   0  0  0  0  0  0
  -26.7153  -32.5497   23.1071 H   0  0  0  0  0  0
  -24.9928  -33.9714   25.0336 H   0  0  0  0  0  0
  -22.7131  -31.2997   21.3973 H   0  0  0  0  0  0
  -23.3668  -35.9725   23.3397 H   0  0  0  0  0  0
  -24.3524  -36.8881   22.2053 H   0  0  0  0  0  0
  -23.7305  -37.6576   23.6641 H   0  0  0  0  0  0
  -26.0750  -31.5434   20.5841 H   0  0  0  0  0  0
  -26.8435  -30.8589   21.9841 H   0  0  0  0  0  0
  -28.1070  -28.9871   21.2204 H   0  0  0  0  0  0
  -26.0392  -25.9270   18.9999 H   0  0  0  0  0  0
  -23.9923  -27.3001   18.9941 H   0  0  0  0  0  0
  -23.7570  -30.5835   19.4004 H   0  0  0  0  0  0
  -22.7571  -29.2354   19.8587 H   0  0  0  0  0  0
  -25.1292  -36.1924   25.0820 H   0  0  0  0  0  0
  -20.9969  -28.3253   24.1394 H   0  0  0  0  0  0
  -20.5638  -26.2299   23.3620 H   0  0  0  0  0  0
  -21.6645  -26.7425   22.1229 H   0  0  0  0  0  0
  -19.6899  -25.6296   21.1240 H   0  0  0  0  0  0
  -19.6669  -27.3193   20.6743 H   0  0  0  0  0  0
  -17.4199  -26.6671   21.4021 H   0  0  0  0  0  0
  -18.0312  -26.0064   22.9002 H   0  0  0  0  0  0
  -19.7948  -30.7259   24.2251 H   0  0  0  0  0  0
  -17.5036  -31.6256   24.5195 H   0  0  0  0  0  0
  -15.5365  -30.3009   23.7654 H   0  0  0  0  0  0
  -15.8659  -28.0840   22.7065 H   0  0  0  0  0  0
  -24.5937  -30.7095   25.7775 H   0  0  0  0  0  0
  -24.8962  -32.2904   26.4883 H   0  0  0  0  0  0
  -25.8130  -30.8906   27.0179 H   0  0  0  0  0  0
  -26.2967  -29.6685   24.1356 H   0  0  0  0  0  0
  -27.4359  -29.7466   25.4648 H   0  0  0  0  0  0
  -27.8717  -30.4387   23.9234 H   0  0  0  0  0  0
  -27.2637  -33.3651   26.2072 H   0  0  0  0  0  0
  -28.3806  -32.7062   25.0223 H   0  0  0  0  0  0
  -28.0835  -31.8507   26.5288 H   0  0  0  0  0  0
  -28.2654  -38.0042   24.7401 H   0  0  0  0  0  0
  -28.0972  -36.2567   24.6449 H   0  0  0  0  0  0
  -27.2258  -37.1671   25.8882 H   0  0  0  0  0  0
  -20.9344  -29.8779   21.6910 H   0  0  0  0  0  0
  -26.0162  -38.2859   24.1304 H   0  0  0  0  0  0
  -31.2754  -21.7185   20.2507 H   0  0  0  0  0  0
  -31.7307  -19.2068   19.9024 H   0  0  0  0  0  0
  -26.6691  -25.7673   22.2856 H   0  0  0  0  0  0
  -27.0228  -24.0640   22.3525 H   0  0  0  0  0  0
  -26.0956  -24.6906   21.0064 H   0  0  0  0  0  0
  -29.7915  -23.9247   19.8504 H   0  0  0  0  0  0
  -28.1968  -23.7785   19.1646 H   0  0  0  0  0  0
  -28.9945  -25.2689   21.6857 H   0  0  0  0  0  0
  -27.5217  -22.4135   21.0776 H   0  0  0  0  0  0
  -29.1784  -15.6790   21.5083 H   0  0  0  0  0  0
  1 25  1  0  0  0
  1 30  2  0  0  0
  1 79  1  0  0  0
  2  3  1  0  0  0
  2 25  1  0  0  0
  2 84  1  0  0  0
  2 85  1  0  0  0
  3  4  1  0  0  0
  3 86  1  0  0  0
  3 87  1  0  0  0
  4  5  1  0  0  0
  4 88  1  0  0  0
  4 89  1  0  0  0
  5  6  1  0  0  0
  5 26  1  0  0  0
  5 90  1  0  0  0
  6 25  1  0  0  0
  6 91  1  0  0  0
  6 92  1  0  0  0
  7  8  2  0  0  0
  7 26  1  0  0  0
  7 29  1  0  0  0
  8  9  1  0  0  0
  8 22  1  0  0  0
  9 10  1  0  0  0
  9 27  2  0  0  0
 10 11  2  0  0  0
 10 15  1  0  0  0
 11 12  1  0  0  0
 11 93  1  0  0  0
 12 13  2  0  0  0
 12 94  1  0  0  0
 13 14  1  0  0  0
 13 31  1  0  0  0
 14 15  2  0  0  0
 14 95  1  0  0  0
 15 96  1  0  0  0
 16 17  2  0  0  0
 16 21  1  0  0  0
 16 31  1  0  0  0
 17 18  1  0  0  0
 17 97  1  0  0  0
 18 19  2  0  0  0
 18 98  1  0  0  0
 19 20  1  0  0  0
 19 24  1  0  0  0
 20 21  2  0  0  0
 20 99  1  0  0  0
 21 23  1  0  0  0
 22 28  1  0  0  0
 22 32  2  0  0  0
 26 27  1  0  0  0
 28100  1  0  0  0
 28101  1  0  0  0
 29102  1  0  0  0
 29103  1  0  0  0
 33 34  1  0  0  0
 33 66  1  0  0  0
 33 70  2  0  0  0
 34 36  1  0  0  0
 34 59  1  0  0  0
 34104  1  0  0  0
 35 44  2  0  0  0
 35 45  1  0  0  0
 35 68  1  0  0  0
 36 56  1  0  0  0
 36105  1  0  0  0
 37 39  1  0  0  0
 37 47  1  0  0  0
 37 66  1  0  0  0
 37106  1  0  0  0
 38 43  2  0  0  0
 38 46  1  0  0  0
 38 47  1  0  0  0
 39 64  1  0  0  0
 39 67  2  0  0  0
 40 52  1  0  0  0
 40 53  2  0  0  0
 40 58  1  0  0  0
 41107  1  0  0  0
 41108  1  0  0  0
 41109  1  0  0  0
 41 48  1  0  0  0
 42 43  1  0  0  0
 42 66  1  0  0  0
 42110  1  0  0  0
 42111  1  0  0  0
 43 44  1  0  0  0
 44112  1  0  0  0
 45 46  2  0  0  0
 45113  1  0  0  0
 46114  1  0  0  0
 47115  1  0  0  0
 47116  1  0  0  0
 48 56  1  0  0  0
 48 65  1  0  0  0
 48117  1  0  0  0
 49 50  1  0  0  0
 49 53  1  0  0  0
 49 64  1  0  0  0
 49118  1  0  0  0
 50 51  1  0  0  0
 50119  1  0  0  0
 50120  1  0  0  0
 51 52  1  0  0  0
 51121  1  0  0  0
 51122  1  0  0  0
 52123  1  0  0  0
 52124  1  0  0  0
 53 54  1  0  0  0
 54 55  2  0  0  0
 54125  1  0  0  0
 55 57  1  0  0  0
 55126  1  0  0  0
 56 69  2  0  0  0
 57 58  2  0  0  0
 57127  1  0  0  0
 58128  1  0  0  0
 59 60  1  0  0  0
 59 61  1  0  0  0
 59 62  1  0  0  0
 60129  1  0  0  0
 60130  1  0  0  0
 60131  1  0  0  0
 61132  1  0  0  0
 61133  1  0  0  0
 61134  1  0  0  0
 62135  1  0  0  0
 62136  1  0  0  0
 62137  1  0  0  0
 63 65  1  0  0  0
 63138  1  0  0  0
 63139  1  0  0  0
 63140  1  0  0  0
 64141  1  0  0  0
 65142  1  0  0  0
 68 77  1  0  0  0
 71 72  1  0  0  0
 71 73  2  0  0  0
 71143  1  0  0  0
 72 74  2  0  0  0
 72144  1  0  0  0
 73 78  1  0  0  0
 73 82  1  0  0  0
 74 82  1  0  0  0
 74 83  1  0  0  0
 75145  1  0  0  0
 75146  1  0  0  0
 75147  1  0  0  0
 75 77  1  0  0  0
 76 77  1  0  0  0
 76 78  1  0  0  0
 76148  1  0  0  0
 76149  1  0  0  0
 77150  1  0  0  0
 78151  1  0  0  0
 79152  1  0  0  0
 79 83  1  0  0  0
 80 83  2  0  0  0
 81 83  2  0  0  0
M  ISO  4   1 100  68 101  77 101  79 100
M  END
> <chiral flag>
0

> <version>
0

> <s_m_source_file>
/data/baiqing/PycharmProjects/Reinvent-master-3.2/result/LINK_invent/BTK/process_docking_weight1_custom_product_contain_oxygen_bond_distance_aromatic_linkinvent_7_9_3/rearranged_h_0157.sdf

> <i_m_source_file_index>
48

> <r_mmod_Potential_Energy-OPLS-2005>
-131.983856201172

> <r_mmod_Stretch_Energy-OPLS-2005>
71.3351440429688

> <r_mmod_Bend_Energy-OPLS-2005>
149.268600463867

> <r_mmod_Torsional_Energy-OPLS-2005>
258.418121337891

> <r_mmod_Improper_Torsional_Energy-OPLS-2005>
12.4418172836304

> <r_mmod_Van_der_Waal_Energy-OPLS-2005>
112.573097229004

> <r_mmod_Electrostatic_Energy-OPLS-2005>
-542.900756835938

> <r_mmod_Solvation_Energy-OPLS-2005>
-241.615081787109

> <b_mmod_Minimization_Converged-OPLS-2005>
0

> <r_mmod_RMS_Derivative-OPLS-2005>
3.6421492099762

$$$$
48
                    3D
 Structure written by MMmdl.
159167  0  0  1  0            999 V2000
  -30.7208  -14.5052   20.5489 C   0  0  0  0  0  0
  -30.4127  -12.3169   19.4574 C   0  0  0  0  0  0
  -29.5098  -12.5380   18.2269 C   0  0  0  0  0  0
  -28.0237  -12.4076   18.6179 C   0  0  0  0  0  0
  -27.6612  -13.2353   19.8826 C   0  0  2  0  0  0
  -28.6970  -13.0358   21.0104 C   0  0  0  0  0  0
  -25.2511  -13.8248   20.5733 C   0  0  0  0  0  0
  -24.1823  -13.0483   20.9223 C   0  0  0  0  0  0
  -24.6453  -11.6969   20.8762 C   0  0  0  0  0  0
  -23.9133  -10.4343   21.0428 C   0  0  0  0  0  0
  -24.3664   -9.4238   21.9201 C   0  0  0  0  0  0
  -23.6341   -8.2268   22.0761 C   0  0  0  0  0  0
  -22.4314   -8.0305   21.3557 C   0  0  0  0  0  0
  -21.9952   -9.0292   20.4657 C   0  0  0  0  0  0
  -22.7307  -10.2163   20.3066 C   0  0  0  0  0  0
  -21.6850   -6.0738   22.5282 C   0  0  0  0  0  0
  -21.4034   -6.5648   23.8228 C   0  0  0  0  0  0
  -21.3689   -5.6794   24.9192 C   0  0  0  0  0  0
  -21.6054   -4.3061   24.7217 C   0  0  0  0  0  0
  -21.8821   -3.8155   23.4334 C   0  0  0  0  0  0
  -21.9205   -4.6972   22.3397 C   0  0  0  0  0  0
  -22.7825  -13.5229   21.1870 C   0  0  0  0  0  0
  -22.1658   -4.2171   21.0955 F   0  0  0  0  0  0
  -21.5626   -3.4523   25.7717 F   0  0  0  0  0  0
  -30.0296  -13.3289   20.4642 N   0  0  0  0  0  0
  -26.3011  -12.9500   20.3391 N   0  0  0  0  0  0
  -25.9381  -11.6633   20.5773 N   0  0  0  0  0  0
  -22.0460  -12.8241   22.0419 N   0  0  0  0  0  0
  -25.4166  -15.1982   20.4145 N   0  0  0  0  0  0
  -31.8496  -14.6027   20.0600 O   0  0  0  0  0  0
  -21.6670   -6.8903   21.4254 O   0  0  0  0  0  0
  -22.3508  -14.5533   20.6697 O   0  0  0  0  0  0
  -24.6200  -31.8661   23.2079 C   0  0  0  0  0  0
  -25.9092  -32.4807   23.8407 C   0  0  1  0  0  0
  -27.2031  -27.3708   20.0970 C   0  0  0  0  0  0
  -25.5906  -33.8607   24.2319 N   0  0  0  0  0  0
  -23.4091  -30.4969   21.5490 C   0  0  2  0  0  0
  -24.8449  -28.9565   20.1178 C   0  0  0  0  0  0
  -22.7432  -29.4698   22.4939 C   0  0  0  0  0  0
  -18.0291  -28.1384   22.8475 C   0  0  0  0  0  0
  -24.1482  -36.7305   23.2638 C   0  0  0  0  0  0
  -25.9505  -30.8078   21.3795 C   0  0  0  0  0  0
  -26.0136  -29.4419   20.7198 C   0  0  0  0  0  0
  -27.1891  -28.6502   20.7184 C   0  0  0  0  0  0
  -26.0128  -26.9271   19.4757 C   0  0  0  0  0  0
  -24.8399  -27.6991   19.5005 C   0  0  0  0  0  0
  -23.6159  -29.8351   20.1637 C   0  0  0  0  0  0
  -25.4116  -36.3109   24.0330 C   0  0  1  0  0  0
  -20.5865  -28.3694   23.1259 C   0  0  2  0  0  0
  -20.6766  -26.9408   22.5392 C   0  0  0  0  0  0
  -19.5743  -26.6374   21.5200 C   0  0  0  0  0  0
  -18.1930  -26.7936   22.1615 C   0  0  0  0  0  0
  -19.1533  -28.8855   23.2874 C   0  0  0  0  0  0
  -18.9465  -30.1442   23.8904 C   0  0  0  0  0  0
  -17.6469  -30.6578   24.0556 C   0  0  0  0  0  0
  -25.9032  -34.9475   23.5128 C   0  0  0  0  0  0
  -16.5359  -29.9064   23.6321 C   0  0  0  0  0  0
  -16.7280  -28.6474   23.0363 C   0  0  0  0  0  0
  -26.4466  -31.6613   25.0759 C   0  0  0  0  0  0
  -25.3685  -31.3756   26.1467 C   0  0  0  0  0  0
  -27.0310  -30.3035   24.6235 C   0  0  0  0  0  0
  -27.6009  -32.4352   25.7532 C   0  0  0  0  0  0
  -27.5602  -37.1809   24.8468 C   0  0  0  0  0  0
  -21.4158  -29.3073   22.3660 N   0  0  0  0  0  0
  -26.4318  -37.3793   23.9395 N   0  0  0  0  0  0
  -24.6787  -31.0730   22.1013 N   0  0  0  0  0  0
  -23.4157  -28.8249   23.3021 O   0  0  0  0  0  0
  -28.3429  -26.5770   20.1554 O   0  0  0  0  0  0
  -26.5614  -34.8914   22.4698 O   0  0  0  0  0  0
  -23.5366  -32.1472   23.7392 O   0  0  0  0  0  0
  -29.3735  -19.2210   20.1265 C   0  0  0  0  0  0
  -29.9589  -18.2806   21.0426 C   0  0  0  0  0  0
  -30.2344  -18.8388   22.2730 C   0  0  0  0  0  0
  -29.2156  -20.4895   20.6509 C   0  0  0  0  0  0
  -30.3597  -16.9108   20.6002 C   0  0  0  0  0  0
  -30.0515  -15.6893   21.1142 C   0  0  0  0  0  0
  -30.9606  -18.3183   23.4422 C   0  0  0  0  0  0
  -30.8027  -19.0126   24.7945 C   0  0  0  0  0  0
  -29.0790  -23.0203   20.3086 C   0  0  0  0  0  0
  -28.5171  -25.4702   19.2292 C   0  0  0  0  0  0
  -28.0923  -23.9913   19.5910 C   0  0  2  0  0  0
  -28.7024  -21.6261   19.9893 N   0  0  0  0  0  0
  -26.7720  -23.8548   20.2331 N   0  3  0  0  0  0
  -31.7133  -17.3444   23.3642 O   0  0  0  0  0  0
  -29.7406  -20.5276   22.3186 S   0  0  0  0  0  0
  -31.4648  -12.3785   19.1700 H   0  0  0  0  0  0
  -30.2761  -11.3101   19.8549 H   0  0  0  0  0  0
  -29.7606  -11.8305   17.4365 H   0  0  0  0  0  0
  -29.7010  -13.5342   17.8180 H   0  0  0  0  0  0
  -27.8174  -11.3518   18.7881 H   0  0  0  0  0  0
  -27.3957  -12.7151   17.7805 H   0  0  0  0  0  0
  -27.6951  -14.2882   19.5983 H   0  0  0  0  0  0
  -28.6676  -12.0066   21.3701 H   0  0  0  0  0  0
  -28.4489  -13.6540   21.8724 H   0  0  0  0  0  0
  -25.2796   -9.5697   22.4800 H   0  0  0  0  0  0
  -24.0061   -7.4627   22.7435 H   0  0  0  0  0  0
  -21.0887   -8.8829   19.8929 H   0  0  0  0  0  0
  -22.3793  -10.9713   19.6168 H   0  0  0  0  0  0
  -21.2045   -7.6158   23.9758 H   0  0  0  0  0  0
  -21.1512   -6.0502   25.9100 H   0  0  0  0  0  0
  -22.0581   -2.7601   23.2820 H   0  0  0  0  0  0
  -22.4018  -11.9910   22.4883 H   0  0  0  0  0  0
  -21.1060  -13.1249   22.2566 H   0  0  0  0  0  0
  -24.6478  -15.8481   20.5358 H   0  0  0  0  0  0
  -26.2806  -15.6532   20.1483 H   0  0  0  0  0  0
  -26.7162  -32.5468   23.1158 H   0  0  0  0  0  0
  -25.0051  -33.9783   25.0464 H   0  0  0  0  0  0
  -22.7034  -31.3194   21.4088 H   0  0  0  0  0  0
  -23.3746  -35.9629   23.3310 H   0  0  0  0  0  0
  -24.3591  -36.8917   22.2048 H   0  0  0  0  0  0
  -23.7220  -37.6506   23.6652 H   0  0  0  0  0  0
  -26.0926  -31.5751   20.6169 H   0  0  0  0  0  0
  -26.8293  -30.8420   22.0119 H   0  0  0  0  0  0
  -28.0841  -29.0134   21.2036 H   0  0  0  0  0  0
  -25.9364  -25.9764   18.9758 H   0  0  0  0  0  0
  -23.9379  -27.3152   19.0413 H   0  0  0  0  0  0
  -23.7284  -30.6101   19.4066 H   0  0  0  0  0  0
  -22.7381  -29.2583   19.8641 H   0  0  0  0  0  0
  -25.1286  -36.1999   25.0828 H   0  0  0  0  0  0
  -20.9986  -28.3277   24.1360 H   0  0  0  0  0  0
  -20.5630  -26.2321   23.3591 H   0  0  0  0  0  0
  -21.6637  -26.7424   22.1194 H   0  0  0  0  0  0
  -19.6893  -25.6271   21.1238 H   0  0  0  0  0  0
  -19.6686  -27.3152   20.6685 H   0  0  0  0  0  0
  -17.4194  -26.6684   21.4012 H   0  0  0  0  0  0
  -18.0336  -26.0062   22.8990 H   0  0  0  0  0  0
  -19.7949  -30.7238   24.2262 H   0  0  0  0  0  0
  -17.5038  -31.6250   24.5164 H   0  0  0  0  0  0
  -15.5357  -30.2982   23.7632 H   0  0  0  0  0  0
  -15.8696  -28.0785   22.7113 H   0  0  0  0  0  0
  -24.5816  -30.7165   25.7799 H   0  0  0  0  0  0
  -24.8894  -32.2903   26.4951 H   0  0  0  0  0  0
  -25.7951  -30.8876   27.0238 H   0  0  0  0  0  0
  -26.2895  -29.6784   24.1220 H   0  0  0  0  0  0
  -27.3977  -29.7303   25.4783 H   0  0  0  0  0  0
  -27.8795  -30.4350   23.9501 H   0  0  0  0  0  0
  -27.2609  -33.3640   26.2140 H   0  0  0  0  0  0
  -28.3779  -32.6955   25.0329 H   0  0  0  0  0  0
  -28.0721  -31.8470   26.5420 H   0  0  0  0  0  0
  -28.2600  -38.0124   24.7513 H   0  0  0  0  0  0
  -28.1108  -36.2646   24.6285 H   0  0  0  0  0  0
  -27.2307  -37.1436   25.8869 H   0  0  0  0  0  0
  -20.9324  -29.8781   21.6877 H   0  0  0  0  0  0
  -26.0205  -38.2882   24.1369 H   0  0  0  0  0  0
  -29.1327  -18.9299   19.1123 H   0  0  0  0  0  0
  -31.0460  -16.9301   19.7656 H   0  0  0  0  0  0
  -29.3630  -15.6062   21.9380 H   0  0  0  0  0  0
  -31.2265  -20.0168   24.7811 H   0  0  0  0  0  0
  -31.3147  -18.4404   25.5698 H   0  0  0  0  0  0
  -29.7524  -19.0952   25.0741 H   0  0  0  0  0  0
  -29.0690  -23.1901   21.3890 H   0  0  0  0  0  0
  -30.0969  -23.2092   19.9618 H   0  0  0  0  0  0
  -28.0462  -25.7341   18.2810 H   0  0  0  0  0  0
  -29.5802  -25.4459   18.9875 H   0  0  0  0  0  0
  -27.9642  -23.5470   18.6023 H   0  0  0  0  0  0
  -28.4776  -21.4793   19.0033 H   0  0  0  0  0  0
  -26.6803  -24.4474   21.0432 H   0  0  0  0  0  0
  -26.7134  -22.8960   20.5363 H   0  0  0  0  0  0
  -26.0180  -24.0268   19.5907 H   0  0  0  0  0  0
  1 25  1  0  0  0
  1 30  2  0  0  0
  1 76  1  0  0  0
  2  3  1  0  0  0
  2 25  1  0  0  0
  2 86  1  0  0  0
  2 87  1  0  0  0
  3  4  1  0  0  0
  3 88  1  0  0  0
  3 89  1  0  0  0
  4  5  1  0  0  0
  4 90  1  0  0  0
  4 91  1  0  0  0
  5  6  1  0  0  0
  5 26  1  0  0  0
  5 92  1  0  0  0
  6 25  1  0  0  0
  6 93  1  0  0  0
  6 94  1  0  0  0
  7  8  2  0  0  0
  7 26  1  0  0  0
  7 29  1  0  0  0
  8  9  1  0  0  0
  8 22  1  0  0  0
  9 10  1  0  0  0
  9 27  2  0  0  0
 10 11  2  0  0  0
 10 15  1  0  0  0
 11 12  1  0  0  0
 11 95  1  0  0  0
 12 13  2  0  0  0
 12 96  1  0  0  0
 13 14  1  0  0  0
 13 31  1  0  0  0
 14 15  2  0  0  0
 14 97  1  0  0  0
 15 98  1  0  0  0
 16 17  2  0  0  0
 16 21  1  0  0  0
 16 31  1  0  0  0
 17 18  1  0  0  0
 17 99  1  0  0  0
 18 19  2  0  0  0
 18100  1  0  0  0
 19 20  1  0  0  0
 19 24  1  0  0  0
 20 21  2  0  0  0
 20101  1  0  0  0
 21 23  1  0  0  0
 22 28  1  0  0  0
 22 32  2  0  0  0
 26 27  1  0  0  0
 28102  1  0  0  0
 28103  1  0  0  0
 29104  1  0  0  0
 29105  1  0  0  0
 33 34  1  0  0  0
 33 66  1  0  0  0
 33 70  2  0  0  0
 34 36  1  0  0  0
 34 59  1  0  0  0
 34106  1  0  0  0
 35 44  2  0  0  0
 35 45  1  0  0  0
 35 68  1  0  0  0
 36 56  1  0  0  0
 36107  1  0  0  0
 37 39  1  0  0  0
 37 47  1  0  0  0
 37 66  1  0  0  0
 37108  1  0  0  0
 38 43  2  0  0  0
 38 46  1  0  0  0
 38 47  1  0  0  0
 39 64  1  0  0  0
 39 67  2  0  0  0
 40 52  1  0  0  0
 40 53  2  0  0  0
 40 58  1  0  0  0
 41109  1  0  0  0
 41110  1  0  0  0
 41111  1  0  0  0
 41 48  1  0  0  0
 42 43  1  0  0  0
 42 66  1  0  0  0
 42112  1  0  0  0
 42113  1  0  0  0
 43 44  1  0  0  0
 44114  1  0  0  0
 45 46  2  0  0  0
 45115  1  0  0  0
 46116  1  0  0  0
 47117  1  0  0  0
 47118  1  0  0  0
 48 56  1  0  0  0
 48 65  1  0  0  0
 48119  1  0  0  0
 49 50  1  0  0  0
 49 53  1  0  0  0
 49 64  1  0  0  0
 49120  1  0  0  0
 50 51  1  0  0  0
 50121  1  0  0  0
 50122  1  0  0  0
 51 52  1  0  0  0
 51123  1  0  0  0
 51124  1  0  0  0
 52125  1  0  0  0
 52126  1  0  0  0
 53 54  1  0  0  0
 54 55  2  0  0  0
 54127  1  0  0  0
 55 57  1  0  0  0
 55128  1  0  0  0
 56 69  2  0  0  0
 57 58  2  0  0  0
 57129  1  0  0  0
 58130  1  0  0  0
 59 60  1  0  0  0
 59 61  1  0  0  0
 59 62  1  0  0  0
 60131  1  0  0  0
 60132  1  0  0  0
 60133  1  0  0  0
 61134  1  0  0  0
 61135  1  0  0  0
 61136  1  0  0  0
 62137  1  0  0  0
 62138  1  0  0  0
 62139  1  0  0  0
 63 65  1  0  0  0
 63140  1  0  0  0
 63141  1  0  0  0
 63142  1  0  0  0
 64143  1  0  0  0
 65144  1  0  0  0
 68 80  1  0  0  0
 71 72  1  0  0  0
 71 74  2  0  0  0
 71145  1  0  0  0
 72 73  2  0  0  0
 72 75  1  0  0  0
 73 77  1  0  0  0
 73 85  1  0  0  0
 74 82  1  0  0  0
 74 85  1  0  0  0
 75 76  2  0  0  0
 75146  1  0  0  0
 76147  1  0  0  0
 77 78  1  0  0  0
 77 84  2  0  0  0
 78148  1  0  0  0
 78149  1  0  0  0
 78150  1  0  0  0
 79 81  1  0  0  0
 79 82  1  0  0  0
 79151  1  0  0  0
 79152  1  0  0  0
 80 81  1  0  0  0
 80153  1  0  0  0
 80154  1  0  0  0
 81 83  1  0  0  0
 81155  1  0  0  0
 82156  1  0  0  0
 83157  1  0  0  0
 83158  1  0  0  0
 83159  1  0  0  0
M  CHG  1  83   1
M  ISO  4   1 100  68 101  76 100  80 101
M  END
> <chiral flag>
0

> <version>
0

> <s_m_source_file>
/data/baiqing/PycharmProjects/Reinvent-master-3.2/result/LINK_invent/BTK/process_docking_weight1_custom_product_contain_oxygen_bond_distance_aromatic_linkinvent_7_9_3/rearranged_h_0157.sdf

> <i_m_source_file_index>
49

> <r_mmod_Potential_Energy-OPLS-2005>
-203.672164916992

> <r_mmod_Stretch_Energy-OPLS-2005>
48.3642272949219

> <r_mmod_Bend_Energy-OPLS-2005>
145.675796508789

> <r_mmod_Torsional_Energy-OPLS-2005>
240.7265625

> <r_mmod_Improper_Torsional_Energy-OPLS-2005>
6.81277132034302

> <r_mmod_Van_der_Waal_Energy-OPLS-2005>
136.083923339844

> <r_mmod_Electrostatic_Energy-OPLS-2005>
-335.097961425781

> <r_mmod_Solvation_Energy-OPLS-2005>
-470.899322509766

> <b_mmod_Minimization_Converged-OPLS-2005>
0

> <r_mmod_RMS_Derivative-OPLS-2005>
5.95541954040527

$$$$
49
                    3D
 Structure written by MMmdl.
154163  0  0  1  0            999 V2000
  -30.5813  -14.7792   20.3912 C   0  0  0  0  0  0
  -30.4319  -12.4650   19.4708 C   0  0  0  0  0  0
  -29.5128  -12.5230   18.2298 C   0  0  0  0  0  0
  -28.0371  -12.3379   18.6409 C   0  0  0  0  0  0
  -27.6399  -13.2348   19.8448 C   0  0  2  0  0  0
  -28.6854  -13.1838   20.9800 C   0  0  0  0  0  0
  -25.2486  -13.8200   20.5660 C   0  0  0  0  0  0
  -24.1782  -13.0455   20.9184 C   0  0  0  0  0  0
  -24.6388  -11.6932   20.8732 C   0  0  0  0  0  0
  -23.9069  -10.4305   21.0408 C   0  0  0  0  0  0
  -24.3629   -9.4227   21.9179 C   0  0  0  0  0  0
  -23.6304   -8.2259   22.0768 C   0  0  0  0  0  0
  -22.4279   -8.0290   21.3558 C   0  0  0  0  0  0
  -21.9904   -9.0257   20.4665 C   0  0  0  0  0  0
  -22.7240  -10.2134   20.3063 C   0  0  0  0  0  0
  -21.6853   -6.0734   22.5278 C   0  0  0  0  0  0
  -21.4027   -6.5645   23.8208 C   0  0  0  0  0  0
  -21.3672   -5.6793   24.9173 C   0  0  0  0  0  0
  -21.6037   -4.3053   24.7224 C   0  0  0  0  0  0
  -21.8810   -3.8151   23.4345 C   0  0  0  0  0  0
  -21.9192   -4.6969   22.3402 C   0  0  0  0  0  0
  -22.7805  -13.5233   21.1849 C   0  0  0  0  0  0
  -22.1649   -4.2166   21.0980 F   0  0  0  0  0  0
  -21.5635   -3.4534   25.7741 F   0  0  0  0  0  0
  -29.9859  -13.5348   20.3948 N   0  0  0  0  0  0
  -26.2921  -12.9420   20.3240 N   0  0  0  0  0  0
  -25.9311  -11.6558   20.5707 N   0  0  0  0  0  0
  -22.0445  -12.8235   22.0425 N   0  0  0  0  0  0
  -25.4122  -15.1927   20.4059 N   0  0  0  0  0  0
  -31.7803  -14.8695   20.1130 O   0  0  0  0  0  0
  -21.6652   -6.8875   21.4241 O   0  0  0  0  0  0
  -22.3483  -14.5535   20.6697 O   0  0  0  0  0  0
  -24.6310  -31.8533   23.1940 C   0  0  0  0  0  0
  -25.9134  -32.4736   23.8306 C   0  0  1  0  0  0
  -27.2232  -27.2525   20.1391 C   0  0  0  0  0  0
  -25.5935  -33.8540   24.2237 N   0  0  0  0  0  0
  -23.4289  -30.4703   21.5394 C   0  0  2  0  0  0
  -24.8760  -28.9049   20.1203 C   0  0  0  0  0  0
  -22.7515  -29.4571   22.4936 C   0  0  0  0  0  0
  -18.0287  -28.1388   22.8469 C   0  0  0  0  0  0
  -24.1495  -36.7294   23.2636 C   0  0  0  0  0  0
  -25.9729  -30.7630   21.3717 C   0  0  0  0  0  0
  -26.0481  -29.3794   20.7249 C   0  0  0  0  0  0
  -27.2276  -28.5671   20.7185 C   0  0  0  0  0  0
  -26.0298  -26.8349   19.5207 C   0  0  0  0  0  0
  -24.8718  -27.6415   19.5069 C   0  0  0  0  0  0
  -23.6492  -29.7956   20.1596 C   0  0  0  0  0  0
  -25.4113  -36.3059   24.0323 C   0  0  1  0  0  0
  -20.5886  -28.3689   23.1289 C   0  0  2  0  0  0
  -20.6775  -26.9409   22.5413 C   0  0  0  0  0  0
  -19.5751  -26.6386   21.5211 C   0  0  0  0  0  0
  -18.1931  -26.7927   22.1621 C   0  0  0  0  0  0
  -19.1535  -28.8857   23.2874 C   0  0  0  0  0  0
  -18.9465  -30.1458   23.8890 C   0  0  0  0  0  0
  -17.6462  -30.6578   24.0571 C   0  0  0  0  0  0
  -25.9055  -34.9429   23.5086 C   0  0  0  0  0  0
  -16.5359  -29.9079   23.6320 C   0  0  0  0  0  0
  -16.7274  -28.6507   23.0326 C   0  0  0  0  0  0
  -26.4495  -31.6566   25.0700 C   0  0  0  0  0  0
  -25.3714  -31.3727   26.1422 C   0  0  0  0  0  0
  -27.0339  -30.2989   24.6170 C   0  0  0  0  0  0
  -27.6040  -32.4305   25.7473 C   0  0  0  0  0  0
  -27.5590  -37.1789   24.8451 C   0  0  0  0  0  0
  -21.4213  -29.3036   22.3688 N   0  0  0  0  0  0
  -26.4281  -37.3771   23.9414 N   0  0  0  0  0  0
  -24.6970  -31.0477   22.0919 N   0  0  0  0  0  0
  -23.4214  -28.8109   23.3034 O   0  0  0  0  0  0
  -28.3354  -26.3873   20.0788 O   0  0  0  0  0  0
  -26.5637  -34.8916   22.4662 O   0  0  0  0  0  0
  -23.5466  -32.1359   23.7238 O   0  0  0  0  0  0
  -30.5621  -17.7444   18.9206 C   0  0  0  0  0  0
  -29.8950  -17.3274   20.0692 C   0  0  0  0  0  0
  -29.4192  -19.6880   20.0861 C   0  0  0  0  0  0
  -28.3103  -23.6702   19.9855 C   0  0  0  0  0  0
  -32.6025  -17.2400   17.3050 C   0  0  0  0  0  0
  -31.3961  -17.4687   16.4242 C   0  0  0  0  0  0
  -31.2195  -16.9300   17.8321 C   0  0  0  0  0  0
  -29.2843  -22.4430   20.3652 C   0  0  0  0  0  0
  -28.3273  -25.0637   20.7978 C   0  0  0  0  0  0
  -29.1936  -18.4579   20.6574 N   0  0  0  0  0  0
  -29.7638  -15.9065   20.5203 N   0  0  0  0  0  0
  -28.8411  -20.9800   20.4105 N   0  0  0  0  0  0
  -27.5113  -23.5196   19.0560 O   0  0  0  0  0  0
  -30.5396  -19.5105   18.7480 S   0  0  0  0  0  0
  -31.4794  -12.5779   19.1812 H   0  0  0  0  0  0
  -30.3606  -11.4884   19.9542 H   0  0  0  0  0  0
  -29.8013  -11.7609   17.5044 H   0  0  0  0  0  0
  -29.6331  -13.4840   17.7255 H   0  0  0  0  0  0
  -27.8893  -11.2861   18.8917 H   0  0  0  0  0  0
  -27.3827  -12.5407   17.7931 H   0  0  0  0  0  0
  -27.6256  -14.2542   19.4567 H   0  0  0  0  0  0
  -28.7208  -12.1928   21.4356 H   0  0  0  0  0  0
  -28.4222  -13.8763   21.7824 H   0  0  0  0  0  0
  -25.2779   -9.5709   22.4745 H   0  0  0  0  0  0
  -24.0028   -7.4639   22.7466 H   0  0  0  0  0  0
  -21.0837   -8.8769   19.8955 H   0  0  0  0  0  0
  -22.3698  -10.9663   19.6175 H   0  0  0  0  0  0
  -21.2034   -7.6154   23.9725 H   0  0  0  0  0  0
  -21.1498   -6.0525   25.9076 H   0  0  0  0  0  0
  -22.0582   -2.7616   23.2835 H   0  0  0  0  0  0
  -22.4071  -11.9936   22.4855 H   0  0  0  0  0  0
  -21.1054  -13.1238   22.2605 H   0  0  0  0  0  0
  -24.6310  -15.8321   20.5111 H   0  0  0  0  0  0
  -26.2426  -15.6413   20.0437 H   0  0  0  0  0  0
  -26.7205  -32.5381   23.1051 H   0  0  0  0  0  0
  -25.0091  -33.9682   25.0390 H   0  0  0  0  0  0
  -22.7236  -31.2898   21.3870 H   0  0  0  0  0  0
  -23.3758  -35.9627   23.3253 H   0  0  0  0  0  0
  -24.3610  -36.8961   22.2065 H   0  0  0  0  0  0
  -23.7250  -37.6480   23.6692 H   0  0  0  0  0  0
  -26.1042  -31.5179   20.5952 H   0  0  0  0  0  0
  -26.8542  -30.8240   21.9984 H   0  0  0  0  0  0
  -28.1297  -28.9338   21.1878 H   0  0  0  0  0  0
  -25.9928  -25.8650   19.0438 H   0  0  0  0  0  0
  -23.9763  -27.2708   19.0268 H   0  0  0  0  0  0
  -23.7816  -30.5652   19.3986 H   0  0  0  0  0  0
  -22.7681  -29.2287   19.8536 H   0  0  0  0  0  0
  -25.1286  -36.1892   25.0814 H   0  0  0  0  0  0
  -20.9961  -28.3259   24.1420 H   0  0  0  0  0  0
  -20.5674  -26.2296   23.3613 H   0  0  0  0  0  0
  -21.6648  -26.7434   22.1214 H   0  0  0  0  0  0
  -19.6917  -25.6295   21.1246 H   0  0  0  0  0  0
  -19.6689  -27.3195   20.6736 H   0  0  0  0  0  0
  -17.4199  -26.6662   21.4032 H   0  0  0  0  0  0
  -18.0333  -26.0083   22.9028 H   0  0  0  0  0  0
  -19.7940  -30.7273   24.2272 H   0  0  0  0  0  0
  -17.5011  -31.6246   24.5186 H   0  0  0  0  0  0
  -15.5355  -30.2982   23.7641 H   0  0  0  0  0  0
  -15.8679  -28.0835   22.7026 H   0  0  0  0  0  0
  -24.5861  -30.7109   25.7749 H   0  0  0  0  0  0
  -24.8950  -32.2916   26.4855 H   0  0  0  0  0  0
  -25.8033  -30.8886   27.0191 H   0  0  0  0  0  0
  -26.2929  -29.6717   24.1208 H   0  0  0  0  0  0
  -27.4055  -29.7251   25.4666 H   0  0  0  0  0  0
  -27.8779  -30.4265   23.9390 H   0  0  0  0  0  0
  -27.2641  -33.3597   26.2048 H   0  0  0  0  0  0
  -28.3855  -32.6870   25.0310 H   0  0  0  0  0  0
  -28.0703  -31.8437   26.5390 H   0  0  0  0  0  0
  -28.2547  -38.0142   24.7556 H   0  0  0  0  0  0
  -28.1147  -36.2680   24.6180 H   0  0  0  0  0  0
  -27.2335  -37.1315   25.8857 H   0  0  0  0  0  0
  -20.9409  -29.8791   21.6916 H   0  0  0  0  0  0
  -26.0149  -38.2835   24.1442 H   0  0  0  0  0  0
  -33.1157  -18.1176   17.6928 H   0  0  0  0  0  0
  -33.2522  -16.4096   17.0342 H   0  0  0  0  0  0
  -31.2344  -16.7736   15.6014 H   0  0  0  0  0  0
  -31.1319  -18.5019   16.2011 H   0  0  0  0  0  0
  -30.9179  -15.8870   17.8768 H   0  0  0  0  0  0
  -29.7280  -22.6793   21.3323 H   0  0  0  0  0  0
  -30.1101  -22.4998   19.6546 H   0  0  0  0  0  0
  -29.2162  -25.0472   21.4285 H   0  0  0  0  0  0
  -27.4829  -25.0490   21.4880 H   0  0  0  0  0  0
  -28.8654  -15.6931   20.9259 H   0  0  0  0  0  0
  -28.0070  -20.8751   20.9791 H   0  0  0  0  0  0
  1 25  1  0  0  0
  1 30  2  0  0  0
  1 81  1  0  0  0
  2  3  1  0  0  0
  2 25  1  0  0  0
  2 85  1  0  0  0
  2 86  1  0  0  0
  3  4  1  0  0  0
  3 87  1  0  0  0
  3 88  1  0  0  0
  4  5  1  0  0  0
  4 89  1  0  0  0
  4 90  1  0  0  0
  5  6  1  0  0  0
  5 26  1  0  0  0
  5 91  1  0  0  0
  6 25  1  0  0  0
  6 92  1  0  0  0
  6 93  1  0  0  0
  7  8  2  0  0  0
  7 26  1  0  0  0
  7 29  1  0  0  0
  8  9  1  0  0  0
  8 22  1  0  0  0
  9 10  1  0  0  0
  9 27  2  0  0  0
 10 11  2  0  0  0
 10 15  1  0  0  0
 11 12  1  0  0  0
 11 94  1  0  0  0
 12 13  2  0  0  0
 12 95  1  0  0  0
 13 14  1  0  0  0
 13 31  1  0  0  0
 14 15  2  0  0  0
 14 96  1  0  0  0
 15 97  1  0  0  0
 16 17  2  0  0  0
 16 21  1  0  0  0
 16 31  1  0  0  0
 17 18  1  0  0  0
 17 98  1  0  0  0
 18 19  2  0  0  0
 18 99  1  0  0  0
 19 20  1  0  0  0
 19 24  1  0  0  0
 20 21  2  0  0  0
 20100  1  0  0  0
 21 23  1  0  0  0
 22 28  1  0  0  0
 22 32  2  0  0  0
 26 27  1  0  0  0
 28101  1  0  0  0
 28102  1  0  0  0
 29103  1  0  0  0
 29104  1  0  0  0
 33 34  1  0  0  0
 33 66  1  0  0  0
 33 70  2  0  0  0
 34 36  1  0  0  0
 34 59  1  0  0  0
 34105  1  0  0  0
 35 44  2  0  0  0
 35 45  1  0  0  0
 35 68  1  0  0  0
 36 56  1  0  0  0
 36106  1  0  0  0
 37 39  1  0  0  0
 37 47  1  0  0  0
 37 66  1  0  0  0
 37107  1  0  0  0
 38 43  2  0  0  0
 38 46  1  0  0  0
 38 47  1  0  0  0
 39 64  1  0  0  0
 39 67  2  0  0  0
 40 52  1  0  0  0
 40 53  2  0  0  0
 40 58  1  0  0  0
 41108  1  0  0  0
 41109  1  0  0  0
 41110  1  0  0  0
 41 48  1  0  0  0
 42 43  1  0  0  0
 42 66  1  0  0  0
 42111  1  0  0  0
 42112  1  0  0  0
 43 44  1  0  0  0
 44113  1  0  0  0
 45 46  2  0  0  0
 45114  1  0  0  0
 46115  1  0  0  0
 47116  1  0  0  0
 47117  1  0  0  0
 48 56  1  0  0  0
 48 65  1  0  0  0
 48118  1  0  0  0
 49 50  1  0  0  0
 49 53  1  0  0  0
 49 64  1  0  0  0
 49119  1  0  0  0
 50 51  1  0  0  0
 50120  1  0  0  0
 50121  1  0  0  0
 51 52  1  0  0  0
 51122  1  0  0  0
 51123  1  0  0  0
 52124  1  0  0  0
 52125  1  0  0  0
 53 54  1  0  0  0
 54 55  2  0  0  0
 54126  1  0  0  0
 55 57  1  0  0  0
 55127  1  0  0  0
 56 69  2  0  0  0
 57 58  2  0  0  0
 57128  1  0  0  0
 58129  1  0  0  0
 59 60  1  0  0  0
 59 61  1  0  0  0
 59 62  1  0  0  0
 60130  1  0  0  0
 60131  1  0  0  0
 60132  1  0  0  0
 61133  1  0  0  0
 61134  1  0  0  0
 61135  1  0  0  0
 62136  1  0  0  0
 62137  1  0  0  0
 62138  1  0  0  0
 63 65  1  0  0  0
 63139  1  0  0  0
 63140  1  0  0  0
 63141  1  0  0  0
 64142  1  0  0  0
 65143  1  0  0  0
 68 79  1  0  0  0
 71 72  2  0  0  0
 71 84  1  0  0  0
 71 77  1  0  0  0
 72 80  1  0  0  0
 72 81  1  0  0  0
 73 80  2  0  0  0
 73 82  1  0  0  0
 73 84  1  0  0  0
 74 78  1  0  0  0
 74 79  1  0  0  0
 74 83  2  0  0  0
 75 76  1  0  0  0
 75 77  1  0  0  0
 75144  1  0  0  0
 75145  1  0  0  0
 76 77  1  0  0  0
 76146  1  0  0  0
 76147  1  0  0  0
 77148  1  0  0  0
 78 82  1  0  0  0
 78149  1  0  0  0
 78150  1  0  0  0
 79151  1  0  0  0
 79152  1  0  0  0
 81153  1  0  0  0
 82154  1  0  0  0
M  ISO  4   1 100  68 101  79 101  81 100
M  END
> <chiral flag>
0

> <version>
0

> <s_m_source_file>
/data/baiqing/PycharmProjects/Reinvent-master-3.2/result/LINK_invent/BTK/process_docking_weight1_custom_product_contain_oxygen_bond_distance_aromatic_linkinvent_7_9_3/rearranged_h_0157.sdf

> <i_m_source_file_index>
50

> <r_mmod_Potential_Energy-OPLS-2005>
159.969360351562

> <r_mmod_Stretch_Energy-OPLS-2005>
129.182647705078

> <r_mmod_Bend_Energy-OPLS-2005>
175.6572265625

> <r_mmod_Torsional_Energy-OPLS-2005>
258.686279296875

> <r_mmod_Improper_Torsional_Energy-OPLS-2005>
6.07511281967163

> <r_mmod_Van_der_Waal_Energy-OPLS-2005>
106.010475158691

> <r_mmod_Electrostatic_Energy-OPLS-2005>
-367.689270019531

> <r_mmod_Solvation_Energy-OPLS-2005>
-241.053848266602

> <b_mmod_Minimization_Converged-OPLS-2005>
0

> <r_mmod_RMS_Derivative-OPLS-2005>
3.23740363121033

$$$$
50
                    3D
 Structure written by MMmdl.
158167  0  0  1  0            999 V2000
  -30.6799  -14.6168   20.4164 C   0  0  0  0  0  0
  -30.4296  -12.3640   19.4634 C   0  0  0  0  0  0
  -29.5145  -12.4789   18.2280 C   0  0  0  0  0  0
  -28.0319  -12.3413   18.6354 C   0  0  0  0  0  0
  -27.6524  -13.2229   19.8600 C   0  0  2  0  0  0
  -28.7045  -13.1183   20.9909 C   0  0  0  0  0  0
  -25.2550  -13.8163   20.5750 C   0  0  0  0  0  0
  -24.1839  -13.0422   20.9229 C   0  0  0  0  0  0
  -24.6405  -11.6886   20.8782 C   0  0  0  0  0  0
  -23.9052  -10.4273   21.0428 C   0  0  0  0  0  0
  -24.3587   -9.4180   21.9193 C   0  0  0  0  0  0
  -23.6279   -8.2209   22.0757 C   0  0  0  0  0  0
  -22.4257   -8.0256   21.3563 C   0  0  0  0  0  0
  -21.9898   -9.0219   20.4661 C   0  0  0  0  0  0
  -22.7223  -10.2101   20.3083 C   0  0  0  0  0  0
  -21.6835   -6.0751   22.5291 C   0  0  0  0  0  0
  -21.4013   -6.5649   23.8226 C   0  0  0  0  0  0
  -21.3655   -5.6806   24.9185 C   0  0  0  0  0  0
  -21.6033   -4.3063   24.7253 C   0  0  0  0  0  0
  -21.8793   -3.8175   23.4372 C   0  0  0  0  0  0
  -21.9171   -4.6992   22.3430 C   0  0  0  0  0  0
  -22.7841  -13.5211   21.1865 C   0  0  0  0  0  0
  -22.1640   -4.2196   21.1008 F   0  0  0  0  0  0
  -21.5631   -3.4525   25.7750 F   0  0  0  0  0  0
  -30.0204  -13.4184   20.4051 N   0  0  0  0  0  0
  -26.3001  -12.9362   20.3384 N   0  0  0  0  0  0
  -25.9356  -11.6506   20.5838 N   0  0  0  0  0  0
  -22.0479  -12.8234   22.0445 N   0  0  0  0  0  0
  -25.4221  -15.1889   20.4113 N   0  0  0  0  0  0
  -31.8757  -14.6799   20.1196 O   0  0  0  0  0  0
  -21.6603   -6.8873   21.4259 O   0  0  0  0  0  0
  -22.3514  -14.5506   20.6674 O   0  0  0  0  0  0
  -24.6259  -31.8638   23.2127 C   0  0  0  0  0  0
  -25.9124  -32.4804   23.8406 C   0  0  1  0  0  0
  -27.1808  -27.3430   20.0739 C   0  0  0  0  0  0
  -25.5963  -33.8598   24.2326 N   0  0  0  0  0  0
  -23.4104  -30.4957   21.5568 C   0  0  2  0  0  0
  -24.8438  -28.9642   20.1063 C   0  0  0  0  0  0
  -22.7439  -29.4645   22.4994 C   0  0  0  0  0  0
  -18.0286  -28.1375   22.8485 C   0  0  0  0  0  0
  -24.1467  -36.7291   23.2622 C   0  0  0  0  0  0
  -25.9563  -30.7935   21.3828 C   0  0  0  0  0  0
  -26.0188  -29.4277   20.7155 C   0  0  0  0  0  0
  -27.1958  -28.6248   20.6986 C   0  0  0  0  0  0
  -25.9945  -26.9438   19.4216 C   0  0  0  0  0  0
  -24.8318  -27.7258   19.4543 C   0  0  0  0  0  0
  -23.6167  -29.8480   20.1654 C   0  0  0  0  0  0
  -25.4094  -36.3099   24.0331 C   0  0  1  0  0  0
  -20.5880  -28.3676   23.1282 C   0  0  2  0  0  0
  -20.6774  -26.9397   22.5403 C   0  0  0  0  0  0
  -19.5740  -26.6380   21.5205 C   0  0  0  0  0  0
  -18.1929  -26.7914   22.1621 C   0  0  0  0  0  0
  -19.1530  -28.8842   23.2883 C   0  0  0  0  0  0
  -18.9453  -30.1458   23.8889 C   0  0  0  0  0  0
  -17.6468  -30.6599   24.0553 C   0  0  0  0  0  0
  -25.9053  -34.9449   23.5121 C   0  0  0  0  0  0
  -16.5354  -29.9090   23.6340 C   0  0  0  0  0  0
  -16.7267  -28.6506   23.0352 C   0  0  0  0  0  0
  -26.4498  -31.6608   25.0755 C   0  0  0  0  0  0
  -25.3763  -31.3746   26.1517 C   0  0  0  0  0  0
  -27.0340  -30.3022   24.6227 C   0  0  0  0  0  0
  -27.6083  -32.4329   25.7515 C   0  0  0  0  0  0
  -27.5596  -37.1784   24.8455 C   0  0  0  0  0  0
  -21.4173  -29.3040   22.3709 N   0  0  0  0  0  0
  -26.4278  -37.3817   23.9441 N   0  0  0  0  0  0
  -24.6833  -31.0672   22.1059 N   0  0  0  0  0  0
  -23.4202  -28.8152   23.3017 O   0  0  0  0  0  0
  -28.2702  -26.4720   20.0732 O   0  0  0  0  0  0
  -26.5609  -34.8931   22.4680 O   0  0  0  0  0  0
  -23.5423  -32.1435   23.7464 O   0  0  0  0  0  0
  -29.9095  -19.3694   19.6251 C   0  0  0  0  0  0
  -31.0598  -19.1435   18.8877 C   0  0  0  0  0  0
  -30.2156  -17.0689   19.9990 C   0  0  0  0  0  0
  -28.9036  -21.6095   18.5903 C   0  0  0  0  0  0
  -29.9301  -21.6290   20.8638 C   0  0  0  0  0  0
  -28.1813  -22.9692   18.8997 C   0  0  0  0  0  0
  -29.1671  -22.9397   21.2000 C   0  0  0  0  0  0
  -29.1896  -20.7275   19.8529 C   0  0  2  0  0  0
  -28.8532  -23.8673   19.9924 C   0  0  2  0  0  0
  -27.9590  -25.0878   20.4681 C   0  0  0  0  0  0
  -29.4596  -18.1652   20.2584 N   0  0  0  0  0  0
  -31.8611  -20.0594   18.2048 N   0  0  0  0  0  0
  -29.9325  -15.7496   20.5502 N   0  0  0  0  0  0
  -31.5389  -17.4578   18.8948 S   0  0  0  0  0  0
  -31.4734  -12.4543   19.1640 H   0  0  0  0  0  0
  -30.3463  -11.3847   19.9389 H   0  0  0  0  0  0
  -29.7857  -11.7147   17.4946 H   0  0  0  0  0  0
  -29.6758  -13.4440   17.7416 H   0  0  0  0  0  0
  -27.8626  -11.2878   18.8708 H   0  0  0  0  0  0
  -27.3833  -12.5670   17.7870 H   0  0  0  0  0  0
  -27.6473  -14.2550   19.5088 H   0  0  0  0  0  0
  -28.7130  -12.1212   21.4316 H   0  0  0  0  0  0
  -28.4772  -13.8066   21.8062 H   0  0  0  0  0  0
  -25.2751   -9.5633   22.4756 H   0  0  0  0  0  0
  -23.9985   -7.4593   22.7436 H   0  0  0  0  0  0
  -21.0840   -8.8696   19.8964 H   0  0  0  0  0  0
  -22.3683  -10.9604   19.6153 H   0  0  0  0  0  0
  -21.2007   -7.6148   23.9754 H   0  0  0  0  0  0
  -21.1515   -6.0544   25.9077 H   0  0  0  0  0  0
  -22.0601   -2.7663   23.2859 H   0  0  0  0  0  0
  -22.3997  -11.9843   22.4817 H   0  0  0  0  0  0
  -21.1072  -13.1279   22.2570 H   0  0  0  0  0  0
  -24.6531  -15.8437   20.5207 H   0  0  0  0  0  0
  -26.2560  -15.6283   20.0480 H   0  0  0  0  0  0
  -26.7186  -32.5434   23.1150 H   0  0  0  0  0  0
  -25.0173  -33.9775   25.0507 H   0  0  0  0  0  0
  -22.7046  -31.3195   21.4281 H   0  0  0  0  0  0
  -23.3801  -35.9561   23.3197 H   0  0  0  0  0  0
  -24.3595  -36.9007   22.2072 H   0  0  0  0  0  0
  -23.7148  -37.6414   23.6708 H   0  0  0  0  0  0
  -26.0950  -31.5635   20.6235 H   0  0  0  0  0  0
  -26.8338  -30.8290   22.0173 H   0  0  0  0  0  0
  -28.0947  -28.9638   21.1895 H   0  0  0  0  0  0
  -25.9436  -26.0166   18.8678 H   0  0  0  0  0  0
  -23.9382  -27.3802   18.9558 H   0  0  0  0  0  0
  -23.7362  -30.6363   19.4203 H   0  0  0  0  0  0
  -22.7301  -29.2902   19.8562 H   0  0  0  0  0  0
  -25.1274  -36.1942   25.0830 H   0  0  0  0  0  0
  -20.9962  -28.3229   24.1402 H   0  0  0  0  0  0
  -20.5670  -26.2281   23.3601 H   0  0  0  0  0  0
  -21.6638  -26.7434   22.1173 H   0  0  0  0  0  0
  -19.6895  -25.6289   21.1241 H   0  0  0  0  0  0
  -19.6679  -27.3187   20.6733 H   0  0  0  0  0  0
  -17.4192  -26.6670   21.4031 H   0  0  0  0  0  0
  -18.0315  -26.0060   22.9008 H   0  0  0  0  0  0
  -19.7936  -30.7274   24.2224 H   0  0  0  0  0  0
  -17.5014  -31.6263   24.5155 H   0  0  0  0  0  0
  -15.5334  -30.2984   23.7667 H   0  0  0  0  0  0
  -15.8660  -28.0815   22.7056 H   0  0  0  0  0  0
  -24.5902  -30.7126   25.7859 H   0  0  0  0  0  0
  -24.9008  -32.2914   26.5003 H   0  0  0  0  0  0
  -25.8099  -30.8871   27.0267 H   0  0  0  0  0  0
  -26.2903  -29.6771   24.1267 H   0  0  0  0  0  0
  -27.4037  -29.7276   25.4741 H   0  0  0  0  0  0
  -27.8790  -30.4293   23.9460 H   0  0  0  0  0  0
  -27.2730  -33.3679   26.2032 H   0  0  0  0  0  0
  -28.3930  -32.6807   25.0344 H   0  0  0  0  0  0
  -28.0716  -31.8486   26.5488 H   0  0  0  0  0  0
  -28.2525  -38.0162   24.7648 H   0  0  0  0  0  0
  -28.1175  -36.2720   24.6089 H   0  0  0  0  0  0
  -27.2344  -37.1195   25.8851 H   0  0  0  0  0  0
  -20.9344  -29.8808   21.6976 H   0  0  0  0  0  0
  -26.0142  -38.2860   24.1558 H   0  0  0  0  0  0
  -29.8315  -21.8279   18.0641 H   0  0  0  0  0  0
  -28.2985  -21.0401   17.8812 H   0  0  0  0  0  0
  -30.0756  -21.0681   21.7853 H   0  0  0  0  0  0
  -30.9264  -21.8634   20.4853 H   0  0  0  0  0  0
  -27.1609  -22.7354   19.2087 H   0  0  0  0  0  0
  -28.0841  -23.5439   17.9763 H   0  0  0  0  0  0
  -29.7484  -23.5063   21.9295 H   0  0  0  0  0  0
  -28.2281  -22.6714   21.6894 H   0  0  0  0  0  0
  -28.2146  -20.5026   20.2825 H   0  0  0  0  0  0
  -29.7925  -24.2587   19.5990 H   0  0  0  0  0  0
  -27.9759  -25.1136   21.5572 H   0  0  0  0  0  0
  -26.9290  -24.8014   20.2659 H   0  0  0  0  0  0
  -31.9209  -21.0390   18.4723 H   0  0  0  0  0  0
  -32.6329  -19.7966   17.5991 H   0  0  0  0  0  0
  -29.0189  -15.6335   20.9562 H   0  0  0  0  0  0
  1 25  1  0  0  0
  1 30  2  0  0  0
  1 83  1  0  0  0
  2  3  1  0  0  0
  2 25  1  0  0  0
  2 85  1  0  0  0
  2 86  1  0  0  0
  3  4  1  0  0  0
  3 87  1  0  0  0
  3 88  1  0  0  0
  4  5  1  0  0  0
  4 89  1  0  0  0
  4 90  1  0  0  0
  5  6  1  0  0  0
  5 26  1  0  0  0
  5 91  1  0  0  0
  6 25  1  0  0  0
  6 92  1  0  0  0
  6 93  1  0  0  0
  7  8  2  0  0  0
  7 26  1  0  0  0
  7 29  1  0  0  0
  8  9  1  0  0  0
  8 22  1  0  0  0
  9 10  1  0  0  0
  9 27  2  0  0  0
 10 11  2  0  0  0
 10 15  1  0  0  0
 11 12  1  0  0  0
 11 94  1  0  0  0
 12 13  2  0  0  0
 12 95  1  0  0  0
 13 14  1  0  0  0
 13 31  1  0  0  0
 14 15  2  0  0  0
 14 96  1  0  0  0
 15 97  1  0  0  0
 16 17  2  0  0  0
 16 21  1  0  0  0
 16 31  1  0  0  0
 17 18  1  0  0  0
 17 98  1  0  0  0
 18 19  2  0  0  0
 18 99  1  0  0  0
 19 20  1  0  0  0
 19 24  1  0  0  0
 20 21  2  0  0  0
 20100  1  0  0  0
 21 23  1  0  0  0
 22 28  1  0  0  0
 22 32  2  0  0  0
 26 27  1  0  0  0
 28101  1  0  0  0
 28102  1  0  0  0
 29103  1  0  0  0
 29104  1  0  0  0
 33 34  1  0  0  0
 33 66  1  0  0  0
 33 70  2  0  0  0
 34 36  1  0  0  0
 34 59  1  0  0  0
 34105  1  0  0  0
 35 44  2  0  0  0
 35 45  1  0  0  0
 35 68  1  0  0  0
 36 56  1  0  0  0
 36106  1  0  0  0
 37 39  1  0  0  0
 37 47  1  0  0  0
 37 66  1  0  0  0
 37107  1  0  0  0
 38 43  2  0  0  0
 38 46  1  0  0  0
 38 47  1  0  0  0
 39 64  1  0  0  0
 39 67  2  0  0  0
 40 52  1  0  0  0
 40 53  2  0  0  0
 40 58  1  0  0  0
 41108  1  0  0  0
 41109  1  0  0  0
 41110  1  0  0  0
 41 48  1  0  0  0
 42 43  1  0  0  0
 42 66  1  0  0  0
 42111  1  0  0  0
 42112  1  0  0  0
 43 44  1  0  0  0
 44113  1  0  0  0
 45 46  2  0  0  0
 45114  1  0  0  0
 46115  1  0  0  0
 47116  1  0  0  0
 47117  1  0  0  0
 48 56  1  0  0  0
 48 65  1  0  0  0
 48118  1  0  0  0
 49 50  1  0  0  0
 49 53  1  0  0  0
 49 64  1  0  0  0
 49119  1  0  0  0
 50 51  1  0  0  0
 50120  1  0  0  0
 50121  1  0  0  0
 51 52  1  0  0  0
 51122  1  0  0  0
 51123  1  0  0  0
 52124  1  0  0  0
 52125  1  0  0  0
 53 54  1  0  0  0
 54 55  2  0  0  0
 54126  1  0  0  0
 55 57  1  0  0  0
 55127  1  0  0  0
 56 69  2  0  0  0
 57 58  2  0  0  0
 57128  1  0  0  0
 58129  1  0  0  0
 59 60  1  0  0  0
 59 61  1  0  0  0
 59 62  1  0  0  0
 60130  1  0  0  0
 60131  1  0  0  0
 60132  1  0  0  0
 61133  1  0  0  0
 61134  1  0  0  0
 61135  1  0  0  0
 62136  1  0  0  0
 62137  1  0  0  0
 62138  1  0  0  0
 63 65  1  0  0  0
 63139  1  0  0  0
 63140  1  0  0  0
 63141  1  0  0  0
 64142  1  0  0  0
 65143  1  0  0  0
 68 80  1  0  0  0
 71 72  2  0  0  0
 71 81  1  0  0  0
 71 78  1  0  0  0
 72 82  1  0  0  0
 72 84  1  0  0  0
 73 81  2  0  0  0
 73 83  1  0  0  0
 73 84  1  0  0  0
 74 76  1  0  0  0
 74 78  1  0  0  0
 74144  1  0  0  0
 74145  1  0  0  0
 75 77  1  0  0  0
 75 78  1  0  0  0
 75146  1  0  0  0
 75147  1  0  0  0
 76 79  1  0  0  0
 76148  1  0  0  0
 76149  1  0  0  0
 77 79  1  0  0  0
 77150  1  0  0  0
 77151  1  0  0  0
 78152  1  0  0  0
 79 80  1  0  0  0
 79153  1  0  0  0
 80154  1  0  0  0
 80155  1  0  0  0
 82156  1  0  0  0
 82157  1  0  0  0
 83158  1  0  0  0
M  ISO  4   1 100  68 101  80 101  83 100
M  END
> <chiral flag>
0

> <version>
0

> <s_m_source_file>
/data/baiqing/PycharmProjects/Reinvent-master-3.2/result/LINK_invent/BTK/process_docking_weight1_custom_product_contain_oxygen_bond_distance_aromatic_linkinvent_7_9_3/rearranged_h_0157.sdf

> <i_m_source_file_index>
51

> <r_mmod_Potential_Energy-OPLS-2005>
84.574951171875

> <r_mmod_Stretch_Energy-OPLS-2005>
65.3080215454102

> <r_mmod_Bend_Energy-OPLS-2005>
130.306671142578

> <r_mmod_Torsional_Energy-OPLS-2005>
254.861282348633

> <r_mmod_Improper_Torsional_Energy-OPLS-2005>
6.25884819030762

> <r_mmod_Van_der_Waal_Energy-OPLS-2005>
132.770614624023

> <r_mmod_Electrostatic_Energy-OPLS-2005>
-344.442840576172

> <r_mmod_Solvation_Energy-OPLS-2005>
-210.816299438477

> <b_mmod_Minimization_Converged-OPLS-2005>
0

> <r_mmod_RMS_Derivative-OPLS-2005>
6.21832132339478

$$$$
51
                    3D
 Structure written by MMmdl.
147155  0  0  1  0            999 V2000
  -30.6027  -14.8053   20.4469 C   0  0  0  0  0  0
  -30.4316  -12.4975   19.4739 C   0  0  0  0  0  0
  -29.5081  -12.5054   18.2365 C   0  0  0  0  0  0
  -28.0377  -12.3195   18.6568 C   0  0  0  0  0  0
  -27.6350  -13.2371   19.8420 C   0  0  2  0  0  0
  -28.6819  -13.2122   20.9758 C   0  0  0  0  0  0
  -25.2485  -13.8204   20.5705 C   0  0  0  0  0  0
  -24.1790  -13.0434   20.9222 C   0  0  0  0  0  0
  -24.6393  -11.6920   20.8762 C   0  0  0  0  0  0
  -23.9073  -10.4293   21.0413 C   0  0  0  0  0  0
  -24.3624   -9.4208   21.9188 C   0  0  0  0  0  0
  -23.6298   -8.2242   22.0754 C   0  0  0  0  0  0
  -22.4281   -8.0281   21.3545 C   0  0  0  0  0  0
  -21.9918   -9.0255   20.4647 C   0  0  0  0  0  0
  -22.7247  -10.2135   20.3061 C   0  0  0  0  0  0
  -21.6853   -6.0741   22.5279 C   0  0  0  0  0  0
  -21.4013   -6.5643   23.8213 C   0  0  0  0  0  0
  -21.3656   -5.6795   24.9173 C   0  0  0  0  0  0
  -21.6044   -4.3057   24.7227 C   0  0  0  0  0  0
  -21.8817   -3.8151   23.4345 C   0  0  0  0  0  0
  -21.9192   -4.6968   22.3402 C   0  0  0  0  0  0
  -22.7809  -13.5213   21.1877 C   0  0  0  0  0  0
  -22.1661   -4.2153   21.0981 F   0  0  0  0  0  0
  -21.5626   -3.4541   25.7738 F   0  0  0  0  0  0
  -29.9702  -13.5791   20.3783 N   0  0  0  0  0  0
  -26.2908  -12.9422   20.3267 N   0  0  0  0  0  0
  -25.9322  -11.6561   20.5761 N   0  0  0  0  0  0
  -22.0462  -12.8198   22.0435 N   0  0  0  0  0  0
  -25.4158  -15.1927   20.4110 N   0  0  0  0  0  0
  -31.8057  -14.8672   20.1799 O   0  0  0  0  0  0
  -21.6641   -6.8881   21.4242 O   0  0  0  0  0  0
  -22.3493  -14.5521   20.6727 O   0  0  0  0  0  0
  -24.6351  -31.8510   23.1940 C   0  0  0  0  0  0
  -25.9160  -32.4729   23.8301 C   0  0  1  0  0  0
  -27.2189  -27.2248   20.1478 C   0  0  0  0  0  0
  -25.5941  -33.8533   24.2225 N   0  0  0  0  0  0
  -23.4336  -30.4719   21.5374 C   0  0  2  0  0  0
  -24.8824  -28.9077   20.1150 C   0  0  0  0  0  0
  -22.7518  -29.4579   22.4888 C   0  0  0  0  0  0
  -18.0293  -28.1391   22.8480 C   0  0  0  0  0  0
  -24.1486  -36.7269   23.2646 C   0  0  0  0  0  0
  -25.9822  -30.7546   21.3777 C   0  0  0  0  0  0
  -26.0565  -29.3717   20.7232 C   0  0  0  0  0  0
  -27.2316  -28.5463   20.7216 C   0  0  0  0  0  0
  -26.0231  -26.8301   19.5163 C   0  0  0  0  0  0
  -24.8730  -27.6459   19.4985 C   0  0  0  0  0  0
  -23.6549  -29.8007   20.1565 C   0  0  0  0  0  0
  -25.4116  -36.3051   24.0321 C   0  0  1  0  0  0
  -20.5900  -28.3706   23.1254 C   0  0  2  0  0  0
  -20.6780  -26.9416   22.5406 C   0  0  0  0  0  0
  -19.5754  -26.6378   21.5214 C   0  0  0  0  0  0
  -18.1934  -26.7931   22.1626 C   0  0  0  0  0  0
  -19.1551  -28.8865   23.2864 C   0  0  0  0  0  0
  -18.9474  -30.1468   23.8885 C   0  0  0  0  0  0
  -17.6472  -30.6593   24.0560 C   0  0  0  0  0  0
  -25.9052  -34.9425   23.5075 C   0  0  0  0  0  0
  -16.5362  -29.9083   23.6346 C   0  0  0  0  0  0
  -16.7283  -28.6505   23.0358 C   0  0  0  0  0  0
  -26.4511  -31.6577   25.0713 C   0  0  0  0  0  0
  -25.3724  -31.3757   26.1433 C   0  0  0  0  0  0
  -27.0379  -30.2991   24.6241 C   0  0  0  0  0  0
  -27.6048  -32.4343   25.7496 C   0  0  0  0  0  0
  -27.5566  -37.1801   24.8475 C   0  0  0  0  0  0
  -21.4218  -29.3049   22.3641 N   0  0  0  0  0  0
  -26.4291  -37.3752   23.9396 N   0  0  0  0  0  0
  -24.7030  -31.0449   22.0928 N   0  0  0  0  0  0
  -23.4202  -28.8129   23.3008 O   0  0  0  0  0  0
  -28.2967  -26.3027   20.1504 O   0  0  0  0  0  0
  -26.5631  -34.8914   22.4646 O   0  0  0  0  0  0
  -23.5490  -32.1337   23.7216 O   0  0  0  0  0  0
  -29.5739  -20.0405   21.2301 C   0  0  0  0  0  0
  -29.6412  -18.7977   20.4606 C   0  0  0  0  0  0
  -29.0460  -21.0497   20.4195 C   0  0  0  0  0  0
  -28.5325  -23.5653   20.0415 C   0  0  0  0  0  0
  -30.4036  -17.4131   20.7710 C   0  0  0  0  0  0
  -28.1046  -24.9392   20.7954 C   0  0  0  0  0  0
  -29.1289  -19.0810   19.2578 N   0  0  0  0  0  0
  -28.7985  -22.3985   20.7659 N   0  0  0  0  0  0
  -29.8622  -15.9772   20.6204 N   0  0  0  0  0  0
  -28.6024  -23.5771   18.8086 O   0  0  0  0  0  0
  -28.7586  -20.4583   19.2205 O   0  0  0  0  0  0
  -31.4692  -12.6309   19.1645 H   0  0  0  0  0  0
  -30.3938  -11.5327   19.9812 H   0  0  0  0  0  0
  -29.7999  -11.7174   17.5410 H   0  0  0  0  0  0
  -29.6198  -13.4472   17.6971 H   0  0  0  0  0  0
  -27.9100  -11.2747   18.9415 H   0  0  0  0  0  0
  -27.3747  -12.4847   17.8067 H   0  0  0  0  0  0
  -27.6161  -14.2499   19.4388 H   0  0  0  0  0  0
  -28.7366  -12.2260   21.4389 H   0  0  0  0  0  0
  -28.4098  -13.9113   21.7684 H   0  0  0  0  0  0
  -25.2766   -9.5678   22.4766 H   0  0  0  0  0  0
  -24.0004   -7.4629   22.7470 H   0  0  0  0  0  0
  -21.0850   -8.8775   19.8948 H   0  0  0  0  0  0
  -22.3707  -10.9676   19.6171 H   0  0  0  0  0  0
  -21.2006   -7.6151   23.9718 H   0  0  0  0  0  0
  -21.1478   -6.0526   25.9076 H   0  0  0  0  0  0
  -22.0599   -2.7614   23.2848 H   0  0  0  0  0  0
  -22.4097  -11.9857   22.4808 H   0  0  0  0  0  0
  -21.1076  -13.1212   22.2652 H   0  0  0  0  0  0
  -24.6442  -15.8426   20.5157 H   0  0  0  0  0  0
  -26.2550  -15.6324   20.0551 H   0  0  0  0  0  0
  -26.7229  -32.5373   23.1040 H   0  0  0  0  0  0
  -25.0103  -33.9672   25.0382 H   0  0  0  0  0  0
  -22.7327  -31.2955   21.3866 H   0  0  0  0  0  0
  -23.3732  -35.9627   23.3358 H   0  0  0  0  0  0
  -24.3554  -36.8834   22.2050 H   0  0  0  0  0  0
  -23.7278  -37.6499   23.6638 H   0  0  0  0  0  0
  -26.1244  -31.5126   20.6060 H   0  0  0  0  0  0
  -26.8576  -30.8043   22.0135 H   0  0  0  0  0  0
  -28.1331  -28.9012   21.2016 H   0  0  0  0  0  0
  -25.9720  -25.8585   19.0448 H   0  0  0  0  0  0
  -23.9747  -27.2836   19.0185 H   0  0  0  0  0  0
  -23.7850  -30.5750   19.3993 H   0  0  0  0  0  0
  -22.7722  -29.2370   19.8492 H   0  0  0  0  0  0
  -25.1304  -36.1889   25.0818 H   0  0  0  0  0  0
  -21.0000  -28.3291   24.1370 H   0  0  0  0  0  0
  -20.5676  -26.2318   23.3617 H   0  0  0  0  0  0
  -21.6645  -26.7427   22.1199 H   0  0  0  0  0  0
  -19.6913  -25.6286   21.1251 H   0  0  0  0  0  0
  -19.6690  -27.3188   20.6748 H   0  0  0  0  0  0
  -17.4199  -26.6687   21.4028 H   0  0  0  0  0  0
  -18.0326  -26.0068   22.9019 H   0  0  0  0  0  0
  -19.7955  -30.7291   24.2231 H   0  0  0  0  0  0
  -17.5031  -31.6275   24.5168 H   0  0  0  0  0  0
  -15.5367  -30.2992   23.7675 H   0  0  0  0  0  0
  -15.8678  -28.0830   22.7076 H   0  0  0  0  0  0
  -24.5900  -30.7098   25.7766 H   0  0  0  0  0  0
  -24.8919  -32.2945   26.4816 H   0  0  0  0  0  0
  -25.8029  -30.8967   27.0236 H   0  0  0  0  0  0
  -26.2990  -29.6722   24.1242 H   0  0  0  0  0  0
  -27.4020  -29.7272   25.4783 H   0  0  0  0  0  0
  -27.8870  -30.4250   23.9523 H   0  0  0  0  0  0
  -27.2630  -33.3647   26.2046 H   0  0  0  0  0  0
  -28.3875  -32.6906   25.0341 H   0  0  0  0  0  0
  -28.0701  -31.8496   26.5440 H   0  0  0  0  0  0
  -28.2618  -38.0063   24.7454 H   0  0  0  0  0  0
  -28.1023  -36.2587   24.6381 H   0  0  0  0  0  0
  -27.2272  -37.1544   25.8879 H   0  0  0  0  0  0
  -20.9410  -29.8774   21.6844 H   0  0  0  0  0  0
  -26.0161  -38.2827   24.1373 H   0  0  0  0  0  0
  -29.9326  -20.1761   22.2402 H   0  0  0  0  0  0
  -30.7516  -17.4670   21.8028 H   0  0  0  0  0  0
  -31.3263  -17.4421   20.1903 H   0  0  0  0  0  0
  -28.6681  -24.9668   21.7281 H   0  0  0  0  0  0
  -27.0640  -24.8244   21.1006 H   0  0  0  0  0  0
  -28.7979  -22.5591   21.7621 H   0  0  0  0  0  0
  -28.8670  -15.8710   20.7397 H   0  0  0  0  0  0
  1 25  1  0  0  0
  1 30  2  0  0  0
  1 79  1  0  0  0
  2  3  1  0  0  0
  2 25  1  0  0  0
  2 82  1  0  0  0
  2 83  1  0  0  0
  3  4  1  0  0  0
  3 84  1  0  0  0
  3 85  1  0  0  0
  4  5  1  0  0  0
  4 86  1  0  0  0
  4 87  1  0  0  0
  5  6  1  0  0  0
  5 26  1  0  0  0
  5 88  1  0  0  0
  6 25  1  0  0  0
  6 89  1  0  0  0
  6 90  1  0  0  0
  7  8  2  0  0  0
  7 26  1  0  0  0
  7 29  1  0  0  0
  8  9  1  0  0  0
  8 22  1  0  0  0
  9 10  1  0  0  0
  9 27  2  0  0  0
 10 11  2  0  0  0
 10 15  1  0  0  0
 11 12  1  0  0  0
 11 91  1  0  0  0
 12 13  2  0  0  0
 12 92  1  0  0  0
 13 14  1  0  0  0
 13 31  1  0  0  0
 14 15  2  0  0  0
 14 93  1  0  0  0
 15 94  1  0  0  0
 16 17  2  0  0  0
 16 21  1  0  0  0
 16 31  1  0  0  0
 17 18  1  0  0  0
 17 95  1  0  0  0
 18 19  2  0  0  0
 18 96  1  0  0  0
 19 20  1  0  0  0
 19 24  1  0  0  0
 20 21  2  0  0  0
 20 97  1  0  0  0
 21 23  1  0  0  0
 22 28  1  0  0  0
 22 32  2  0  0  0
 26 27  1  0  0  0
 28 98  1  0  0  0
 28 99  1  0  0  0
 29100  1  0  0  0
 29101  1  0  0  0
 33 34  1  0  0  0
 33 66  1  0  0  0
 33 70  2  0  0  0
 34 36  1  0  0  0
 34 59  1  0  0  0
 34102  1  0  0  0
 35 44  2  0  0  0
 35 45  1  0  0  0
 35 68  1  0  0  0
 36 56  1  0  0  0
 36103  1  0  0  0
 37 39  1  0  0  0
 37 47  1  0  0  0
 37 66  1  0  0  0
 37104  1  0  0  0
 38 43  2  0  0  0
 38 46  1  0  0  0
 38 47  1  0  0  0
 39 64  1  0  0  0
 39 67  2  0  0  0
 40 52  1  0  0  0
 40 53  2  0  0  0
 40 58  1  0  0  0
 41105  1  0  0  0
 41106  1  0  0  0
 41107  1  0  0  0
 41 48  1  0  0  0
 42 43  1  0  0  0
 42 66  1  0  0  0
 42108  1  0  0  0
 42109  1  0  0  0
 43 44  1  0  0  0
 44110  1  0  0  0
 45 46  2  0  0  0
 45111  1  0  0  0
 46112  1  0  0  0
 47113  1  0  0  0
 47114  1  0  0  0
 48 56  1  0  0  0
 48 65  1  0  0  0
 48115  1  0  0  0
 49 50  1  0  0  0
 49 53  1  0  0  0
 49 64  1  0  0  0
 49116  1  0  0  0
 50 51  1  0  0  0
 50117  1  0  0  0
 50118  1  0  0  0
 51 52  1  0  0  0
 51119  1  0  0  0
 51120  1  0  0  0
 52121  1  0  0  0
 52122  1  0  0  0
 53 54  1  0  0  0
 54 55  2  0  0  0
 54123  1  0  0  0
 55 57  1  0  0  0
 55124  1  0  0  0
 56 69  2  0  0  0
 57 58  2  0  0  0
 57125  1  0  0  0
 58126  1  0  0  0
 59 60  1  0  0  0
 59 61  1  0  0  0
 59 62  1  0  0  0
 60127  1  0  0  0
 60128  1  0  0  0
 60129  1  0  0  0
 61130  1  0  0  0
 61131  1  0  0  0
 61132  1  0  0  0
 62133  1  0  0  0
 62134  1  0  0  0
 62135  1  0  0  0
 63 65  1  0  0  0
 63136  1  0  0  0
 63137  1  0  0  0
 63138  1  0  0  0
 64139  1  0  0  0
 65140  1  0  0  0
 68 76  1  0  0  0
 71 72  1  0  0  0
 71 73  2  0  0  0
 71141  1  0  0  0
 72 75  1  0  0  0
 72 77  2  0  0  0
 73 78  1  0  0  0
 73 81  1  0  0  0
 74 76  1  0  0  0
 74 78  1  0  0  0
 74 80  2  0  0  0
 75 79  1  0  0  0
 75142  1  0  0  0
 75143  1  0  0  0
 76144  1  0  0  0
 76145  1  0  0  0
 77 81  1  0  0  0
 78146  1  0  0  0
 79147  1  0  0  0
M  ISO  4   1 100  68 101  76 101  79 100
M  END
> <chiral flag>
0

> <version>
0

> <s_m_source_file>
/data/baiqing/PycharmProjects/Reinvent-master-3.2/result/LINK_invent/BTK/process_docking_weight1_custom_product_contain_oxygen_bond_distance_aromatic_linkinvent_7_9_3/rearranged_h_0157.sdf

> <i_m_source_file_index>
52

> <r_mmod_Potential_Energy-OPLS-2005>
3.7734751701355

> <r_mmod_Stretch_Energy-OPLS-2005>
137.878295898438

> <r_mmod_Bend_Energy-OPLS-2005>
198.820648193359

> <r_mmod_Torsional_Energy-OPLS-2005>
229.152725219727

> <r_mmod_Improper_Torsional_Energy-OPLS-2005>
5.2571120262146

> <r_mmod_Van_der_Waal_Energy-OPLS-2005>
111.834014892578

> <r_mmod_Electrostatic_Energy-OPLS-2005>
-515.814880371094

> <r_mmod_Solvation_Energy-OPLS-2005>
-275.794708251953

> <b_mmod_Minimization_Converged-OPLS-2005>
0

> <r_mmod_RMS_Derivative-OPLS-2005>
1.13504505157471

$$$$
52
                    3D
 Structure written by MMmdl.
150158  0  0  1  0            999 V2000
  -30.5904  -14.8018   20.4190 C   0  0  0  0  0  0
  -30.4294  -12.4828   19.4935 C   0  0  0  0  0  0
  -29.5133  -12.5065   18.2495 C   0  0  0  0  0  0
  -28.0413  -12.3215   18.6610 C   0  0  0  0  0  0
  -27.6363  -13.2360   19.8467 C   0  0  2  0  0  0
  -28.6774  -13.2035   20.9867 C   0  0  0  0  0  0
  -25.2485  -13.8208   20.5701 C   0  0  0  0  0  0
  -24.1777  -13.0445   20.9208 C   0  0  0  0  0  0
  -24.6373  -11.6924   20.8750 C   0  0  0  0  0  0
  -23.9052  -10.4292   21.0409 C   0  0  0  0  0  0
  -24.3613   -9.4211   21.9187 C   0  0  0  0  0  0
  -23.6292   -8.2246   22.0757 C   0  0  0  0  0  0
  -22.4275   -8.0279   21.3542 C   0  0  0  0  0  0
  -21.9904   -9.0248   20.4649 C   0  0  0  0  0  0
  -22.7223  -10.2131   20.3055 C   0  0  0  0  0  0
  -21.6861   -6.0734   22.5278 C   0  0  0  0  0  0
  -21.4012   -6.5639   23.8206 C   0  0  0  0  0  0
  -21.3661   -5.6796   24.9173 C   0  0  0  0  0  0
  -21.6037   -4.3056   24.7226 C   0  0  0  0  0  0
  -21.8818   -3.8143   23.4349 C   0  0  0  0  0  0
  -21.9190   -4.6959   22.3403 C   0  0  0  0  0  0
  -22.7800  -13.5219   21.1873 C   0  0  0  0  0  0
  -22.1662   -4.2146   21.0982 F   0  0  0  0  0  0
  -21.5632   -3.4539   25.7742 F   0  0  0  0  0  0
  -29.9761  -13.5638   20.4057 N   0  0  0  0  0  0
  -26.2900  -12.9417   20.3263 N   0  0  0  0  0  0
  -25.9302  -11.6561   20.5755 N   0  0  0  0  0  0
  -22.0449  -12.8210   22.0444 N   0  0  0  0  0  0
  -25.4169  -15.1935   20.4118 N   0  0  0  0  0  0
  -31.7854  -14.8699   20.1150 O   0  0  0  0  0  0
  -21.6638   -6.8878   21.4239 O   0  0  0  0  0  0
  -22.3477  -14.5520   20.6722 O   0  0  0  0  0  0
  -24.6336  -31.8513   23.1934 C   0  0  0  0  0  0
  -25.9151  -32.4725   23.8298 C   0  0  1  0  0  0
  -27.2203  -27.2278   20.1228 C   0  0  0  0  0  0
  -25.5930  -33.8532   24.2223 N   0  0  0  0  0  0
  -23.4330  -30.4726   21.5370 C   0  0  2  0  0  0
  -24.8797  -28.9118   20.1046 C   0  0  0  0  0  0
  -22.7529  -29.4582   22.4878 C   0  0  0  0  0  0
  -18.0299  -28.1399   22.8478 C   0  0  0  0  0  0
  -24.1488  -36.7275   23.2642 C   0  0  0  0  0  0
  -25.9814  -30.7511   21.3796 C   0  0  0  0  0  0
  -26.0514  -29.3718   20.7179 C   0  0  0  0  0  0
  -27.2203  -28.5401   20.7178 C   0  0  0  0  0  0
  -26.0224  -26.8407   19.4831 C   0  0  0  0  0  0
  -24.8709  -27.6559   19.4782 C   0  0  0  0  0  0
  -23.6539  -29.8045   20.1540 C   0  0  0  0  0  0
  -25.4117  -36.3049   24.0318 C   0  0  1  0  0  0
  -20.5906  -28.3715   23.1249 C   0  0  2  0  0  0
  -20.6785  -26.9422   22.5409 C   0  0  0  0  0  0
  -19.5755  -26.6383   21.5221 C   0  0  0  0  0  0
  -18.1939  -26.7938   22.1628 C   0  0  0  0  0  0
  -19.1555  -28.8875   23.2857 C   0  0  0  0  0  0
  -18.9471  -30.1476   23.8874 C   0  0  0  0  0  0
  -17.6474  -30.6592   24.0572 C   0  0  0  0  0  0
  -25.9055  -34.9425   23.5076 C   0  0  0  0  0  0
  -16.5364  -29.9093   23.6328 C   0  0  0  0  0  0
  -16.7289  -28.6514   23.0345 C   0  0  0  0  0  0
  -26.4511  -31.6573   25.0715 C   0  0  0  0  0  0
  -25.3729  -31.3764   26.1440 C   0  0  0  0  0  0
  -27.0372  -30.2965   24.6267 C   0  0  0  0  0  0
  -27.6044  -32.4343   25.7500 C   0  0  0  0  0  0
  -27.5568  -37.1794   24.8468 C   0  0  0  0  0  0
  -21.4232  -29.3046   22.3632 N   0  0  0  0  0  0
  -26.4288  -37.3751   23.9402 N   0  0  0  0  0  0
  -24.7018  -31.0446   22.0923 N   0  0  0  0  0  0
  -23.4217  -28.8128   23.2998 O   0  0  0  0  0  0
  -28.3037  -26.3133   20.2259 O   0  0  0  0  0  0
  -26.5643  -34.8917   22.4655 O   0  0  0  0  0  0
  -23.5475  -32.1356   23.7199 O   0  0  0  0  0  0
  -29.3879  -18.6067   20.5267 C   0  0  0  0  0  0
  -30.2924  -19.8983   18.6751 C   0  0  0  0  0  0
  -30.7363  -17.4852   18.8409 C   0  0  0  0  0  0
  -29.5245  -19.9161   19.8631 C   0  0  0  0  0  0
  -29.9874  -17.3525   20.0341 C   0  0  0  0  0  0
  -30.8833  -18.7201   18.1799 C   0  0  0  0  0  0
  -28.2903  -24.9706   19.7103 C   0  0  0  0  0  0
  -28.6338  -23.7696   20.3436 C   0  0  0  0  0  0
  -28.7126  -22.4230   19.6306 C   0  0  0  0  0  0
  -29.0302  -21.2582   20.3473 N   0  0  0  0  0  0
  -29.8277  -15.9656   20.6077 N   0  0  0  0  0  0
  -28.4825  -22.3386   18.4221 O   0  0  0  0  0  0
  -28.9419  -23.8018   21.6466 O   0  0  0  0  0  0
  -31.6123  -18.7757   17.0401 F   0  0  0  0  0  0
  -31.4713  -12.6029   19.1930 H   0  0  0  0  0  0
  -30.3765  -11.5155   19.9954 H   0  0  0  0  0  0
  -29.8091  -11.7253   17.5482 H   0  0  0  0  0  0
  -29.6306  -13.4537   17.7208 H   0  0  0  0  0  0
  -27.9103  -11.2764   18.9419 H   0  0  0  0  0  0
  -27.3822  -12.4907   17.8082 H   0  0  0  0  0  0
  -27.6220  -14.2502   19.4464 H   0  0  0  0  0  0
  -28.7223  -12.2151   21.4471 H   0  0  0  0  0  0
  -28.3989  -13.9000   21.7792 H   0  0  0  0  0  0
  -25.2758   -9.5697   22.4757 H   0  0  0  0  0  0
  -24.0005   -7.4639   22.7476 H   0  0  0  0  0  0
  -21.0843   -8.8751   19.8960 H   0  0  0  0  0  0
  -22.3669  -10.9667   19.6162 H   0  0  0  0  0  0
  -21.2001   -7.6146   23.9711 H   0  0  0  0  0  0
  -21.1489   -6.0527   25.9078 H   0  0  0  0  0  0
  -22.0595   -2.7604   23.2847 H   0  0  0  0  0  0
  -22.4078  -11.9870   22.4825 H   0  0  0  0  0  0
  -21.1061  -13.1227   22.2652 H   0  0  0  0  0  0
  -24.6478  -15.8458   20.5185 H   0  0  0  0  0  0
  -26.2613  -15.6335   20.0688 H   0  0  0  0  0  0
  -26.7234  -32.5347   23.1046 H   0  0  0  0  0  0
  -25.0067  -33.9670   25.0356 H   0  0  0  0  0  0
  -22.7305  -31.2949   21.3874 H   0  0  0  0  0  0
  -23.3739  -35.9619   23.3321 H   0  0  0  0  0  0
  -24.3559  -36.8883   22.2051 H   0  0  0  0  0  0
  -23.7274  -37.6493   23.6667 H   0  0  0  0  0  0
  -26.1298  -31.5110   20.6116 H   0  0  0  0  0  0
  -26.8561  -30.7953   22.0175 H   0  0  0  0  0  0
  -28.1143  -28.8815   21.2201 H   0  0  0  0  0  0
  -25.9423  -25.8723   19.0117 H   0  0  0  0  0  0
  -23.9702  -27.2965   19.0000 H   0  0  0  0  0  0
  -23.7845  -30.5798   19.3995 H   0  0  0  0  0  0
  -22.7711  -29.2430   19.8449 H   0  0  0  0  0  0
  -25.1305  -36.1878   25.0812 H   0  0  0  0  0  0
  -20.9998  -28.3302   24.1370 H   0  0  0  0  0  0
  -20.5676  -26.2330   23.3636 H   0  0  0  0  0  0
  -21.6653  -26.7433   22.1202 H   0  0  0  0  0  0
  -19.6911  -25.6294   21.1248 H   0  0  0  0  0  0
  -19.6679  -27.3194   20.6758 H   0  0  0  0  0  0
  -17.4206  -26.6692   21.4031 H   0  0  0  0  0  0
  -18.0314  -26.0096   22.9030 H   0  0  0  0  0  0
  -19.7953  -30.7304   24.2209 H   0  0  0  0  0  0
  -17.5028  -31.6254   24.5209 H   0  0  0  0  0  0
  -15.5360  -30.2996   23.7660 H   0  0  0  0  0  0
  -15.8693  -28.0841   22.7053 H   0  0  0  0  0  0
  -24.5894  -30.7111   25.7796 H   0  0  0  0  0  0
  -24.8936  -32.2955   26.4821 H   0  0  0  0  0  0
  -25.8023  -30.8985   27.0252 H   0  0  0  0  0  0
  -26.2979  -29.6697   24.1265 H   0  0  0  0  0  0
  -27.3999  -29.7243   25.4824 H   0  0  0  0  0  0
  -27.8879  -30.4213   23.9566 H   0  0  0  0  0  0
  -27.2624  -33.3648   26.2052 H   0  0  0  0  0  0
  -28.3871  -32.6901   25.0346 H   0  0  0  0  0  0
  -28.0717  -31.8506   26.5450 H   0  0  0  0  0  0
  -28.2603  -38.0070   24.7460 H   0  0  0  0  0  0
  -28.1047  -36.2592   24.6352 H   0  0  0  0  0  0
  -27.2279  -37.1515   25.8873 H   0  0  0  0  0  0
  -20.9426  -29.8785   21.6843 H   0  0  0  0  0  0
  -26.0155  -38.2821   24.1380 H   0  0  0  0  0  0
  -28.8090  -18.5656   21.4391 H   0  0  0  0  0  0
  -30.4709  -20.8086   18.1217 H   0  0  0  0  0  0
  -31.2021  -16.6255   18.3817 H   0  0  0  0  0  0
  -28.0174  -24.9774   18.6644 H   0  0  0  0  0  0
  -29.0035  -21.3847   21.3503 H   0  0  0  0  0  0
  -28.9424  -15.7963   21.0613 H   0  0  0  0  0  0
  -28.8605  -24.7058   21.9236 H   0  0  0  0  0  0
  1 25  1  0  0  0
  1 30  2  0  0  0
  1 81  1  0  0  0
  2  3  1  0  0  0
  2 25  1  0  0  0
  2 85  1  0  0  0
  2 86  1  0  0  0
  3  4  1  0  0  0
  3 87  1  0  0  0
  3 88  1  0  0  0
  4  5  1  0  0  0
  4 89  1  0  0  0
  4 90  1  0  0  0
  5  6  1  0  0  0
  5 26  1  0  0  0
  5 91  1  0  0  0
  6 25  1  0  0  0
  6 92  1  0  0  0
  6 93  1  0  0  0
  7  8  2  0  0  0
  7 26  1  0  0  0
  7 29  1  0  0  0
  8  9  1  0  0  0
  8 22  1  0  0  0
  9 10  1  0  0  0
  9 27  2  0  0  0
 10 11  2  0  0  0
 10 15  1  0  0  0
 11 12  1  0  0  0
 11 94  1  0  0  0
 12 13  2  0  0  0
 12 95  1  0  0  0
 13 14  1  0  0  0
 13 31  1  0  0  0
 14 15  2  0  0  0
 14 96  1  0  0  0
 15 97  1  0  0  0
 16 17  2  0  0  0
 16 21  1  0  0  0
 16 31  1  0  0  0
 17 18  1  0  0  0
 17 98  1  0  0  0
 18 19  2  0  0  0
 18 99  1  0  0  0
 19 20  1  0  0  0
 19 24  1  0  0  0
 20 21  2  0  0  0
 20100  1  0  0  0
 21 23  1  0  0  0
 22 28  1  0  0  0
 22 32  2  0  0  0
 26 27  1  0  0  0
 28101  1  0  0  0
 28102  1  0  0  0
 29103  1  0  0  0
 29104  1  0  0  0
 33 34  1  0  0  0
 33 66  1  0  0  0
 33 70  2  0  0  0
 34 36  1  0  0  0
 34 59  1  0  0  0
 34105  1  0  0  0
 35 44  2  0  0  0
 35 45  1  0  0  0
 35 68  1  0  0  0
 36 56  1  0  0  0
 36106  1  0  0  0
 37 39  1  0  0  0
 37 47  1  0  0  0
 37 66  1  0  0  0
 37107  1  0  0  0
 38 43  2  0  0  0
 38 46  1  0  0  0
 38 47  1  0  0  0
 39 64  1  0  0  0
 39 67  2  0  0  0
 40 52  1  0  0  0
 40 53  2  0  0  0
 40 58  1  0  0  0
 41108  1  0  0  0
 41109  1  0  0  0
 41110  1  0  0  0
 41 48  1  0  0  0
 42 43  1  0  0  0
 42 66  1  0  0  0
 42111  1  0  0  0
 42112  1  0  0  0
 43 44  1  0  0  0
 44113  1  0  0  0
 45 46  2  0  0  0
 45114  1  0  0  0
 46115  1  0  0  0
 47116  1  0  0  0
 47117  1  0  0  0
 48 56  1  0  0  0
 48 65  1  0  0  0
 48118  1  0  0  0
 49 50  1  0  0  0
 49 53  1  0  0  0
 49 64  1  0  0  0
 49119  1  0  0  0
 50 51  1  0  0  0
 50120  1  0  0  0
 50121  1  0  0  0
 51 52  1  0  0  0
 51122  1  0  0  0
 51123  1  0  0  0
 52124  1  0  0  0
 52125  1  0  0  0
 53 54  1  0  0  0
 54 55  2  0  0  0
 54126  1  0  0  0
 55 57  1  0  0  0
 55127  1  0  0  0
 56 69  2  0  0  0
 57 58  2  0  0  0
 57128  1  0  0  0
 58129  1  0  0  0
 59 60  1  0  0  0
 59 61  1  0  0  0
 59 62  1  0  0  0
 60130  1  0  0  0
 60131  1  0  0  0
 60132  1  0  0  0
 61133  1  0  0  0
 61134  1  0  0  0
 61135  1  0  0  0
 62136  1  0  0  0
 62137  1  0  0  0
 62138  1  0  0  0
 63 65  1  0  0  0
 63139  1  0  0  0
 63140  1  0  0  0
 63141  1  0  0  0
 64142  1  0  0  0
 65143  1  0  0  0
 68 77  1  0  0  0
 71 74  2  0  0  0
 71 75  1  0  0  0
 71144  1  0  0  0
 72 74  1  0  0  0
 72 76  2  0  0  0
 72145  1  0  0  0
 73 75  2  0  0  0
 73 76  1  0  0  0
 73146  1  0  0  0
 74 80  1  0  0  0
 75 81  1  0  0  0
 76 84  1  0  0  0
 77 78  2  0  0  0
 77147  1  0  0  0
 78 79  1  0  0  0
 78 83  1  0  0  0
 79 80  1  0  0  0
 79 82  2  0  0  0
 80148  1  0  0  0
 81149  1  0  0  0
 83150  1  0  0  0
M  ISO  4   1 100  68 101  77 101  81 100
M  END
> <chiral flag>
0

> <version>
0

> <s_m_source_file>
/data/baiqing/PycharmProjects/Reinvent-master-3.2/result/LINK_invent/BTK/process_docking_weight1_custom_product_contain_oxygen_bond_distance_aromatic_linkinvent_7_9_3/rearranged_h_0157.sdf

> <i_m_source_file_index>
53

> <r_mmod_Potential_Energy-OPLS-2005>
216.617080688477

> <r_mmod_Stretch_Energy-OPLS-2005>
154.33869934082

> <r_mmod_Bend_Energy-OPLS-2005>
168.503341674805

> <r_mmod_Torsional_Energy-OPLS-2005>
239.565368652344

> <r_mmod_Improper_Torsional_Energy-OPLS-2005>
5.22919082641602

> <r_mmod_Van_der_Waal_Energy-OPLS-2005>
142.711944580078

> <r_mmod_Electrostatic_Energy-OPLS-2005>
-380.899383544922

> <r_mmod_Solvation_Energy-OPLS-2005>
-224.927444458008

> <b_mmod_Minimization_Converged-OPLS-2005>
0

> <r_mmod_RMS_Derivative-OPLS-2005>
2.0337073802948

$$$$
53
                    3D
 Structure written by MMmdl.
154162  0  0  1  0            999 V2000
  -30.5973  -14.7596   20.4482 C   0  0  0  0  0  0
  -30.4317  -12.4680   19.4576 C   0  0  0  0  0  0
  -29.5025  -12.5132   18.2251 C   0  0  0  0  0  0
  -28.0298  -12.3366   18.6430 C   0  0  0  0  0  0
  -27.6372  -13.2327   19.8479 C   0  0  2  0  0  0
  -28.6872  -13.1642   20.9771 C   0  0  0  0  0  0
  -25.2488  -13.8202   20.5723 C   0  0  0  0  0  0
  -24.1790  -13.0425   20.9228 C   0  0  0  0  0  0
  -24.6395  -11.6910   20.8762 C   0  0  0  0  0  0
  -23.9080  -10.4284   21.0407 C   0  0  0  0  0  0
  -24.3625   -9.4190   21.9183 C   0  0  0  0  0  0
  -23.6289   -8.2232   22.0753 C   0  0  0  0  0  0
  -22.4278   -8.0275   21.3540 C   0  0  0  0  0  0
  -21.9913   -9.0255   20.4645 C   0  0  0  0  0  0
  -22.7249  -10.2132   20.3044 C   0  0  0  0  0  0
  -21.6851   -6.0741   22.5284 C   0  0  0  0  0  0
  -21.4011   -6.5641   23.8224 C   0  0  0  0  0  0
  -21.3658   -5.6785   24.9179 C   0  0  0  0  0  0
  -21.6048   -4.3052   24.7219 C   0  0  0  0  0  0
  -21.8820   -3.8151   23.4341 C   0  0  0  0  0  0
  -21.9188   -4.6969   22.3401 C   0  0  0  0  0  0
  -22.7808  -13.5202   21.1883 C   0  0  0  0  0  0
  -22.1661   -4.2157   21.0976 F   0  0  0  0  0  0
  -21.5624   -3.4533   25.7734 F   0  0  0  0  0  0
  -29.9791  -13.5305   20.3852 N   0  0  0  0  0  0
  -26.2913  -12.9405   20.3284 N   0  0  0  0  0  0
  -25.9313  -11.6548   20.5749 N   0  0  0  0  0  0
  -22.0451  -12.8194   22.0430 N   0  0  0  0  0  0
  -25.4134  -15.1937   20.4154 N   0  0  0  0  0  0
  -31.7988  -14.8441   20.1781 O   0  0  0  0  0  0
  -21.6630   -6.8883   21.4244 O   0  0  0  0  0  0
  -22.3495  -14.5509   20.6722 O   0  0  0  0  0  0
  -24.6333  -31.8520   23.1951 C   0  0  0  0  0  0
  -25.9144  -32.4732   23.8300 C   0  0  1  0  0  0
  -27.2183  -27.2419   20.1329 C   0  0  0  0  0  0
  -25.5933  -33.8535   24.2236 N   0  0  0  0  0  0
  -23.4323  -30.4737   21.5375 C   0  0  2  0  0  0
  -24.8787  -28.9101   20.1131 C   0  0  0  0  0  0
  -22.7502  -29.4600   22.4881 C   0  0  0  0  0  0
  -18.0309  -28.1368   22.8476 C   0  0  0  0  0  0
  -24.1485  -36.7283   23.2645 C   0  0  0  0  0  0
  -25.9778  -30.7592   21.3748 C   0  0  0  0  0  0
  -26.0515  -29.3772   20.7214 C   0  0  0  0  0  0
  -27.2280  -28.5575   20.7148 C   0  0  0  0  0  0
  -26.0235  -26.8435   19.4995 C   0  0  0  0  0  0
  -24.8701  -27.6522   19.4907 C   0  0  0  0  0  0
  -23.6519  -29.8015   20.1555 C   0  0  0  0  0  0
  -25.4114  -36.3056   24.0321 C   0  0  1  0  0  0
  -20.5905  -28.3707   23.1254 C   0  0  2  0  0  0
  -20.6790  -26.9417   22.5394 C   0  0  0  0  0  0
  -19.5790  -26.6414   21.5168 C   0  0  0  0  0  0
  -18.1957  -26.7936   22.1558 C   0  0  0  0  0  0
  -19.1560  -28.8838   23.2870 C   0  0  0  0  0  0
  -18.9483  -30.1420   23.8911 C   0  0  0  0  0  0
  -17.6490  -30.6559   24.0572 C   0  0  0  0  0  0
  -25.9054  -34.9427   23.5089 C   0  0  0  0  0  0
  -16.5380  -29.9070   23.6326 C   0  0  0  0  0  0
  -16.7294  -28.6485   23.0351 C   0  0  0  0  0  0
  -26.4509  -31.6561   25.0693 C   0  0  0  0  0  0
  -25.3737  -31.3713   26.1419 C   0  0  0  0  0  0
  -27.0373  -30.2982   24.6187 C   0  0  0  0  0  0
  -27.6039  -32.4310   25.7493 C   0  0  0  0  0  0
  -27.5571  -37.1802   24.8465 C   0  0  0  0  0  0
  -21.4203  -29.3079   22.3648 N   0  0  0  0  0  0
  -26.4285  -37.3756   23.9402 N   0  0  0  0  0  0
  -24.7009  -31.0467   22.0921 N   0  0  0  0  0  0
  -23.4191  -28.8112   23.2962 O   0  0  0  0  0  0
  -28.3067  -26.3370   20.1283 O   0  0  0  0  0  0
  -26.5629  -34.8910   22.4657 O   0  0  0  0  0  0
  -23.5475  -32.1351   23.7229 O   0  0  0  0  0  0
  -29.3025  -18.4769   20.2446 C   0  0  0  0  0  0
  -30.9622  -20.1201   20.9344 C   0  0  0  0  0  0
  -31.4109  -17.7145   21.1883 C   0  0  0  0  0  0
  -29.6925  -19.8857   20.3704 C   0  0  0  0  0  0
  -30.1569  -17.3531   20.6408 C   0  0  0  0  0  0
  -31.8017  -19.0612   21.3294 C   0  0  0  0  0  0
  -28.9523  -21.1270   19.8157 C   0  0  0  0  0  0
  -28.5928  -23.6702   19.8317 C   0  0  0  0  0  0
  -28.1044  -24.9319   20.6550 C   0  0  0  0  0  0
  -28.7535  -23.9409   18.5174 N   0  3  0  0  0  0
  -29.7990  -15.9019   20.5502 N   0  0  0  0  0  0
  -28.4012  -20.9411   18.6059 N   0  3  0  0  0  0
  -28.8523  -22.4010   20.4012 N   0  0  0  0  0  0
  -33.0230  -19.3478   21.8359 F   0  0  0  0  0  0
  -31.4698  -12.6025   19.1478 H   0  0  0  0  0  0
  -30.3857  -11.4895   19.9389 H   0  0  0  0  0  0
  -29.7843  -11.7409   17.5093 H   0  0  0  0  0  0
  -29.6250  -13.4658   17.7069 H   0  0  0  0  0  0
  -27.8860  -11.2880   18.9005 H   0  0  0  0  0  0
  -27.3724  -12.5358   17.7956 H   0  0  0  0  0  0
  -27.6261  -14.2548   19.4684 H   0  0  0  0  0  0
  -28.7322  -12.1607   21.4017 H   0  0  0  0  0  0
  -28.4260  -13.8319   21.7990 H   0  0  0  0  0  0
  -25.2767   -9.5678   22.4767 H   0  0  0  0  0  0
  -24.0008   -7.4619   22.7467 H   0  0  0  0  0  0
  -21.0851   -8.8770   19.8939 H   0  0  0  0  0  0
  -22.3708  -10.9672   19.6155 H   0  0  0  0  0  0
  -21.2006   -7.6150   23.9731 H   0  0  0  0  0  0
  -21.1479   -6.0514   25.9089 H   0  0  0  0  0  0
  -22.0601   -2.7609   23.2834 H   0  0  0  0  0  0
  -22.4049  -11.9859   22.4844 H   0  0  0  0  0  0
  -21.1052  -13.1218   22.2604 H   0  0  0  0  0  0
  -24.6394  -15.8384   20.5325 H   0  0  0  0  0  0
  -26.2492  -15.6434   20.0680 H   0  0  0  0  0  0
  -26.7204  -32.5389   23.1031 H   0  0  0  0  0  0
  -25.0057  -33.9661   25.0370 H   0  0  0  0  0  0
  -22.7323  -31.2981   21.3860 H   0  0  0  0  0  0
  -23.3735  -35.9627   23.3300 H   0  0  0  0  0  0
  -24.3573  -36.8920   22.2062 H   0  0  0  0  0  0
  -23.7260  -37.6485   23.6684 H   0  0  0  0  0  0
  -26.1150  -31.5140   20.5995 H   0  0  0  0  0  0
  -26.8562  -30.8145   22.0061 H   0  0  0  0  0  0
  -28.1307  -28.9124   21.1930 H   0  0  0  0  0  0
  -25.9716  -25.8791   19.0142 H   0  0  0  0  0  0
  -23.9741  -27.2907   19.0062 H   0  0  0  0  0  0
  -23.7829  -30.5742   19.3965 H   0  0  0  0  0  0
  -22.7693  -29.2354   19.8500 H   0  0  0  0  0  0
  -25.1303  -36.1886   25.0812 H   0  0  0  0  0  0
  -20.9995  -28.3282   24.1379 H   0  0  0  0  0  0
  -20.5644  -26.2304   23.3588 H   0  0  0  0  0  0
  -21.6677  -26.7442   22.1217 H   0  0  0  0  0  0
  -19.6994  -25.6360   21.1136 H   0  0  0  0  0  0
  -19.6746  -27.3263   20.6726 H   0  0  0  0  0  0
  -17.4254  -26.6753   21.3926 H   0  0  0  0  0  0
  -18.0319  -26.0034   22.8899 H   0  0  0  0  0  0
  -19.7959  -30.7222   24.2307 H   0  0  0  0  0  0
  -17.5063  -31.6231   24.5186 H   0  0  0  0  0  0
  -15.5388  -30.2991   23.7634 H   0  0  0  0  0  0
  -15.8698  -28.0810   22.7047 H   0  0  0  0  0  0
  -24.5916  -30.7054   25.7756 H   0  0  0  0  0  0
  -24.8933  -32.2887   26.4829 H   0  0  0  0  0  0
  -25.8069  -30.8909   27.0205 H   0  0  0  0  0  0
  -26.2970  -29.6704   24.1220 H   0  0  0  0  0  0
  -27.4071  -29.7261   25.4705 H   0  0  0  0  0  0
  -27.8827  -30.4252   23.9423 H   0  0  0  0  0  0
  -27.2617  -33.3609   26.2048 H   0  0  0  0  0  0
  -28.3877  -32.6873   25.0354 H   0  0  0  0  0  0
  -28.0672  -31.8454   26.5443 H   0  0  0  0  0  0
  -28.2583  -38.0102   24.7496 H   0  0  0  0  0  0
  -28.1072  -36.2632   24.6306 H   0  0  0  0  0  0
  -27.2290  -37.1464   25.8869 H   0  0  0  0  0  0
  -20.9367  -29.8857   21.6919 H   0  0  0  0  0  0
  -26.0153  -38.2824   24.1397 H   0  0  0  0  0  0
  -28.3397  -18.2505   19.8071 H   0  0  0  0  0  0
  -31.3447  -21.1269   21.0299 H   0  0  0  0  0  0
  -32.1060  -16.9592   21.5211 H   0  0  0  0  0  0
  -28.5870  -24.8973   21.6313 H   0  0  0  0  0  0
  -27.0465  -24.7703   20.8682 H   0  0  0  0  0  0
  -28.6155  -24.8959   18.2153 H   0  0  0  0  0  0
  -29.2160  -23.3190   17.8707 H   0  0  0  0  0  0
  -28.8119  -15.7014   20.5640 H   0  0  0  0  0  0
  -27.7140  -21.5790   18.2377 H   0  0  0  0  0  0
  -28.5236  -20.0527   18.1469 H   0  0  0  0  0  0
  -28.9519  -22.3867   21.4024 H   0  0  0  0  0  0
  1 25  1  0  0  0
  1 30  2  0  0  0
  1 81  1  0  0  0
  2  3  1  0  0  0
  2 25  1  0  0  0
  2 85  1  0  0  0
  2 86  1  0  0  0
  3  4  1  0  0  0
  3 87  1  0  0  0
  3 88  1  0  0  0
  4  5  1  0  0  0
  4 89  1  0  0  0
  4 90  1  0  0  0
  5  6  1  0  0  0
  5 26  1  0  0  0
  5 91  1  0  0  0
  6 25  1  0  0  0
  6 92  1  0  0  0
  6 93  1  0  0  0
  7  8  2  0  0  0
  7 26  1  0  0  0
  7 29  1  0  0  0
  8  9  1  0  0  0
  8 22  1  0  0  0
  9 10  1  0  0  0
  9 27  2  0  0  0
 10 11  2  0  0  0
 10 15  1  0  0  0
 11 12  1  0  0  0
 11 94  1  0  0  0
 12 13  2  0  0  0
 12 95  1  0  0  0
 13 14  1  0  0  0
 13 31  1  0  0  0
 14 15  2  0  0  0
 14 96  1  0  0  0
 15 97  1  0  0  0
 16 17  2  0  0  0
 16 21  1  0  0  0
 16 31  1  0  0  0
 17 18  1  0  0  0
 17 98  1  0  0  0
 18 19  2  0  0  0
 18 99  1  0  0  0
 19 20  1  0  0  0
 19 24  1  0  0  0
 20 21  2  0  0  0
 20100  1  0  0  0
 21 23  1  0  0  0
 22 28  1  0  0  0
 22 32  2  0  0  0
 26 27  1  0  0  0
 28101  1  0  0  0
 28102  1  0  0  0
 29103  1  0  0  0
 29104  1  0  0  0
 33 34  1  0  0  0
 33 66  1  0  0  0
 33 70  2  0  0  0
 34 36  1  0  0  0
 34 59  1  0  0  0
 34105  1  0  0  0
 35 44  2  0  0  0
 35 45  1  0  0  0
 35 68  1  0  0  0
 36 56  1  0  0  0
 36106  1  0  0  0
 37 39  1  0  0  0
 37 47  1  0  0  0
 37 66  1  0  0  0
 37107  1  0  0  0
 38 43  2  0  0  0
 38 46  1  0  0  0
 38 47  1  0  0  0
 39 64  1  0  0  0
 39 67  2  0  0  0
 40 52  1  0  0  0
 40 53  2  0  0  0
 40 58  1  0  0  0
 41108  1  0  0  0
 41109  1  0  0  0
 41110  1  0  0  0
 41 48  1  0  0  0
 42 43  1  0  0  0
 42 66  1  0  0  0
 42111  1  0  0  0
 42112  1  0  0  0
 43 44  1  0  0  0
 44113  1  0  0  0
 45 46  2  0  0  0
 45114  1  0  0  0
 46115  1  0  0  0
 47116  1  0  0  0
 47117  1  0  0  0
 48 56  1  0  0  0
 48 65  1  0  0  0
 48118  1  0  0  0
 49 50  1  0  0  0
 49 53  1  0  0  0
 49 64  1  0  0  0
 49119  1  0  0  0
 50 51  1  0  0  0
 50120  1  0  0  0
 50121  1  0  0  0
 51 52  1  0  0  0
 51122  1  0  0  0
 51123  1  0  0  0
 52124  1  0  0  0
 52125  1  0  0  0
 53 54  1  0  0  0
 54 55  2  0  0  0
 54126  1  0  0  0
 55 57  1  0  0  0
 55127  1  0  0  0
 56 69  2  0  0  0
 57 58  2  0  0  0
 57128  1  0  0  0
 58129  1  0  0  0
 59 60  1  0  0  0
 59 61  1  0  0  0
 59 62  1  0  0  0
 60130  1  0  0  0
 60131  1  0  0  0
 60132  1  0  0  0
 61133  1  0  0  0
 61134  1  0  0  0
 61135  1  0  0  0
 62136  1  0  0  0
 62137  1  0  0  0
 62138  1  0  0  0
 63 65  1  0  0  0
 63139  1  0  0  0
 63140  1  0  0  0
 63141  1  0  0  0
 64142  1  0  0  0
 65143  1  0  0  0
 68 79  1  0  0  0
 71 74  2  0  0  0
 71 75  1  0  0  0
 71144  1  0  0  0
 72 74  1  0  0  0
 72 76  2  0  0  0
 72145  1  0  0  0
 73 75  2  0  0  0
 73 76  1  0  0  0
 73146  1  0  0  0
 74 77  1  0  0  0
 75 81  1  0  0  0
 76 84  1  0  0  0
 77 82  2  0  0  0
 77 83  1  0  0  0
 78 79  1  0  0  0
 78 80  2  0  0  0
 78 83  1  0  0  0
 79147  1  0  0  0
 79148  1  0  0  0
 80149  1  0  0  0
 80150  1  0  0  0
 81151  1  0  0  0
 82152  1  0  0  0
 82153  1  0  0  0
 83154  1  0  0  0
M  CHG  2  80   1  82   1
M  ISO  4   1 100  68 101  79 101  81 100
M  END
> <chiral flag>
0

> <version>
0

> <s_m_source_file>
/data/baiqing/PycharmProjects/Reinvent-master-3.2/result/LINK_invent/BTK/process_docking_weight1_custom_product_contain_oxygen_bond_distance_aromatic_linkinvent_7_9_3/rearranged_h_0157.sdf

> <i_m_source_file_index>
54

> <r_mmod_Potential_Energy-OPLS-2005>
-266.655242919922

> <r_mmod_Stretch_Energy-OPLS-2005>
141.767578125

> <r_mmod_Bend_Energy-OPLS-2005>
166.724044799805

> <r_mmod_Torsional_Energy-OPLS-2005>
256.962585449219

> <r_mmod_Improper_Torsional_Energy-OPLS-2005>
8.09833145141602

> <r_mmod_Van_der_Waal_Energy-OPLS-2005>
139.997680664062

> <r_mmod_Electrostatic_Energy-OPLS-2005>
28.8110160827637

> <r_mmod_Solvation_Energy-OPLS-2005>
-1102.48718261719

> <b_mmod_Minimization_Converged-OPLS-2005>
0

> <r_mmod_RMS_Derivative-OPLS-2005>
2.63695693016052

$$$$
54
                    3D
 Structure written by MMmdl.
150158  0  0  1  0            999 V2000
  -30.5701  -14.7499   20.3818 C   0  0  0  0  0  0
  -30.4196  -12.4448   19.4555 C   0  0  0  0  0  0
  -29.4916  -12.4676   18.2222 C   0  0  0  0  0  0
  -28.0232  -12.2942   18.6498 C   0  0  0  0  0  0
  -27.6293  -13.2192   19.8337 C   0  0  2  0  0  0
  -28.6752  -13.1800   20.9669 C   0  0  0  0  0  0
  -25.2451  -13.8177   20.5676 C   0  0  0  0  0  0
  -24.1758  -13.0427   20.9212 C   0  0  0  0  0  0
  -24.6332  -11.6899   20.8737 C   0  0  0  0  0  0
  -23.9027  -10.4287   21.0417 C   0  0  0  0  0  0
  -24.3590   -9.4207   21.9185 C   0  0  0  0  0  0
  -23.6269   -8.2231   22.0752 C   0  0  0  0  0  0
  -22.4245   -8.0264   21.3538 C   0  0  0  0  0  0
  -21.9891   -9.0245   20.4638 C   0  0  0  0  0  0
  -22.7212  -10.2123   20.3062 C   0  0  0  0  0  0
  -21.6849   -6.0720   22.5269 C   0  0  0  0  0  0
  -21.4019   -6.5623   23.8211 C   0  0  0  0  0  0
  -21.3656   -5.6766   24.9167 C   0  0  0  0  0  0
  -21.6049   -4.3039   24.7215 C   0  0  0  0  0  0
  -21.8819   -3.8130   23.4340 C   0  0  0  0  0  0
  -21.9201   -4.6944   22.3393 C   0  0  0  0  0  0
  -22.7794  -13.5212   21.1883 C   0  0  0  0  0  0
  -22.1663   -4.2112   21.0975 F   0  0  0  0  0  0
  -21.5632   -3.4542   25.7750 F   0  0  0  0  0  0
  -29.9650  -13.5206   20.3646 N   0  0  0  0  0  0
  -26.2846  -12.9349   20.3207 N   0  0  0  0  0  0
  -25.9249  -11.6506   20.5760 N   0  0  0  0  0  0
  -22.0470  -12.8193   22.0450 N   0  0  0  0  0  0
  -25.4165  -15.1899   20.4068 N   0  0  0  0  0  0
  -31.7777  -14.8174   20.1368 O   0  0  0  0  0  0
  -21.6637   -6.8842   21.4218 O   0  0  0  0  0  0
  -22.3481  -14.5534   20.6752 O   0  0  0  0  0  0
  -24.6288  -31.8561   23.1981 C   0  0  0  0  0  0
  -25.9125  -32.4744   23.8308 C   0  0  1  0  0  0
  -27.2142  -27.2870   20.1105 C   0  0  0  0  0  0
  -25.5919  -33.8546   24.2216 N   0  0  0  0  0  0
  -23.4242  -30.4763   21.5417 C   0  0  2  0  0  0
  -24.8690  -28.9295   20.1046 C   0  0  0  0  0  0
  -22.7487  -29.4564   22.4897 C   0  0  0  0  0  0
  -18.0287  -28.1385   22.8453 C   0  0  0  0  0  0
  -24.1514  -36.7271   23.2647 C   0  0  0  0  0  0
  -25.9666  -30.7718   21.3796 C   0  0  0  0  0  0
  -26.0389  -29.3978   20.7161 C   0  0  0  0  0  0
  -27.2187  -28.5881   20.7071 C   0  0  0  0  0  0
  -26.0215  -26.8774   19.4757 C   0  0  0  0  0  0
  -24.8630  -27.6747   19.4733 C   0  0  0  0  0  0
  -23.6405  -29.8153   20.1555 C   0  0  0  0  0  0
  -25.4135  -36.3060   24.0331 C   0  0  1  0  0  0
  -20.5872  -28.3681   23.1261 C   0  0  2  0  0  0
  -20.6762  -26.9402   22.5400 C   0  0  0  0  0  0
  -19.5756  -26.6377   21.5198 C   0  0  0  0  0  0
  -18.1924  -26.7927   22.1605 C   0  0  0  0  0  0
  -19.1537  -28.8856   23.2842 C   0  0  0  0  0  0
  -18.9477  -30.1442   23.8872 C   0  0  0  0  0  0
  -17.6487  -30.6583   24.0561 C   0  0  0  0  0  0
  -25.9060  -34.9438   23.5074 C   0  0  0  0  0  0
  -16.5369  -29.9082   23.6360 C   0  0  0  0  0  0
  -16.7278  -28.6499   23.0339 C   0  0  0  0  0  0
  -26.4504  -31.6585   25.0713 C   0  0  0  0  0  0
  -25.3725  -31.3766   26.1441 C   0  0  0  0  0  0
  -27.0357  -30.2990   24.6227 C   0  0  0  0  0  0
  -27.6044  -32.4356   25.7477 C   0  0  0  0  0  0
  -27.5591  -37.1774   24.8460 C   0  0  0  0  0  0
  -21.4188  -29.3030   22.3669 N   0  0  0  0  0  0
  -26.4298  -37.3753   23.9414 N   0  0  0  0  0  0
  -24.6914  -31.0520   22.0968 N   0  0  0  0  0  0
  -23.4199  -28.8126   23.3001 O   0  0  0  0  0  0
  -28.3023  -26.4019   20.1078 O   0  0  0  0  0  0
  -26.5665  -34.8926   22.4669 O   0  0  0  0  0  0
  -23.5449  -32.1363   23.7303 O   0  0  0  0  0  0
  -29.1491  -18.4529   20.1806 C   0  0  0  0  0  0
  -31.4464  -17.7465   20.2478 C   0  0  0  0  0  0
  -30.9775  -20.0167   20.0925 C   0  0  0  0  0  0
  -30.0940  -17.3415   20.2785 C   0  0  0  0  0  0
  -29.5733  -19.8497   20.0802 C   0  0  0  0  0  0
  -28.5623  -23.7737   19.7473 C   0  0  0  0  0  0
  -29.0795  -22.4267   20.4477 C   0  0  0  0  0  0
  -28.0568  -25.0170   20.6147 C   0  0  0  0  0  0
  -31.8753  -19.0212   20.1708 N   0  0  0  0  0  0
  -29.7598  -15.8866   20.4107 N   0  0  0  0  0  0
  -28.7212  -21.0272   19.9442 N   0  0  0  0  0  0
  -28.5930  -23.8618   18.5146 O   0  0  0  0  0  0
  -31.4575  -12.5737   19.1428 H   0  0  0  0  0  0
  -30.3753  -11.4790   19.9597 H   0  0  0  0  0  0
  -29.7710  -11.6732   17.5287 H   0  0  0  0  0  0
  -29.6085  -13.4057   17.6774 H   0  0  0  0  0  0
  -27.8939  -11.2523   18.9453 H   0  0  0  0  0  0
  -27.3555  -12.4538   17.8021 H   0  0  0  0  0  0
  -27.6112  -14.2301   19.4238 H   0  0  0  0  0  0
  -28.7135  -12.1967   21.4337 H   0  0  0  0  0  0
  -28.4148  -13.8894   21.7529 H   0  0  0  0  0  0
  -25.2732   -9.5688   22.4757 H   0  0  0  0  0  0
  -23.9981   -7.4633   22.7479 H   0  0  0  0  0  0
  -21.0822   -8.8735   19.8960 H   0  0  0  0  0  0
  -22.3644  -10.9648   19.6165 H   0  0  0  0  0  0
  -21.2008   -7.6131   23.9674 H   0  0  0  0  0  0
  -21.1482   -6.0527   25.9057 H   0  0  0  0  0  0
  -22.0609   -2.7591   23.2863 H   0  0  0  0  0  0
  -22.4101  -11.9820   22.4768 H   0  0  0  0  0  0
  -21.1108  -13.1209   22.2730 H   0  0  0  0  0  0
  -24.6445  -15.8397   20.5121 H   0  0  0  0  0  0
  -26.2535  -15.6291   20.0482 H   0  0  0  0  0  0
  -26.7189  -32.5413   23.1047 H   0  0  0  0  0  0
  -25.0056  -33.9671   25.0354 H   0  0  0  0  0  0
  -22.7199  -31.2986   21.3992 H   0  0  0  0  0  0
  -23.3781  -35.9587   23.3307 H   0  0  0  0  0  0
  -24.3596  -36.8915   22.2055 H   0  0  0  0  0  0
  -23.7242  -37.6459   23.6682 H   0  0  0  0  0  0
  -26.1120  -31.5380   20.6180 H   0  0  0  0  0  0
  -26.8404  -30.8104   22.0161 H   0  0  0  0  0  0
  -28.1187  -28.9405   21.1941 H   0  0  0  0  0  0
  -25.9855  -25.9206   18.9763 H   0  0  0  0  0  0
  -23.9715  -27.3165   18.9729 H   0  0  0  0  0  0
  -23.7722  -30.5934   19.4039 H   0  0  0  0  0  0
  -22.7569  -29.2504   19.8516 H   0  0  0  0  0  0
  -25.1308  -36.1919   25.0814 H   0  0  0  0  0  0
  -20.9935  -28.3291   24.1403 H   0  0  0  0  0  0
  -20.5661  -26.2288   23.3600 H   0  0  0  0  0  0
  -21.6630  -26.7435   22.1194 H   0  0  0  0  0  0
  -19.6930  -25.6291   21.1237 H   0  0  0  0  0  0
  -19.6731  -27.3195   20.6732 H   0  0  0  0  0  0
  -17.4182  -26.6659   21.4010 H   0  0  0  0  0  0
  -18.0325  -26.0057   22.9006 H   0  0  0  0  0  0
  -19.7958  -30.7219   24.2238 H   0  0  0  0  0  0
  -17.5064  -31.6283   24.5164 H   0  0  0  0  0  0
  -15.5350  -30.2993   23.7699 H   0  0  0  0  0  0
  -15.8661  -28.0841   22.7054 H   0  0  0  0  0  0
  -24.5884  -30.7129   25.7790 H   0  0  0  0  0  0
  -24.8927  -32.2943   26.4842 H   0  0  0  0  0  0
  -25.8025  -30.8961   27.0232 H   0  0  0  0  0  0
  -26.2944  -29.6705   24.1266 H   0  0  0  0  0  0
  -27.4044  -29.7298   25.4766 H   0  0  0  0  0  0
  -27.8827  -30.4238   23.9473 H   0  0  0  0  0  0
  -27.2637  -33.3686   26.1974 H   0  0  0  0  0  0
  -28.3869  -32.6874   25.0315 H   0  0  0  0  0  0
  -28.0680  -31.8536   26.5449 H   0  0  0  0  0  0
  -28.2570  -38.0110   24.7544 H   0  0  0  0  0  0
  -28.1129  -36.2635   24.6239 H   0  0  0  0  0  0
  -27.2308  -37.1366   25.8862 H   0  0  0  0  0  0
  -20.9364  -29.8809   21.6934 H   0  0  0  0  0  0
  -26.0204  -38.2823   24.1461 H   0  0  0  0  0  0
  -28.0893  -18.2338   20.1912 H   0  0  0  0  0  0
  -32.2639  -17.0550   20.2833 H   0  0  0  0  0  0
  -31.4263  -20.9955   20.0116 H   0  0  0  0  0  0
  -28.7978  -22.4829   21.5017 H   0  0  0  0  0  0
  -30.1633  -22.5505   20.4274 H   0  0  0  0  0  0
  -28.5080  -24.9409   21.6045 H   0  0  0  0  0  0
  -26.9882  -24.8675   20.7653 H   0  0  0  0  0  0
  -28.7765  -15.6744   20.4928 H   0  0  0  0  0  0
  -27.7196  -20.8729   19.8457 H   0  0  0  0  0  0
  1 25  1  0  0  0
  1 30  2  0  0  0
  1 80  1  0  0  0
  2  3  1  0  0  0
  2 25  1  0  0  0
  2 83  1  0  0  0
  2 84  1  0  0  0
  3  4  1  0  0  0
  3 85  1  0  0  0
  3 86  1  0  0  0
  4  5  1  0  0  0
  4 87  1  0  0  0
  4 88  1  0  0  0
  5  6  1  0  0  0
  5 26  1  0  0  0
  5 89  1  0  0  0
  6 25  1  0  0  0
  6 90  1  0  0  0
  6 91  1  0  0  0
  7  8  2  0  0  0
  7 26  1  0  0  0
  7 29  1  0  0  0
  8  9  1  0  0  0
  8 22  1  0  0  0
  9 10  1  0  0  0
  9 27  2  0  0  0
 10 11  2  0  0  0
 10 15  1  0  0  0
 11 12  1  0  0  0
 11 92  1  0  0  0
 12 13  2  0  0  0
 12 93  1  0  0  0
 13 14  1  0  0  0
 13 31  1  0  0  0
 14 15  2  0  0  0
 14 94  1  0  0  0
 15 95  1  0  0  0
 16 17  2  0  0  0
 16 21  1  0  0  0
 16 31  1  0  0  0
 17 18  1  0  0  0
 17 96  1  0  0  0
 18 19  2  0  0  0
 18 97  1  0  0  0
 19 20  1  0  0  0
 19 24  1  0  0  0
 20 21  2  0  0  0
 20 98  1  0  0  0
 21 23  1  0  0  0
 22 28  1  0  0  0
 22 32  2  0  0  0
 26 27  1  0  0  0
 28 99  1  0  0  0
 28100  1  0  0  0
 29101  1  0  0  0
 29102  1  0  0  0
 33 34  1  0  0  0
 33 66  1  0  0  0
 33 70  2  0  0  0
 34 36  1  0  0  0
 34 59  1  0  0  0
 34103  1  0  0  0
 35 44  2  0  0  0
 35 45  1  0  0  0
 35 68  1  0  0  0
 36 56  1  0  0  0
 36104  1  0  0  0
 37 39  1  0  0  0
 37 47  1  0  0  0
 37 66  1  0  0  0
 37105  1  0  0  0
 38 43  2  0  0  0
 38 46  1  0  0  0
 38 47  1  0  0  0
 39 64  1  0  0  0
 39 67  2  0  0  0
 40 52  1  0  0  0
 40 53  2  0  0  0
 40 58  1  0  0  0
 41106  1  0  0  0
 41107  1  0  0  0
 41108  1  0  0  0
 41 48  1  0  0  0
 42 43  1  0  0  0
 42 66  1  0  0  0
 42109  1  0  0  0
 42110  1  0  0  0
 43 44  1  0  0  0
 44111  1  0  0  0
 45 46  2  0  0  0
 45112  1  0  0  0
 46113  1  0  0  0
 47114  1  0  0  0
 47115  1  0  0  0
 48 56  1  0  0  0
 48 65  1  0  0  0
 48116  1  0  0  0
 49 50  1  0  0  0
 49 53  1  0  0  0
 49 64  1  0  0  0
 49117  1  0  0  0
 50 51  1  0  0  0
 50118  1  0  0  0
 50119  1  0  0  0
 51 52  1  0  0  0
 51120  1  0  0  0
 51121  1  0  0  0
 52122  1  0  0  0
 52123  1  0  0  0
 53 54  1  0  0  0
 54 55  2  0  0  0
 54124  1  0  0  0
 55 57  1  0  0  0
 55125  1  0  0  0
 56 69  2  0  0  0
 57 58  2  0  0  0
 57126  1  0  0  0
 58127  1  0  0  0
 59 60  1  0  0  0
 59 61  1  0  0  0
 59 62  1  0  0  0
 60128  1  0  0  0
 60129  1  0  0  0
 60130  1  0  0  0
 61131  1  0  0  0
 61132  1  0  0  0
 61133  1  0  0  0
 62134  1  0  0  0
 62135  1  0  0  0
 62136  1  0  0  0
 63 65  1  0  0  0
 63137  1  0  0  0
 63138  1  0  0  0
 63139  1  0  0  0
 64140  1  0  0  0
 65141  1  0  0  0
 68 78  1  0  0  0
 71 74  2  0  0  0
 71 75  1  0  0  0
 71142  1  0  0  0
 72 74  1  0  0  0
 72 79  2  0  0  0
 72143  1  0  0  0
 73 75  2  0  0  0
 73 79  1  0  0  0
 73144  1  0  0  0
 74 80  1  0  0  0
 75 81  1  0  0  0
 76 77  1  0  0  0
 76 78  1  0  0  0
 76 82  2  0  0  0
 77 81  1  0  0  0
 77145  1  0  0  0
 77146  1  0  0  0
 78147  1  0  0  0
 78148  1  0  0  0
 80149  1  0  0  0
 81150  1  0  0  0
M  ISO  4   1 100  68 101  78 101  80 100
M  END
> <chiral flag>
0

> <version>
0

> <s_m_source_file>
/data/baiqing/PycharmProjects/Reinvent-master-3.2/result/LINK_invent/BTK/process_docking_weight1_custom_product_contain_oxygen_bond_distance_aromatic_linkinvent_7_9_3/rearranged_h_0157.sdf

> <i_m_source_file_index>
55

> <r_mmod_Potential_Energy-OPLS-2005>
141.627899169922

> <r_mmod_Stretch_Energy-OPLS-2005>
121.075286865234

> <r_mmod_Bend_Energy-OPLS-2005>
166.612594604492

> <r_mmod_Torsional_Energy-OPLS-2005>
230.523727416992

> <r_mmod_Improper_Torsional_Energy-OPLS-2005>
7.84346723556519

> <r_mmod_Van_der_Waal_Energy-OPLS-2005>
148.252868652344

> <r_mmod_Electrostatic_Energy-OPLS-2005>
-352.602386474609

> <r_mmod_Solvation_Energy-OPLS-2005>
-265.86328125

> <b_mmod_Minimization_Converged-OPLS-2005>
0

> <r_mmod_RMS_Derivative-OPLS-2005>
6.43385744094849

$$$$
55
                    3D
 Structure written by MMmdl.
160169  0  0  1  0            999 V2000
  -30.5770  -14.8507   20.4281 C   0  0  0  0  0  0
  -30.4360  -12.5190   19.4916 C   0  0  0  0  0  0
  -29.5150  -12.5108   18.2499 C   0  0  0  0  0  0
  -28.0442  -12.3186   18.6655 C   0  0  0  0  0  0
  -27.6350  -13.2393   19.8459 C   0  0  2  0  0  0
  -28.6790  -13.2263   20.9836 C   0  0  0  0  0  0
  -25.2488  -13.8210   20.5713 C   0  0  0  0  0  0
  -24.1791  -13.0445   20.9225 C   0  0  0  0  0  0
  -24.6388  -11.6921   20.8756 C   0  0  0  0  0  0
  -23.9072  -10.4295   21.0410 C   0  0  0  0  0  0
  -24.3620   -9.4208   21.9188 C   0  0  0  0  0  0
  -23.6293   -8.2243   22.0756 C   0  0  0  0  0  0
  -22.4278   -8.0278   21.3542 C   0  0  0  0  0  0
  -21.9912   -9.0255   20.4648 C   0  0  0  0  0  0
  -22.7243  -10.2135   20.3058 C   0  0  0  0  0  0
  -21.6857   -6.0731   22.5275 C   0  0  0  0  0  0
  -21.4015   -6.5637   23.8205 C   0  0  0  0  0  0
  -21.3656   -5.6793   24.9170 C   0  0  0  0  0  0
  -21.6047   -4.3055   24.7226 C   0  0  0  0  0  0
  -21.8818   -3.8144   23.4348 C   0  0  0  0  0  0
  -21.9194   -4.6959   22.3403 C   0  0  0  0  0  0
  -22.7810  -13.5222   21.1879 C   0  0  0  0  0  0
  -22.1663   -4.2142   21.0981 F   0  0  0  0  0  0
  -21.5626   -3.4541   25.7740 F   0  0  0  0  0  0
  -29.9679  -13.6057   20.3927 N   0  0  0  0  0  0
  -26.2905  -12.9424   20.3270 N   0  0  0  0  0  0
  -25.9321  -11.6563   20.5764 N   0  0  0  0  0  0
  -22.0463  -12.8200   22.0431 N   0  0  0  0  0  0
  -25.4171  -15.1937   20.4116 N   0  0  0  0  0  0
  -31.7757  -14.9079   20.1393 O   0  0  0  0  0  0
  -21.6642   -6.8874   21.4237 O   0  0  0  0  0  0
  -22.3487  -14.5529   20.6730 O   0  0  0  0  0  0
  -24.6382  -31.8474   23.1918 C   0  0  0  0  0  0
  -25.9173  -32.4711   23.8295 C   0  0  1  0  0  0
  -27.2127  -27.1819   20.1431 C   0  0  0  0  0  0
  -25.5936  -33.8520   24.2202 N   0  0  0  0  0  0
  -23.4388  -30.4698   21.5363 C   0  0  2  0  0  0
  -24.8852  -28.9047   20.1092 C   0  0  0  0  0  0
  -22.7542  -29.4560   22.4870 C   0  0  0  0  0  0
  -18.0299  -28.1398   22.8469 C   0  0  0  0  0  0
  -24.1490  -36.7264   23.2645 C   0  0  0  0  0  0
  -25.9917  -30.7358   21.3839 C   0  0  0  0  0  0
  -26.0607  -29.3522   20.7248 C   0  0  0  0  0  0
  -27.2241  -28.5051   20.7273 C   0  0  0  0  0  0
  -26.0120  -26.8242   19.4897 C   0  0  0  0  0  0
  -24.8711  -27.6519   19.4795 C   0  0  0  0  0  0
  -23.6604  -29.8016   20.1542 C   0  0  0  0  0  0
  -25.4121  -36.3041   24.0315 C   0  0  1  0  0  0
  -20.5907  -28.3709   23.1247 C   0  0  2  0  0  0
  -20.6787  -26.9414   22.5413 C   0  0  0  0  0  0
  -19.5767  -26.6375   21.5217 C   0  0  0  0  0  0
  -18.1939  -26.7936   22.1611 C   0  0  0  0  0  0
  -19.1556  -28.8869   23.2854 C   0  0  0  0  0  0
  -18.9481  -30.1466   23.8876 C   0  0  0  0  0  0
  -17.6480  -30.6591   24.0563 C   0  0  0  0  0  0
  -25.9069  -34.9413   23.5068 C   0  0  0  0  0  0
  -16.5364  -29.9086   23.6344 C   0  0  0  0  0  0
  -16.7287  -28.6511   23.0352 C   0  0  0  0  0  0
  -26.4508  -31.6577   25.0728 C   0  0  0  0  0  0
  -25.3690  -31.3763   26.1424 C   0  0  0  0  0  0
  -27.0379  -30.2982   24.6289 C   0  0  0  0  0  0
  -27.6045  -32.4345   25.7496 C   0  0  0  0  0  0
  -27.5571  -37.1781   24.8462 C   0  0  0  0  0  0
  -21.4236  -29.3043   22.3628 N   0  0  0  0  0  0
  -26.4281  -37.3749   23.9406 N   0  0  0  0  0  0
  -24.7092  -31.0369   22.0928 N   0  0  0  0  0  0
  -23.4211  -28.8105   23.3000 O   0  0  0  0  0  0
  -28.2927  -26.2453   20.2139 O   0  0  0  0  0  0
  -26.5662  -34.8897   22.4649 O   0  0  0  0  0  0
  -23.5508  -32.1339   23.7150 O   0  0  0  0  0  0
  -31.5916  -19.2822   19.5752 C   0  0  0  0  0  0
  -30.6816  -20.3235   19.8731 C   0  0  0  0  0  0
  -31.3009  -17.9182   19.8163 C   0  0  0  0  0  0
  -29.1418  -18.6059   20.6526 C   0  0  0  0  0  0
  -29.4160  -20.0435   20.4240 C   0  0  0  0  0  0
  -30.0678  -17.4947   20.3717 C   0  0  0  0  0  0
  -28.4703  -21.2306   20.8040 C   0  0  0  0  0  0
  -29.3279  -23.7046   19.9114 C   0  0  0  0  0  0
  -28.1261  -24.7370   19.9513 C   0  0  1  0  0  0
  -27.5630  -23.7782   21.0621 C   0  0  0  0  0  0
  -26.0609  -23.4605   20.9760 C   0  0  0  0  0  0
  -27.9396  -24.1595   22.5026 C   0  0  0  0  0  0
  -28.4619  -22.6414   20.5490 N   0  0  0  0  0  0
  -29.7981  -16.0158   20.6017 N   0  0  0  0  0  0
  -27.4481  -20.8550   21.5708 N   0  3  0  0  0  0
  -31.4743  -12.6550   19.1830 H   0  0  0  0  0  0
  -30.4033  -11.5569   20.0051 H   0  0  0  0  0  0
  -29.8154  -11.7197   17.5615 H   0  0  0  0  0  0
  -29.6228  -13.4504   17.7043 H   0  0  0  0  0  0
  -27.9184  -11.2741   18.9533 H   0  0  0  0  0  0
  -27.3840  -12.4794   17.8122 H   0  0  0  0  0  0
  -27.6129  -14.2500   19.4376 H   0  0  0  0  0  0
  -28.7402  -12.2414   21.4482 H   0  0  0  0  0  0
  -28.3973  -13.9223   21.7758 H   0  0  0  0  0  0
  -25.2762   -9.5685   22.4762 H   0  0  0  0  0  0
  -24.0002   -7.4634   22.7474 H   0  0  0  0  0  0
  -21.0843   -8.8773   19.8951 H   0  0  0  0  0  0
  -22.3699  -10.9673   19.6168 H   0  0  0  0  0  0
  -21.2008   -7.6144   23.9707 H   0  0  0  0  0  0
  -21.1479   -6.0524   25.9072 H   0  0  0  0  0  0
  -22.0602   -2.7605   23.2853 H   0  0  0  0  0  0
  -22.4091  -11.9857   22.4805 H   0  0  0  0  0  0
  -21.1077  -13.1205   22.2651 H   0  0  0  0  0  0
  -24.6458  -15.8439   20.5155 H   0  0  0  0  0  0
  -26.2517  -15.6295   20.0427 H   0  0  0  0  0  0
  -26.7231  -32.5329   23.1018 H   0  0  0  0  0  0
  -25.0054  -33.9650   25.0328 H   0  0  0  0  0  0
  -22.7398  -31.2950   21.3845 H   0  0  0  0  0  0
  -23.3752  -35.9594   23.3299 H   0  0  0  0  0  0
  -24.3581  -36.8911   22.2064 H   0  0  0  0  0  0
  -23.7240  -37.6453   23.6694 H   0  0  0  0  0  0
  -26.1432  -31.4924   20.6134 H   0  0  0  0  0  0
  -26.8642  -30.7812   22.0242 H   0  0  0  0  0  0
  -28.1206  -28.8418   21.2289 H   0  0  0  0  0  0
  -25.9131  -25.8721   18.9950 H   0  0  0  0  0  0
  -23.9720  -27.3047   18.9890 H   0  0  0  0  0  0
  -23.7912  -30.5773   19.3988 H   0  0  0  0  0  0
  -22.7765  -29.2407   19.8458 H   0  0  0  0  0  0
  -25.1304  -36.1869   25.0805 H   0  0  0  0  0  0
  -20.9995  -28.3286   24.1371 H   0  0  0  0  0  0
  -20.5685  -26.2312   23.3627 H   0  0  0  0  0  0
  -21.6650  -26.7426   22.1204 H   0  0  0  0  0  0
  -19.6937  -25.6284   21.1256 H   0  0  0  0  0  0
  -19.6718  -27.3178   20.6744 H   0  0  0  0  0  0
  -17.4217  -26.6694   21.4004 H   0  0  0  0  0  0
  -18.0317  -26.0085   22.9011 H   0  0  0  0  0  0
  -19.7958  -30.7292   24.2223 H   0  0  0  0  0  0
  -17.5034  -31.6267   24.5171 H   0  0  0  0  0  0
  -15.5366  -30.2984   23.7689 H   0  0  0  0  0  0
  -15.8685  -28.0833   22.7069 H   0  0  0  0  0  0
  -24.5894  -30.7078   25.7749 H   0  0  0  0  0  0
  -24.8839  -32.2943   26.4764 H   0  0  0  0  0  0
  -25.7966  -30.9009   27.0259 H   0  0  0  0  0  0
  -26.3002  -29.6706   24.1280 H   0  0  0  0  0  0
  -27.4000  -29.7284   25.4852 H   0  0  0  0  0  0
  -27.8893  -30.4247   23.9598 H   0  0  0  0  0  0
  -27.2660  -33.3679   26.2005 H   0  0  0  0  0  0
  -28.3881  -32.6855   25.0335 H   0  0  0  0  0  0
  -28.0685  -31.8520   26.5468 H   0  0  0  0  0  0
  -28.2574  -38.0090   24.7514 H   0  0  0  0  0  0
  -28.1080  -36.2620   24.6277 H   0  0  0  0  0  0
  -27.2297  -37.1417   25.8867 H   0  0  0  0  0  0
  -20.9431  -29.8772   21.6832 H   0  0  0  0  0  0
  -26.0152  -38.2811   24.1432 H   0  0  0  0  0  0
  -32.5527  -19.5346   19.1507 H   0  0  0  0  0  0
  -30.9729  -21.3465   19.6789 H   0  0  0  0  0  0
  -32.0655  -17.2066   19.5498 H   0  0  0  0  0  0
  -28.1838  -18.3406   21.0736 H   0  0  0  0  0  0
  -30.1708  -23.9792   20.5465 H   0  0  0  0  0  0
  -29.6535  -23.4545   18.9015 H   0  0  0  0  0  0
  -27.5888  -24.6072   19.0118 H   0  0  0  0  0  0
  -25.4819  -24.3586   20.7653 H   0  0  0  0  0  0
  -25.6612  -23.0520   21.9043 H   0  0  0  0  0  0
  -25.8352  -22.7511   20.1787 H   0  0  0  0  0  0
  -27.5314  -25.1355   22.7674 H   0  0  0  0  0  0
  -29.0196  -24.2198   22.6416 H   0  0  0  0  0  0
  -27.5665  -23.4410   23.2322 H   0  0  0  0  0  0
  -28.8498  -15.8058   20.8696 H   0  0  0  0  0  0
  -27.3630  -19.8994   21.8686 H   0  0  0  0  0  0
  -26.7774  -21.5404   21.8701 H   0  0  0  0  0  0
  1 25  1  0  0  0
  1 30  2  0  0  0
  1 84  1  0  0  0
  2  3  1  0  0  0
  2 25  1  0  0  0
  2 86  1  0  0  0
  2 87  1  0  0  0
  3  4  1  0  0  0
  3 88  1  0  0  0
  3 89  1  0  0  0
  4  5  1  0  0  0
  4 90  1  0  0  0
  4 91  1  0  0  0
  5  6  1  0  0  0
  5 26  1  0  0  0
  5 92  1  0  0  0
  6 25  1  0  0  0
  6 93  1  0  0  0
  6 94  1  0  0  0
  7  8  2  0  0  0
  7 26  1  0  0  0
  7 29  1  0  0  0
  8  9  1  0  0  0
  8 22  1  0  0  0
  9 10  1  0  0  0
  9 27  2  0  0  0
 10 11  2  0  0  0
 10 15  1  0  0  0
 11 12  1  0  0  0
 11 95  1  0  0  0
 12 13  2  0  0  0
 12 96  1  0  0  0
 13 14  1  0  0  0
 13 31  1  0  0  0
 14 15  2  0  0  0
 14 97  1  0  0  0
 15 98  1  0  0  0
 16 17  2  0  0  0
 16 21  1  0  0  0
 16 31  1  0  0  0
 17 18  1  0  0  0
 17 99  1  0  0  0
 18 19  2  0  0  0
 18100  1  0  0  0
 19 20  1  0  0  0
 19 24  1  0  0  0
 20 21  2  0  0  0
 20101  1  0  0  0
 21 23  1  0  0  0
 22 28  1  0  0  0
 22 32  2  0  0  0
 26 27  1  0  0  0
 28102  1  0  0  0
 28103  1  0  0  0
 29104  1  0  0  0
 29105  1  0  0  0
 33 34  1  0  0  0
 33 66  1  0  0  0
 33 70  2  0  0  0
 34 36  1  0  0  0
 34 59  1  0  0  0
 34106  1  0  0  0
 35 44  2  0  0  0
 35 45  1  0  0  0
 35 68  1  0  0  0
 36 56  1  0  0  0
 36107  1  0  0  0
 37 39  1  0  0  0
 37 47  1  0  0  0
 37 66  1  0  0  0
 37108  1  0  0  0
 38 43  2  0  0  0
 38 46  1  0  0  0
 38 47  1  0  0  0
 39 64  1  0  0  0
 39 67  2  0  0  0
 40 52  1  0  0  0
 40 53  2  0  0  0
 40 58  1  0  0  0
 41109  1  0  0  0
 41110  1  0  0  0
 41111  1  0  0  0
 41 48  1  0  0  0
 42 43  1  0  0  0
 42 66  1  0  0  0
 42112  1  0  0  0
 42113  1  0  0  0
 43 44  1  0  0  0
 44114  1  0  0  0
 45 46  2  0  0  0
 45115  1  0  0  0
 46116  1  0  0  0
 47117  1  0  0  0
 47118  1  0  0  0
 48 56  1  0  0  0
 48 65  1  0  0  0
 48119  1  0  0  0
 49 50  1  0  0  0
 49 53  1  0  0  0
 49 64  1  0  0  0
 49120  1  0  0  0
 50 51  1  0  0  0
 50121  1  0  0  0
 50122  1  0  0  0
 51 52  1  0  0  0
 51123  1  0  0  0
 51124  1  0  0  0
 52125  1  0  0  0
 52126  1  0  0  0
 53 54  1  0  0  0
 54 55  2  0  0  0
 54127  1  0  0  0
 55 57  1  0  0  0
 55128  1  0  0  0
 56 69  2  0  0  0
 57 58  2  0  0  0
 57129  1  0  0  0
 58130  1  0  0  0
 59 60  1  0  0  0
 59 61  1  0  0  0
 59 62  1  0  0  0
 60131  1  0  0  0
 60132  1  0  0  0
 60133  1  0  0  0
 61134  1  0  0  0
 61135  1  0  0  0
 61136  1  0  0  0
 62137  1  0  0  0
 62138  1  0  0  0
 62139  1  0  0  0
 63 65  1  0  0  0
 63140  1  0  0  0
 63141  1  0  0  0
 63142  1  0  0  0
 64143  1  0  0  0
 65144  1  0  0  0
 68 79  1  0  0  0
 71 72  2  0  0  0
 71 73  1  0  0  0
 71145  1  0  0  0
 72 75  1  0  0  0
 72146  1  0  0  0
 73 76  2  0  0  0
 73147  1  0  0  0
 74 75  2  0  0  0
 74 76  1  0  0  0
 74148  1  0  0  0
 75 77  1  0  0  0
 76 84  1  0  0  0
 77 83  1  0  0  0
 77 85  2  0  0  0
 78 79  1  0  0  0
 78 83  1  0  0  0
 78149  1  0  0  0
 78150  1  0  0  0
 79 80  1  0  0  0
 79151  1  0  0  0
 80 81  1  0  0  0
 80 82  1  0  0  0
 80 83  1  0  0  0
 81152  1  0  0  0
 81153  1  0  0  0
 81154  1  0  0  0
 82155  1  0  0  0
 82156  1  0  0  0
 82157  1  0  0  0
 84158  1  0  0  0
 85159  1  0  0  0
 85160  1  0  0  0
M  CHG  1  85   1
M  ISO  4   1 100  68 101  79 101  84 100
M  END
> <chiral flag>
0

> <version>
0

> <s_m_source_file>
/data/baiqing/PycharmProjects/Reinvent-master-3.2/result/LINK_invent/BTK/process_docking_weight1_custom_product_contain_oxygen_bond_distance_aromatic_linkinvent_7_9_3/rearranged_h_0157.sdf

> <i_m_source_file_index>
56

> <r_mmod_Potential_Energy-OPLS-2005>
187.083908081055

> <r_mmod_Stretch_Energy-OPLS-2005>
186.292007446289

> <r_mmod_Bend_Energy-OPLS-2005>
233.245223999023

> <r_mmod_Torsional_Energy-OPLS-2005>
228.476715087891

> <r_mmod_Improper_Torsional_Energy-OPLS-2005>
4.70883798599243

> <r_mmod_Van_der_Waal_Energy-OPLS-2005>
139.772491455078

> <r_mmod_Electrostatic_Energy-OPLS-2005>
-325.745361328125

> <r_mmod_Solvation_Energy-OPLS-2005>
-417.901275634766

> <b_mmod_Minimization_Converged-OPLS-2005>
0

> <r_mmod_RMS_Derivative-OPLS-2005>
1.28996253013611

$$$$
56
                    3D
 Structure written by MMmdl.
153161  0  0  1  0            999 V2000
  -30.5905  -14.7898   20.4424 C   0  0  0  0  0  0
  -30.4333  -12.4774   19.4946 C   0  0  0  0  0  0
  -29.5183  -12.5116   18.2490 C   0  0  0  0  0  0
  -28.0441  -12.3295   18.6573 C   0  0  0  0  0  0
  -27.6409  -13.2353   19.8515 C   0  0  2  0  0  0
  -28.6808  -13.1908   20.9938 C   0  0  0  0  0  0
  -25.2506  -13.8201   20.5702 C   0  0  0  0  0  0
  -24.1802  -13.0444   20.9206 C   0  0  0  0  0  0
  -24.6390  -11.6919   20.8738 C   0  0  0  0  0  0
  -23.9065  -10.4298   21.0398 C   0  0  0  0  0  0
  -24.3618   -9.4213   21.9179 C   0  0  0  0  0  0
  -23.6296   -8.2245   22.0749 C   0  0  0  0  0  0
  -22.4276   -8.0283   21.3542 C   0  0  0  0  0  0
  -21.9909   -9.0257   20.4643 C   0  0  0  0  0  0
  -22.7233  -10.2138   20.3049 C   0  0  0  0  0  0
  -21.6856   -6.0736   22.5280 C   0  0  0  0  0  0
  -21.4017   -6.5641   23.8215 C   0  0  0  0  0  0
  -21.3660   -5.6789   24.9179 C   0  0  0  0  0  0
  -21.6042   -4.3053   24.7227 C   0  0  0  0  0  0
  -21.8819   -3.8144   23.4348 C   0  0  0  0  0  0
  -21.9196   -4.6962   22.3404 C   0  0  0  0  0  0
  -22.7823  -13.5225   21.1871 C   0  0  0  0  0  0
  -22.1664   -4.2148   21.0981 F   0  0  0  0  0  0
  -21.5626   -3.4535   25.7740 F   0  0  0  0  0  0
  -29.9814  -13.5502   20.4168 N   0  0  0  0  0  0
  -26.2929  -12.9413   20.3271 N   0  0  0  0  0  0
  -25.9324  -11.6552   20.5733 N   0  0  0  0  0  0
  -22.0465  -12.8222   22.0426 N   0  0  0  0  0  0
  -25.4198  -15.1931   20.4151 N   0  0  0  0  0  0
  -31.7709  -14.8819   20.0935 O   0  0  0  0  0  0
  -21.6641   -6.8878   21.4242 O   0  0  0  0  0  0
  -22.3512  -14.5535   20.6716 O   0  0  0  0  0  0
  -24.6357  -31.8519   23.1976 C   0  0  0  0  0  0
  -25.9163  -32.4729   23.8337 C   0  0  1  0  0  0
  -27.2075  -27.2130   20.1393 C   0  0  0  0  0  0
  -25.5940  -33.8534   24.2251 N   0  0  0  0  0  0
  -23.4349  -30.4769   21.5405 C   0  0  2  0  0  0
  -24.8818  -28.9241   20.1049 C   0  0  0  0  0  0
  -22.7529  -29.4589   22.4878 C   0  0  0  0  0  0
  -18.0301  -28.1388   22.8483 C   0  0  0  0  0  0
  -24.1495  -36.7282   23.2644 C   0  0  0  0  0  0
  -25.9856  -30.7493   21.3871 C   0  0  0  0  0  0
  -26.0551  -29.3696   20.7269 C   0  0  0  0  0  0
  -27.2190  -28.5261   20.7360 C   0  0  0  0  0  0
  -26.0183  -26.8668   19.4554 C   0  0  0  0  0  0
  -24.8723  -27.6835   19.4546 C   0  0  0  0  0  0
  -23.6561  -29.8167   20.1549 C   0  0  0  0  0  0
  -25.4123  -36.3057   24.0324 C   0  0  1  0  0  0
  -20.5908  -28.3707   23.1241 C   0  0  2  0  0  0
  -20.6787  -26.9420   22.5388 C   0  0  0  0  0  0
  -19.5752  -26.6381   21.5205 C   0  0  0  0  0  0
  -18.1944  -26.7924   22.1640 C   0  0  0  0  0  0
  -19.1556  -28.8866   23.2857 C   0  0  0  0  0  0
  -18.9473  -30.1466   23.8874 C   0  0  0  0  0  0
  -17.6469  -30.6587   24.0556 C   0  0  0  0  0  0
  -25.9057  -34.9422   23.5092 C   0  0  0  0  0  0
  -16.5361  -29.9081   23.6330 C   0  0  0  0  0  0
  -16.7286  -28.6500   23.0351 C   0  0  0  0  0  0
  -26.4511  -31.6567   25.0746 C   0  0  0  0  0  0
  -25.3735  -31.3735   26.1475 C   0  0  0  0  0  0
  -27.0360  -30.2971   24.6274 C   0  0  0  0  0  0
  -27.6060  -32.4313   25.7515 C   0  0  0  0  0  0
  -27.5563  -37.1821   24.8481 C   0  0  0  0  0  0
  -21.4230  -29.3050   22.3622 N   0  0  0  0  0  0
  -26.4306  -37.3747   23.9380 N   0  0  0  0  0  0
  -24.7047  -31.0450   22.0971 N   0  0  0  0  0  0
  -23.4210  -28.8123   23.2987 O   0  0  0  0  0  0
  -28.2606  -26.2551   20.2437 O   0  0  0  0  0  0
  -26.5631  -34.8896   22.4661 O   0  0  0  0  0  0
  -23.5494  -32.1356   23.7245 O   0  0  0  0  0  0
  -29.3393  -20.6570   21.9362 C   0  0  0  0  0  0
  -29.6759  -19.2488   21.9840 C   0  0  0  0  0  0
  -29.6559  -18.7326   20.7006 C   0  0  0  0  0  0
  -29.1256  -21.0097   20.6296 C   0  0  0  0  0  0
  -30.0520  -18.4443   23.1700 C   0  0  0  0  0  0
  -28.7993  -23.5809   20.6215 C   0  0  0  0  0  0
  -29.6495  -19.0060   24.5248 C   0  0  0  0  0  0
  -30.0440  -17.3402   20.0188 C   0  0  0  0  0  0
  -27.9703  -24.7886   19.9314 C   0  0  0  0  0  0
  -28.7047  -22.2692   20.1386 N   0  0  0  0  0  0
  -29.8110  -15.9347   20.6120 N   0  0  0  0  0  0
  -30.6581  -17.3729   23.1054 O   0  0  0  0  0  0
  -29.5086  -23.8464   21.5972 O   0  0  0  0  0  0
  -29.2901  -19.8298   19.8687 O   0  0  0  0  0  0
  -31.4757  -12.6003   19.1956 H   0  0  0  0  0  0
  -30.3794  -11.5051   19.9867 H   0  0  0  0  0  0
  -29.8105  -11.7321   17.5442 H   0  0  0  0  0  0
  -29.6414  -13.4615   17.7256 H   0  0  0  0  0  0
  -27.9067  -11.2820   18.9275 H   0  0  0  0  0  0
  -27.3890  -12.5111   17.8048 H   0  0  0  0  0  0
  -27.6298  -14.2527   19.4609 H   0  0  0  0  0  0
  -28.7219  -12.1999   21.4482 H   0  0  0  0  0  0
  -28.4058  -13.8824   21.7915 H   0  0  0  0  0  0
  -25.2760   -9.5702   22.4753 H   0  0  0  0  0  0
  -24.0014   -7.4636   22.7465 H   0  0  0  0  0  0
  -21.0837   -8.8772   19.8950 H   0  0  0  0  0  0
  -22.3682  -10.9679   19.6162 H   0  0  0  0  0  0
  -21.2012   -7.6148   23.9722 H   0  0  0  0  0  0
  -21.1479   -6.0517   25.9083 H   0  0  0  0  0  0
  -22.0597   -2.7605   23.2844 H   0  0  0  0  0  0
  -22.4078  -11.9890   22.4829 H   0  0  0  0  0  0
  -21.1086  -13.1260   22.2628 H   0  0  0  0  0  0
  -24.6505  -15.8441   20.5290 H   0  0  0  0  0  0
  -26.2655  -15.6357   20.0791 H   0  0  0  0  0  0
  -26.7233  -32.5363   23.1079 H   0  0  0  0  0  0
  -25.0073  -33.9660   25.0387 H   0  0  0  0  0  0
  -22.7339  -31.3015   21.3955 H   0  0  0  0  0  0
  -23.3716  -35.9665   23.3386 H   0  0  0  0  0  0
  -24.3565  -36.8818   22.2042 H   0  0  0  0  0  0
  -23.7311  -37.6537   23.6613 H   0  0  0  0  0  0
  -26.1344  -31.5090   20.6186 H   0  0  0  0  0  0
  -26.8595  -30.7956   22.0253 H   0  0  0  0  0  0
  -28.1088  -28.8556   21.2542 H   0  0  0  0  0  0
  -25.9299  -25.9319   18.9236 H   0  0  0  0  0  0
  -23.9805  -27.3450   18.9454 H   0  0  0  0  0  0
  -23.7858  -30.5965   19.4033 H   0  0  0  0  0  0
  -22.7725  -29.2561   19.8447 H   0  0  0  0  0  0
  -25.1315  -36.1919   25.0820 H   0  0  0  0  0  0
  -21.0009  -28.3288   24.1358 H   0  0  0  0  0  0
  -20.5699  -26.2314   23.3597 H   0  0  0  0  0  0
  -21.6648  -26.7442   22.1169 H   0  0  0  0  0  0
  -19.6910  -25.6290   21.1240 H   0  0  0  0  0  0
  -19.6673  -27.3182   20.6726 H   0  0  0  0  0  0
  -17.4197  -26.6637   21.4065 H   0  0  0  0  0  0
  -18.0375  -26.0081   22.9059 H   0  0  0  0  0  0
  -19.7948  -30.7288   24.2228 H   0  0  0  0  0  0
  -17.5023  -31.6264   24.5163 H   0  0  0  0  0  0
  -15.5359  -30.2974   23.7664 H   0  0  0  0  0  0
  -15.8690  -28.0813   22.7069 H   0  0  0  0  0  0
  -24.5825  -30.7200   25.7777 H   0  0  0  0  0  0
  -24.9048  -32.2926   26.5004 H   0  0  0  0  0  0
  -25.8039  -30.8786   27.0194 H   0  0  0  0  0  0
  -26.2954  -29.6709   24.1288 H   0  0  0  0  0  0
  -27.3991  -29.7250   25.4823 H   0  0  0  0  0  0
  -27.8863  -30.4212   23.9564 H   0  0  0  0  0  0
  -27.2661  -33.3600   26.2109 H   0  0  0  0  0  0
  -28.3867  -32.6896   25.0349 H   0  0  0  0  0  0
  -28.0746  -31.8441   26.5423 H   0  0  0  0  0  0
  -28.2649  -38.0046   24.7413 H   0  0  0  0  0  0
  -28.0990  -36.2570   24.6471 H   0  0  0  0  0  0
  -27.2258  -37.1668   25.8882 H   0  0  0  0  0  0
  -20.9419  -29.8778   21.6829 H   0  0  0  0  0  0
  -26.0185  -38.2842   24.1295 H   0  0  0  0  0  0
  -29.2708  -21.3307   22.7789 H   0  0  0  0  0  0
  -30.1214  -19.9744   24.6888 H   0  0  0  0  0  0
  -29.9543  -18.3287   25.3231 H   0  0  0  0  0  0
  -28.5673  -19.1290   24.5677 H   0  0  0  0  0  0
  -31.1019  -17.4018   19.7608 H   0  0  0  0  0  0
  -29.5405  -17.3138   19.0513 H   0  0  0  0  0  0
  -26.9467  -24.5662   20.2331 H   0  0  0  0  0  0
  -28.0117  -24.6534   18.8504 H   0  0  0  0  0  0
  -28.2055  -22.2126   19.2617 H   0  0  0  0  0  0
  -28.8744  -15.7637   20.9432 H   0  0  0  0  0  0
  1 25  1  0  0  0
  1 30  2  0  0  0
  1 81  1  0  0  0
  2  3  1  0  0  0
  2 25  1  0  0  0
  2 85  1  0  0  0
  2 86  1  0  0  0
  3  4  1  0  0  0
  3 87  1  0  0  0
  3 88  1  0  0  0
  4  5  1  0  0  0
  4 89  1  0  0  0
  4 90  1  0  0  0
  5  6  1  0  0  0
  5 26  1  0  0  0
  5 91  1  0  0  0
  6 25  1  0  0  0
  6 92  1  0  0  0
  6 93  1  0  0  0
  7  8  2  0  0  0
  7 26  1  0  0  0
  7 29  1  0  0  0
  8  9  1  0  0  0
  8 22  1  0  0  0
  9 10  1  0  0  0
  9 27  2  0  0  0
 10 11  2  0  0  0
 10 15  1  0  0  0
 11 12  1  0  0  0
 11 94  1  0  0  0
 12 13  2  0  0  0
 12 95  1  0  0  0
 13 14  1  0  0  0
 13 31  1  0  0  0
 14 15  2  0  0  0
 14 96  1  0  0  0
 15 97  1  0  0  0
 16 17  2  0  0  0
 16 21  1  0  0  0
 16 31  1  0  0  0
 17 18  1  0  0  0
 17 98  1  0  0  0
 18 19  2  0  0  0
 18 99  1  0  0  0
 19 20  1  0  0  0
 19 24  1  0  0  0
 20 21  2  0  0  0
 20100  1  0  0  0
 21 23  1  0  0  0
 22 28  1  0  0  0
 22 32  2  0  0  0
 26 27  1  0  0  0
 28101  1  0  0  0
 28102  1  0  0  0
 29103  1  0  0  0
 29104  1  0  0  0
 33 34  1  0  0  0
 33 66  1  0  0  0
 33 70  2  0  0  0
 34 36  1  0  0  0
 34 59  1  0  0  0
 34105  1  0  0  0
 35 44  2  0  0  0
 35 45  1  0  0  0
 35 68  1  0  0  0
 36 56  1  0  0  0
 36106  1  0  0  0
 37 39  1  0  0  0
 37 47  1  0  0  0
 37 66  1  0  0  0
 37107  1  0  0  0
 38 43  2  0  0  0
 38 46  1  0  0  0
 38 47  1  0  0  0
 39 64  1  0  0  0
 39 67  2  0  0  0
 40 52  1  0  0  0
 40 53  2  0  0  0
 40 58  1  0  0  0
 41108  1  0  0  0
 41109  1  0  0  0
 41110  1  0  0  0
 41 48  1  0  0  0
 42 43  1  0  0  0
 42 66  1  0  0  0
 42111  1  0  0  0
 42112  1  0  0  0
 43 44  1  0  0  0
 44113  1  0  0  0
 45 46  2  0  0  0
 45114  1  0  0  0
 46115  1  0  0  0
 47116  1  0  0  0
 47117  1  0  0  0
 48 56  1  0  0  0
 48 65  1  0  0  0
 48118  1  0  0  0
 49 50  1  0  0  0
 49 53  1  0  0  0
 49 64  1  0  0  0
 49119  1  0  0  0
 50 51  1  0  0  0
 50120  1  0  0  0
 50121  1  0  0  0
 51 52  1  0  0  0
 51122  1  0  0  0
 51123  1  0  0  0
 52124  1  0  0  0
 52125  1  0  0  0
 53 54  1  0  0  0
 54 55  2  0  0  0
 54126  1  0  0  0
 55 57  1  0  0  0
 55127  1  0  0  0
 56 69  2  0  0  0
 57 58  2  0  0  0
 57128  1  0  0  0
 58129  1  0  0  0
 59 60  1  0  0  0
 59 61  1  0  0  0
 59 62  1  0  0  0
 60130  1  0  0  0
 60131  1  0  0  0
 60132  1  0  0  0
 61133  1  0  0  0
 61134  1  0  0  0
 61135  1  0  0  0
 62136  1  0  0  0
 62137  1  0  0  0
 62138  1  0  0  0
 63 65  1  0  0  0
 63139  1  0  0  0
 63140  1  0  0  0
 63141  1  0  0  0
 64142  1  0  0  0
 65143  1  0  0  0
 68 79  1  0  0  0
 71 72  1  0  0  0
 71 74  2  0  0  0
 71144  1  0  0  0
 72 73  2  0  0  0
 72 75  1  0  0  0
 73 78  1  0  0  0
 73 84  1  0  0  0
 74 80  1  0  0  0
 74 84  1  0  0  0
 75 77  1  0  0  0
 75 82  2  0  0  0
 76 79  1  0  0  0
 76 80  1  0  0  0
 76 83  2  0  0  0
 77145  1  0  0  0
 77146  1  0  0  0
 77147  1  0  0  0
 78 81  1  0  0  0
 78148  1  0  0  0
 78149  1  0  0  0
 79150  1  0  0  0
 79151  1  0  0  0
 80152  1  0  0  0
 81153  1  0  0  0
M  ISO  4   1 100  68 101  79 101  81 100
M  END
> <chiral flag>
0

> <version>
0

> <s_m_source_file>
/data/baiqing/PycharmProjects/Reinvent-master-3.2/result/LINK_invent/BTK/process_docking_weight1_custom_product_contain_oxygen_bond_distance_aromatic_linkinvent_7_9_3/rearranged_h_0157.sdf

> <i_m_source_file_index>
57

> <r_mmod_Potential_Energy-OPLS-2005>
84.9629135131836

> <r_mmod_Stretch_Energy-OPLS-2005>
145.668106079102

> <r_mmod_Bend_Energy-OPLS-2005>
192.371505737305

> <r_mmod_Torsional_Energy-OPLS-2005>
244.61213684082

> <r_mmod_Improper_Torsional_Energy-OPLS-2005>
7.31381797790527

> <r_mmod_Van_der_Waal_Energy-OPLS-2005>
119.733787536621

> <r_mmod_Electrostatic_Energy-OPLS-2005>
-482.439849853516

> <r_mmod_Solvation_Energy-OPLS-2005>
-258.812133789062

> <b_mmod_Minimization_Converged-OPLS-2005>
0

> <r_mmod_RMS_Derivative-OPLS-2005>
1.17883121967316

$$$$
57
                    3D
 Structure written by MMmdl.
154163  0  0  1  0            999 V2000
  -30.5914  -14.8184   20.4219 C   0  0  0  0  0  0
  -30.4332  -12.4968   19.4892 C   0  0  0  0  0  0
  -29.5156  -12.5119   18.2459 C   0  0  0  0  0  0
  -28.0423  -12.3280   18.6572 C   0  0  0  0  0  0
  -27.6373  -13.2411   19.8454 C   0  0  2  0  0  0
  -28.6807  -13.2127   20.9830 C   0  0  0  0  0  0
  -25.2488  -13.8215   20.5699 C   0  0  0  0  0  0
  -24.1791  -13.0449   20.9218 C   0  0  0  0  0  0
  -24.6396  -11.6928   20.8750 C   0  0  0  0  0  0
  -23.9078  -10.4296   21.0405 C   0  0  0  0  0  0
  -24.3630   -9.4212   21.9183 C   0  0  0  0  0  0
  -23.6301   -8.2250   22.0753 C   0  0  0  0  0  0
  -22.4282   -8.0285   21.3548 C   0  0  0  0  0  0
  -21.9922   -9.0258   20.4652 C   0  0  0  0  0  0
  -22.7249  -10.2135   20.3055 C   0  0  0  0  0  0
  -21.6853   -6.0738   22.5278 C   0  0  0  0  0  0
  -21.4013   -6.5639   23.8213 C   0  0  0  0  0  0
  -21.3663   -5.6792   24.9178 C   0  0  0  0  0  0
  -21.6048   -4.3053   24.7227 C   0  0  0  0  0  0
  -21.8816   -3.8146   23.4347 C   0  0  0  0  0  0
  -21.9193   -4.6964   22.3404 C   0  0  0  0  0  0
  -22.7811  -13.5224   21.1872 C   0  0  0  0  0  0
  -22.1657   -4.2150   21.0981 F   0  0  0  0  0  0
  -21.5637   -3.4535   25.7739 F   0  0  0  0  0  0
  -29.9759  -13.5795   20.3977 N   0  0  0  0  0  0
  -26.2917  -12.9438   20.3261 N   0  0  0  0  0  0
  -25.9329  -11.6573   20.5747 N   0  0  0  0  0  0
  -22.0459  -12.8213   22.0429 N   0  0  0  0  0  0
  -25.4172  -15.1942   20.4119 N   0  0  0  0  0  0
  -31.7944  -14.8775   20.1502 O   0  0  0  0  0  0
  -21.6645   -6.8881   21.4240 O   0  0  0  0  0  0
  -22.3494  -14.5527   20.6714 O   0  0  0  0  0  0
  -24.6362  -31.8516   23.1949 C   0  0  0  0  0  0
  -25.9166  -32.4734   23.8318 C   0  0  1  0  0  0
  -27.2203  -27.2249   20.1404 C   0  0  0  0  0  0
  -25.5953  -33.8539   24.2244 N   0  0  0  0  0  0
  -23.4362  -30.4723   21.5386 C   0  0  2  0  0  0
  -24.8879  -28.9146   20.1090 C   0  0  0  0  0  0
  -22.7534  -29.4582   22.4892 C   0  0  0  0  0  0
  -18.0304  -28.1387   22.8480 C   0  0  0  0  0  0
  -24.1491  -36.7269   23.2639 C   0  0  0  0  0  0
  -25.9863  -30.7520   21.3832 C   0  0  0  0  0  0
  -26.0617  -29.3714   20.7253 C   0  0  0  0  0  0
  -27.2343  -28.5390   20.7312 C   0  0  0  0  0  0
  -26.0280  -26.8485   19.4884 C   0  0  0  0  0  0
  -24.8783  -27.6625   19.4763 C   0  0  0  0  0  0
  -23.6587  -29.8046   20.1560 C   0  0  0  0  0  0
  -25.4118  -36.3059   24.0325 C   0  0  1  0  0  0
  -20.5910  -28.3707   23.1254 C   0  0  2  0  0  0
  -20.6791  -26.9418   22.5405 C   0  0  0  0  0  0
  -19.5763  -26.6379   21.5213 C   0  0  0  0  0  0
  -18.1943  -26.7928   22.1622 C   0  0  0  0  0  0
  -19.1555  -28.8864   23.2862 C   0  0  0  0  0  0
  -18.9473  -30.1464   23.8881 C   0  0  0  0  0  0
  -17.6469  -30.6590   24.0555 C   0  0  0  0  0  0
  -25.9062  -34.9429   23.5088 C   0  0  0  0  0  0
  -16.5361  -29.9079   23.6336 C   0  0  0  0  0  0
  -16.7287  -28.6497   23.0355 C   0  0  0  0  0  0
  -26.4516  -31.6570   25.0724 C   0  0  0  0  0  0
  -25.3726  -31.3734   26.1437 C   0  0  0  0  0  0
  -27.0366  -30.2978   24.6243 C   0  0  0  0  0  0
  -27.6070  -32.4314   25.7496 C   0  0  0  0  0  0
  -27.5583  -37.1787   24.8464 C   0  0  0  0  0  0
  -21.4236  -29.3043   22.3634 N   0  0  0  0  0  0
  -26.4290  -37.3765   23.9414 N   0  0  0  0  0  0
  -24.7051  -31.0445   22.0946 N   0  0  0  0  0  0
  -23.4210  -28.8130   23.3019 O   0  0  0  0  0  0
  -28.2462  -26.2409   20.1929 O   0  0  0  0  0  0
  -26.5635  -34.8913   22.4658 O   0  0  0  0  0  0
  -23.5500  -32.1359   23.7210 O   0  0  0  0  0  0
  -30.3116  -20.0249   18.8831 C   0  0  0  0  0  0
  -30.8525  -18.8635   18.2970 C   0  0  0  0  0  0
  -29.4234  -18.6231   20.6562 C   0  0  0  0  0  0
  -29.5590  -19.9722   20.0725 C   0  0  0  0  0  0
  -29.9981  -17.3898   20.0859 C   0  0  0  0  0  0
  -30.6890  -17.5817   18.8606 C   0  0  0  0  0  0
  -28.2420  -23.6568   20.8457 C   0  0  0  0  0  0
  -27.9203  -25.0270   20.8837 C   0  0  0  0  0  0
  -27.5800  -22.7227   21.8537 C   0  0  0  0  0  0
  -29.1294  -22.6605   20.0048 C   0  0  0  0  0  0
  -28.2397  -21.3186   21.7926 C   0  0  0  0  0  0
  -29.0048  -21.2434   20.5587 N   0  0  0  0  0  0
  -29.8264  -15.9813   20.6114 N   0  0  0  0  0  0
  -31.1648  -16.5288   18.1552 F   0  0  0  0  0  0
  -31.4737  -12.6229   19.1868 H   0  0  0  0  0  0
  -30.3863  -11.5309   19.9944 H   0  0  0  0  0  0
  -29.8107  -11.7254   17.5498 H   0  0  0  0  0  0
  -29.6335  -13.4557   17.7111 H   0  0  0  0  0  0
  -27.9098  -11.2812   18.9336 H   0  0  0  0  0  0
  -27.3853  -12.5006   17.8040 H   0  0  0  0  0  0
  -27.6193  -14.2558   19.4469 H   0  0  0  0  0  0
  -28.7308  -12.2243   21.4414 H   0  0  0  0  0  0
  -28.4041  -13.9068   21.7780 H   0  0  0  0  0  0
  -25.2775   -9.5686   22.4762 H   0  0  0  0  0  0
  -24.0006   -7.4642   22.7473 H   0  0  0  0  0  0
  -21.0855   -8.8778   19.8959 H   0  0  0  0  0  0
  -22.3709  -10.9675   19.6164 H   0  0  0  0  0  0
  -21.1996   -7.6144   23.9718 H   0  0  0  0  0  0
  -21.1493   -6.0521   25.9081 H   0  0  0  0  0  0
  -22.0592   -2.7608   23.2848 H   0  0  0  0  0  0
  -22.4069  -11.9873   22.4823 H   0  0  0  0  0  0
  -21.1077  -13.1233   22.2627 H   0  0  0  0  0  0
  -24.6501  -15.8476   20.5287 H   0  0  0  0  0  0
  -26.2593  -15.6334   20.0628 H   0  0  0  0  0  0
  -26.7233  -32.5373   23.1058 H   0  0  0  0  0  0
  -25.0112  -33.9672   25.0398 H   0  0  0  0  0  0
  -22.7351  -31.2961   21.3884 H   0  0  0  0  0  0
  -23.3766  -35.9586   23.3279 H   0  0  0  0  0  0
  -24.3586  -36.8915   22.2058 H   0  0  0  0  0  0
  -23.7220  -37.6452   23.6678 H   0  0  0  0  0  0
  -26.1330  -31.5103   20.6129 H   0  0  0  0  0  0
  -26.8604  -30.8010   22.0208 H   0  0  0  0  0  0
  -28.1288  -28.8764   21.2354 H   0  0  0  0  0  0
  -25.9743  -25.8784   19.0142 H   0  0  0  0  0  0
  -23.9821  -27.3058   18.9877 H   0  0  0  0  0  0
  -23.7848  -30.5800   19.3995 H   0  0  0  0  0  0
  -22.7770  -29.2387   19.8499 H   0  0  0  0  0  0
  -25.1298  -36.1900   25.0816 H   0  0  0  0  0  0
  -21.0004  -28.3286   24.1374 H   0  0  0  0  0  0
  -20.5693  -26.2317   23.3614 H   0  0  0  0  0  0
  -21.6658  -26.7432   22.1196 H   0  0  0  0  0  0
  -19.6923  -25.6285   21.1254 H   0  0  0  0  0  0
  -19.6703  -27.3182   20.6734 H   0  0  0  0  0  0
  -17.4215  -26.6678   21.4022 H   0  0  0  0  0  0
  -18.0336  -26.0071   22.9017 H   0  0  0  0  0  0
  -19.7949  -30.7286   24.2240 H   0  0  0  0  0  0
  -17.5021  -31.6269   24.5154 H   0  0  0  0  0  0
  -15.5358  -30.2968   23.7672 H   0  0  0  0  0  0
  -15.8689  -28.0805   22.7076 H   0  0  0  0  0  0
  -24.5890  -30.7104   25.7754 H   0  0  0  0  0  0
  -24.8937  -32.2909   26.4865 H   0  0  0  0  0  0
  -25.8028  -30.8895   27.0215 H   0  0  0  0  0  0
  -26.2962  -29.6711   24.1259 H   0  0  0  0  0  0
  -27.4021  -29.7258   25.4781 H   0  0  0  0  0  0
  -27.8855  -30.4236   23.9519 H   0  0  0  0  0  0
  -27.2685  -33.3626   26.2049 H   0  0  0  0  0  0
  -28.3893  -32.6849   25.0328 H   0  0  0  0  0  0
  -28.0725  -31.8450   26.5427 H   0  0  0  0  0  0
  -28.2584  -38.0102   24.7539 H   0  0  0  0  0  0
  -28.1100  -36.2635   24.6257 H   0  0  0  0  0  0
  -27.2312  -37.1392   25.8869 H   0  0  0  0  0  0
  -20.9433  -29.8750   21.6818 H   0  0  0  0  0  0
  -26.0165  -38.2835   24.1426 H   0  0  0  0  0  0
  -30.4714  -20.9678   18.3806 H   0  0  0  0  0  0
  -31.3931  -18.9538   17.3667 H   0  0  0  0  0  0
  -28.8526  -18.5259   21.5676 H   0  0  0  0  0  0
  -27.2178  -25.2930   21.6632 H   0  0  0  0  0  0
  -26.5264  -22.6380   21.5832 H   0  0  0  0  0  0
  -27.6186  -23.1367   22.8624 H   0  0  0  0  0  0
  -30.1694  -22.9875   20.0390 H   0  0  0  0  0  0
  -28.8089  -22.6888   18.9625 H   0  0  0  0  0  0
  -27.4864  -20.5310   21.8465 H   0  0  0  0  0  0
  -28.9179  -21.1827   22.6369 H   0  0  0  0  0  0
  -28.9322  -15.8055   21.0419 H   0  0  0  0  0  0
  1 25  1  0  0  0
  1 30  2  0  0  0
  1 83  1  0  0  0
  2  3  1  0  0  0
  2 25  1  0  0  0
  2 85  1  0  0  0
  2 86  1  0  0  0
  3  4  1  0  0  0
  3 87  1  0  0  0
  3 88  1  0  0  0
  4  5  1  0  0  0
  4 89  1  0  0  0
  4 90  1  0  0  0
  5  6  1  0  0  0
  5 26  1  0  0  0
  5 91  1  0  0  0
  6 25  1  0  0  0
  6 92  1  0  0  0
  6 93  1  0  0  0
  7  8  2  0  0  0
  7 26  1  0  0  0
  7 29  1  0  0  0
  8  9  1  0  0  0
  8 22  1  0  0  0
  9 10  1  0  0  0
  9 27  2  0  0  0
 10 11  2  0  0  0
 10 15  1  0  0  0
 11 12  1  0  0  0
 11 94  1  0  0  0
 12 13  2  0  0  0
 12 95  1  0  0  0
 13 14  1  0  0  0
 13 31  1  0  0  0
 14 15  2  0  0  0
 14 96  1  0  0  0
 15 97  1  0  0  0
 16 17  2  0  0  0
 16 21  1  0  0  0
 16 31  1  0  0  0
 17 18  1  0  0  0
 17 98  1  0  0  0
 18 19  2  0  0  0
 18 99  1  0  0  0
 19 20  1  0  0  0
 19 24  1  0  0  0
 20 21  2  0  0  0
 20100  1  0  0  0
 21 23  1  0  0  0
 22 28  1  0  0  0
 22 32  2  0  0  0
 26 27  1  0  0  0
 28101  1  0  0  0
 28102  1  0  0  0
 29103  1  0  0  0
 29104  1  0  0  0
 33 34  1  0  0  0
 33 66  1  0  0  0
 33 70  2  0  0  0
 34 36  1  0  0  0
 34 59  1  0  0  0
 34105  1  0  0  0
 35 44  2  0  0  0
 35 45  1  0  0  0
 35 68  1  0  0  0
 36 56  1  0  0  0
 36106  1  0  0  0
 37 39  1  0  0  0
 37 47  1  0  0  0
 37 66  1  0  0  0
 37107  1  0  0  0
 38 43  2  0  0  0
 38 46  1  0  0  0
 38 47  1  0  0  0
 39 64  1  0  0  0
 39 67  2  0  0  0
 40 52  1  0  0  0
 40 53  2  0  0  0
 40 58  1  0  0  0
 41108  1  0  0  0
 41109  1  0  0  0
 41110  1  0  0  0
 41 48  1  0  0  0
 42 43  1  0  0  0
 42 66  1  0  0  0
 42111  1  0  0  0
 42112  1  0  0  0
 43 44  1  0  0  0
 44113  1  0  0  0
 45 46  2  0  0  0
 45114  1  0  0  0
 46115  1  0  0  0
 47116  1  0  0  0
 47117  1  0  0  0
 48 56  1  0  0  0
 48 65  1  0  0  0
 48118  1  0  0  0
 49 50  1  0  0  0
 49 53  1  0  0  0
 49 64  1  0  0  0
 49119  1  0  0  0
 50 51  1  0  0  0
 50120  1  0  0  0
 50121  1  0  0  0
 51 52  1  0  0  0
 51122  1  0  0  0
 51123  1  0  0  0
 52124  1  0  0  0
 52125  1  0  0  0
 53 54  1  0  0  0
 54 55  2  0  0  0
 54126  1  0  0  0
 55 57  1  0  0  0
 55127  1  0  0  0
 56 69  2  0  0  0
 57 58  2  0  0  0
 57128  1  0  0  0
 58129  1  0  0  0
 59 60  1  0  0  0
 59 61  1  0  0  0
 59 62  1  0  0  0
 60130  1  0  0  0
 60131  1  0  0  0
 60132  1  0  0  0
 61133  1  0  0  0
 61134  1  0  0  0
 61135  1  0  0  0
 62136  1  0  0  0
 62137  1  0  0  0
 62138  1  0  0  0
 63 65  1  0  0  0
 63139  1  0  0  0
 63140  1  0  0  0
 63141  1  0  0  0
 64142  1  0  0  0
 65143  1  0  0  0
 68 78  1  0  0  0
 71 72  2  0  0  0
 71 74  1  0  0  0
 71144  1  0  0  0
 72 76  1  0  0  0
 72145  1  0  0  0
 73 74  2  0  0  0
 73 75  1  0  0  0
 73146  1  0  0  0
 74 82  1  0  0  0
 75 76  2  0  0  0
 75 83  1  0  0  0
 76 84  1  0  0  0
 77 78  2  0  0  0
 77 79  1  0  0  0
 77 80  1  0  0  0
 78147  1  0  0  0
 79 81  1  0  0  0
 79148  1  0  0  0
 79149  1  0  0  0
 80 82  1  0  0  0
 80150  1  0  0  0
 80151  1  0  0  0
 81 82  1  0  0  0
 81152  1  0  0  0
 81153  1  0  0  0
 83154  1  0  0  0
M  ISO  4   1 100  68 101  78 101  83 100
M  END
> <chiral flag>
0

> <version>
0

> <s_m_source_file>
/data/baiqing/PycharmProjects/Reinvent-master-3.2/result/LINK_invent/BTK/process_docking_weight1_custom_product_contain_oxygen_bond_distance_aromatic_linkinvent_7_9_3/rearranged_h_0157.sdf

> <i_m_source_file_index>
58

> <r_mmod_Potential_Energy-OPLS-2005>
300.207641601562

> <r_mmod_Stretch_Energy-OPLS-2005>
149.081085205078

> <r_mmod_Bend_Energy-OPLS-2005>
257.000457763672

> <r_mmod_Torsional_Energy-OPLS-2005>
248.599761962891

> <r_mmod_Improper_Torsional_Energy-OPLS-2005>
3.93564915657043

> <r_mmod_Van_der_Waal_Energy-OPLS-2005>
136.886276245117

> <r_mmod_Electrostatic_Energy-OPLS-2005>
-388.731628417969

> <r_mmod_Solvation_Energy-OPLS-2005>
-229.916275024414

> <b_mmod_Minimization_Converged-OPLS-2005>
0

> <r_mmod_RMS_Derivative-OPLS-2005>
0.770144581794739

$$$$
58
                    3D
 Structure written by MMmdl.
164173  0  0  1  0            999 V2000
  -30.6155  -14.5799   20.5244 C   0  0  0  0  0  0
  -30.4498  -12.3524   19.4242 C   0  0  0  0  0  0
  -29.5130  -12.5016   18.2044 C   0  0  0  0  0  0
  -28.0306  -12.3553   18.6203 C   0  0  0  0  0  0
  -27.6660  -13.2022   19.8704 C   0  0  2  0  0  0
  -28.7159  -12.9839   20.9859 C   0  0  0  0  0  0
  -25.2613  -13.8128   20.5676 C   0  0  0  0  0  0
  -24.1897  -13.0405   20.9157 C   0  0  0  0  0  0
  -24.6454  -11.6859   20.8735 C   0  0  0  0  0  0
  -23.9117  -10.4243   21.0425 C   0  0  0  0  0  0
  -24.3644   -9.4140   21.9208 C   0  0  0  0  0  0
  -23.6285   -8.2193   22.0782 C   0  0  0  0  0  0
  -22.4256   -8.0258   21.3578 C   0  0  0  0  0  0
  -21.9922   -9.0238   20.4672 C   0  0  0  0  0  0
  -22.7283  -10.2081   20.3087 C   0  0  0  0  0  0
  -21.6819   -6.0709   22.5301 C   0  0  0  0  0  0
  -21.3995   -6.5631   23.8229 C   0  0  0  0  0  0
  -21.3674   -5.6795   24.9207 C   0  0  0  0  0  0
  -21.6062   -4.3055   24.7251 C   0  0  0  0  0  0
  -21.8834   -3.8131   23.4374 C   0  0  0  0  0  0
  -21.9181   -4.6944   22.3423 C   0  0  0  0  0  0
  -22.7893  -13.5154   21.1834 C   0  0  0  0  0  0
  -22.1640   -4.2140   21.0991 F   0  0  0  0  0  0
  -21.5624   -3.4544   25.7757 F   0  0  0  0  0  0
  -30.0357  -13.3430   20.4350 N   0  0  0  0  0  0
  -26.3075  -12.9307   20.3345 N   0  0  0  0  0  0
  -25.9380  -11.6457   20.5744 N   0  0  0  0  0  0
  -22.0546  -12.8165   22.0379 N   0  0  0  0  0  0
  -25.4297  -15.1853   20.4007 N   0  0  0  0  0  0
  -31.7436  -14.8214   20.0820 O   0  0  0  0  0  0
  -21.6597   -6.8864   21.4273 O   0  0  0  0  0  0
  -22.3571  -14.5472   20.6682 O   0  0  0  0  0  0
  -24.6198  -31.8588   23.2068 C   0  0  0  0  0  0
  -25.9111  -32.4689   23.8333 C   0  0  1  0  0  0
  -27.2162  -27.4072   20.0510 C   0  0  0  0  0  0
  -25.6005  -33.8495   24.2268 N   0  0  0  0  0  0
  -23.4088  -30.4848   21.5446 C   0  0  2  0  0  0
  -24.8416  -28.9421   20.1152 C   0  0  0  0  0  0
  -22.7423  -29.4657   22.4943 C   0  0  0  0  0  0
  -18.0289  -28.1357   22.8452 C   0  0  0  0  0  0
  -24.1515  -36.7285   23.2639 C   0  0  0  0  0  0
  -25.9422  -30.8130   21.3638 C   0  0  0  0  0  0
  -26.0102  -29.4517   20.6956 C   0  0  0  0  0  0
  -27.2030  -28.6908   20.6533 C   0  0  0  0  0  0
  -26.0136  -26.9058   19.5048 C   0  0  0  0  0  0
  -24.8377  -27.6682   19.5255 C   0  0  0  0  0  0
  -23.6101  -29.8122   20.1620 C   0  0  0  0  0  0
  -25.4123  -36.3034   24.0335 C   0  0  1  0  0  0
  -20.5886  -28.3657   23.1262 C   0  0  2  0  0  0
  -20.6788  -26.9375   22.5422 C   0  0  0  0  0  0
  -19.5776  -26.6377   21.5197 C   0  0  0  0  0  0
  -18.1934  -26.7915   22.1577 C   0  0  0  0  0  0
  -19.1541  -28.8817   23.2836 C   0  0  0  0  0  0
  -18.9488  -30.1430   23.8821 C   0  0  0  0  0  0
  -17.6494  -30.6556   24.0554 C   0  0  0  0  0  0
  -25.9063  -34.9407   23.5100 C   0  0  0  0  0  0
  -16.5370  -29.9075   23.6331 C   0  0  0  0  0  0
  -16.7282  -28.6499   23.0319 C   0  0  0  0  0  0
  -26.4548  -31.6465   25.0670 C   0  0  0  0  0  0
  -25.3842  -31.3618   26.1454 C   0  0  0  0  0  0
  -27.0456  -30.2901   24.6148 C   0  0  0  0  0  0
  -27.6087  -32.4226   25.7449 C   0  0  0  0  0  0
  -27.5586  -37.1770   24.8441 C   0  0  0  0  0  0
  -21.4151  -29.3038   22.3665 N   0  0  0  0  0  0
  -26.4285  -37.3750   23.9419 N   0  0  0  0  0  0
  -24.6748  -31.0704   22.0949 N   0  0  0  0  0  0
  -23.4155  -28.8144   23.2970 O   0  0  0  0  0  0
  -28.4055  -26.7062   20.0004 O   0  0  0  0  0  0
  -26.5612  -34.8898   22.4650 O   0  0  0  0  0  0
  -23.5412  -32.1364   23.7492 O   0  0  0  0  0  0
  -30.1137  -19.1266   22.0725 C   0  0  0  0  0  0
  -30.5162  -17.7894   21.8053 C   0  0  0  0  0  0
  -28.7260  -17.6040   20.1788 C   0  0  0  0  0  0
  -28.9788  -19.6970   21.4372 C   0  0  0  0  0  0
  -29.7629  -16.9766   20.9207 C   0  0  0  0  0  0
  -28.3428  -18.9497   20.4209 C   0  0  0  0  0  0
  -28.2334  -20.7980   22.1001 C   0  0  0  0  0  0
  -26.8726  -24.2119   21.4261 C   0  0  0  0  0  0
  -26.9882  -22.9651   22.3164 C   0  0  0  0  0  0
  -28.4786  -22.7922   20.4493 C   0  0  0  0  0  0
  -28.2741  -24.3074   20.7954 C   0  0  1  0  0  0
  -29.0639  -25.6576   22.7069 C   0  0  0  0  0  0
  -28.4480  -25.3148   19.6054 C   0  0  0  0  0  0
  -27.9682  -22.0669   21.6507 N   0  0  0  0  0  0
  -29.7853  -15.5345   21.0152 N   0  0  0  0  0  0
  -27.7104  -20.4352   23.2802 N   0  3  0  0  0  0
  -29.3115  -24.6278   21.7418 O   0  0  0  0  0  0
  -27.2530  -19.4564   19.7906 F   0  0  0  0  0  0
  -31.4972  -12.4681   19.1313 H   0  0  0  0  0  0
  -30.3692  -11.3429   19.8276 H   0  0  0  0  0  0
  -29.7650  -11.7567   17.4512 H   0  0  0  0  0  0
  -29.6817  -13.4691   17.7307 H   0  0  0  0  0  0
  -27.8507  -11.2989   18.8243 H   0  0  0  0  0  0
  -27.3741  -12.6052   17.7854 H   0  0  0  0  0  0
  -27.7057  -14.2466   19.5612 H   0  0  0  0  0  0
  -28.7161  -11.9357   21.2875 H   0  0  0  0  0  0
  -28.4717  -13.5442   21.8889 H   0  0  0  0  0  0
  -25.2823   -9.5543   22.4734 H   0  0  0  0  0  0
  -24.0001   -7.4565   22.7500 H   0  0  0  0  0  0
  -21.0854   -8.8777   19.8942 H   0  0  0  0  0  0
  -22.3846  -10.9608   19.6140 H   0  0  0  0  0  0
  -21.1977   -7.6132   23.9742 H   0  0  0  0  0  0
  -21.1488   -6.0509   25.9115 H   0  0  0  0  0  0
  -22.0597   -2.7589   23.2897 H   0  0  0  0  0  0
  -22.4100  -11.9800   22.4779 H   0  0  0  0  0  0
  -21.1162  -13.1214   22.2545 H   0  0  0  0  0  0
  -24.6643  -15.8385   20.5257 H   0  0  0  0  0  0
  -26.2626  -15.6231   20.0361 H   0  0  0  0  0  0
  -26.7107  -32.5334   23.1011 H   0  0  0  0  0  0
  -25.0215  -33.9573   25.0463 H   0  0  0  0  0  0
  -22.7031  -31.3031   21.3918 H   0  0  0  0  0  0
  -23.3725  -35.9659   23.3280 H   0  0  0  0  0  0
  -24.3610  -36.8953   22.2055 H   0  0  0  0  0  0
  -23.7309  -37.6522   23.6649 H   0  0  0  0  0  0
  -26.0873  -31.5832   20.6039 H   0  0  0  0  0  0
  -26.8203  -30.8345   22.0006 H   0  0  0  0  0  0
  -28.1167  -29.0895   21.0707 H   0  0  0  0  0  0
  -25.9452  -25.9302   19.0512 H   0  0  0  0  0  0
  -23.9321  -27.2616   19.0932 H   0  0  0  0  0  0
  -23.7227  -30.5760   19.3922 H   0  0  0  0  0  0
  -22.7312  -29.2339   19.8675 H   0  0  0  0  0  0
  -25.1275  -36.1895   25.0822 H   0  0  0  0  0  0
  -20.9951  -28.3256   24.1394 H   0  0  0  0  0  0
  -20.5711  -26.2240   23.3615 H   0  0  0  0  0  0
  -21.6637  -26.7450   22.1172 H   0  0  0  0  0  0
  -19.6976  -25.6306   21.1181 H   0  0  0  0  0  0
  -19.6738  -27.3187   20.6723 H   0  0  0  0  0  0
  -17.4239  -26.6641   21.3956 H   0  0  0  0  0  0
  -18.0316  -26.0044   22.8946 H   0  0  0  0  0  0
  -19.7977  -30.7270   24.2094 H   0  0  0  0  0  0
  -17.5076  -31.6203   24.5209 H   0  0  0  0  0  0
  -15.5365  -30.2966   23.7736 H   0  0  0  0  0  0
  -15.8668  -28.0857   22.7025 H   0  0  0  0  0  0
  -24.6012  -30.6925   25.7881 H   0  0  0  0  0  0
  -24.9029  -32.2789   26.4860 H   0  0  0  0  0  0
  -25.8271  -30.8876   27.0215 H   0  0  0  0  0  0
  -26.3055  -29.6479   24.1367 H   0  0  0  0  0  0
  -27.4375  -29.7316   25.4655 H   0  0  0  0  0  0
  -27.8790  -30.4164   23.9224 H   0  0  0  0  0  0
  -27.2648  -33.3501   26.2028 H   0  0  0  0  0  0
  -28.3919  -32.6812   25.0305 H   0  0  0  0  0  0
  -28.0704  -31.8338   26.5391 H   0  0  0  0  0  0
  -28.2525  -38.0145   24.7587 H   0  0  0  0  0  0
  -28.1170  -36.2685   24.6124 H   0  0  0  0  0  0
  -27.2314  -37.1264   25.8847 H   0  0  0  0  0  0
  -20.9320  -29.8753   21.6868 H   0  0  0  0  0  0
  -26.0151  -38.2805   24.1517 H   0  0  0  0  0  0
  -30.6153  -19.6793   22.8528 H   0  0  0  0  0  0
  -31.3282  -17.3642   22.3793 H   0  0  0  0  0  0
  -28.1194  -17.0256   19.4962 H   0  0  0  0  0  0
  -26.5591  -25.0979   21.9800 H   0  0  0  0  0  0
  -26.1067  -24.0345   20.6678 H   0  0  0  0  0  0
  -26.0126  -22.4930   22.4484 H   0  0  0  0  0  0
  -27.3496  -23.2679   23.2997 H   0  0  0  0  0  0
  -29.5128  -22.5681   20.1889 H   0  0  0  0  0  0
  -27.8606  -22.5211   19.5889 H   0  0  0  0  0  0
  -28.5024  -26.5096   22.3300 H   0  0  0  0  0  0
  -30.0017  -26.0596   23.0953 H   0  0  0  0  0  0
  -28.5064  -25.2590   23.5531 H   0  0  0  0  0  0
  -27.7974  -25.0889   18.7615 H   0  0  0  0  0  0
  -29.4477  -25.1741   19.1889 H   0  0  0  0  0  0
  -28.9147  -15.1366   21.3336 H   0  0  0  0  0  0
  -27.7820  -19.4681   23.5618 H   0  0  0  0  0  0
  -27.1548  -21.0326   23.8659 H   0  0  0  0  0  0
  1 25  1  0  0  0
  1 30  2  0  0  0
  1 85  1  0  0  0
  2  3  1  0  0  0
  2 25  1  0  0  0
  2 89  1  0  0  0
  2 90  1  0  0  0
  3  4  1  0  0  0
  3 91  1  0  0  0
  3 92  1  0  0  0
  4  5  1  0  0  0
  4 93  1  0  0  0
  4 94  1  0  0  0
  5  6  1  0  0  0
  5 26  1  0  0  0
  5 95  1  0  0  0
  6 25  1  0  0  0
  6 96  1  0  0  0
  6 97  1  0  0  0
  7  8  2  0  0  0
  7 26  1  0  0  0
  7 29  1  0  0  0
  8  9  1  0  0  0
  8 22  1  0  0  0
  9 10  1  0  0  0
  9 27  2  0  0  0
 10 11  2  0  0  0
 10 15  1  0  0  0
 11 12  1  0  0  0
 11 98  1  0  0  0
 12 13  2  0  0  0
 12 99  1  0  0  0
 13 14  1  0  0  0
 13 31  1  0  0  0
 14 15  2  0  0  0
 14100  1  0  0  0
 15101  1  0  0  0
 16 17  2  0  0  0
 16 21  1  0  0  0
 16 31  1  0  0  0
 17 18  1  0  0  0
 17102  1  0  0  0
 18 19  2  0  0  0
 18103  1  0  0  0
 19 20  1  0  0  0
 19 24  1  0  0  0
 20 21  2  0  0  0
 20104  1  0  0  0
 21 23  1  0  0  0
 22 28  1  0  0  0
 22 32  2  0  0  0
 26 27  1  0  0  0
 28105  1  0  0  0
 28106  1  0  0  0
 29107  1  0  0  0
 29108  1  0  0  0
 33 34  1  0  0  0
 33 66  1  0  0  0
 33 70  2  0  0  0
 34 36  1  0  0  0
 34 59  1  0  0  0
 34109  1  0  0  0
 35 44  2  0  0  0
 35 45  1  0  0  0
 35 68  1  0  0  0
 36 56  1  0  0  0
 36110  1  0  0  0
 37 39  1  0  0  0
 37 47  1  0  0  0
 37 66  1  0  0  0
 37111  1  0  0  0
 38 43  2  0  0  0
 38 46  1  0  0  0
 38 47  1  0  0  0
 39 64  1  0  0  0
 39 67  2  0  0  0
 40 52  1  0  0  0
 40 53  2  0  0  0
 40 58  1  0  0  0
 41112  1  0  0  0
 41113  1  0  0  0
 41114  1  0  0  0
 41 48  1  0  0  0
 42 43  1  0  0  0
 42 66  1  0  0  0
 42115  1  0  0  0
 42116  1  0  0  0
 43 44  1  0  0  0
 44117  1  0  0  0
 45 46  2  0  0  0
 45118  1  0  0  0
 46119  1  0  0  0
 47120  1  0  0  0
 47121  1  0  0  0
 48 56  1  0  0  0
 48 65  1  0  0  0
 48122  1  0  0  0
 49 50  1  0  0  0
 49 53  1  0  0  0
 49 64  1  0  0  0
 49123  1  0  0  0
 50 51  1  0  0  0
 50124  1  0  0  0
 50125  1  0  0  0
 51 52  1  0  0  0
 51126  1  0  0  0
 51127  1  0  0  0
 52128  1  0  0  0
 52129  1  0  0  0
 53 54  1  0  0  0
 54 55  2  0  0  0
 54130  1  0  0  0
 55 57  1  0  0  0
 55131  1  0  0  0
 56 69  2  0  0  0
 57 58  2  0  0  0
 57132  1  0  0  0
 58133  1  0  0  0
 59 60  1  0  0  0
 59 61  1  0  0  0
 59 62  1  0  0  0
 60134  1  0  0  0
 60135  1  0  0  0
 60136  1  0  0  0
 61137  1  0  0  0
 61138  1  0  0  0
 61139  1  0  0  0
 62140  1  0  0  0
 62141  1  0  0  0
 62142  1  0  0  0
 63 65  1  0  0  0
 63143  1  0  0  0
 63144  1  0  0  0
 63145  1  0  0  0
 64146  1  0  0  0
 65147  1  0  0  0
 68 83  1  0  0  0
 71 72  2  0  0  0
 71 74  1  0  0  0
 71148  1  0  0  0
 72 75  1  0  0  0
 72149  1  0  0  0
 73 75  2  0  0  0
 73 76  1  0  0  0
 73150  1  0  0  0
 74 76  2  0  0  0
 74 77  1  0  0  0
 75 85  1  0  0  0
 76 88  1  0  0  0
 77 84  1  0  0  0
 77 86  2  0  0  0
 78 79  1  0  0  0
 78 81  1  0  0  0
 78151  1  0  0  0
 78152  1  0  0  0
 79 84  1  0  0  0
 79153  1  0  0  0
 79154  1  0  0  0
 80 81  1  0  0  0
 80 84  1  0  0  0
 80155  1  0  0  0
 80156  1  0  0  0
 81 83  1  0  0  0
 81 87  1  0  0  0
 82 87  1  0  0  0
 82157  1  0  0  0
 82158  1  0  0  0
 82159  1  0  0  0
 83160  1  0  0  0
 83161  1  0  0  0
 85162  1  0  0  0
 86163  1  0  0  0
 86164  1  0  0  0
M  CHG  1  86   1
M  ISO  4   1 100  68 101  83 101  85 100
M  END
> <chiral flag>
0

> <version>
0

> <s_m_source_file>
/data/baiqing/PycharmProjects/Reinvent-master-3.2/result/LINK_invent/BTK/process_docking_weight1_custom_product_contain_oxygen_bond_distance_aromatic_linkinvent_7_9_3/rearranged_h_0157.sdf

> <i_m_source_file_index>
59

> <r_mmod_Potential_Energy-OPLS-2005>
42.8868751525879

> <r_mmod_Stretch_Energy-OPLS-2005>
53.5624618530273

> <r_mmod_Bend_Energy-OPLS-2005>
190.38151550293

> <r_mmod_Torsional_Energy-OPLS-2005>
346.75830078125

> <r_mmod_Improper_Torsional_Energy-OPLS-2005>
12.1616744995117

> <r_mmod_Van_der_Waal_Energy-OPLS-2005>
147.255645751953

> <r_mmod_Electrostatic_Energy-OPLS-2005>
-324.795837402344

> <r_mmod_Solvation_Energy-OPLS-2005>
-408.712249755859

> <b_mmod_Minimization_Converged-OPLS-2005>
0

> <r_mmod_RMS_Derivative-OPLS-2005>
7.84971475601196

$$$$
59
                    3D
 Structure written by MMmdl.
158167  0  0  1  0            999 V2000
  -30.6568  -14.5965   20.5208 C   0  0  0  0  0  0
  -30.4299  -12.3783   19.4317 C   0  0  0  0  0  0
  -29.4971  -12.5114   18.2096 C   0  0  0  0  0  0
  -28.0203  -12.3558   18.6231 C   0  0  0  0  0  0
  -27.6505  -13.2178   19.8602 C   0  0  2  0  0  0
  -28.6981  -13.0712   20.9859 C   0  0  0  0  0  0
  -25.2557  -13.8185   20.5700 C   0  0  0  0  0  0
  -24.1825  -13.0440   20.9204 C   0  0  0  0  0  0
  -24.6402  -11.6919   20.8747 C   0  0  0  0  0  0
  -23.9075  -10.4302   21.0404 C   0  0  0  0  0  0
  -24.3630   -9.4217   21.9182 C   0  0  0  0  0  0
  -23.6314   -8.2251   22.0754 C   0  0  0  0  0  0
  -22.4294   -8.0290   21.3549 C   0  0  0  0  0  0
  -21.9934   -9.0259   20.4646 C   0  0  0  0  0  0
  -22.7255  -10.2143   20.3054 C   0  0  0  0  0  0
  -21.6855   -6.0755   22.5285 C   0  0  0  0  0  0
  -21.4003   -6.5650   23.8220 C   0  0  0  0  0  0
  -21.3655   -5.6801   24.9177 C   0  0  0  0  0  0
  -21.6044   -4.3066   24.7223 C   0  0  0  0  0  0
  -21.8820   -3.8165   23.4345 C   0  0  0  0  0  0
  -21.9195   -4.6984   22.3403 C   0  0  0  0  0  0
  -22.7857  -13.5243   21.1875 C   0  0  0  0  0  0
  -22.1668   -4.2175   21.0980 F   0  0  0  0  0  0
  -21.5628   -3.4545   25.7735 F   0  0  0  0  0  0
  -30.0127  -13.3962   20.4129 N   0  0  0  0  0  0
  -26.2980  -12.9361   20.3320 N   0  0  0  0  0  0
  -25.9326  -11.6515   20.5750 N   0  0  0  0  0  0
  -22.0500  -12.8216   22.0415 N   0  0  0  0  0  0
  -25.4274  -15.1905   20.4133 N   0  0  0  0  0  0
  -31.8364  -14.7287   20.1804 O   0  0  0  0  0  0
  -21.6643   -6.8897   21.4253 O   0  0  0  0  0  0
  -22.3549  -14.5556   20.6740 O   0  0  0  0  0  0
  -24.6261  -31.8595   23.2053 C   0  0  0  0  0  0
  -25.9120  -32.4771   23.8365 C   0  0  1  0  0  0
  -27.2351  -27.3423   20.0932 C   0  0  0  0  0  0
  -25.5955  -33.8577   24.2307 N   0  0  0  0  0  0
  -23.4176  -30.4863   21.5455 C   0  0  2  0  0  0
  -24.8632  -28.9450   20.1109 C   0  0  0  0  0  0
  -22.7448  -29.4641   22.4922 C   0  0  0  0  0  0
  -18.0286  -28.1409   22.8492 C   0  0  0  0  0  0
  -24.1491  -36.7286   23.2642 C   0  0  0  0  0  0
  -25.9557  -30.7971   21.3716 C   0  0  0  0  0  0
  -26.0301  -29.4258   20.7152 C   0  0  0  0  0  0
  -27.2130  -28.6341   20.7019 C   0  0  0  0  0  0
  -26.0322  -26.9002   19.4893 C   0  0  0  0  0  0
  -24.8648  -27.6866   19.4930 C   0  0  0  0  0  0
  -23.6325  -29.8255   20.1592 C   0  0  0  0  0  0
  -25.4116  -36.3073   24.0331 C   0  0  1  0  0  0
  -20.5880  -28.3711   23.1286 C   0  0  2  0  0  0
  -20.6777  -26.9433   22.5417 C   0  0  0  0  0  0
  -19.5754  -26.6408   21.5222 C   0  0  0  0  0  0
  -18.1925  -26.7962   22.1617 C   0  0  0  0  0  0
  -19.1539  -28.8875   23.2892 C   0  0  0  0  0  0
  -18.9455  -30.1478   23.8909 C   0  0  0  0  0  0
  -17.6452  -30.6602   24.0587 C   0  0  0  0  0  0
  -25.9045  -34.9446   23.5107 C   0  0  0  0  0  0
  -16.5349  -29.9096   23.6351 C   0  0  0  0  0  0
  -16.7274  -28.6526   23.0354 C   0  0  0  0  0  0
  -26.4536  -31.6566   25.0716 C   0  0  0  0  0  0
  -25.3799  -31.3653   26.1455 C   0  0  0  0  0  0
  -27.0363  -30.3002   24.6138 C   0  0  0  0  0  0
  -27.6148  -32.4265   25.7450 C   0  0  0  0  0  0
  -27.5584  -37.1794   24.8469 C   0  0  0  0  0  0
  -21.4165  -29.3057   22.3661 N   0  0  0  0  0  0
  -26.4291  -37.3768   23.9418 N   0  0  0  0  0  0
  -24.6854  -31.0619   22.0999 N   0  0  0  0  0  0
  -23.4176  -28.8183   23.3005 O   0  0  0  0  0  0
  -28.3990  -26.5594   20.1294 O   0  0  0  0  0  0
  -26.5570  -34.8907   22.4648 O   0  0  0  0  0  0
  -23.5429  -32.1404   23.7394 O   0  0  0  0  0  0
  -29.5488  -18.2057   20.3791 C   0  0  0  0  0  0
  -31.2377  -17.4559   21.8225 C   0  0  0  0  0  0
  -30.2356  -17.0697   20.9722 C   0  0  0  0  0  0
  -30.0674  -19.4493   20.7421 C   0  0  0  0  0  0
  -30.4900  -22.0441   20.9478 C   0  0  0  0  0  0
  -28.2336  -21.2911   20.2796 C   0  0  0  0  0  0
  -30.2192  -23.4751   20.3713 C   0  0  0  0  0  0
  -27.9633  -22.6971   19.6347 C   0  0  0  0  0  0
  -29.7254  -20.8805   20.2403 C   0  0  2  0  0  0
  -28.7251  -23.9058   20.2648 C   0  0  2  0  0  0
  -28.4962  -25.2594   19.4434 C   0  0  0  0  0  0
  -29.8658  -15.6795   20.7797 N   0  0  0  0  0  0
  -28.1849  -24.0726   21.5624 O   0  0  0  0  0  0
  -31.3543  -19.1977   21.9136 S   0  0  0  0  0  0
  -31.4697  -12.5022   19.1226 H   0  0  0  0  0  0
  -30.3609  -11.3805   19.8670 H   0  0  0  0  0  0
  -29.7539  -11.7683   17.4532 H   0  0  0  0  0  0
  -29.6434  -13.4863   17.7408 H   0  0  0  0  0  0
  -27.8446  -11.3013   18.8380 H   0  0  0  0  0  0
  -27.3694  -12.6082   17.7850 H   0  0  0  0  0  0
  -27.6678  -14.2541   19.5245 H   0  0  0  0  0  0
  -28.7022  -12.0538   21.3799 H   0  0  0  0  0  0
  -28.4559  -13.7192   21.8306 H   0  0  0  0  0  0
  -25.2777   -9.5694   22.4755 H   0  0  0  0  0  0
  -24.0036   -7.4638   22.7465 H   0  0  0  0  0  0
  -21.0871   -8.8775   19.8940 H   0  0  0  0  0  0
  -22.3721  -10.9683   19.6164 H   0  0  0  0  0  0
  -21.1982   -7.6153   23.9733 H   0  0  0  0  0  0
  -21.1472   -6.0523   25.9082 H   0  0  0  0  0  0
  -22.0598   -2.7632   23.2835 H   0  0  0  0  0  0
  -22.4128  -11.9856   22.4757 H   0  0  0  0  0  0
  -21.1118  -13.1223   22.2631 H   0  0  0  0  0  0
  -24.6628  -15.8459   20.5316 H   0  0  0  0  0  0
  -26.2724  -15.6326   20.0755 H   0  0  0  0  0  0
  -26.7173  -32.5457   23.1097 H   0  0  0  0  0  0
  -25.0206  -33.9727   25.0523 H   0  0  0  0  0  0
  -22.7142  -31.3096   21.4032 H   0  0  0  0  0  0
  -23.3776  -35.9593   23.3259 H   0  0  0  0  0  0
  -24.3594  -36.8965   22.2070 H   0  0  0  0  0  0
  -23.7231  -37.6462   23.6702 H   0  0  0  0  0  0
  -26.0758  -31.5605   20.6017 H   0  0  0  0  0  0
  -26.8399  -30.8511   21.9940 H   0  0  0  0  0  0
  -28.1112  -29.0042   21.1765 H   0  0  0  0  0  0
  -25.9338  -25.9369   19.0173 H   0  0  0  0  0  0
  -23.9669  -27.3112   19.0215 H   0  0  0  0  0  0
  -23.7558  -30.6047   19.4055 H   0  0  0  0  0  0
  -22.7520  -29.2579   19.8521 H   0  0  0  0  0  0
  -25.1303  -36.1916   25.0820 H   0  0  0  0  0  0
  -20.9989  -28.3296   24.1398 H   0  0  0  0  0  0
  -20.5707  -26.2308   23.3613 H   0  0  0  0  0  0
  -21.6644  -26.7469   22.1207 H   0  0  0  0  0  0
  -19.6914  -25.6321   21.1251 H   0  0  0  0  0  0
  -19.6712  -27.3221   20.6760 H   0  0  0  0  0  0
  -17.4211  -26.6755   21.3998 H   0  0  0  0  0  0
  -18.0290  -26.0095   22.8989 H   0  0  0  0  0  0
  -19.7919  -30.7316   24.2281 H   0  0  0  0  0  0
  -17.4989  -31.6279   24.5193 H   0  0  0  0  0  0
  -15.5348  -30.2998   23.7678 H   0  0  0  0  0  0
  -15.8674  -28.0862   22.7048 H   0  0  0  0  0  0
  -24.6033  -30.6929   25.7785 H   0  0  0  0  0  0
  -24.8914  -32.2770   26.4894 H   0  0  0  0  0  0
  -25.8166  -30.8849   27.0219 H   0  0  0  0  0  0
  -26.2883  -29.6706   24.1303 H   0  0  0  0  0  0
  -27.4224  -29.7315   25.4608 H   0  0  0  0  0  0
  -27.8690  -30.4301   23.9225 H   0  0  0  0  0  0
  -27.2885  -33.3655   26.1931 H   0  0  0  0  0  0
  -28.4000  -32.6657   25.0262 H   0  0  0  0  0  0
  -28.0749  -31.8409   26.5417 H   0  0  0  0  0  0
  -28.2592  -38.0097   24.7514 H   0  0  0  0  0  0
  -28.1087  -36.2628   24.6297 H   0  0  0  0  0  0
  -27.2284  -37.1453   25.8865 H   0  0  0  0  0  0
  -20.9330  -29.8769   21.6869 H   0  0  0  0  0  0
  -26.0168  -38.2827   24.1464 H   0  0  0  0  0  0
  -28.7300  -18.0737   19.6858 H   0  0  0  0  0  0
  -31.9044  -16.8432   22.4197 H   0  0  0  0  0  0
  -30.2554  -22.0365   22.0126 H   0  0  0  0  0  0
  -31.5635  -21.8616   20.8780 H   0  0  0  0  0  0
  -27.6463  -20.5437   19.7452 H   0  0  0  0  0  0
  -27.8737  -21.2717   21.3091 H   0  0  0  0  0  0
  -30.6569  -23.5086   19.3728 H   0  0  0  0  0  0
  -30.7752  -24.2113   20.9525 H   0  0  0  0  0  0
  -26.8911  -22.8978   19.6473 H   0  0  0  0  0  0
  -28.2314  -22.6416   18.5785 H   0  0  0  0  0  0
  -30.0256  -20.9041   19.1923 H   0  0  0  0  0  0
  -27.7170  -25.1011   18.7042 H   0  0  0  0  0  0
  -29.3642  -25.3789   18.7941 H   0  0  0  0  0  0
  -28.8787  -15.4772   20.8173 H   0  0  0  0  0  0
  -28.2758  -23.2418   22.0140 H   0  0  0  0  0  0
  1 25  1  0  0  0
  1 30  2  0  0  0
  1 82  1  0  0  0
  2  3  1  0  0  0
  2 25  1  0  0  0
  2 85  1  0  0  0
  2 86  1  0  0  0
  3  4  1  0  0  0
  3 87  1  0  0  0
  3 88  1  0  0  0
  4  5  1  0  0  0
  4 89  1  0  0  0
  4 90  1  0  0  0
  5  6  1  0  0  0
  5 26  1  0  0  0
  5 91  1  0  0  0
  6 25  1  0  0  0
  6 92  1  0  0  0
  6 93  1  0  0  0
  7  8  2  0  0  0
  7 26  1  0  0  0
  7 29  1  0  0  0
  8  9  1  0  0  0
  8 22  1  0  0  0
  9 10  1  0  0  0
  9 27  2  0  0  0
 10 11  2  0  0  0
 10 15  1  0  0  0
 11 12  1  0  0  0
 11 94  1  0  0  0
 12 13  2  0  0  0
 12 95  1  0  0  0
 13 14  1  0  0  0
 13 31  1  0  0  0
 14 15  2  0  0  0
 14 96  1  0  0  0
 15 97  1  0  0  0
 16 17  2  0  0  0
 16 21  1  0  0  0
 16 31  1  0  0  0
 17 18  1  0  0  0
 17 98  1  0  0  0
 18 19  2  0  0  0
 18 99  1  0  0  0
 19 20  1  0  0  0
 19 24  1  0  0  0
 20 21  2  0  0  0
 20100  1  0  0  0
 21 23  1  0  0  0
 22 28  1  0  0  0
 22 32  2  0  0  0
 26 27  1  0  0  0
 28101  1  0  0  0
 28102  1  0  0  0
 29103  1  0  0  0
 29104  1  0  0  0
 33 34  1  0  0  0
 33 66  1  0  0  0
 33 70  2  0  0  0
 34 36  1  0  0  0
 34 59  1  0  0  0
 34105  1  0  0  0
 35 44  2  0  0  0
 35 45  1  0  0  0
 35 68  1  0  0  0
 36 56  1  0  0  0
 36106  1  0  0  0
 37 39  1  0  0  0
 37 47  1  0  0  0
 37 66  1  0  0  0
 37107  1  0  0  0
 38 43  2  0  0  0
 38 46  1  0  0  0
 38 47  1  0  0  0
 39 64  1  0  0  0
 39 67  2  0  0  0
 40 52  1  0  0  0
 40 53  2  0  0  0
 40 58  1  0  0  0
 41108  1  0  0  0
 41109  1  0  0  0
 41110  1  0  0  0
 41 48  1  0  0  0
 42 43  1  0  0  0
 42 66  1  0  0  0
 42111  1  0  0  0
 42112  1  0  0  0
 43 44  1  0  0  0
 44113  1  0  0  0
 45 46  2  0  0  0
 45114  1  0  0  0
 46115  1  0  0  0
 47116  1  0  0  0
 47117  1  0  0  0
 48 56  1  0  0  0
 48 65  1  0  0  0
 48118  1  0  0  0
 49 50  1  0  0  0
 49 53  1  0  0  0
 49 64  1  0  0  0
 49119  1  0  0  0
 50 51  1  0  0  0
 50120  1  0  0  0
 50121  1  0  0  0
 51 52  1  0  0  0
 51122  1  0  0  0
 51123  1  0  0  0
 52124  1  0  0  0
 52125  1  0  0  0
 53 54  1  0  0  0
 54 55  2  0  0  0
 54126  1  0  0  0
 55 57  1  0  0  0
 55127  1  0  0  0
 56 69  2  0  0  0
 57 58  2  0  0  0
 57128  1  0  0  0
 58129  1  0  0  0
 59 60  1  0  0  0
 59 61  1  0  0  0
 59 62  1  0  0  0
 60130  1  0  0  0
 60131  1  0  0  0
 60132  1  0  0  0
 61133  1  0  0  0
 61134  1  0  0  0
 61135  1  0  0  0
 62136  1  0  0  0
 62137  1  0  0  0
 62138  1  0  0  0
 63 65  1  0  0  0
 63139  1  0  0  0
 63140  1  0  0  0
 63141  1  0  0  0
 64142  1  0  0  0
 65143  1  0  0  0
 68 81  1  0  0  0
 71 73  1  0  0  0
 71 74  2  0  0  0
 71144  1  0  0  0
 72 73  2  0  0  0
 72 84  1  0  0  0
 72145  1  0  0  0
 73 82  1  0  0  0
 74 84  1  0  0  0
 74 79  1  0  0  0
 75 77  1  0  0  0
 75 79  1  0  0  0
 75146  1  0  0  0
 75147  1  0  0  0
 76 78  1  0  0  0
 76 79  1  0  0  0
 76148  1  0  0  0
 76149  1  0  0  0
 77 80  1  0  0  0
 77150  1  0  0  0
 77151  1  0  0  0
 78 80  1  0  0  0
 78152  1  0  0  0
 78153  1  0  0  0
 79154  1  0  0  0
 80 81  1  0  0  0
 80 83  1  0  0  0
 81155  1  0  0  0
 81156  1  0  0  0
 82157  1  0  0  0
 83158  1  0  0  0
M  ISO  4   1 100  68 101  81 101  82 100
M  END
> <chiral flag>
0

> <version>
0

> <s_m_source_file>
/data/baiqing/PycharmProjects/Reinvent-master-3.2/result/LINK_invent/BTK/process_docking_weight1_custom_product_contain_oxygen_bond_distance_aromatic_linkinvent_7_9_3/rearranged_h_0157.sdf

> <i_m_source_file_index>
60

> <r_mmod_Potential_Energy-OPLS-2005>
44.9208717346191

> <r_mmod_Stretch_Energy-OPLS-2005>
67.6398086547852

> <r_mmod_Bend_Energy-OPLS-2005>
141.712829589844

> <r_mmod_Torsional_Energy-OPLS-2005>
267.881958007812

> <r_mmod_Improper_Torsional_Energy-OPLS-2005>
5.83202314376831

> <r_mmod_Van_der_Waal_Energy-OPLS-2005>
129.990447998047

> <r_mmod_Electrostatic_Energy-OPLS-2005>
-374.749664306641

> <r_mmod_Solvation_Energy-OPLS-2005>
-229.718658447266

> <b_mmod_Minimization_Converged-OPLS-2005>
0

> <r_mmod_RMS_Derivative-OPLS-2005>
1.78969430923462

$$$$
60
                    3D
 Structure written by MMmdl.
150159  0  0  1  0            999 V2000
  -30.5690  -14.8650   20.4366 C   0  0  0  0  0  0
  -30.4401  -12.5298   19.4958 C   0  0  0  0  0  0
  -29.5205  -12.5223   18.2527 C   0  0  0  0  0  0
  -28.0494  -12.3257   18.6654 C   0  0  0  0  0  0
  -27.6379  -13.2420   19.8479 C   0  0  2  0  0  0
  -28.6806  -13.2245   20.9873 C   0  0  0  0  0  0
  -25.2492  -13.8210   20.5705 C   0  0  0  0  0  0
  -24.1794  -13.0441   20.9216 C   0  0  0  0  0  0
  -24.6401  -11.6922   20.8749 C   0  0  0  0  0  0
  -23.9080  -10.4295   21.0403 C   0  0  0  0  0  0
  -24.3627   -9.4208   21.9182 C   0  0  0  0  0  0
  -23.6299   -8.2245   22.0753 C   0  0  0  0  0  0
  -22.4280   -8.0284   21.3545 C   0  0  0  0  0  0
  -21.9919   -9.0257   20.4645 C   0  0  0  0  0  0
  -22.7251  -10.2135   20.3053 C   0  0  0  0  0  0
  -21.6854   -6.0736   22.5278 C   0  0  0  0  0  0
  -21.4016   -6.5640   23.8211 C   0  0  0  0  0  0
  -21.3660   -5.6793   24.9174 C   0  0  0  0  0  0
  -21.6044   -4.3055   24.7224 C   0  0  0  0  0  0
  -21.8820   -3.8147   23.4345 C   0  0  0  0  0  0
  -21.9193   -4.6964   22.3402 C   0  0  0  0  0  0
  -22.7815  -13.5214   21.1874 C   0  0  0  0  0  0
  -22.1662   -4.2149   21.0979 F   0  0  0  0  0  0
  -21.5628   -3.4539   25.7737 F   0  0  0  0  0  0
  -29.9712  -13.6122   20.4030 N   0  0  0  0  0  0
  -26.2922  -12.9434   20.3272 N   0  0  0  0  0  0
  -25.9335  -11.6567   20.5747 N   0  0  0  0  0  0
  -22.0463  -12.8199   22.0428 N   0  0  0  0  0  0
  -25.4167  -15.1938   20.4126 N   0  0  0  0  0  0
  -31.7579  -14.9502   20.1109 O   0  0  0  0  0  0
  -21.6643   -6.8881   21.4240 O   0  0  0  0  0  0
  -22.3495  -14.5518   20.6719 O   0  0  0  0  0  0
  -24.6397  -31.8487   23.1935 C   0  0  0  0  0  0
  -25.9187  -32.4722   23.8308 C   0  0  1  0  0  0
  -27.2161  -27.1824   20.1448 C   0  0  0  0  0  0
  -25.5953  -33.8526   24.2224 N   0  0  0  0  0  0
  -23.4425  -30.4700   21.5374 C   0  0  2  0  0  0
  -24.8951  -28.9107   20.1057 C   0  0  0  0  0  0
  -22.7556  -29.4566   22.4869 C   0  0  0  0  0  0
  -18.0303  -28.1400   22.8481 C   0  0  0  0  0  0
  -24.1488  -36.7262   23.2640 C   0  0  0  0  0  0
  -25.9963  -30.7351   21.3899 C   0  0  0  0  0  0
  -26.0701  -29.3512   20.7308 C   0  0  0  0  0  0
  -27.2348  -28.4995   20.7432 C   0  0  0  0  0  0
  -26.0260  -26.8464   19.4622 C   0  0  0  0  0  0
  -24.8827  -27.6687   19.4561 C   0  0  0  0  0  0
  -23.6684  -29.8054   20.1541 C   0  0  0  0  0  0
  -25.4119  -36.3046   24.0319 C   0  0  1  0  0  0
  -20.5915  -28.3721   23.1242 C   0  0  2  0  0  0
  -20.6784  -26.9427   22.5404 C   0  0  0  0  0  0
  -19.5756  -26.6387   21.5213 C   0  0  0  0  0  0
  -18.1940  -26.7938   22.1628 C   0  0  0  0  0  0
  -19.1560  -28.8879   23.2854 C   0  0  0  0  0  0
  -18.9477  -30.1476   23.8877 C   0  0  0  0  0  0
  -17.6474  -30.6595   24.0563 C   0  0  0  0  0  0
  -25.9068  -34.9420   23.5076 C   0  0  0  0  0  0
  -16.5366  -29.9089   23.6339 C   0  0  0  0  0  0
  -16.7289  -28.6509   23.0359 C   0  0  0  0  0  0
  -26.4523  -31.6573   25.0729 C   0  0  0  0  0  0
  -25.3718  -31.3756   26.1431 C   0  0  0  0  0  0
  -27.0383  -30.2971   24.6288 C   0  0  0  0  0  0
  -27.6057  -32.4333   25.7514 C   0  0  0  0  0  0
  -27.5575  -37.1789   24.8467 C   0  0  0  0  0  0
  -21.4251  -29.3052   22.3617 N   0  0  0  0  0  0
  -26.4287  -37.3754   23.9409 N   0  0  0  0  0  0
  -24.7119  -31.0378   22.0956 N   0  0  0  0  0  0
  -23.4211  -28.8104   23.3002 O   0  0  0  0  0  0
  -28.2160  -26.1552   20.2221 O   0  0  0  0  0  0
  -26.5645  -34.8907   22.4649 O   0  0  0  0  0  0
  -23.5522  -32.1348   23.7172 O   0  0  0  0  0  0
  -31.0558  -18.0723   19.7754 C   0  0  0  0  0  0
  -30.0277  -17.4033   20.4144 C   0  0  0  0  0  0
  -29.6623  -19.7112   20.3299 C   0  0  0  0  0  0
  -28.1105  -23.4783   20.6574 C   0  0  0  0  0  0
  -27.7595  -24.8529   20.6688 C   0  0  0  0  0  0
  -27.1420  -22.4970   21.2805 C   0  0  0  0  0  0
  -29.2407  -22.4720   20.1612 C   0  0  0  0  0  0
  -27.8594  -21.1441   21.4884 C   0  0  0  0  0  0
  -30.8208  -19.4683   19.7179 N   0  0  0  0  0  0
  -28.9890  -21.0033   20.5720 N   0  0  0  0  0  0
  -29.7886  -16.0173   20.6671 N   0  0  0  0  0  0
  -29.1316  -18.4821   20.7783 O   0  0  0  0  0  0
  -31.4780  -12.6702   19.1899 H   0  0  0  0  0  0
  -30.4100  -11.5650   20.0047 H   0  0  0  0  0  0
  -29.8238  -11.7347   17.5617 H   0  0  0  0  0  0
  -29.6278  -13.4633   17.7110 H   0  0  0  0  0  0
  -27.9265  -11.2802   18.9505 H   0  0  0  0  0  0
  -27.3904  -12.4874   17.8116 H   0  0  0  0  0  0
  -27.6165  -14.2543   19.4434 H   0  0  0  0  0  0
  -28.7430  -12.2359   21.4449 H   0  0  0  0  0  0
  -28.3934  -13.9128   21.7835 H   0  0  0  0  0  0
  -25.2771   -9.5682   22.4759 H   0  0  0  0  0  0
  -24.0005   -7.4636   22.7474 H   0  0  0  0  0  0
  -21.0851   -8.8778   19.8951 H   0  0  0  0  0  0
  -22.3710  -10.9673   19.6163 H   0  0  0  0  0  0
  -21.2010   -7.6148   23.9714 H   0  0  0  0  0  0
  -21.1481   -6.0523   25.9076 H   0  0  0  0  0  0
  -22.0599   -2.7609   23.2845 H   0  0  0  0  0  0
  -22.4087  -11.9862   22.4813 H   0  0  0  0  0  0
  -21.1079  -13.1215   22.2635 H   0  0  0  0  0  0
  -24.6459  -15.8441   20.5206 H   0  0  0  0  0  0
  -26.2574  -15.6345   20.0620 H   0  0  0  0  0  0
  -26.7257  -32.5348   23.1043 H   0  0  0  0  0  0
  -25.0085  -33.9652   25.0362 H   0  0  0  0  0  0
  -22.7429  -31.2949   21.3868 H   0  0  0  0  0  0
  -23.3751  -35.9594   23.3300 H   0  0  0  0  0  0
  -24.3572  -36.8893   22.2055 H   0  0  0  0  0  0
  -23.7241  -37.6459   23.6674 H   0  0  0  0  0  0
  -26.1486  -31.4915   20.6190 H   0  0  0  0  0  0
  -26.8678  -30.7847   22.0306 H   0  0  0  0  0  0
  -28.1240  -28.8213   21.2665 H   0  0  0  0  0  0
  -25.9565  -25.8893   18.9644 H   0  0  0  0  0  0
  -23.9885  -27.3282   18.9520 H   0  0  0  0  0  0
  -23.8001  -30.5830   19.4007 H   0  0  0  0  0  0
  -22.7851  -29.2446   19.8433 H   0  0  0  0  0  0
  -25.1303  -36.1882   25.0811 H   0  0  0  0  0  0
  -21.0015  -28.3311   24.1360 H   0  0  0  0  0  0
  -20.5681  -26.2335   23.3622 H   0  0  0  0  0  0
  -21.6650  -26.7436   22.1201 H   0  0  0  0  0  0
  -19.6913  -25.6292   21.1257 H   0  0  0  0  0  0
  -19.6689  -27.3185   20.6732 H   0  0  0  0  0  0
  -17.4208  -26.6686   21.4034 H   0  0  0  0  0  0
  -18.0341  -26.0087   22.9030 H   0  0  0  0  0  0
  -19.7953  -30.7301   24.2234 H   0  0  0  0  0  0
  -17.5027  -31.6272   24.5171 H   0  0  0  0  0  0
  -15.5365  -30.2985   23.7673 H   0  0  0  0  0  0
  -15.8690  -28.0821   22.7084 H   0  0  0  0  0  0
  -24.5903  -30.7093   25.7760 H   0  0  0  0  0  0
  -24.8896  -32.2934   26.4806 H   0  0  0  0  0  0
  -25.8011  -30.8970   27.0242 H   0  0  0  0  0  0
  -26.2995  -29.6702   24.1281 H   0  0  0  0  0  0
  -27.3989  -29.7261   25.4854 H   0  0  0  0  0  0
  -27.8908  -30.4210   23.9605 H   0  0  0  0  0  0
  -27.2655  -33.3652   26.2042 H   0  0  0  0  0  0
  -28.3899  -32.6863   25.0366 H   0  0  0  0  0  0
  -28.0689  -31.8488   26.5475 H   0  0  0  0  0  0
  -28.2591  -38.0087   24.7510 H   0  0  0  0  0  0
  -28.1071  -36.2617   24.6299 H   0  0  0  0  0  0
  -27.2291  -37.1446   25.8870 H   0  0  0  0  0  0
  -20.9454  -29.8776   21.6810 H   0  0  0  0  0  0
  -26.0155  -38.2822   24.1414 H   0  0  0  0  0  0
  -31.9476  -17.6532   19.3306 H   0  0  0  0  0  0
  -26.8221  -25.0239   21.1822 H   0  0  0  0  0  0
  -26.3162  -22.3613   20.5804 H   0  0  0  0  0  0
  -26.7171  -22.8742   22.2120 H   0  0  0  0  0  0
  -30.2053  -22.7993   20.5510 H   0  0  0  0  0  0
  -29.3064  -22.5276   19.0737 H   0  0  0  0  0  0
  -27.1608  -20.3132   21.3751 H   0  0  0  0  0  0
  -28.2468  -21.0890   22.5071 H   0  0  0  0  0  0
  -28.8584  -15.8053   20.9936 H   0  0  0  0  0  0
  1 25  1  0  0  0
  1 30  2  0  0  0
  1 81  1  0  0  0
  2  3  1  0  0  0
  2 25  1  0  0  0
  2 83  1  0  0  0
  2 84  1  0  0  0
  3  4  1  0  0  0
  3 85  1  0  0  0
  3 86  1  0  0  0
  4  5  1  0  0  0
  4 87  1  0  0  0
  4 88  1  0  0  0
  5  6  1  0  0  0
  5 26  1  0  0  0
  5 89  1  0  0  0
  6 25  1  0  0  0
  6 90  1  0  0  0
  6 91  1  0  0  0
  7  8  2  0  0  0
  7 26  1  0  0  0
  7 29  1  0  0  0
  8  9  1  0  0  0
  8 22  1  0  0  0
  9 10  1  0  0  0
  9 27  2  0  0  0
 10 11  2  0  0  0
 10 15  1  0  0  0
 11 12  1  0  0  0
 11 92  1  0  0  0
 12 13  2  0  0  0
 12 93  1  0  0  0
 13 14  1  0  0  0
 13 31  1  0  0  0
 14 15  2  0  0  0
 14 94  1  0  0  0
 15 95  1  0  0  0
 16 17  2  0  0  0
 16 21  1  0  0  0
 16 31  1  0  0  0
 17 18  1  0  0  0
 17 96  1  0  0  0
 18 19  2  0  0  0
 18 97  1  0  0  0
 19 20  1  0  0  0
 19 24  1  0  0  0
 20 21  2  0  0  0
 20 98  1  0  0  0
 21 23  1  0  0  0
 22 28  1  0  0  0
 22 32  2  0  0  0
 26 27  1  0  0  0
 28 99  1  0  0  0
 28100  1  0  0  0
 29101  1  0  0  0
 29102  1  0  0  0
 33 34  1  0  0  0
 33 66  1  0  0  0
 33 70  2  0  0  0
 34 36  1  0  0  0
 34 59  1  0  0  0
 34103  1  0  0  0
 35 44  2  0  0  0
 35 45  1  0  0  0
 35 68  1  0  0  0
 36 56  1  0  0  0
 36104  1  0  0  0
 37 39  1  0  0  0
 37 47  1  0  0  0
 37 66  1  0  0  0
 37105  1  0  0  0
 38 43  2  0  0  0
 38 46  1  0  0  0
 38 47  1  0  0  0
 39 64  1  0  0  0
 39 67  2  0  0  0
 40 52  1  0  0  0
 40 53  2  0  0  0
 40 58  1  0  0  0
 41106  1  0  0  0
 41107  1  0  0  0
 41108  1  0  0  0
 41 48  1  0  0  0
 42 43  1  0  0  0
 42 66  1  0  0  0
 42109  1  0  0  0
 42110  1  0  0  0
 43 44  1  0  0  0
 44111  1  0  0  0
 45 46  2  0  0  0
 45112  1  0  0  0
 46113  1  0  0  0
 47114  1  0  0  0
 47115  1  0  0  0
 48 56  1  0  0  0
 48 65  1  0  0  0
 48116  1  0  0  0
 49 50  1  0  0  0
 49 53  1  0  0  0
 49 64  1  0  0  0
 49117  1  0  0  0
 50 51  1  0  0  0
 50118  1  0  0  0
 50119  1  0  0  0
 51 52  1  0  0  0
 51120  1  0  0  0
 51121  1  0  0  0
 52122  1  0  0  0
 52123  1  0  0  0
 53 54  1  0  0  0
 54 55  2  0  0  0
 54124  1  0  0  0
 55 57  1  0  0  0
 55125  1  0  0  0
 56 69  2  0  0  0
 57 58  2  0  0  0
 57126  1  0  0  0
 58127  1  0  0  0
 59 60  1  0  0  0
 59 61  1  0  0  0
 59 62  1  0  0  0
 60128  1  0  0  0
 60129  1  0  0  0
 60130  1  0  0  0
 61131  1  0  0  0
 61132  1  0  0  0
 61133  1  0  0  0
 62134  1  0  0  0
 62135  1  0  0  0
 62136  1  0  0  0
 63 65  1  0  0  0
 63137  1  0  0  0
 63138  1  0  0  0
 63139  1  0  0  0
 64140  1  0  0  0
 65141  1  0  0  0
 68 75  1  0  0  0
 71 72  2  0  0  0
 71 79  1  0  0  0
 71142  1  0  0  0
 72 81  1  0  0  0
 72 82  1  0  0  0
 73 79  2  0  0  0
 73 80  1  0  0  0
 73 82  1  0  0  0
 74 75  2  0  0  0
 74 76  1  0  0  0
 74 77  1  0  0  0
 75143  1  0  0  0
 76 78  1  0  0  0
 76144  1  0  0  0
 76145  1  0  0  0
 77 80  1  0  0  0
 77146  1  0  0  0
 77147  1  0  0  0
 78 80  1  0  0  0
 78148  1  0  0  0
 78149  1  0  0  0
 81150  1  0  0  0
M  ISO  4   1 100  68 101  75 101  81 100
M  END
> <chiral flag>
0

> <version>
0

> <s_m_source_file>
/data/baiqing/PycharmProjects/Reinvent-master-3.2/result/LINK_invent/BTK/process_docking_weight1_custom_product_contain_oxygen_bond_distance_aromatic_linkinvent_7_9_3/rearranged_h_0157.sdf

> <i_m_source_file_index>
61

> <r_mmod_Potential_Energy-OPLS-2005>
311.747436523438

> <r_mmod_Stretch_Energy-OPLS-2005>
168.275695800781

> <r_mmod_Bend_Energy-OPLS-2005>
274.251800537109

> <r_mmod_Torsional_Energy-OPLS-2005>
225.594161987305

> <r_mmod_Improper_Torsional_Energy-OPLS-2005>
4.10004949569702

> <r_mmod_Van_der_Waal_Energy-OPLS-2005>
116.917976379395

> <r_mmod_Electrostatic_Energy-OPLS-2005>
-398.712463378906

> <r_mmod_Solvation_Energy-OPLS-2005>
-233.41748046875

> <b_mmod_Minimization_Converged-OPLS-2005>
0

> <r_mmod_RMS_Derivative-OPLS-2005>
0.4423468708992

$$$$
61
                    3D
 Structure written by MMmdl.
163172  0  0  1  0            999 V2000
  -30.7698  -14.4646   20.5957 C   0  0  0  0  0  0
  -30.4074  -12.3035   19.4521 C   0  0  0  0  0  0
  -29.4919  -12.4928   18.2267 C   0  0  0  0  0  0
  -28.0184  -12.3516   18.6393 C   0  0  0  0  0  0
  -27.6603  -13.2135   19.8783 C   0  0  2  0  0  0
  -28.7013  -13.0449   21.0123 C   0  0  0  0  0  0
  -25.2579  -13.8186   20.5690 C   0  0  0  0  0  0
  -24.1830  -13.0447   20.9163 C   0  0  0  0  0  0
  -24.6398  -11.6904   20.8734 C   0  0  0  0  0  0
  -23.9069  -10.4295   21.0402 C   0  0  0  0  0  0
  -24.3604   -9.4214   21.9199 C   0  0  0  0  0  0
  -23.6278   -8.2246   22.0772 C   0  0  0  0  0  0
  -22.4271   -8.0282   21.3550 C   0  0  0  0  0  0
  -21.9922   -9.0234   20.4626 C   0  0  0  0  0  0
  -22.7249  -10.2119   20.3036 C   0  0  0  0  0  0
  -21.6859   -6.0733   22.5269 C   0  0  0  0  0  0
  -21.4004   -6.5629   23.8199 C   0  0  0  0  0  0
  -21.3654   -5.6788   24.9155 C   0  0  0  0  0  0
  -21.6048   -4.3049   24.7213 C   0  0  0  0  0  0
  -21.8824   -3.8142   23.4336 C   0  0  0  0  0  0
  -21.9188   -4.6971   22.3391 C   0  0  0  0  0  0
  -22.7850  -13.5237   21.1817 C   0  0  0  0  0  0
  -22.1662   -4.2149   21.0978 F   0  0  0  0  0  0
  -21.5630   -3.4543   25.7734 F   0  0  0  0  0  0
  -30.0384  -13.3191   20.4589 N   0  0  0  0  0  0
  -26.3018  -12.9347   20.3401 N   0  0  0  0  0  0
  -25.9334  -11.6502   20.5813 N   0  0  0  0  0  0
  -22.0477  -12.8181   22.0330 N   0  0  0  0  0  0
  -25.4353  -15.1898   20.4093 N   0  0  0  0  0  0
  -31.8522  -14.5858   20.0184 O   0  0  0  0  0  0
  -21.6633   -6.8870   21.4235 O   0  0  0  0  0  0
  -22.3526  -14.5554   20.6708 O   0  0  0  0  0  0
  -24.6117  -31.8675   23.2017 C   0  0  0  0  0  0
  -25.9007  -32.4835   23.8339 C   0  0  1  0  0  0
  -27.2773  -27.4565   20.1091 C   0  0  0  0  0  0
  -25.5853  -33.8619   24.2310 N   0  0  0  0  0  0
  -23.3981  -30.4790   21.5471 C   0  0  2  0  0  0
  -24.8536  -28.9339   20.1202 C   0  0  0  0  0  0
  -22.7387  -29.4635   22.5057 C   0  0  0  0  0  0
  -18.0258  -28.1379   22.8507 C   0  0  0  0  0  0
  -24.1460  -36.7275   23.2649 C   0  0  0  0  0  0
  -25.9133  -30.8479   21.3353 C   0  0  0  0  0  0
  -26.0020  -29.4711   20.7088 C   0  0  0  0  0  0
  -27.2061  -28.7370   20.7027 C   0  0  0  0  0  0
  -26.1073  -26.9205   19.5204 C   0  0  0  0  0  0
  -24.8996  -27.6572   19.5255 C   0  0  0  0  0  0
  -23.6012  -29.7845   20.1700 C   0  0  0  0  0  0
  -25.4090  -36.3113   24.0358 C   0  0  1  0  0  0
  -20.5846  -28.3631   23.1359 C   0  0  2  0  0  0
  -20.6754  -26.9389   22.5400 C   0  0  0  0  0  0
  -19.5707  -26.6388   21.5217 C   0  0  0  0  0  0
  -18.1879  -26.7928   22.1617 C   0  0  0  0  0  0
  -19.1523  -28.8825   23.2918 C   0  0  0  0  0  0
  -18.9467  -30.1441   23.8917 C   0  0  0  0  0  0
  -17.6476  -30.6586   24.0574 C   0  0  0  0  0  0
  -25.9025  -34.9479   23.5149 C   0  0  0  0  0  0
  -16.5354  -29.9097   23.6354 C   0  0  0  0  0  0
  -16.7257  -28.6511   23.0366 C   0  0  0  0  0  0
  -26.4461  -31.6579   25.0627 C   0  0  0  0  0  0
  -25.3758  -31.3557   26.1388 C   0  0  0  0  0  0
  -27.0366  -30.3125   24.5802 C   0  0  0  0  0  0
  -27.5990  -32.4313   25.7461 C   0  0  0  0  0  0
  -27.5554  -37.1800   24.8498 C   0  0  0  0  0  0
  -21.4121  -29.3013   22.3811 N   0  0  0  0  0  0
  -26.4268  -37.3803   23.9434 N   0  0  0  0  0  0
  -24.6617  -31.0777   22.0906 N   0  0  0  0  0  0
  -23.4158  -28.8190   23.3102 O   0  0  0  0  0  0
  -28.5200  -26.8518   20.1385 O   0  0  0  0  0  0
  -26.5581  -34.8935   22.4706 O   0  0  0  0  0  0
  -23.5319  -32.1405   23.7448 O   0  0  0  0  0  0
  -32.1055  -17.1632   21.3142 C   0  0  0  0  0  0
  -29.8836  -17.8919   21.8671 C   0  0  0  0  0  0
  -32.5304  -18.4925   21.4494 C   0  0  0  0  0  0
  -30.7424  -16.8259   21.4836 C   0  0  0  0  0  0
  -30.4020  -19.2091   22.0094 C   0  0  0  0  0  0
  -30.3867  -23.7291   20.6552 C   0  0  0  0  0  0
  -27.9173  -23.4022   20.7373 C   0  0  0  0  0  0
  -30.5649  -22.5180   21.6166 C   0  0  0  0  0  0
  -28.1240  -22.2261   21.7140 C   0  0  0  0  0  0
  -29.0280  -24.4663   20.7904 C   0  0  2  0  0  0
  -29.5545  -20.3884   22.5058 C   0  0  0  0  0  0
  -28.8021  -25.5306   19.6575 C   0  0  0  0  0  0
  -31.7003  -19.4968   21.7822 N   0  0  0  0  0  0
  -30.2312  -15.4814   21.3160 N   0  0  0  0  0  0
  -29.4357  -21.5388   21.5521 N   0  3  2  0  0  0
  -29.0177  -25.1499   22.0433 O   0  0  0  0  0  0
  -31.4560  -12.3563   19.1526 H   0  0  0  0  0  0
  -30.2783  -11.3035   19.8713 H   0  0  0  0  0  0
  -29.7310  -11.7530   17.4608 H   0  0  0  0  0  0
  -29.6604  -13.4726   17.7766 H   0  0  0  0  0  0
  -27.8404  -11.2983   18.8575 H   0  0  0  0  0  0
  -27.3651  -12.5997   17.8023 H   0  0  0  0  0  0
  -27.6934  -14.2536   19.5539 H   0  0  0  0  0  0
  -28.6753  -12.0255   21.4006 H   0  0  0  0  0  0
  -28.4579  -13.6898   21.8581 H   0  0  0  0  0  0
  -25.2737   -9.5697   22.4784 H   0  0  0  0  0  0
  -23.9980   -7.4652   22.7513 H   0  0  0  0  0  0
  -21.0874   -8.8737   19.8909 H   0  0  0  0  0  0
  -22.3726  -10.9642   19.6126 H   0  0  0  0  0  0
  -21.1990   -7.6136   23.9696 H   0  0  0  0  0  0
  -21.1468   -6.0517   25.9054 H   0  0  0  0  0  0
  -22.0612   -2.7606   23.2837 H   0  0  0  0  0  0
  -22.4077  -11.9786   22.4610 H   0  0  0  0  0  0
  -21.1087  -13.1180   22.2528 H   0  0  0  0  0  0
  -24.6811  -15.8591   20.5153 H   0  0  0  0  0  0
  -26.2945  -15.6162   20.0852 H   0  0  0  0  0  0
  -26.7074  -32.5607   23.1110 H   0  0  0  0  0  0
  -25.0095  -33.9756   25.0523 H   0  0  0  0  0  0
  -22.6861  -31.2937   21.3951 H   0  0  0  0  0  0
  -23.3758  -35.9567   23.3328 H   0  0  0  0  0  0
  -24.3551  -36.8869   22.2056 H   0  0  0  0  0  0
  -23.7139  -37.6447   23.6658 H   0  0  0  0  0  0
  -25.9723  -31.5957   20.5410 H   0  0  0  0  0  0
  -26.8191  -30.9513   21.9184 H   0  0  0  0  0  0
  -28.0953  -29.1564   21.1498 H   0  0  0  0  0  0
  -26.1099  -25.9433   19.0614 H   0  0  0  0  0  0
  -24.0134  -27.2333   19.0728 H   0  0  0  0  0  0
  -23.6755  -30.5426   19.3916 H   0  0  0  0  0  0
  -22.7346  -29.1771   19.9015 H   0  0  0  0  0  0
  -25.1250  -36.1984   25.0844 H   0  0  0  0  0  0
  -20.9902  -28.3174   24.1492 H   0  0  0  0  0  0
  -20.5700  -26.2217   23.3553 H   0  0  0  0  0  0
  -21.6614  -26.7448   22.1141 H   0  0  0  0  0  0
  -19.6872  -25.6310   21.1193 H   0  0  0  0  0  0
  -19.6655  -27.3249   20.6784 H   0  0  0  0  0  0
  -17.4139  -26.6728   21.4016 H   0  0  0  0  0  0
  -18.0261  -26.0040   22.8979 H   0  0  0  0  0  0
  -19.7961  -30.7257   24.2249 H   0  0  0  0  0  0
  -17.5042  -31.6276   24.5155 H   0  0  0  0  0  0
  -15.5357  -30.3004   23.7694 H   0  0  0  0  0  0
  -15.8644  -28.0847   22.7082 H   0  0  0  0  0  0
  -24.5955  -30.6908   25.7673 H   0  0  0  0  0  0
  -24.8927  -32.2665   26.4945 H   0  0  0  0  0  0
  -25.8145  -30.8624   27.0075 H   0  0  0  0  0  0
  -26.2874  -29.6833   24.0988 H   0  0  0  0  0  0
  -27.4514  -29.7351   25.4063 H   0  0  0  0  0  0
  -27.8475  -30.4648   23.8678 H   0  0  0  0  0  0
  -27.2595  -33.3651   26.1956 H   0  0  0  0  0  0
  -28.3891  -32.6804   25.0370 H   0  0  0  0  0  0
  -28.0550  -31.8483   26.5473 H   0  0  0  0  0  0
  -28.2558  -38.0109   24.7573 H   0  0  0  0  0  0
  -28.1052  -36.2629   24.6314 H   0  0  0  0  0  0
  -27.2249  -37.1438   25.8893 H   0  0  0  0  0  0
  -20.9297  -29.8712   21.7010 H   0  0  0  0  0  0
  -26.0172  -38.2875   24.1442 H   0  0  0  0  0  0
  -32.8589  -16.4306   21.0675 H   0  0  0  0  0  0
  -28.8364  -17.7060   22.0662 H   0  0  0  0  0  0
  -33.5662  -18.7553   21.2914 H   0  0  0  0  0  0
  -30.4966  -23.3730   19.6302 H   0  0  0  0  0  0
  -31.2089  -24.4328   20.8032 H   0  0  0  0  0  0
  -26.9494  -23.8718   20.9158 H   0  0  0  0  0  0
  -27.8678  -22.9951   19.7269 H   0  0  0  0  0  0
  -30.6794  -22.8804   22.6396 H   0  0  0  0  0  0
  -31.5064  -22.0297   21.3751 H   0  0  0  0  0  0
  -27.3173  -21.5097   21.5578 H   0  0  0  0  0  0
  -28.0294  -22.5862   22.7406 H   0  0  0  0  0  0
  -29.9549  -20.7367   23.4594 H   0  0  0  0  0  0
  -28.5643  -19.9940   22.7353 H   0  0  0  0  0  0
  -28.0974  -25.1895   18.9024 H   0  0  0  0  0  0
  -29.7358  -25.6489   19.1068 H   0  0  0  0  0  0
  -29.3139  -15.2993   21.6927 H   0  0  0  0  0  0
  -29.4570  -21.1078   20.6409 H   0  0  0  0  0  0
  -29.2316  -24.5569   22.7503 H   0  0  0  0  0  0
  1 25  1  0  0  0
  1 30  2  0  0  0
  1 84  1  0  0  0
  2  3  1  0  0  0
  2 25  1  0  0  0
  2 87  1  0  0  0
  2 88  1  0  0  0
  3  4  1  0  0  0
  3 89  1  0  0  0
  3 90  1  0  0  0
  4  5  1  0  0  0
  4 91  1  0  0  0
  4 92  1  0  0  0
  5  6  1  0  0  0
  5 26  1  0  0  0
  5 93  1  0  0  0
  6 25  1  0  0  0
  6 94  1  0  0  0
  6 95  1  0  0  0
  7  8  2  0  0  0
  7 26  1  0  0  0
  7 29  1  0  0  0
  8  9  1  0  0  0
  8 22  1  0  0  0
  9 10  1  0  0  0
  9 27  2  0  0  0
 10 11  2  0  0  0
 10 15  1  0  0  0
 11 12  1  0  0  0
 11 96  1  0  0  0
 12 13  2  0  0  0
 12 97  1  0  0  0
 13 14  1  0  0  0
 13 31  1  0  0  0
 14 15  2  0  0  0
 14 98  1  0  0  0
 15 99  1  0  0  0
 16 17  2  0  0  0
 16 21  1  0  0  0
 16 31  1  0  0  0
 17 18  1  0  0  0
 17100  1  0  0  0
 18 19  2  0  0  0
 18101  1  0  0  0
 19 20  1  0  0  0
 19 24  1  0  0  0
 20 21  2  0  0  0
 20102  1  0  0  0
 21 23  1  0  0  0
 22 28  1  0  0  0
 22 32  2  0  0  0
 26 27  1  0  0  0
 28103  1  0  0  0
 28104  1  0  0  0
 29105  1  0  0  0
 29106  1  0  0  0
 33 34  1  0  0  0
 33 66  1  0  0  0
 33 70  2  0  0  0
 34 36  1  0  0  0
 34 59  1  0  0  0
 34107  1  0  0  0
 35 44  2  0  0  0
 35 45  1  0  0  0
 35 68  1  0  0  0
 36 56  1  0  0  0
 36108  1  0  0  0
 37 39  1  0  0  0
 37 47  1  0  0  0
 37 66  1  0  0  0
 37109  1  0  0  0
 38 43  2  0  0  0
 38 46  1  0  0  0
 38 47  1  0  0  0
 39 64  1  0  0  0
 39 67  2  0  0  0
 40 52  1  0  0  0
 40 53  2  0  0  0
 40 58  1  0  0  0
 41110  1  0  0  0
 41111  1  0  0  0
 41112  1  0  0  0
 41 48  1  0  0  0
 42 43  1  0  0  0
 42 66  1  0  0  0
 42113  1  0  0  0
 42114  1  0  0  0
 43 44  1  0  0  0
 44115  1  0  0  0
 45 46  2  0  0  0
 45116  1  0  0  0
 46117  1  0  0  0
 47118  1  0  0  0
 47119  1  0  0  0
 48 56  1  0  0  0
 48 65  1  0  0  0
 48120  1  0  0  0
 49 50  1  0  0  0
 49 53  1  0  0  0
 49 64  1  0  0  0
 49121  1  0  0  0
 50 51  1  0  0  0
 50122  1  0  0  0
 50123  1  0  0  0
 51 52  1  0  0  0
 51124  1  0  0  0
 51125  1  0  0  0
 52126  1  0  0  0
 52127  1  0  0  0
 53 54  1  0  0  0
 54 55  2  0  0  0
 54128  1  0  0  0
 55 57  1  0  0  0
 55129  1  0  0  0
 56 69  2  0  0  0
 57 58  2  0  0  0
 57130  1  0  0  0
 58131  1  0  0  0
 59 60  1  0  0  0
 59 61  1  0  0  0
 59 62  1  0  0  0
 60132  1  0  0  0
 60133  1  0  0  0
 60134  1  0  0  0
 61135  1  0  0  0
 61136  1  0  0  0
 61137  1  0  0  0
 62138  1  0  0  0
 62139  1  0  0  0
 62140  1  0  0  0
 63 65  1  0  0  0
 63141  1  0  0  0
 63142  1  0  0  0
 63143  1  0  0  0
 64144  1  0  0  0
 65145  1  0  0  0
 68 82  1  0  0  0
 71 73  2  0  0  0
 71 74  1  0  0  0
 71146  1  0  0  0
 72 74  2  0  0  0
 72 75  1  0  0  0
 72147  1  0  0  0
 73 83  1  0  0  0
 73148  1  0  0  0
 74 84  1  0  0  0
 75 81  1  0  0  0
 75 83  2  0  0  0
 76 78  1  0  0  0
 76 80  1  0  0  0
 76149  1  0  0  0
 76150  1  0  0  0
 77 79  1  0  0  0
 77 80  1  0  0  0
 77151  1  0  0  0
 77152  1  0  0  0
 78 85  1  0  0  0
 78153  1  0  0  0
 78154  1  0  0  0
 79 85  1  0  0  0
 79155  1  0  0  0
 79156  1  0  0  0
 80 82  1  0  0  0
 80 86  1  0  0  0
 81157  1  0  0  0
 81158  1  0  0  0
 81 85  1  0  0  0
 82159  1  0  0  0
 82160  1  0  0  0
 84161  1  0  0  0
 85162  1  0  0  0
 86163  1  0  0  0
M  CHG  1  85   1
M  ISO  4   1 100  68 101  82 101  84 100
M  END
> <chiral flag>
0

> <version>
0

> <s_m_source_file>
/data/baiqing/PycharmProjects/Reinvent-master-3.2/result/LINK_invent/BTK/process_docking_weight1_custom_product_contain_oxygen_bond_distance_aromatic_linkinvent_7_9_3/rearranged_h_0157.sdf

> <i_m_source_file_index>
62

> <r_mmod_Potential_Energy-OPLS-2005>
-277.227142333984

> <r_mmod_Stretch_Energy-OPLS-2005>
46.301628112793

> <r_mmod_Bend_Energy-OPLS-2005>
131.865676879883

> <r_mmod_Torsional_Energy-OPLS-2005>
276.805023193359

> <r_mmod_Improper_Torsional_Energy-OPLS-2005>
2.37026381492615

> <r_mmod_Van_der_Waal_Energy-OPLS-2005>
169.982192993164

> <r_mmod_Electrostatic_Energy-OPLS-2005>
-426.66357421875

> <r_mmod_Solvation_Energy-OPLS-2005>
-494.738067626953

> <b_mmod_Minimization_Converged-OPLS-2005>
0

> <r_mmod_RMS_Derivative-OPLS-2005>
3.49113655090332

$$$$
62
                    3D
 Structure written by MMmdl.
164173  0  0  1  0            999 V2000
  -30.6768  -14.6211   20.4816 C   0  0  0  0  0  0
  -30.4180  -12.3827   19.4515 C   0  0  0  0  0  0
  -29.4965  -12.4902   18.2193 C   0  0  0  0  0  0
  -28.0219  -12.3347   18.6369 C   0  0  0  0  0  0
  -27.6448  -13.2242   19.8524 C   0  0  2  0  0  0
  -28.6915  -13.1237   20.9837 C   0  0  0  0  0  0
  -25.2558  -13.8214   20.5754 C   0  0  0  0  0  0
  -24.1832  -13.0463   20.9251 C   0  0  0  0  0  0
  -24.6392  -11.6931   20.8760 C   0  0  0  0  0  0
  -23.9062  -10.4304   21.0413 C   0  0  0  0  0  0
  -24.3618   -9.4217   21.9186 C   0  0  0  0  0  0
  -23.6296   -8.2248   22.0753 C   0  0  0  0  0  0
  -22.4279   -8.0284   21.3544 C   0  0  0  0  0  0
  -21.9912   -9.0258   20.4647 C   0  0  0  0  0  0
  -22.7236  -10.2142   20.3062 C   0  0  0  0  0  0
  -21.6855   -6.0738   22.5277 C   0  0  0  0  0  0
  -21.4014   -6.5641   23.8211 C   0  0  0  0  0  0
  -21.3660   -5.6795   24.9173 C   0  0  0  0  0  0
  -21.6045   -4.3058   24.7224 C   0  0  0  0  0  0
  -21.8818   -3.8148   23.4346 C   0  0  0  0  0  0
  -21.9193   -4.6965   22.3402 C   0  0  0  0  0  0
  -22.7852  -13.5251   21.1886 C   0  0  0  0  0  0
  -22.1662   -4.2150   21.0981 F   0  0  0  0  0  0
  -21.5628   -3.4542   25.7736 F   0  0  0  0  0  0
  -30.0008  -13.4348   20.3995 N   0  0  0  0  0  0
  -26.2952  -12.9393   20.3293 N   0  0  0  0  0  0
  -25.9313  -11.6542   20.5750 N   0  0  0  0  0  0
  -22.0474  -12.8234   22.0416 N   0  0  0  0  0  0
  -25.4308  -15.1951   20.4202 N   0  0  0  0  0  0
  -31.8663  -14.6908   20.1661 O   0  0  0  0  0  0
  -21.6645   -6.8881   21.4240 O   0  0  0  0  0  0
  -22.3565  -14.5563   20.6723 O   0  0  0  0  0  0
  -24.6252  -31.8608   23.2031 C   0  0  0  0  0  0
  -25.9102  -32.4787   23.8359 C   0  0  1  0  0  0
  -27.2175  -27.3323   20.1253 C   0  0  0  0  0  0
  -25.5925  -33.8588   24.2285 N   0  0  0  0  0  0
  -23.4182  -30.4848   21.5449 C   0  0  2  0  0  0
  -24.8655  -28.9418   20.1093 C   0  0  0  0  0  0
  -22.7472  -29.4633   22.4935 C   0  0  0  0  0  0
  -18.0283  -28.1399   22.8491 C   0  0  0  0  0  0
  -24.1487  -36.7293   23.2641 C   0  0  0  0  0  0
  -25.9578  -30.7969   21.3716 C   0  0  0  0  0  0
  -26.0333  -29.4249   20.7152 C   0  0  0  0  0  0
  -27.2170  -28.6312   20.7136 C   0  0  0  0  0  0
  -26.0364  -26.8998   19.4870 C   0  0  0  0  0  0
  -24.8682  -27.6844   19.4845 C   0  0  0  0  0  0
  -23.6323  -29.8198   20.1595 C   0  0  0  0  0  0
  -25.4110  -36.3086   24.0332 C   0  0  1  0  0  0
  -20.5885  -28.3697   23.1289 C   0  0  2  0  0  0
  -20.6774  -26.9420   22.5417 C   0  0  0  0  0  0
  -19.5749  -26.6389   21.5222 C   0  0  0  0  0  0
  -18.1925  -26.7944   22.1625 C   0  0  0  0  0  0
  -19.1538  -28.8863   23.2887 C   0  0  0  0  0  0
  -18.9464  -30.1466   23.8901 C   0  0  0  0  0  0
  -17.6465  -30.6600   24.0570 C   0  0  0  0  0  0
  -25.9046  -34.9456   23.5105 C   0  0  0  0  0  0
  -16.5354  -29.9100   23.6336 C   0  0  0  0  0  0
  -16.7271  -28.6520   23.0351 C   0  0  0  0  0  0
  -26.4490  -31.6596   25.0724 C   0  0  0  0  0  0
  -25.3730  -31.3731   26.1456 C   0  0  0  0  0  0
  -27.0331  -30.3024   24.6163 C   0  0  0  0  0  0
  -27.6050  -32.4334   25.7496 C   0  0  0  0  0  0
  -27.5578  -37.1801   24.8466 C   0  0  0  0  0  0
  -21.4185  -29.3051   22.3683 N   0  0  0  0  0  0
  -26.4288  -37.3781   23.9412 N   0  0  0  0  0  0
  -24.6858  -31.0635   22.0973 N   0  0  0  0  0  0
  -23.4204  -28.8168   23.3005 O   0  0  0  0  0  0
  -28.3067  -26.4589   20.1658 O   0  0  0  0  0  0
  -26.5612  -34.8926   22.4669 O   0  0  0  0  0  0
  -23.5418  -32.1394   23.7372 O   0  0  0  0  0  0
  -30.1769  -19.4757   19.6687 C   0  0  0  0  0  0
  -29.7406  -20.8315   19.7107 C   0  0  0  0  0  0
  -28.5254  -20.3328   21.7203 C   0  0  0  0  0  0
  -28.9659  -18.9677   21.6974 C   0  0  0  0  0  0
  -29.8335  -18.5102   20.6591 C   0  0  0  0  0  0
  -28.9190  -21.3075   20.7608 C   0  0  0  0  0  0
  -28.7331  -23.8726   20.2853 C   0  0  0  0  0  0
  -27.8498  -17.8280   25.1191 C   0  0  0  0  0  0
  -28.8955  -18.5142   24.2432 C   0  0  0  0  0  0
  -26.5952  -17.8165   24.2372 C   0  0  0  0  0  0
  -28.5233  -18.0372   22.8309 C   0  0  1  0  0  0
  -30.6073  -17.1352   20.6536 C   0  0  0  0  0  0
  -28.0490  -25.1764   20.8592 C   0  0  0  0  0  0
  -28.4661  -22.6904   20.9306 N   0  0  0  0  0  0
  -29.9681  -15.7743   20.7038 N   0  0  0  0  0  0
  -27.0640  -17.8216   22.8371 N   0  3  0  0  0  0
  -29.4693  -23.9480   19.2976 O   0  0  0  0  0  0
  -31.4622  -12.4775   19.1487 H   0  0  0  0  0  0
  -30.3304  -11.3988   19.9153 H   0  0  0  0  0  0
  -29.7585  -11.7285   17.4835 H   0  0  0  0  0  0
  -29.6417  -13.4540   17.7286 H   0  0  0  0  0  0
  -27.8623  -11.2848   18.8854 H   0  0  0  0  0  0
  -27.3644  -12.5490   17.7936 H   0  0  0  0  0  0
  -27.6521  -14.2518   19.4889 H   0  0  0  0  0  0
  -28.7010  -12.1220   21.4161 H   0  0  0  0  0  0
  -28.4499  -13.8063   21.7997 H   0  0  0  0  0  0
  -25.2763   -9.5691   22.4760 H   0  0  0  0  0  0
  -24.0007   -7.4638   22.7470 H   0  0  0  0  0  0
  -21.0843   -8.8777   19.8953 H   0  0  0  0  0  0
  -22.3693  -10.9681   19.6172 H   0  0  0  0  0  0
  -21.2005   -7.6149   23.9712 H   0  0  0  0  0  0
  -21.1483   -6.0527   25.9076 H   0  0  0  0  0  0
  -22.0597   -2.7609   23.2846 H   0  0  0  0  0  0
  -22.4073  -11.9879   22.4786 H   0  0  0  0  0  0
  -21.1086  -13.1257   22.2606 H   0  0  0  0  0  0
  -24.5974  -15.7725   20.3792 H   0  0  0  0  0  0
  -26.1682  -15.5436   19.8207 H   0  0  0  0  0  0
  -26.7174  -32.5462   23.1117 H   0  0  0  0  0  0
  -25.0097  -33.9740   25.0446 H   0  0  0  0  0  0
  -22.7115  -31.3049   21.4021 H   0  0  0  0  0  0
  -23.3753  -35.9623   23.3305 H   0  0  0  0  0  0
  -24.3578  -36.8906   22.2055 H   0  0  0  0  0  0
  -23.7234  -37.6494   23.6657 H   0  0  0  0  0  0
  -26.0851  -31.5599   20.6026 H   0  0  0  0  0  0
  -26.8402  -30.8481   21.9974 H   0  0  0  0  0  0
  -28.1129  -28.9923   21.1993 H   0  0  0  0  0  0
  -26.0092  -25.9323   19.0059 H   0  0  0  0  0  0
  -23.9746  -27.3099   19.0046 H   0  0  0  0  0  0
  -23.7502  -30.5966   19.4032 H   0  0  0  0  0  0
  -22.7530  -29.2481   19.8566 H   0  0  0  0  0  0
  -25.1290  -36.1941   25.0825 H   0  0  0  0  0  0
  -20.9977  -28.3274   24.1410 H   0  0  0  0  0  0
  -20.5684  -26.2308   23.3618 H   0  0  0  0  0  0
  -21.6640  -26.7457   22.1201 H   0  0  0  0  0  0
  -19.6911  -25.6298   21.1253 H   0  0  0  0  0  0
  -19.6692  -27.3200   20.6754 H   0  0  0  0  0  0
  -17.4199  -26.6708   21.4020 H   0  0  0  0  0  0
  -18.0309  -26.0086   22.9016 H   0  0  0  0  0  0
  -19.7941  -30.7282   24.2271 H   0  0  0  0  0  0
  -17.5022  -31.6281   24.5171 H   0  0  0  0  0  0
  -15.5357  -30.3007   23.7664 H   0  0  0  0  0  0
  -15.8667  -28.0845   22.7062 H   0  0  0  0  0  0
  -24.5933  -30.7039   25.7800 H   0  0  0  0  0  0
  -24.8890  -32.2893   26.4848 H   0  0  0  0  0  0
  -25.8069  -30.8955   27.0249 H   0  0  0  0  0  0
  -26.2899  -29.6784   24.1184 H   0  0  0  0  0  0
  -27.4036  -29.7267   25.4655 H   0  0  0  0  0  0
  -27.8762  -30.4318   23.9374 H   0  0  0  0  0  0
  -27.2658  -33.3642   26.2055 H   0  0  0  0  0  0
  -28.3871  -32.6880   25.0330 H   0  0  0  0  0  0
  -28.0705  -31.8472   26.5429 H   0  0  0  0  0  0
  -28.2595  -38.0099   24.7510 H   0  0  0  0  0  0
  -28.1071  -36.2627   24.6289 H   0  0  0  0  0  0
  -27.2298  -37.1446   25.8871 H   0  0  0  0  0  0
  -20.9359  -29.8783   21.6903 H   0  0  0  0  0  0
  -26.0170  -38.2856   24.1418 H   0  0  0  0  0  0
  -30.8469  -19.1931   18.8686 H   0  0  0  0  0  0
  -30.0743  -21.5045   18.9341 H   0  0  0  0  0  0
  -27.8862  -20.6564   22.5299 H   0  0  0  0  0  0
  -27.6917  -18.3358   26.0712 H   0  0  0  0  0  0
  -28.1598  -16.8045   25.3361 H   0  0  0  0  0  0
  -29.9210  -18.2616   24.5146 H   0  0  0  0  0  0
  -28.7866  -19.5936   24.3451 H   0  0  0  0  0  0
  -26.0066  -18.7184   24.4095 H   0  0  0  0  0  0
  -25.9531  -16.9594   24.4444 H   0  0  0  0  0  0
  -28.9683  -17.0517   22.7144 H   0  0  0  0  0  0
  -31.3044  -17.1804   21.4922 H   0  0  0  0  0  0
  -31.2484  -17.1470   19.7700 H   0  0  0  0  0  0
  -28.3961  -25.2980   21.8857 H   0  0  0  0  0  0
  -26.9822  -24.9662   20.9414 H   0  0  0  0  0  0
  -27.8456  -22.8225   21.7177 H   0  0  0  0  0  0
  -28.9716  -15.7019   20.8243 H   0  0  0  0  0  0
  -26.6050  -18.5631   22.3342 H   0  0  0  0  0  0
  -26.8348  -16.9512   22.3844 H   0  0  0  0  0  0
  1 25  1  0  0  0
  1 30  2  0  0  0
  1 85  1  0  0  0
  2  3  1  0  0  0
  2 25  1  0  0  0
  2 88  1  0  0  0
  2 89  1  0  0  0
  3  4  1  0  0  0
  3 90  1  0  0  0
  3 91  1  0  0  0
  4  5  1  0  0  0
  4 92  1  0  0  0
  4 93  1  0  0  0
  5  6  1  0  0  0
  5 26  1  0  0  0
  5 94  1  0  0  0
  6 25  1  0  0  0
  6 95  1  0  0  0
  6 96  1  0  0  0
  7  8  2  0  0  0
  7 26  1  0  0  0
  7 29  1  0  0  0
  8  9  1  0  0  0
  8 22  1  0  0  0
  9 10  1  0  0  0
  9 27  2  0  0  0
 10 11  2  0  0  0
 10 15  1  0  0  0
 11 12  1  0  0  0
 11 97  1  0  0  0
 12 13  2  0  0  0
 12 98  1  0  0  0
 13 14  1  0  0  0
 13 31  1  0  0  0
 14 15  2  0  0  0
 14 99  1  0  0  0
 15100  1  0  0  0
 16 17  2  0  0  0
 16 21  1  0  0  0
 16 31  1  0  0  0
 17 18  1  0  0  0
 17101  1  0  0  0
 18 19  2  0  0  0
 18102  1  0  0  0
 19 20  1  0  0  0
 19 24  1  0  0  0
 20 21  2  0  0  0
 20103  1  0  0  0
 21 23  1  0  0  0
 22 28  1  0  0  0
 22 32  2  0  0  0
 26 27  1  0  0  0
 28104  1  0  0  0
 28105  1  0  0  0
 29106  1  0  0  0
 29107  1  0  0  0
 33 34  1  0  0  0
 33 66  1  0  0  0
 33 70  2  0  0  0
 34 36  1  0  0  0
 34 59  1  0  0  0
 34108  1  0  0  0
 35 44  2  0  0  0
 35 45  1  0  0  0
 35 68  1  0  0  0
 36 56  1  0  0  0
 36109  1  0  0  0
 37 39  1  0  0  0
 37 47  1  0  0  0
 37 66  1  0  0  0
 37110  1  0  0  0
 38 43  2  0  0  0
 38 46  1  0  0  0
 38 47  1  0  0  0
 39 64  1  0  0  0
 39 67  2  0  0  0
 40 52  1  0  0  0
 40 53  2  0  0  0
 40 58  1  0  0  0
 41111  1  0  0  0
 41112  1  0  0  0
 41113  1  0  0  0
 41 48  1  0  0  0
 42 43  1  0  0  0
 42 66  1  0  0  0
 42114  1  0  0  0
 42115  1  0  0  0
 43 44  1  0  0  0
 44116  1  0  0  0
 45 46  2  0  0  0
 45117  1  0  0  0
 46118  1  0  0  0
 47119  1  0  0  0
 47120  1  0  0  0
 48 56  1  0  0  0
 48 65  1  0  0  0
 48121  1  0  0  0
 49 50  1  0  0  0
 49 53  1  0  0  0
 49 64  1  0  0  0
 49122  1  0  0  0
 50 51  1  0  0  0
 50123  1  0  0  0
 50124  1  0  0  0
 51 52  1  0  0  0
 51125  1  0  0  0
 51126  1  0  0  0
 52127  1  0  0  0
 52128  1  0  0  0
 53 54  1  0  0  0
 54 55  2  0  0  0
 54129  1  0  0  0
 55 57  1  0  0  0
 55130  1  0  0  0
 56 69  2  0  0  0
 57 58  2  0  0  0
 57131  1  0  0  0
 58132  1  0  0  0
 59 60  1  0  0  0
 59 61  1  0  0  0
 59 62  1  0  0  0
 60133  1  0  0  0
 60134  1  0  0  0
 60135  1  0  0  0
 61136  1  0  0  0
 61137  1  0  0  0
 61138  1  0  0  0
 62139  1  0  0  0
 62140  1  0  0  0
 62141  1  0  0  0
 63 65  1  0  0  0
 63142  1  0  0  0
 63143  1  0  0  0
 63144  1  0  0  0
 64145  1  0  0  0
 65146  1  0  0  0
 68 83  1  0  0  0
 71 72  2  0  0  0
 71 75  1  0  0  0
 71147  1  0  0  0
 72 76  1  0  0  0
 72148  1  0  0  0
 73 74  1  0  0  0
 73 76  2  0  0  0
 73149  1  0  0  0
 74 75  2  0  0  0
 74 81  1  0  0  0
 75 82  1  0  0  0
 76 84  1  0  0  0
 77 83  1  0  0  0
 77 84  1  0  0  0
 77 87  2  0  0  0
 78 79  1  0  0  0
 78 80  1  0  0  0
 78150  1  0  0  0
 78151  1  0  0  0
 79 81  1  0  0  0
 79152  1  0  0  0
 79153  1  0  0  0
 80 86  1  0  0  0
 80154  1  0  0  0
 80155  1  0  0  0
 81 86  1  0  0  0
 81156  1  0  0  0
 82 85  1  0  0  0
 82157  1  0  0  0
 82158  1  0  0  0
 83159  1  0  0  0
 83160  1  0  0  0
 84161  1  0  0  0
 85162  1  0  0  0
 86163  1  0  0  0
 86164  1  0  0  0
M  CHG  1  86   1
M  ISO  4   1 100  68 101  83 101  85 100
M  END
> <chiral flag>
0

> <version>
0

> <s_m_source_file>
/data/baiqing/PycharmProjects/Reinvent-master-3.2/result/LINK_invent/BTK/process_docking_weight1_custom_product_contain_oxygen_bond_distance_aromatic_linkinvent_7_9_3/rearranged_h_0157.sdf

> <i_m_source_file_index>
63

> <r_mmod_Potential_Energy-OPLS-2005>
-128.821212768555

> <r_mmod_Stretch_Energy-OPLS-2005>
76.5078430175781

> <r_mmod_Bend_Energy-OPLS-2005>
168.168228149414

> <r_mmod_Torsional_Energy-OPLS-2005>
298.707885742188

> <r_mmod_Improper_Torsional_Energy-OPLS-2005>
9.02617740631104

> <r_mmod_Van_der_Waal_Energy-OPLS-2005>
137.935836791992

> <r_mmod_Electrostatic_Energy-OPLS-2005>
-341.650024414062

> <r_mmod_Solvation_Energy-OPLS-2005>
-526.934936523438

> <b_mmod_Minimization_Converged-OPLS-2005>
0

> <r_mmod_RMS_Derivative-OPLS-2005>
0.602629482746124

$$$$
63
                    3D
 Structure written by MMmdl.
161170  0  0  1  0            999 V2000
  -30.6243  -14.8002   20.4633 C   0  0  0  0  0  0
  -30.4170  -12.4918   19.5083 C   0  0  0  0  0  0
  -29.5171  -12.5429   18.2537 C   0  0  0  0  0  0
  -28.0329  -12.3712   18.6334 C   0  0  0  0  0  0
  -27.6339  -13.2503   19.8470 C   0  0  2  0  0  0
  -28.6714  -13.2237   20.9905 C   0  0  0  0  0  0
  -25.2452  -13.8222   20.5658 C   0  0  0  0  0  0
  -24.1759  -13.0457   20.9177 C   0  0  0  0  0  0
  -24.6371  -11.6940   20.8680 C   0  0  0  0  0  0
  -23.9027  -10.4326   21.0342 C   0  0  0  0  0  0
  -24.3608   -9.4273   21.9128 C   0  0  0  0  0  0
  -23.6339   -8.2273   22.0717 C   0  0  0  0  0  0
  -22.4310   -8.0275   21.3520 C   0  0  0  0  0  0
  -21.9909   -9.0226   20.4622 C   0  0  0  0  0  0
  -22.7187  -10.2147   20.3025 C   0  0  0  0  0  0
  -21.6891   -6.0741   22.5273 C   0  0  0  0  0  0
  -21.4023   -6.5640   23.8205 C   0  0  0  0  0  0
  -21.3674   -5.6799   24.9171 C   0  0  0  0  0  0
  -21.6040   -4.3057   24.7210 C   0  0  0  0  0  0
  -21.8820   -3.8137   23.4333 C   0  0  0  0  0  0
  -21.9208   -4.6965   22.3399 C   0  0  0  0  0  0
  -22.7801  -13.5212   21.1848 C   0  0  0  0  0  0
  -22.1655   -4.2147   21.0975 F   0  0  0  0  0  0
  -21.5673   -3.4533   25.7718 F   0  0  0  0  0  0
  -29.9804  -13.5761   20.4283 N   0  0  0  0  0  0
  -26.2884  -12.9470   20.3238 N   0  0  0  0  0  0
  -25.9305  -11.6590   20.5690 N   0  0  0  0  0  0
  -22.0441  -12.8235   22.0443 N   0  0  0  0  0  0
  -25.4144  -15.1944   20.4091 N   0  0  0  0  0  0
  -31.8033  -14.8530   20.1047 O   0  0  0  0  0  0
  -21.6659   -6.8878   21.4237 O   0  0  0  0  0  0
  -22.3511  -14.5530   20.6689 O   0  0  0  0  0  0
  -24.6321  -31.8568   23.1952 C   0  0  0  0  0  0
  -25.9174  -32.4732   23.8271 C   0  0  1  0  0  0
  -27.2066  -27.2321   20.1320 C   0  0  0  0  0  0
  -25.5962  -33.8538   24.2205 N   0  0  0  0  0  0
  -23.4301  -30.4795   21.5424 C   0  0  2  0  0  0
  -24.8764  -28.9283   20.1082 C   0  0  0  0  0  0
  -22.7512  -29.4626   22.4922 C   0  0  0  0  0  0
  -18.0307  -28.1398   22.8503 C   0  0  0  0  0  0
  -24.1522  -36.7270   23.2644 C   0  0  0  0  0  0
  -25.9824  -30.7563   21.3897 C   0  0  0  0  0  0
  -26.0523  -29.3822   20.7200 C   0  0  0  0  0  0
  -27.2212  -28.5490   20.7193 C   0  0  0  0  0  0
  -26.0122  -26.8697   19.4711 C   0  0  0  0  0  0
  -24.8638  -27.6812   19.4703 C   0  0  0  0  0  0
  -23.6480  -29.8141   20.1594 C   0  0  0  0  0  0
  -25.4150  -36.3060   24.0320 C   0  0  1  0  0  0
  -20.5914  -28.3713   23.1294 C   0  0  2  0  0  0
  -20.6825  -26.9425   22.5441 C   0  0  0  0  0  0
  -19.5798  -26.6387   21.5258 C   0  0  0  0  0  0
  -18.1964  -26.7943   22.1637 C   0  0  0  0  0  0
  -19.1551  -28.8868   23.2886 C   0  0  0  0  0  0
  -18.9459  -30.1491   23.8867 C   0  0  0  0  0  0
  -17.6450  -30.6598   24.0564 C   0  0  0  0  0  0
  -25.9085  -34.9433   23.5071 C   0  0  0  0  0  0
  -16.5350  -29.9079   23.6351 C   0  0  0  0  0  0
  -16.7284  -28.6511   23.0342 C   0  0  0  0  0  0
  -26.4507  -31.6554   25.0669 C   0  0  0  0  0  0
  -25.3688  -31.3748   26.1359 C   0  0  0  0  0  0
  -27.0375  -30.2940   24.6255 C   0  0  0  0  0  0
  -27.6040  -32.4312   25.7430 C   0  0  0  0  0  0
  -27.5607  -37.1778   24.8436 C   0  0  0  0  0  0
  -21.4215  -29.3032   22.3639 N   0  0  0  0  0  0
  -26.4308  -37.3759   23.9401 N   0  0  0  0  0  0
  -24.7007  -31.0490   22.0954 N   0  0  0  0  0  0
  -23.4210  -28.8199   23.3045 O   0  0  0  0  0  0
  -28.2673  -26.2892   20.1988 O   0  0  0  0  0  0
  -26.5661  -34.8919   22.4631 O   0  0  0  0  0  0
  -23.5474  -32.1404   23.7246 O   0  0  0  0  0  0
  -30.0081  -18.5698   17.8559 C   0  0  0  0  0  0
  -29.7251  -18.6070   20.1303 C   0  0  0  0  0  0
  -29.9272  -17.1765   19.9465 C   0  0  0  0  0  0
  -29.0176  -23.6763   20.3223 C   0  0  0  0  0  0
  -30.5373  -19.8754   23.7000 C   0  0  0  0  0  0
  -31.3789  -21.0054   23.1374 C   0  0  0  0  0  0
  -30.2474  -18.9685   22.5186 C   0  0  0  0  0  0
  -30.5029  -21.8504   22.2131 C   0  0  0  0  0  0
  -29.4891  -19.6188   21.3232 C   0  0  1  0  0  0
  -28.6693  -22.1092   20.6055 C   0  0  0  0  0  0
  -27.8863  -24.8213   20.3402 C   0  0  0  0  0  0
  -29.8156  -19.3236   18.9280 N   0  0  0  0  0  0
  -29.9303  -15.9942   20.7340 N   0  0  0  0  0  0
  -29.8090  -21.1514   21.0737 N   0  3  1  0  0  0
  -30.1720  -23.9955   20.0193 O   0  0  0  0  0  0
  -30.1256  -16.8736   18.2137 S   0  0  0  0  0  0
  -31.4682  -12.5866   19.2279 H   0  0  0  0  0  0
  -30.3296  -11.5248   20.0023 H   0  0  0  0  0  0
  -29.8188  -11.7757   17.5397 H   0  0  0  0  0  0
  -29.6485  -13.5035   17.7495 H   0  0  0  0  0  0
  -27.8562  -11.3195   18.8437 H   0  0  0  0  0  0
  -27.3965  -12.6153   17.7786 H   0  0  0  0  0  0
  -27.6101  -14.2686   19.4613 H   0  0  0  0  0  0
  -28.7063  -12.2436   21.4700 H   0  0  0  0  0  0
  -28.3872  -13.9287   21.7740 H   0  0  0  0  0  0
  -25.2746   -9.5812   22.4704 H   0  0  0  0  0  0
  -24.0083   -7.4684   22.7438 H   0  0  0  0  0  0
  -21.0827   -8.8696   19.8950 H   0  0  0  0  0  0
  -22.3562  -10.9666   19.6163 H   0  0  0  0  0  0
  -21.1983   -7.6141   23.9705 H   0  0  0  0  0  0
  -21.1520   -6.0519   25.9092 H   0  0  0  0  0  0
  -22.0590   -2.7588   23.2792 H   0  0  0  0  0  0
  -22.4037  -11.9926   22.4896 H   0  0  0  0  0  0
  -21.1032  -13.1271   22.2534 H   0  0  0  0  0  0
  -24.6474  -15.8514   20.5033 H   0  0  0  0  0  0
  -26.2702  -15.6317   20.0886 H   0  0  0  0  0  0
  -26.7216  -32.5364   23.0980 H   0  0  0  0  0  0
  -25.0060  -33.9656   25.0322 H   0  0  0  0  0  0
  -22.7259  -31.3019   21.3960 H   0  0  0  0  0  0
  -23.3804  -35.9570   23.3250 H   0  0  0  0  0  0
  -24.3622  -36.8953   22.2063 H   0  0  0  0  0  0
  -23.7242  -37.6443   23.6700 H   0  0  0  0  0  0
  -26.1489  -31.5277   20.6385 H   0  0  0  0  0  0
  -26.8484  -30.7807   22.0388 H   0  0  0  0  0  0
  -28.1179  -28.8889   21.2174 H   0  0  0  0  0  0
  -25.9238  -25.9351   18.9419 H   0  0  0  0  0  0
  -23.9660  -27.3374   18.9752 H   0  0  0  0  0  0
  -23.7638  -30.5897   19.4016 H   0  0  0  0  0  0
  -22.7675  -29.2438   19.8604 H   0  0  0  0  0  0
  -25.1343  -36.1878   25.0809 H   0  0  0  0  0  0
  -21.0006  -28.3308   24.1420 H   0  0  0  0  0  0
  -20.5840  -26.2279   23.3639 H   0  0  0  0  0  0
  -21.6676  -26.7531   22.1154 H   0  0  0  0  0  0
  -19.6963  -25.6303   21.1277 H   0  0  0  0  0  0
  -19.6752  -27.3215   20.6808 H   0  0  0  0  0  0
  -17.4266  -26.6735   21.4006 H   0  0  0  0  0  0
  -18.0299  -26.0081   22.9012 H   0  0  0  0  0  0
  -19.7928  -30.7335   24.2190 H   0  0  0  0  0  0
  -17.4997  -31.6285   24.5167 H   0  0  0  0  0  0
  -15.5340  -30.2947   23.7724 H   0  0  0  0  0  0
  -15.8699  -28.0847   22.7013 H   0  0  0  0  0  0
  -24.5806  -30.7198   25.7626 H   0  0  0  0  0  0
  -24.8958  -32.2953   26.4781 H   0  0  0  0  0  0
  -25.7933  -30.8841   27.0123 H   0  0  0  0  0  0
  -26.2997  -29.6626   24.1287 H   0  0  0  0  0  0
  -27.4004  -29.7266   25.4835 H   0  0  0  0  0  0
  -27.8894  -30.4152   23.9561 H   0  0  0  0  0  0
  -27.2615  -33.3585   26.2029 H   0  0  0  0  0  0
  -28.3809  -32.6932   25.0234 H   0  0  0  0  0  0
  -28.0758  -31.8433   26.5311 H   0  0  0  0  0  0
  -28.2569  -38.0139   24.7586 H   0  0  0  0  0  0
  -28.1176  -36.2671   24.6141 H   0  0  0  0  0  0
  -27.2335  -37.1274   25.8841 H   0  0  0  0  0  0
  -20.9408  -29.8582   21.6699 H   0  0  0  0  0  0
  -26.0192  -38.2829   24.1402 H   0  0  0  0  0  0
  -30.0844  -19.0003   16.8657 H   0  0  0  0  0  0
  -29.6144  -20.2530   24.1492 H   0  0  0  0  0  0
  -31.0772  -19.3344   24.4809 H   0  0  0  0  0  0
  -32.2609  -20.6285   22.6146 H   0  0  0  0  0  0
  -31.7557  -21.6284   23.9527 H   0  0  0  0  0  0
  -29.7125  -18.0824   22.8580 H   0  0  0  0  0  0
  -31.2103  -18.5947   22.1617 H   0  0  0  0  0  0
  -31.1201  -22.6681   21.8434 H   0  0  0  0  0  0
  -29.7394  -22.3120   22.8410 H   0  0  0  0  0  0
  -28.4300  -19.5994   21.5874 H   0  0  0  0  0  0
  -28.2298  -21.7016   19.6960 H   0  0  0  0  0  0
  -27.8780  -22.0846   21.3558 H   0  0  0  0  0  0
  -27.3253  -24.7146   21.2703 H   0  0  0  0  0  0
  -27.2046  -24.5338   19.5404 H   0  0  0  0  0  0
  -29.1454  -15.8923   21.3628 H   0  0  0  0  0  0
  -30.4692  -21.1254   20.3088 H   0  0  0  0  0  0
  1 25  1  0  0  0
  1 30  2  0  0  0
  1 83  1  0  0  0
  2  3  1  0  0  0
  2 25  1  0  0  0
  2 87  1  0  0  0
  2 88  1  0  0  0
  3  4  1  0  0  0
  3 89  1  0  0  0
  3 90  1  0  0  0
  4  5  1  0  0  0
  4 91  1  0  0  0
  4 92  1  0  0  0
  5  6  1  0  0  0
  5 26  1  0  0  0
  5 93  1  0  0  0
  6 25  1  0  0  0
  6 94  1  0  0  0
  6 95  1  0  0  0
  7  8  2  0  0  0
  7 26  1  0  0  0
  7 29  1  0  0  0
  8  9  1  0  0  0
  8 22  1  0  0  0
  9 10  1  0  0  0
  9 27  2  0  0  0
 10 11  2  0  0  0
 10 15  1  0  0  0
 11 12  1  0  0  0
 11 96  1  0  0  0
 12 13  2  0  0  0
 12 97  1  0  0  0
 13 14  1  0  0  0
 13 31  1  0  0  0
 14 15  2  0  0  0
 14 98  1  0  0  0
 15 99  1  0  0  0
 16 17  2  0  0  0
 16 21  1  0  0  0
 16 31  1  0  0  0
 17 18  1  0  0  0
 17100  1  0  0  0
 18 19  2  0  0  0
 18101  1  0  0  0
 19 20  1  0  0  0
 19 24  1  0  0  0
 20 21  2  0  0  0
 20102  1  0  0  0
 21 23  1  0  0  0
 22 28  1  0  0  0
 22 32  2  0  0  0
 26 27  1  0  0  0
 28103  1  0  0  0
 28104  1  0  0  0
 29105  1  0  0  0
 29106  1  0  0  0
 33 34  1  0  0  0
 33 66  1  0  0  0
 33 70  2  0  0  0
 34 36  1  0  0  0
 34 59  1  0  0  0
 34107  1  0  0  0
 35 44  2  0  0  0
 35 45  1  0  0  0
 35 68  1  0  0  0
 36 56  1  0  0  0
 36108  1  0  0  0
 37 39  1  0  0  0
 37 47  1  0  0  0
 37 66  1  0  0  0
 37109  1  0  0  0
 38 43  2  0  0  0
 38 46  1  0  0  0
 38 47  1  0  0  0
 39 64  1  0  0  0
 39 67  2  0  0  0
 40 52  1  0  0  0
 40 53  2  0  0  0
 40 58  1  0  0  0
 41110  1  0  0  0
 41111  1  0  0  0
 41112  1  0  0  0
 41 48  1  0  0  0
 42 43  1  0  0  0
 42 66  1  0  0  0
 42113  1  0  0  0
 42114  1  0  0  0
 43 44  1  0  0  0
 44115  1  0  0  0
 45 46  2  0  0  0
 45116  1  0  0  0
 46117  1  0  0  0
 47118  1  0  0  0
 47119  1  0  0  0
 48 56  1  0  0  0
 48 65  1  0  0  0
 48120  1  0  0  0
 49 50  1  0  0  0
 49 53  1  0  0  0
 49 64  1  0  0  0
 49121  1  0  0  0
 50 51  1  0  0  0
 50122  1  0  0  0
 50123  1  0  0  0
 51 52  1  0  0  0
 51124  1  0  0  0
 51125  1  0  0  0
 52126  1  0  0  0
 52127  1  0  0  0
 53 54  1  0  0  0
 54 55  2  0  0  0
 54128  1  0  0  0
 55 57  1  0  0  0
 55129  1  0  0  0
 56 69  2  0  0  0
 57 58  2  0  0  0
 57130  1  0  0  0
 58131  1  0  0  0
 59 60  1  0  0  0
 59 61  1  0  0  0
 59 62  1  0  0  0
 60132  1  0  0  0
 60133  1  0  0  0
 60134  1  0  0  0
 61135  1  0  0  0
 61136  1  0  0  0
 61137  1  0  0  0
 62138  1  0  0  0
 62139  1  0  0  0
 62140  1  0  0  0
 63 65  1  0  0  0
 63141  1  0  0  0
 63142  1  0  0  0
 63143  1  0  0  0
 64144  1  0  0  0
 65145  1  0  0  0
 68 81  1  0  0  0
 71 82  2  0  0  0
 71 86  1  0  0  0
 71146  1  0  0  0
 72 73  2  0  0  0
 72 82  1  0  0  0
 72 79  1  0  0  0
 73 83  1  0  0  0
 73 86  1  0  0  0
 74 80  1  0  0  0
 74 81  1  0  0  0
 74 85  2  0  0  0
 75 76  1  0  0  0
 75 77  1  0  0  0
 75147  1  0  0  0
 75148  1  0  0  0
 76 78  1  0  0  0
 76149  1  0  0  0
 76150  1  0  0  0
 77 79  1  0  0  0
 77151  1  0  0  0
 77152  1  0  0  0
 78 84  1  0  0  0
 78153  1  0  0  0
 78154  1  0  0  0
 79 84  1  0  0  0
 79155  1  0  0  0
 80156  1  0  0  0
 80157  1  0  0  0
 80 84  1  0  0  0
 81158  1  0  0  0
 81159  1  0  0  0
 83160  1  0  0  0
 84161  1  0  0  0
M  CHG  1  84   1
M  ISO  4   1 100  68 101  81 101  83 100
M  END
> <chiral flag>
0

> <version>
0

> <s_m_source_file>
/data/baiqing/PycharmProjects/Reinvent-master-3.2/result/LINK_invent/BTK/process_docking_weight1_custom_product_contain_oxygen_bond_distance_aromatic_linkinvent_7_9_3/rearranged_h_0157.sdf

> <i_m_source_file_index>
64

> <r_mmod_Potential_Energy-OPLS-2005>
126.143676757812

> <r_mmod_Stretch_Energy-OPLS-2005>
175.101791381836

> <r_mmod_Bend_Energy-OPLS-2005>
224.356552124023

> <r_mmod_Torsional_Energy-OPLS-2005>
290.091674804688

> <r_mmod_Improper_Torsional_Energy-OPLS-2005>
5.30661058425903

> <r_mmod_Van_der_Waal_Energy-OPLS-2005>
135.061935424805

> <r_mmod_Electrostatic_Energy-OPLS-2005>
-347.751770019531

> <r_mmod_Solvation_Energy-OPLS-2005>
-466.396636962891

> <b_mmod_Minimization_Converged-OPLS-2005>
0

> <r_mmod_RMS_Derivative-OPLS-2005>
5.30305910110474

$$$$
64
                    3D
 Structure written by MMmdl.
149157  0  0  1  0            999 V2000
  -30.7014  -14.6061   20.4986 C   0  0  0  0  0  0
  -30.4120  -12.3775   19.4453 C   0  0  0  0  0  0
  -29.4918  -12.4870   18.2141 C   0  0  0  0  0  0
  -28.0168  -12.3374   18.6329 C   0  0  0  0  0  0
  -27.6432  -13.2255   19.8508 C   0  0  2  0  0  0
  -28.6918  -13.1254   20.9798 C   0  0  0  0  0  0
  -25.2522  -13.8196   20.5704 C   0  0  0  0  0  0
  -24.1806  -13.0447   20.9213 C   0  0  0  0  0  0
  -24.6383  -11.6921   20.8752 C   0  0  0  0  0  0
  -23.9060  -10.4296   21.0411 C   0  0  0  0  0  0
  -24.3615   -9.4211   21.9184 C   0  0  0  0  0  0
  -23.6292   -8.2245   22.0752 C   0  0  0  0  0  0
  -22.4275   -8.0281   21.3542 C   0  0  0  0  0  0
  -21.9907   -9.0257   20.4648 C   0  0  0  0  0  0
  -22.7234  -10.2138   20.3059 C   0  0  0  0  0  0
  -21.6851   -6.0736   22.5279 C   0  0  0  0  0  0
  -21.4011   -6.5639   23.8213 C   0  0  0  0  0  0
  -21.3653   -5.6793   24.9174 C   0  0  0  0  0  0
  -21.6045   -4.3056   24.7226 C   0  0  0  0  0  0
  -21.8820   -3.8148   23.4345 C   0  0  0  0  0  0
  -21.9195   -4.6964   22.3403 C   0  0  0  0  0  0
  -22.7827  -13.5234   21.1863 C   0  0  0  0  0  0
  -22.1664   -4.2149   21.0979 F   0  0  0  0  0  0
  -21.5627   -3.4539   25.7736 F   0  0  0  0  0  0
  -29.9999  -13.4346   20.3911 N   0  0  0  0  0  0
  -26.2944  -12.9397   20.3303 N   0  0  0  0  0  0
  -25.9310  -11.6542   20.5764 N   0  0  0  0  0  0
  -22.0465  -12.8228   22.0417 N   0  0  0  0  0  0
  -25.4229  -15.1919   20.4118 N   0  0  0  0  0  0
  -31.8919  -14.6268   20.1746 O   0  0  0  0  0  0
  -21.6638   -6.8877   21.4241 O   0  0  0  0  0  0
  -22.3515  -14.5536   20.6702 O   0  0  0  0  0  0
  -24.6225  -31.8622   23.2053 C   0  0  0  0  0  0
  -25.9090  -32.4789   23.8368 C   0  0  1  0  0  0
  -27.2263  -27.3609   20.1160 C   0  0  0  0  0  0
  -25.5924  -33.8586   24.2300 N   0  0  0  0  0  0
  -23.4158  -30.4856   21.5450 C   0  0  2  0  0  0
  -24.8661  -28.9434   20.1127 C   0  0  0  0  0  0
  -22.7456  -29.4637   22.4933 C   0  0  0  0  0  0
  -18.0286  -28.1390   22.8484 C   0  0  0  0  0  0
  -24.1483  -36.7289   23.2636 C   0  0  0  0  0  0
  -25.9524  -30.8057   21.3720 C   0  0  0  0  0  0
  -26.0302  -29.4334   20.7214 C   0  0  0  0  0  0
  -27.2177  -28.6488   20.7238 C   0  0  0  0  0  0
  -26.0496  -26.9100   19.4901 C   0  0  0  0  0  0
  -24.8741  -27.6840   19.4903 C   0  0  0  0  0  0
  -23.6317  -29.8192   20.1595 C   0  0  0  0  0  0
  -25.4108  -36.3084   24.0330 C   0  0  1  0  0  0
  -20.5885  -28.3694   23.1284 C   0  0  2  0  0  0
  -20.6778  -26.9420   22.5409 C   0  0  0  0  0  0
  -19.5754  -26.6395   21.5209 C   0  0  0  0  0  0
  -18.1936  -26.7935   22.1625 C   0  0  0  0  0  0
  -19.1539  -28.8858   23.2885 C   0  0  0  0  0  0
  -18.9463  -30.1460   23.8901 C   0  0  0  0  0  0
  -17.6461  -30.6591   24.0567 C   0  0  0  0  0  0
  -25.9043  -34.9453   23.5113 C   0  0  0  0  0  0
  -16.5352  -29.9093   23.6324 C   0  0  0  0  0  0
  -16.7276  -28.6511   23.0342 C   0  0  0  0  0  0
  -26.4498  -31.6579   25.0716 C   0  0  0  0  0  0
  -25.3751  -31.3710   26.1453 C   0  0  0  0  0  0
  -27.0322  -30.3000   24.6141 C   0  0  0  0  0  0
  -27.6066  -32.4303   25.7486 C   0  0  0  0  0  0
  -27.5571  -37.1802   24.8469 C   0  0  0  0  0  0
  -21.4174  -29.3045   22.3671 N   0  0  0  0  0  0
  -26.4284  -37.3777   23.9411 N   0  0  0  0  0  0
  -24.6818  -31.0670   22.0985 N   0  0  0  0  0  0
  -23.4187  -28.8181   23.3010 O   0  0  0  0  0  0
  -28.3093  -26.4908   20.1001 O   0  0  0  0  0  0
  -26.5601  -34.8914   22.4670 O   0  0  0  0  0  0
  -23.5398  -32.1406   23.7399 O   0  0  0  0  0  0
  -28.6671  -18.6807   20.0194 C   0  0  0  0  0  0
  -28.3808  -20.1014   20.0530 C   0  0  0  0  0  0
  -29.7595  -18.2978   20.7669 C   0  0  0  0  0  0
  -29.2455  -20.8530   20.8240 C   0  0  0  0  0  0
  -28.5810  -25.8157   21.2786 C   0  0  0  0  0  0
  -30.5523  -17.0095   20.9455 C   0  0  0  0  0  0
  -28.7695  -24.4816   21.5493 C   0  0  0  0  0  0
  -28.6783  -23.3128   20.6279 C   0  0  0  0  0  0
  -29.2722  -22.1955   21.1530 N   0  0  0  0  0  0
  -30.0050  -15.7689   20.7284 N   0  0  0  0  0  0
  -31.7244  -17.1408   21.3201 O   0  0  0  0  0  0
  -28.1352  -23.3177   19.5222 O   0  0  0  0  0  0
  -29.0236  -24.1979   22.8385 O   0  0  0  0  0  0
  -30.4381  -19.7509   21.5151 S   0  0  0  0  0  0
  -31.4556  -12.4597   19.1376 H   0  0  0  0  0  0
  -30.3183  -11.3947   19.9100 H   0  0  0  0  0  0
  -29.7492  -11.7214   17.4807 H   0  0  0  0  0  0
  -29.6422  -13.4484   17.7203 H   0  0  0  0  0  0
  -27.8521  -11.2874   18.8773 H   0  0  0  0  0  0
  -27.3602  -12.5568   17.7901 H   0  0  0  0  0  0
  -27.6496  -14.2536   19.4880 H   0  0  0  0  0  0
  -28.6999  -12.1234   21.4113 H   0  0  0  0  0  0
  -28.4523  -13.8081   21.7964 H   0  0  0  0  0  0
  -25.2760   -9.5687   22.4759 H   0  0  0  0  0  0
  -24.0004   -7.4634   22.7467 H   0  0  0  0  0  0
  -21.0839   -8.8776   19.8953 H   0  0  0  0  0  0
  -22.3691  -10.9678   19.6171 H   0  0  0  0  0  0
  -21.2000   -7.6147   23.9715 H   0  0  0  0  0  0
  -21.1472   -6.0520   25.9075 H   0  0  0  0  0  0
  -22.0605   -2.7608   23.2847 H   0  0  0  0  0  0
  -22.4082  -11.9899   22.4823 H   0  0  0  0  0  0
  -21.1079  -13.1254   22.2606 H   0  0  0  0  0  0
  -24.6561  -15.8465   20.5235 H   0  0  0  0  0  0
  -26.2667  -15.6288   20.0653 H   0  0  0  0  0  0
  -26.7161  -32.5485   23.1127 H   0  0  0  0  0  0
  -25.0110  -33.9738   25.0468 H   0  0  0  0  0  0
  -22.7087  -31.3052   21.4013 H   0  0  0  0  0  0
  -23.3739  -35.9626   23.3316 H   0  0  0  0  0  0
  -24.3576  -36.8886   22.2045 H   0  0  0  0  0  0
  -23.7237  -37.6500   23.6638 H   0  0  0  0  0  0
  -26.0745  -31.5685   20.6015 H   0  0  0  0  0  0
  -26.8360  -30.8597   21.9963 H   0  0  0  0  0  0
  -28.1144  -29.0176   21.2020 H   0  0  0  0  0  0
  -26.0422  -25.9369   19.0193 H   0  0  0  0  0  0
  -23.9823  -27.3029   19.0120 H   0  0  0  0  0  0
  -23.7486  -30.5950   19.4017 H   0  0  0  0  0  0
  -22.7531  -29.2463   19.8563 H   0  0  0  0  0  0
  -25.1285  -36.1944   25.0821 H   0  0  0  0  0  0
  -20.9986  -28.3272   24.1400 H   0  0  0  0  0  0
  -20.5686  -26.2305   23.3608 H   0  0  0  0  0  0
  -21.6649  -26.7458   22.1201 H   0  0  0  0  0  0
  -19.6920  -25.6309   21.1232 H   0  0  0  0  0  0
  -19.6690  -27.3210   20.6740 H   0  0  0  0  0  0
  -17.4206  -26.6679   21.4026 H   0  0  0  0  0  0
  -18.0344  -26.0078   22.9022 H   0  0  0  0  0  0
  -19.7937  -30.7279   24.2269 H   0  0  0  0  0  0
  -17.5015  -31.6269   24.5176 H   0  0  0  0  0  0
  -15.5354  -30.2999   23.7644 H   0  0  0  0  0  0
  -15.8678  -28.0838   22.7046 H   0  0  0  0  0  0
  -24.5938  -30.7039   25.7795 H   0  0  0  0  0  0
  -24.8927  -32.2872   26.4867 H   0  0  0  0  0  0
  -25.8099  -30.8908   27.0228 H   0  0  0  0  0  0
  -26.2876  -29.6769   24.1172 H   0  0  0  0  0  0
  -27.4029  -29.7237   25.4632 H   0  0  0  0  0  0
  -27.8747  -30.4285   23.9341 H   0  0  0  0  0  0
  -27.2685  -33.3603   26.2069 H   0  0  0  0  0  0
  -28.3878  -32.6864   25.0316 H   0  0  0  0  0  0
  -28.0732  -31.8421   26.5400 H   0  0  0  0  0  0
  -28.2608  -38.0083   24.7496 H   0  0  0  0  0  0
  -28.1049  -36.2612   24.6321 H   0  0  0  0  0  0
  -27.2289  -37.1488   25.8874 H   0  0  0  0  0  0
  -20.9347  -29.8753   21.6873 H   0  0  0  0  0  0
  -26.0168  -38.2849   24.1417 H   0  0  0  0  0  0
  -28.0743  -18.0005   19.4246 H   0  0  0  0  0  0
  -27.5412  -20.5140   19.5103 H   0  0  0  0  0  0
  -28.6540  -26.5295   22.0880 H   0  0  0  0  0  0
  -29.8673  -22.4135   21.9403 H   0  0  0  0  0  0
  -29.0024  -15.7194   20.6804 H   0  0  0  0  0  0
  -28.7993  -23.2851   22.9723 H   0  0  0  0  0  0
  1 25  1  0  0  0
  1 30  2  0  0  0
  1 80  1  0  0  0
  2  3  1  0  0  0
  2 25  1  0  0  0
  2 85  1  0  0  0
  2 86  1  0  0  0
  3  4  1  0  0  0
  3 87  1  0  0  0
  3 88  1  0  0  0
  4  5  1  0  0  0
  4 89  1  0  0  0
  4 90  1  0  0  0
  5  6  1  0  0  0
  5 26  1  0  0  0
  5 91  1  0  0  0
  6 25  1  0  0  0
  6 92  1  0  0  0
  6 93  1  0  0  0
  7  8  2  0  0  0
  7 26  1  0  0  0
  7 29  1  0  0  0
  8  9  1  0  0  0
  8 22  1  0  0  0
  9 10  1  0  0  0
  9 27  2  0  0  0
 10 11  2  0  0  0
 10 15  1  0  0  0
 11 12  1  0  0  0
 11 94  1  0  0  0
 12 13  2  0  0  0
 12 95  1  0  0  0
 13 14  1  0  0  0
 13 31  1  0  0  0
 14 15  2  0  0  0
 14 96  1  0  0  0
 15 97  1  0  0  0
 16 17  2  0  0  0
 16 21  1  0  0  0
 16 31  1  0  0  0
 17 18  1  0  0  0
 17 98  1  0  0  0
 18 19  2  0  0  0
 18 99  1  0  0  0
 19 20  1  0  0  0
 19 24  1  0  0  0
 20 21  2  0  0  0
 20100  1  0  0  0
 21 23  1  0  0  0
 22 28  1  0  0  0
 22 32  2  0  0  0
 26 27  1  0  0  0
 28101  1  0  0  0
 28102  1  0  0  0
 29103  1  0  0  0
 29104  1  0  0  0
 33 34  1  0  0  0
 33 66  1  0  0  0
 33 70  2  0  0  0
 34 36  1  0  0  0
 34 59  1  0  0  0
 34105  1  0  0  0
 35 44  2  0  0  0
 35 45  1  0  0  0
 35 68  1  0  0  0
 36 56  1  0  0  0
 36106  1  0  0  0
 37 39  1  0  0  0
 37 47  1  0  0  0
 37 66  1  0  0  0
 37107  1  0  0  0
 38 43  2  0  0  0
 38 46  1  0  0  0
 38 47  1  0  0  0
 39 64  1  0  0  0
 39 67  2  0  0  0
 40 52  1  0  0  0
 40 53  2  0  0  0
 40 58  1  0  0  0
 41108  1  0  0  0
 41109  1  0  0  0
 41110  1  0  0  0
 41 48  1  0  0  0
 42 43  1  0  0  0
 42 66  1  0  0  0
 42111  1  0  0  0
 42112  1  0  0  0
 43 44  1  0  0  0
 44113  1  0  0  0
 45 46  2  0  0  0
 45114  1  0  0  0
 46115  1  0  0  0
 47116  1  0  0  0
 47117  1  0  0  0
 48 56  1  0  0  0
 48 65  1  0  0  0
 48118  1  0  0  0
 49 50  1  0  0  0
 49 53  1  0  0  0
 49 64  1  0  0  0
 49119  1  0  0  0
 50 51  1  0  0  0
 50120  1  0  0  0
 50121  1  0  0  0
 51 52  1  0  0  0
 51122  1  0  0  0
 51123  1  0  0  0
 52124  1  0  0  0
 52125  1  0  0  0
 53 54  1  0  0  0
 54 55  2  0  0  0
 54126  1  0  0  0
 55 57  1  0  0  0
 55127  1  0  0  0
 56 69  2  0  0  0
 57 58  2  0  0  0
 57128  1  0  0  0
 58129  1  0  0  0
 59 60  1  0  0  0
 59 61  1  0  0  0
 59 62  1  0  0  0
 60130  1  0  0  0
 60131  1  0  0  0
 60132  1  0  0  0
 61133  1  0  0  0
 61134  1  0  0  0
 61135  1  0  0  0
 62136  1  0  0  0
 62137  1  0  0  0
 62138  1  0  0  0
 63 65  1  0  0  0
 63139  1  0  0  0
 63140  1  0  0  0
 63141  1  0  0  0
 64142  1  0  0  0
 65143  1  0  0  0
 68 75  1  0  0  0
 71 72  1  0  0  0
 71 73  2  0  0  0
 71144  1  0  0  0
 72 74  2  0  0  0
 72145  1  0  0  0
 73 76  1  0  0  0
 73 84  1  0  0  0
 74 79  1  0  0  0
 74 84  1  0  0  0
 75 77  2  0  0  0
 75146  1  0  0  0
 76 80  1  0  0  0
 76 81  2  0  0  0
 77 78  1  0  0  0
 77 83  1  0  0  0
 78 79  1  0  0  0
 78 82  2  0  0  0
 79147  1  0  0  0
 80148  1  0  0  0
 83149  1  0  0  0
M  ISO  4   1 100  68 101  75 101  80 100
M  END
> <chiral flag>
0

> <version>
0

> <s_m_source_file>
/data/baiqing/PycharmProjects/Reinvent-master-3.2/result/LINK_invent/BTK/process_docking_weight1_custom_product_contain_oxygen_bond_distance_aromatic_linkinvent_7_9_3/rearranged_h_0157.sdf

> <i_m_source_file_index>
65

> <r_mmod_Potential_Energy-OPLS-2005>
-71.1071395874023

> <r_mmod_Stretch_Energy-OPLS-2005>
59.8602905273438

> <r_mmod_Bend_Energy-OPLS-2005>
155.348403930664

> <r_mmod_Torsional_Energy-OPLS-2005>
256.432006835938

> <r_mmod_Improper_Torsional_Energy-OPLS-2005>
6.11991453170776

> <r_mmod_Van_der_Waal_Energy-OPLS-2005>
133.315856933594

> <r_mmod_Electrostatic_Energy-OPLS-2005>
-465.170501708984

> <r_mmod_Solvation_Energy-OPLS-2005>
-259.822479248047

> <b_mmod_Minimization_Converged-OPLS-2005>
0

> <r_mmod_RMS_Derivative-OPLS-2005>
1.0414445400238

$$$$
65
                    3D
 Structure written by MMmdl.
159168  0  0  1  0            999 V2000
  -30.5622  -14.7311   20.4919 C   0  0  0  0  0  0
  -30.4549  -12.4585   19.4634 C   0  0  0  0  0  0
  -29.5134  -12.5163   18.2370 C   0  0  0  0  0  0
  -28.0402  -12.3338   18.6522 C   0  0  0  0  0  0
  -27.6521  -13.2163   19.8664 C   0  0  2  0  0  0
  -28.6963  -13.0928   20.9977 C   0  0  0  0  0  0
  -25.2576  -13.8181   20.5704 C   0  0  0  0  0  0
  -24.1828  -13.0448   20.9209 C   0  0  0  0  0  0
  -24.6395  -11.6919   20.8758 C   0  0  0  0  0  0
  -23.9065  -10.4299   21.0424 C   0  0  0  0  0  0
  -24.3612   -9.4213   21.9199 C   0  0  0  0  0  0
  -23.6291   -8.2244   22.0762 C   0  0  0  0  0  0
  -22.4272   -8.0289   21.3545 C   0  0  0  0  0  0
  -21.9912   -9.0264   20.4646 C   0  0  0  0  0  0
  -22.7243  -10.2143   20.3068 C   0  0  0  0  0  0
  -21.6844   -6.0741   22.5283 C   0  0  0  0  0  0
  -21.3997   -6.5641   23.8216 C   0  0  0  0  0  0
  -21.3654   -5.6792   24.9175 C   0  0  0  0  0  0
  -21.6045   -4.3060   24.7228 C   0  0  0  0  0  0
  -21.8821   -3.8154   23.4346 C   0  0  0  0  0  0
  -21.9191   -4.6972   22.3400 C   0  0  0  0  0  0
  -22.7849  -13.5256   21.1858 C   0  0  0  0  0  0
  -22.1663   -4.2158   21.0981 F   0  0  0  0  0  0
  -21.5633   -3.4544   25.7737 F   0  0  0  0  0  0
  -30.0001  -13.4771   20.4356 N   0  0  0  0  0  0
  -26.2986  -12.9336   20.3343 N   0  0  0  0  0  0
  -25.9325  -11.6498   20.5784 N   0  0  0  0  0  0
  -22.0472  -12.8241   22.0390 N   0  0  0  0  0  0
  -25.4347  -15.1889   20.4117 N   0  0  0  0  0  0
  -31.7209  -14.9159   20.1034 O   0  0  0  0  0  0
  -21.6633   -6.8886   21.4244 O   0  0  0  0  0  0
  -22.3551  -14.5582   20.6730 O   0  0  0  0  0  0
  -24.6280  -31.8542   23.1984 C   0  0  0  0  0  0
  -25.9108  -32.4749   23.8343 C   0  0  1  0  0  0
  -27.2284  -27.2627   20.1307 C   0  0  0  0  0  0
  -25.5899  -33.8556   24.2244 N   0  0  0  0  0  0
  -23.4237  -30.4724   21.5428 C   0  0  2  0  0  0
  -24.8733  -28.9154   20.1107 C   0  0  0  0  0  0
  -22.7480  -29.4568   22.4952 C   0  0  0  0  0  0
  -18.0267  -28.1375   22.8474 C   0  0  0  0  0  0
  -24.1470  -36.7250   23.2647 C   0  0  0  0  0  0
  -25.9689  -30.7644   21.3811 C   0  0  0  0  0  0
  -26.0418  -29.3878   20.7200 C   0  0  0  0  0  0
  -27.2153  -28.5712   20.7211 C   0  0  0  0  0  0
  -26.0348  -26.8482   19.4976 C   0  0  0  0  0  0
  -24.8754  -27.6532   19.4921 C   0  0  0  0  0  0
  -23.6408  -29.8000   20.1606 C   0  0  0  0  0  0
  -25.4111  -36.3058   24.0322 C   0  0  1  0  0  0
  -20.5871  -28.3652   23.1294 C   0  0  2  0  0  0
  -20.6753  -26.9376   22.5409 C   0  0  0  0  0  0
  -19.5727  -26.6367   21.5203 C   0  0  0  0  0  0
  -18.1901  -26.7909   22.1611 C   0  0  0  0  0  0
  -19.1528  -28.8838   23.2860 C   0  0  0  0  0  0
  -18.9459  -30.1442   23.8870 C   0  0  0  0  0  0
  -17.6464  -30.6583   24.0548 C   0  0  0  0  0  0
  -25.9053  -34.9433   23.5092 C   0  0  0  0  0  0
  -16.5352  -29.9071   23.6359 C   0  0  0  0  0  0
  -16.7258  -28.6487   23.0370 C   0  0  0  0  0  0
  -26.4493  -31.6595   25.0743 C   0  0  0  0  0  0
  -25.3713  -31.3705   26.1457 C   0  0  0  0  0  0
  -27.0391  -30.3032   24.6246 C   0  0  0  0  0  0
  -27.6031  -32.4375   25.7506 C   0  0  0  0  0  0
  -27.5565  -37.1783   24.8469 C   0  0  0  0  0  0
  -21.4195  -29.2998   22.3699 N   0  0  0  0  0  0
  -26.4276  -37.3770   23.9415 N   0  0  0  0  0  0
  -24.6924  -31.0496   22.0962 N   0  0  0  0  0  0
  -23.4186  -28.8125   23.3058 O   0  0  0  0  0  0
  -28.3622  -26.4255   20.2142 O   0  0  0  0  0  0
  -26.5649  -34.8909   22.4675 O   0  0  0  0  0  0
  -23.5428  -32.1381   23.7273 O   0  0  0  0  0  0
  -30.5936  -18.0117   20.0033 C   0  0  0  0  0  0
  -29.7297  -17.1574   20.6742 C   0  0  0  0  0  0
  -29.1593  -19.7317   20.7293 C   0  0  0  0  0  0
  -30.1580  -22.0986   23.0327 C   0  0  0  0  0  0
  -31.1602  -22.0330   21.8685 C   0  0  0  0  0  0
  -28.8412  -21.3651   22.6974 C   0  0  0  0  0  0
  -30.5724  -22.5723   20.5353 C   0  0  0  0  0  0
  -28.5960  -21.1547   21.1792 C   0  0  1  0  0  0
  -28.3353  -23.7262   20.7030 C   0  0  0  0  0  0
  -28.4567  -25.0093   19.7160 C   0  0  0  0  0  0
  -30.2715  -19.4081   20.0376 N   0  0  0  0  0  0
  -29.7218  -15.7655   20.8645 N   0  0  0  0  0  0
  -29.0909  -22.3933   20.3975 N   0  3  1  0  0  0
  -28.4241  -18.1914   21.3138 S   0  0  0  0  0  0
  -31.4847  -12.6334   19.1464 H   0  0  0  0  0  0
  -30.4477  -11.4677   19.9206 H   0  0  0  0  0  0
  -29.7949  -11.7492   17.5147 H   0  0  0  0  0  0
  -29.6296  -13.4745   17.7287 H   0  0  0  0  0  0
  -27.8998  -11.2819   18.9045 H   0  0  0  0  0  0
  -27.3793  -12.5385   17.8095 H   0  0  0  0  0  0
  -27.6633  -14.2471   19.5127 H   0  0  0  0  0  0
  -28.7343  -12.0692   21.3733 H   0  0  0  0  0  0
  -28.4236  -13.7124   21.8529 H   0  0  0  0  0  0
  -25.2749   -9.5687   22.4786 H   0  0  0  0  0  0
  -23.9998   -7.4632   22.7484 H   0  0  0  0  0  0
  -21.0845   -8.8791   19.8947 H   0  0  0  0  0  0
  -22.3714  -10.9689   19.6185 H   0  0  0  0  0  0
  -21.1971   -7.6145   23.9722 H   0  0  0  0  0  0
  -21.1474   -6.0519   25.9077 H   0  0  0  0  0  0
  -22.0603   -2.7619   23.2846 H   0  0  0  0  0  0
  -22.4047  -11.9868   22.4739 H   0  0  0  0  0  0
  -21.1111  -13.1301   22.2626 H   0  0  0  0  0  0
  -24.6766  -15.8534   20.5243 H   0  0  0  0  0  0
  -26.2843  -15.6154   20.0640 H   0  0  0  0  0  0
  -26.7166  -32.5405   23.1081 H   0  0  0  0  0  0
  -25.0034  -33.9703   25.0379 H   0  0  0  0  0  0
  -22.7160  -31.2908   21.3945 H   0  0  0  0  0  0
  -23.3760  -35.9547   23.3303 H   0  0  0  0  0  0
  -24.3555  -36.8905   22.2064 H   0  0  0  0  0  0
  -23.7191  -37.6426   23.6699 H   0  0  0  0  0  0
  -26.1144  -31.5307   20.6188 H   0  0  0  0  0  0
  -26.8402  -30.8070   22.0223 H   0  0  0  0  0  0
  -28.1103  -28.9233   21.2140 H   0  0  0  0  0  0
  -25.9602  -25.8825   19.0235 H   0  0  0  0  0  0
  -23.9776  -27.2792   19.0192 H   0  0  0  0  0  0
  -23.7500  -30.5713   19.3971 H   0  0  0  0  0  0
  -22.7608  -29.2243   19.8681 H   0  0  0  0  0  0
  -25.1290  -36.1908   25.0814 H   0  0  0  0  0  0
  -20.9929  -28.3214   24.1429 H   0  0  0  0  0  0
  -20.5655  -26.2241   23.3594 H   0  0  0  0  0  0
  -21.6618  -26.7409   22.1209 H   0  0  0  0  0  0
  -19.6884  -25.6275   21.1240 H   0  0  0  0  0  0
  -19.6693  -27.3168   20.6728 H   0  0  0  0  0  0
  -17.4177  -26.6665   21.4006 H   0  0  0  0  0  0
  -18.0293  -26.0039   22.8996 H   0  0  0  0  0  0
  -19.7941  -30.7257   24.2220 H   0  0  0  0  0  0
  -17.5025  -31.6273   24.5122 H   0  0  0  0  0  0
  -15.5347  -30.2965   23.7712 H   0  0  0  0  0  0
  -15.8646  -28.0811   22.7115 H   0  0  0  0  0  0
  -24.5881  -30.7080   25.7755 H   0  0  0  0  0  0
  -24.8908  -32.2846   26.4949 H   0  0  0  0  0  0
  -25.8023  -30.8824   27.0208 H   0  0  0  0  0  0
  -26.3008  -29.6741   24.1266 H   0  0  0  0  0  0
  -27.4086  -29.7337   25.4786 H   0  0  0  0  0  0
  -27.8856  -30.4342   23.9506 H   0  0  0  0  0  0
  -27.2653  -33.3731   26.1985 H   0  0  0  0  0  0
  -28.3876  -32.6874   25.0342 H   0  0  0  0  0  0
  -28.0650  -31.8573   26.5505 H   0  0  0  0  0  0
  -28.2565  -38.0094   24.7559 H   0  0  0  0  0  0
  -28.1087  -36.2639   24.6265 H   0  0  0  0  0  0
  -27.2284  -37.1386   25.8868 H   0  0  0  0  0  0
  -20.9370  -29.8726   21.6924 H   0  0  0  0  0  0
  -26.0150  -38.2833   24.1459 H   0  0  0  0  0  0
  -31.4873  -17.7179   19.4701 H   0  0  0  0  0  0
  -29.9477  -23.1413   23.2737 H   0  0  0  0  0  0
  -30.5949  -21.6803   23.9392 H   0  0  0  0  0  0
  -31.4871  -21.0006   21.7471 H   0  0  0  0  0  0
  -32.0724  -22.5759   22.1193 H   0  0  0  0  0  0
  -28.0157  -21.9435   23.1132 H   0  0  0  0  0  0
  -28.8028  -20.4052   23.2128 H   0  0  0  0  0  0
  -31.0637  -22.0774   19.6966 H   0  0  0  0  0  0
  -30.8366  -23.6241   20.4382 H   0  0  0  0  0  0
  -27.5178  -21.0944   21.0251 H   0  0  0  0  0  0
  -27.2734  -23.4992   20.7987 H   0  0  0  0  0  0
  -28.6362  -24.0626   21.6929 H   0  0  0  0  0  0
  -27.8217  -24.8582   18.8444 H   0  0  0  0  0  0
  -29.4594  -24.9790   19.2929 H   0  0  0  0  0  0
  -28.8704  -15.4178   21.2796 H   0  0  0  0  0  0
  -28.9188  -22.1792   19.4255 H   0  0  0  0  0  0
  1 25  1  0  0  0
  1 30  2  0  0  0
  1 82  1  0  0  0
  2  3  1  0  0  0
  2 25  1  0  0  0
  2 85  1  0  0  0
  2 86  1  0  0  0
  3  4  1  0  0  0
  3 87  1  0  0  0
  3 88  1  0  0  0
  4  5  1  0  0  0
  4 89  1  0  0  0
  4 90  1  0  0  0
  5  6  1  0  0  0
  5 26  1  0  0  0
  5 91  1  0  0  0
  6 25  1  0  0  0
  6 92  1  0  0  0
  6 93  1  0  0  0
  7  8  2  0  0  0
  7 26  1  0  0  0
  7 29  1  0  0  0
  8  9  1  0  0  0
  8 22  1  0  0  0
  9 10  1  0  0  0
  9 27  2  0  0  0
 10 11  2  0  0  0
 10 15  1  0  0  0
 11 12  1  0  0  0
 11 94  1  0  0  0
 12 13  2  0  0  0
 12 95  1  0  0  0
 13 14  1  0  0  0
 13 31  1  0  0  0
 14 15  2  0  0  0
 14 96  1  0  0  0
 15 97  1  0  0  0
 16 17  2  0  0  0
 16 21  1  0  0  0
 16 31  1  0  0  0
 17 18  1  0  0  0
 17 98  1  0  0  0
 18 19  2  0  0  0
 18 99  1  0  0  0
 19 20  1  0  0  0
 19 24  1  0  0  0
 20 21  2  0  0  0
 20100  1  0  0  0
 21 23  1  0  0  0
 22 28  1  0  0  0
 22 32  2  0  0  0
 26 27  1  0  0  0
 28101  1  0  0  0
 28102  1  0  0  0
 29103  1  0  0  0
 29104  1  0  0  0
 33 34  1  0  0  0
 33 66  1  0  0  0
 33 70  2  0  0  0
 34 36  1  0  0  0
 34 59  1  0  0  0
 34105  1  0  0  0
 35 44  2  0  0  0
 35 45  1  0  0  0
 35 68  1  0  0  0
 36 56  1  0  0  0
 36106  1  0  0  0
 37 39  1  0  0  0
 37 47  1  0  0  0
 37 66  1  0  0  0
 37107  1  0  0  0
 38 43  2  0  0  0
 38 46  1  0  0  0
 38 47  1  0  0  0
 39 64  1  0  0  0
 39 67  2  0  0  0
 40 52  1  0  0  0
 40 53  2  0  0  0
 40 58  1  0  0  0
 41108  1  0  0  0
 41109  1  0  0  0
 41110  1  0  0  0
 41 48  1  0  0  0
 42 43  1  0  0  0
 42 66  1  0  0  0
 42111  1  0  0  0
 42112  1  0  0  0
 43 44  1  0  0  0
 44113  1  0  0  0
 45 46  2  0  0  0
 45114  1  0  0  0
 46115  1  0  0  0
 47116  1  0  0  0
 47117  1  0  0  0
 48 56  1  0  0  0
 48 65  1  0  0  0
 48118  1  0  0  0
 49 50  1  0  0  0
 49 53  1  0  0  0
 49 64  1  0  0  0
 49119  1  0  0  0
 50 51  1  0  0  0
 50120  1  0  0  0
 50121  1  0  0  0
 51 52  1  0  0  0
 51122  1  0  0  0
 51123  1  0  0  0
 52124  1  0  0  0
 52125  1  0  0  0
 53 54  1  0  0  0
 54 55  2  0  0  0
 54126  1  0  0  0
 55 57  1  0  0  0
 55127  1  0  0  0
 56 69  2  0  0  0
 57 58  2  0  0  0
 57128  1  0  0  0
 58129  1  0  0  0
 59 60  1  0  0  0
 59 61  1  0  0  0
 59 62  1  0  0  0
 60130  1  0  0  0
 60131  1  0  0  0
 60132  1  0  0  0
 61133  1  0  0  0
 61134  1  0  0  0
 61135  1  0  0  0
 62136  1  0  0  0
 62137  1  0  0  0
 62138  1  0  0  0
 63 65  1  0  0  0
 63139  1  0  0  0
 63140  1  0  0  0
 63141  1  0  0  0
 64142  1  0  0  0
 65143  1  0  0  0
 68 80  1  0  0  0
 71 72  2  0  0  0
 71 81  1  0  0  0
 71144  1  0  0  0
 72 82  1  0  0  0
 72 84  1  0  0  0
 73 81  2  0  0  0
 73 84  1  0  0  0
 73 78  1  0  0  0
 74 75  1  0  0  0
 74 76  1  0  0  0
 74145  1  0  0  0
 74146  1  0  0  0
 75 77  1  0  0  0
 75147  1  0  0  0
 75148  1  0  0  0
 76 78  1  0  0  0
 76149  1  0  0  0
 76150  1  0  0  0
 77 83  1  0  0  0
 77151  1  0  0  0
 77152  1  0  0  0
 78 83  1  0  0  0
 78153  1  0  0  0
 79 80  1  0  0  0
 79154  1  0  0  0
 79155  1  0  0  0
 79 83  1  0  0  0
 80156  1  0  0  0
 80157  1  0  0  0
 82158  1  0  0  0
 83159  1  0  0  0
M  CHG  1  83   1
M  ISO  4   1 100  68 101  80 101  82 100
M  END
> <chiral flag>
0

> <version>
0

> <s_m_source_file>
/data/baiqing/PycharmProjects/Reinvent-master-3.2/result/LINK_invent/BTK/process_docking_weight1_custom_product_contain_oxygen_bond_distance_aromatic_linkinvent_7_9_3/rearranged_h_0157.sdf

> <i_m_source_file_index>
66

> <r_mmod_Potential_Energy-OPLS-2005>
85.4523696899414

> <r_mmod_Stretch_Energy-OPLS-2005>
121.284812927246

> <r_mmod_Bend_Energy-OPLS-2005>
206.704010009766

> <r_mmod_Torsional_Energy-OPLS-2005>
264.063018798828

> <r_mmod_Improper_Torsional_Energy-OPLS-2005>
4.27892923355103

> <r_mmod_Van_der_Waal_Energy-OPLS-2005>
126.799255371094

> <r_mmod_Electrostatic_Energy-OPLS-2005>
-282.410278320312

> <r_mmod_Solvation_Energy-OPLS-2005>
-434.291931152344

> <b_mmod_Minimization_Converged-OPLS-2005>
0

> <r_mmod_RMS_Derivative-OPLS-2005>
2.36165308952332

$$$$
66
                    3D
 Structure written by MMmdl.
152161  0  0  1  0            999 V2000
  -30.6447  -14.5723   20.4945 C   0  0  0  0  0  0
  -30.4352  -12.3438   19.4397 C   0  0  0  0  0  0
  -29.5086  -12.4925   18.2142 C   0  0  0  0  0  0
  -28.0279  -12.3389   18.6253 C   0  0  0  0  0  0
  -27.6563  -13.2075   19.8581 C   0  0  2  0  0  0
  -28.7022  -13.0498   20.9859 C   0  0  0  0  0  0
  -25.2594  -13.8143   20.5646 C   0  0  0  0  0  0
  -24.1852  -13.0415   20.9158 C   0  0  0  0  0  0
  -24.6415  -11.6891   20.8734 C   0  0  0  0  0  0
  -23.9079  -10.4272   21.0402 C   0  0  0  0  0  0
  -24.3639   -9.4192   21.9181 C   0  0  0  0  0  0
  -23.6311   -8.2231   22.0750 C   0  0  0  0  0  0
  -22.4284   -8.0277   21.3552 C   0  0  0  0  0  0
  -21.9935   -9.0245   20.4644 C   0  0  0  0  0  0
  -22.7255  -10.2121   20.3052 C   0  0  0  0  0  0
  -21.6851   -6.0757   22.5284 C   0  0  0  0  0  0
  -21.3998   -6.5647   23.8219 C   0  0  0  0  0  0
  -21.3655   -5.6793   24.9179 C   0  0  0  0  0  0
  -21.6057   -4.3059   24.7219 C   0  0  0  0  0  0
  -21.8819   -3.8160   23.4331 C   0  0  0  0  0  0
  -21.9175   -4.6986   22.3399 C   0  0  0  0  0  0
  -22.7867  -13.5219   21.1822 C   0  0  0  0  0  0
  -22.1653   -4.2168   21.0984 F   0  0  0  0  0  0
  -21.5634   -3.4546   25.7733 F   0  0  0  0  0  0
  -30.0219  -13.3605   20.4187 N   0  0  0  0  0  0
  -26.3011  -12.9315   20.3291 N   0  0  0  0  0  0
  -25.9348  -11.6472   20.5757 N   0  0  0  0  0  0
  -22.0531  -12.8226   22.0386 N   0  0  0  0  0  0
  -25.4317  -15.1866   20.4077 N   0  0  0  0  0  0
  -31.8241  -14.7320   20.1664 O   0  0  0  0  0  0
  -21.6639   -6.8891   21.4246 O   0  0  0  0  0  0
  -22.3544  -14.5515   20.6642 O   0  0  0  0  0  0
  -24.6199  -31.8664   23.2046 C   0  0  0  0  0  0
  -25.9069  -32.4816   23.8377 C   0  0  1  0  0  0
  -27.2311  -27.3924   20.1100 C   0  0  0  0  0  0
  -25.5896  -33.8609   24.2306 N   0  0  0  0  0  0
  -23.4104  -30.4844   21.5486 C   0  0  2  0  0  0
  -24.8591  -28.9434   20.1145 C   0  0  0  0  0  0
  -22.7434  -29.4659   22.5008 C   0  0  0  0  0  0
  -18.0262  -28.1393   22.8478 C   0  0  0  0  0  0
  -24.1500  -36.7296   23.2643 C   0  0  0  0  0  0
  -25.9435  -30.8165   21.3653 C   0  0  0  0  0  0
  -26.0208  -29.4474   20.7136 C   0  0  0  0  0  0
  -27.2136  -28.6799   20.7047 C   0  0  0  0  0  0
  -26.0571  -26.9094   19.5018 C   0  0  0  0  0  0
  -24.8751  -27.6781   19.5001 C   0  0  0  0  0  0
  -23.6195  -29.8121   20.1649 C   0  0  0  0  0  0
  -25.4115  -36.3097   24.0335 C   0  0  1  0  0  0
  -20.5866  -28.3665   23.1327 C   0  0  2  0  0  0
  -20.6767  -26.9391   22.5448 C   0  0  0  0  0  0
  -19.5756  -26.6388   21.5235 C   0  0  0  0  0  0
  -18.1914  -26.7960   22.1599 C   0  0  0  0  0  0
  -19.1520  -28.8835   23.2898 C   0  0  0  0  0  0
  -18.9461  -30.1442   23.8908 C   0  0  0  0  0  0
  -17.6467  -30.6584   24.0565 C   0  0  0  0  0  0
  -25.9043  -34.9464   23.5109 C   0  0  0  0  0  0
  -16.5349  -29.9094   23.6315 C   0  0  0  0  0  0
  -16.7257  -28.6512   23.0327 C   0  0  0  0  0  0
  -26.4474  -31.6588   25.0707 C   0  0  0  0  0  0
  -25.3711  -31.3729   26.1434 C   0  0  0  0  0  0
  -27.0266  -30.3021   24.6072 C   0  0  0  0  0  0
  -27.6067  -32.4293   25.7457 C   0  0  0  0  0  0
  -27.5585  -37.1785   24.8454 C   0  0  0  0  0  0
  -21.4150  -29.3023   22.3735 N   0  0  0  0  0  0
  -26.4297  -37.3783   23.9405 N   0  0  0  0  0  0
  -24.6771  -31.0703   22.0982 N   0  0  0  0  0  0
  -23.4175  -28.8217   23.3100 O   0  0  0  0  0  0
  -28.3758  -26.6148   20.0813 O   0  0  0  0  0  0
  -26.5618  -34.8933   22.4677 O   0  0  0  0  0  0
  -23.5366  -32.1453   23.7376 O   0  0  0  0  0  0
  -28.4514  -19.5845   19.5330 C   0  0  0  0  0  0
  -28.1540  -20.9850   19.6259 C   0  0  0  0  0  0
  -29.4519  -19.1507   20.3718 C   0  0  0  0  0  0
  -28.9064  -21.6682   20.5553 C   0  0  0  0  0  0
  -28.4484  -24.0784   20.2070 C   0  0  0  0  0  0
  -29.8820  -16.7475   21.5957 C   0  0  0  0  0  0
  -29.6022  -16.6188   19.5261 C   0  0  0  0  0  0
  -30.0775  -17.7497   20.4463 C   0  0  0  0  0  0
  -28.3836  -25.4496   20.9514 C   0  0  0  0  0  0
  -29.8012  -15.6383   20.6156 N   0  0  0  0  0  0
  -28.8488  -22.9931   20.9217 N   0  0  0  0  0  0
  -28.1548  -24.0185   19.0088 O   0  0  0  0  0  0
  -29.9960  -20.5175   21.3415 S   0  0  0  0  0  0
  -31.4803  -12.4560   19.1442 H   0  0  0  0  0  0
  -30.3494  -11.3441   19.8696 H   0  0  0  0  0  0
  -29.7654  -11.7538   17.4534 H   0  0  0  0  0  0
  -29.6641  -13.4684   17.7534 H   0  0  0  0  0  0
  -27.8576  -11.2852   18.8509 H   0  0  0  0  0  0
  -27.3770  -12.5794   17.7825 H   0  0  0  0  0  0
  -27.6776  -14.2439   19.5208 H   0  0  0  0  0  0
  -28.6969  -12.0339   21.3835 H   0  0  0  0  0  0
  -28.4697  -13.7065   21.8254 H   0  0  0  0  0  0
  -25.2802   -9.5655   22.4746 H   0  0  0  0  0  0
  -24.0017   -7.4620   22.7471 H   0  0  0  0  0  0
  -21.0870   -8.8757   19.8959 H   0  0  0  0  0  0
  -22.3723  -10.9656   19.6154 H   0  0  0  0  0  0
  -21.1989   -7.6151   23.9734 H   0  0  0  0  0  0
  -21.1483   -6.0526   25.9089 H   0  0  0  0  0  0
  -22.0604   -2.7618   23.2830 H   0  0  0  0  0  0
  -22.4158  -11.9891   22.4765 H   0  0  0  0  0  0
  -21.1142  -13.1226   22.2590 H   0  0  0  0  0  0
  -24.6695  -15.8465   20.5184 H   0  0  0  0  0  0
  -26.2981  -15.6243   20.1197 H   0  0  0  0  0  0
  -26.7121  -32.5524   23.1122 H   0  0  0  0  0  0
  -25.0038  -33.9787   25.0452 H   0  0  0  0  0  0
  -22.7005  -31.3005   21.4010 H   0  0  0  0  0  0
  -23.3779  -35.9609   23.3310 H   0  0  0  0  0  0
  -24.3595  -36.8923   22.2055 H   0  0  0  0  0  0
  -23.7249  -37.6498   23.6655 H   0  0  0  0  0  0
  -26.0560  -31.5741   20.5898 H   0  0  0  0  0  0
  -26.8339  -30.8808   21.9786 H   0  0  0  0  0  0
  -28.1139  -29.0651   21.1615 H   0  0  0  0  0  0
  -26.0593  -25.9376   19.0272 H   0  0  0  0  0  0
  -23.9838  -27.2908   19.0258 H   0  0  0  0  0  0
  -23.7257  -30.5848   19.4039 H   0  0  0  0  0  0
  -22.7445  -29.2327   19.8676 H   0  0  0  0  0  0
  -25.1311  -36.1952   25.0837 H   0  0  0  0  0  0
  -20.9904  -28.3234   24.1475 H   0  0  0  0  0  0
  -20.5674  -26.2278   23.3652 H   0  0  0  0  0  0
  -21.6645  -26.7443   22.1237 H   0  0  0  0  0  0
  -19.6932  -25.6311   21.1242 H   0  0  0  0  0  0
  -19.6732  -27.3215   20.6782 H   0  0  0  0  0  0
  -17.4217  -26.6714   21.3971 H   0  0  0  0  0  0
  -18.0250  -26.0118   22.8991 H   0  0  0  0  0  0
  -19.7948  -30.7222   24.2320 H   0  0  0  0  0  0
  -17.5035  -31.6272   24.5151 H   0  0  0  0  0  0
  -15.5352  -30.3000   23.7677 H   0  0  0  0  0  0
  -15.8652  -28.0836   22.7051 H   0  0  0  0  0  0
  -24.5905  -30.7055   25.7776 H   0  0  0  0  0  0
  -24.8871  -32.2905   26.4799 H   0  0  0  0  0  0
  -25.8044  -30.8958   27.0238 H   0  0  0  0  0  0
  -26.2778  -29.6818   24.1130 H   0  0  0  0  0  0
  -27.4061  -29.7217   25.4500 H   0  0  0  0  0  0
  -27.8623  -30.4364   23.9194 H   0  0  0  0  0  0
  -27.2695  -33.3583   26.2061 H   0  0  0  0  0  0
  -28.3840  -32.6870   25.0252 H   0  0  0  0  0  0
  -28.0771  -31.8406   26.5342 H   0  0  0  0  0  0
  -28.2597  -38.0082   24.7474 H   0  0  0  0  0  0
  -28.1081  -36.2609   24.6294 H   0  0  0  0  0  0
  -27.2290  -37.1445   25.8854 H   0  0  0  0  0  0
  -20.9314  -29.8726   21.6929 H   0  0  0  0  0  0
  -26.0197  -38.2861   24.1424 H   0  0  0  0  0  0
  -27.9256  -18.9543   18.8301 H   0  0  0  0  0  0
  -27.3900  -21.4338   19.0077 H   0  0  0  0  0  0
  -28.9528  -16.8947   22.1455 H   0  0  0  0  0  0
  -30.7324  -16.6988   22.2786 H   0  0  0  0  0  0
  -30.2415  -16.4794   18.6504 H   0  0  0  0  0  0
  -28.5587  -16.7090   19.2233 H   0  0  0  0  0  0
  -31.1544  -17.8702   20.3006 H   0  0  0  0  0  0
  -29.2652  -25.5340   21.5859 H   0  0  0  0  0  0
  -27.5251  -25.4473   21.6240 H   0  0  0  0  0  0
  -29.1541  -23.1966   21.8635 H   0  0  0  0  0  0
  1 25  1  0  0  0
  1 30  2  0  0  0
  1 80  1  0  0  0
  2  3  1  0  0  0
  2 25  1  0  0  0
  2 84  1  0  0  0
  2 85  1  0  0  0
  3  4  1  0  0  0
  3 86  1  0  0  0
  3 87  1  0  0  0
  4  5  1  0  0  0
  4 88  1  0  0  0
  4 89  1  0  0  0
  5  6  1  0  0  0
  5 26  1  0  0  0
  5 90  1  0  0  0
  6 25  1  0  0  0
  6 91  1  0  0  0
  6 92  1  0  0  0
  7  8  2  0  0  0
  7 26  1  0  0  0
  7 29  1  0  0  0
  8  9  1  0  0  0
  8 22  1  0  0  0
  9 10  1  0  0  0
  9 27  2  0  0  0
 10 11  2  0  0  0
 10 15  1  0  0  0
 11 12  1  0  0  0
 11 93  1  0  0  0
 12 13  2  0  0  0
 12 94  1  0  0  0
 13 14  1  0  0  0
 13 31  1  0  0  0
 14 15  2  0  0  0
 14 95  1  0  0  0
 15 96  1  0  0  0
 16 17  2  0  0  0
 16 21  1  0  0  0
 16 31  1  0  0  0
 17 18  1  0  0  0
 17 97  1  0  0  0
 18 19  2  0  0  0
 18 98  1  0  0  0
 19 20  1  0  0  0
 19 24  1  0  0  0
 20 21  2  0  0  0
 20 99  1  0  0  0
 21 23  1  0  0  0
 22 28  1  0  0  0
 22 32  2  0  0  0
 26 27  1  0  0  0
 28100  1  0  0  0
 28101  1  0  0  0
 29102  1  0  0  0
 29103  1  0  0  0
 33 34  1  0  0  0
 33 66  1  0  0  0
 33 70  2  0  0  0
 34 36  1  0  0  0
 34 59  1  0  0  0
 34104  1  0  0  0
 35 44  2  0  0  0
 35 45  1  0  0  0
 35 68  1  0  0  0
 36 56  1  0  0  0
 36105  1  0  0  0
 37 39  1  0  0  0
 37 47  1  0  0  0
 37 66  1  0  0  0
 37106  1  0  0  0
 38 43  2  0  0  0
 38 46  1  0  0  0
 38 47  1  0  0  0
 39 64  1  0  0  0
 39 67  2  0  0  0
 40 52  1  0  0  0
 40 53  2  0  0  0
 40 58  1  0  0  0
 41107  1  0  0  0
 41108  1  0  0  0
 41109  1  0  0  0
 41 48  1  0  0  0
 42 43  1  0  0  0
 42 66  1  0  0  0
 42110  1  0  0  0
 42111  1  0  0  0
 43 44  1  0  0  0
 44112  1  0  0  0
 45 46  2  0  0  0
 45113  1  0  0  0
 46114  1  0  0  0
 47115  1  0  0  0
 47116  1  0  0  0
 48 56  1  0  0  0
 48 65  1  0  0  0
 48117  1  0  0  0
 49 50  1  0  0  0
 49 53  1  0  0  0
 49 64  1  0  0  0
 49118  1  0  0  0
 50 51  1  0  0  0
 50119  1  0  0  0
 50120  1  0  0  0
 51 52  1  0  0  0
 51121  1  0  0  0
 51122  1  0  0  0
 52123  1  0  0  0
 52124  1  0  0  0
 53 54  1  0  0  0
 54 55  2  0  0  0
 54125  1  0  0  0
 55 57  1  0  0  0
 55126  1  0  0  0
 56 69  2  0  0  0
 57 58  2  0  0  0
 57127  1  0  0  0
 58128  1  0  0  0
 59 60  1  0  0  0
 59 61  1  0  0  0
 59 62  1  0  0  0
 60129  1  0  0  0
 60130  1  0  0  0
 60131  1  0  0  0
 61132  1  0  0  0
 61133  1  0  0  0
 61134  1  0  0  0
 62135  1  0  0  0
 62136  1  0  0  0
 62137  1  0  0  0
 63 65  1  0  0  0
 63138  1  0  0  0
 63139  1  0  0  0
 63140  1  0  0  0
 64141  1  0  0  0
 65142  1  0  0  0
 68 79  1  0  0  0
 71 72  1  0  0  0
 71 73  2  0  0  0
 71143  1  0  0  0
 72 74  2  0  0  0
 72144  1  0  0  0
 73 83  1  0  0  0
 73 78  1  0  0  0
 74 81  1  0  0  0
 74 83  1  0  0  0
 75 79  1  0  0  0
 75 81  1  0  0  0
 75 82  2  0  0  0
 76 78  1  0  0  0
 76 80  1  0  0  0
 76145  1  0  0  0
 76146  1  0  0  0
 77 78  1  0  0  0
 77 80  1  0  0  0
 77147  1  0  0  0
 77148  1  0  0  0
 78149  1  0  0  0
 79150  1  0  0  0
 79151  1  0  0  0
 81152  1  0  0  0
M  ISO  4   1 100  68 101  79 101  80 100
M  END
> <chiral flag>
0

> <version>
0

> <s_m_source_file>
/data/baiqing/PycharmProjects/Reinvent-master-3.2/result/LINK_invent/BTK/process_docking_weight1_custom_product_contain_oxygen_bond_distance_aromatic_linkinvent_7_9_3/rearranged_h_0157.sdf

> <i_m_source_file_index>
67

> <r_mmod_Potential_Energy-OPLS-2005>
47.6927642822266

> <r_mmod_Stretch_Energy-OPLS-2005>
48.021369934082

> <r_mmod_Bend_Energy-OPLS-2005>
114.108657836914

> <r_mmod_Torsional_Energy-OPLS-2005>
300.695922851562

> <r_mmod_Improper_Torsional_Energy-OPLS-2005>
15.2803525924683

> <r_mmod_Van_der_Waal_Energy-OPLS-2005>
115.752792358398

> <r_mmod_Electrostatic_Energy-OPLS-2005>
-349.214965820312

> <r_mmod_Solvation_Energy-OPLS-2005>
-224.332580566406

> <b_mmod_Minimization_Converged-OPLS-2005>
0

> <r_mmod_RMS_Derivative-OPLS-2005>
3.28851747512817

$$$$
67
                    3D
 Structure written by MMmdl.
162171  0  0  1  0            999 V2000
  -30.6434  -14.6234   20.5073 C   0  0  0  0  0  0
  -30.4330  -12.3856   19.4458 C   0  0  0  0  0  0
  -29.5043  -12.4985   18.2172 C   0  0  0  0  0  0
  -28.0272  -12.3396   18.6311 C   0  0  0  0  0  0
  -27.6493  -13.2162   19.8553 C   0  0  2  0  0  0
  -28.6953  -13.0847   20.9847 C   0  0  0  0  0  0
  -25.2551  -13.8162   20.5681 C   0  0  0  0  0  0
  -24.1827  -13.0433   20.9208 C   0  0  0  0  0  0
  -24.6393  -11.6902   20.8745 C   0  0  0  0  0  0
  -23.9061  -10.4288   21.0409 C   0  0  0  0  0  0
  -24.3612   -9.4204   21.9186 C   0  0  0  0  0  0
  -23.6287   -8.2239   22.0754 C   0  0  0  0  0  0
  -22.4272   -8.0276   21.3543 C   0  0  0  0  0  0
  -21.9907   -9.0251   20.4647 C   0  0  0  0  0  0
  -22.7235  -10.2131   20.3058 C   0  0  0  0  0  0
  -21.6853   -6.0733   22.5280 C   0  0  0  0  0  0
  -21.4014   -6.5638   23.8214 C   0  0  0  0  0  0
  -21.3656   -5.6790   24.9176 C   0  0  0  0  0  0
  -21.6044   -4.3054   24.7228 C   0  0  0  0  0  0
  -21.8819   -3.8145   23.4351 C   0  0  0  0  0  0
  -21.9192   -4.6961   22.3406 C   0  0  0  0  0  0
  -22.7854  -13.5235   21.1864 C   0  0  0  0  0  0
  -22.1664   -4.2147   21.0983 F   0  0  0  0  0  0
  -21.5626   -3.4535   25.7740 F   0  0  0  0  0  0
  -30.0076  -13.4151   20.4118 N   0  0  0  0  0  0
  -26.2972  -12.9345   20.3284 N   0  0  0  0  0  0
  -25.9316  -11.6502   20.5741 N   0  0  0  0  0  0
  -22.0483  -12.8228   22.0409 N   0  0  0  0  0  0
  -25.4250  -15.1882   20.4072 N   0  0  0  0  0  0
  -31.8240  -14.7542   20.1712 O   0  0  0  0  0  0
  -21.6639   -6.8874   21.4242 O   0  0  0  0  0  0
  -22.3551  -14.5541   20.6706 O   0  0  0  0  0  0
  -24.6233  -31.8623   23.2049 C   0  0  0  0  0  0
  -25.9089  -32.4795   23.8368 C   0  0  1  0  0  0
  -27.2161  -27.3236   20.1270 C   0  0  0  0  0  0
  -25.5922  -33.8596   24.2300 N   0  0  0  0  0  0
  -23.4170  -30.4856   21.5470 C   0  0  2  0  0  0
  -24.8629  -28.9428   20.1138 C   0  0  0  0  0  0
  -22.7468  -29.4620   22.4947 C   0  0  0  0  0  0
  -18.0290  -28.1381   22.8493 C   0  0  0  0  0  0
  -24.1488  -36.7301   23.2641 C   0  0  0  0  0  0
  -25.9568  -30.7927   21.3773 C   0  0  0  0  0  0
  -26.0289  -29.4168   20.7288 C   0  0  0  0  0  0
  -27.2094  -28.6166   20.7313 C   0  0  0  0  0  0
  -26.0430  -26.9230   19.4532 C   0  0  0  0  0  0
  -24.8709  -27.6995   19.4669 C   0  0  0  0  0  0
  -23.6319  -29.8235   20.1611 C   0  0  0  0  0  0
  -25.4112  -36.3099   24.0337 C   0  0  1  0  0  0
  -20.5888  -28.3674   23.1296 C   0  0  2  0  0  0
  -20.6777  -26.9399   22.5416 C   0  0  0  0  0  0
  -19.5750  -26.6379   21.5219 C   0  0  0  0  0  0
  -18.1933  -26.7929   22.1627 C   0  0  0  0  0  0
  -19.1544  -28.8843   23.2892 C   0  0  0  0  0  0
  -18.9467  -30.1453   23.8891 C   0  0  0  0  0  0
  -17.6468  -30.6582   24.0559 C   0  0  0  0  0  0
  -25.9049  -34.9466   23.5120 C   0  0  0  0  0  0
  -16.5361  -29.9080   23.6320 C   0  0  0  0  0  0
  -16.7279  -28.6500   23.0336 C   0  0  0  0  0  0
  -26.4481  -31.6590   25.0730 C   0  0  0  0  0  0
  -25.3720  -31.3725   26.1457 C   0  0  0  0  0  0
  -27.0313  -30.3023   24.6154 C   0  0  0  0  0  0
  -27.6052  -32.4304   25.7500 C   0  0  0  0  0  0
  -27.5580  -37.1806   24.8474 C   0  0  0  0  0  0
  -21.4182  -29.3041   22.3698 N   0  0  0  0  0  0
  -26.4298  -37.3788   23.9413 N   0  0  0  0  0  0
  -24.6841  -31.0648   22.0997 N   0  0  0  0  0  0
  -23.4203  -28.8149   23.3013 O   0  0  0  0  0  0
  -28.3441  -26.4940   20.0993 O   0  0  0  0  0  0
  -26.5621  -34.8926   22.4690 O   0  0  0  0  0  0
  -23.5399  -32.1416   23.7380 O   0  0  0  0  0  0
  -30.7052  -19.8561   21.6334 C   0  0  0  0  0  0
  -29.2257  -18.1668   20.6990 C   0  0  0  0  0  0
  -31.4133  -17.5032   21.5174 C   0  0  0  0  0  0
  -29.4612  -19.5520   21.0395 C   0  0  0  0  0  0
  -31.6723  -18.8520   21.8553 C   0  0  0  0  0  0
  -30.1745  -17.1188   20.9527 C   0  0  0  0  0  0
  -28.3632  -20.5915   20.9415 C   0  0  0  0  0  0
  -27.1210  -24.1863   20.3601 C   0  0  0  0  0  0
  -29.5320  -24.2622   20.1967 C   0  0  0  0  0  0
  -27.1916  -22.8154   21.0866 C   0  0  0  0  0  0
  -29.6669  -22.8209   20.8284 C   0  0  0  0  0  0
  -28.3153  -25.1178   20.6664 C   0  0  0  0  0  0
  -28.4217  -21.9852   20.8250 N   0  0  0  0  0  0
  -32.8850  -19.1980   22.4551 N   0  0  0  0  0  0
  -29.8413  -15.7097   20.7421 N   0  0  0  0  0  0
  -27.1410  -20.0665   21.0327 N   0  3  0  0  0  0
  -31.4749  -12.5055   19.1447 H   0  0  0  0  0  0
  -30.3621  -11.3935   19.8948 H   0  0  0  0  0  0
  -29.7671  -11.7421   17.4762 H   0  0  0  0  0  0
  -29.6485  -13.4647   17.7305 H   0  0  0  0  0  0
  -27.8647  -11.2879   18.8676 H   0  0  0  0  0  0
  -27.3728  -12.5655   17.7883 H   0  0  0  0  0  0
  -27.6616  -14.2486   19.5055 H   0  0  0  0  0  0
  -28.7052  -12.0696   21.3835 H   0  0  0  0  0  0
  -28.4476  -13.7350   21.8253 H   0  0  0  0  0  0
  -25.2757   -9.5681   22.4762 H   0  0  0  0  0  0
  -23.9997   -7.4632   22.7471 H   0  0  0  0  0  0
  -21.0839   -8.8768   19.8955 H   0  0  0  0  0  0
  -22.3690  -10.9669   19.6166 H   0  0  0  0  0  0
  -21.2008   -7.6146   23.9716 H   0  0  0  0  0  0
  -21.1479   -6.0522   25.9078 H   0  0  0  0  0  0
  -22.0600   -2.7607   23.2851 H   0  0  0  0  0  0
  -22.4095  -11.9889   22.4801 H   0  0  0  0  0  0
  -21.1098  -13.1252   22.2596 H   0  0  0  0  0  0
  -24.6460  -15.8314   20.4966 H   0  0  0  0  0  0
  -26.2485  -15.6177   20.0073 H   0  0  0  0  0  0
  -26.7144  -32.5469   23.1101 H   0  0  0  0  0  0
  -25.0086  -33.9746   25.0459 H   0  0  0  0  0  0
  -22.7110  -31.3058   21.4044 H   0  0  0  0  0  0
  -23.3759  -35.9630   23.3317 H   0  0  0  0  0  0
  -24.3581  -36.8905   22.2057 H   0  0  0  0  0  0
  -23.7234  -37.6507   23.6644 H   0  0  0  0  0  0
  -26.0888  -31.5504   20.6034 H   0  0  0  0  0  0
  -26.8382  -30.8447   22.0031 H   0  0  0  0  0  0
  -28.1053  -28.9781   21.2159 H   0  0  0  0  0  0
  -26.0206  -26.0021   18.8933 H   0  0  0  0  0  0
  -23.9869  -27.3418   18.9575 H   0  0  0  0  0  0
  -23.7545  -30.6018   19.4069 H   0  0  0  0  0  0
  -22.7498  -29.2580   19.8550 H   0  0  0  0  0  0
  -25.1287  -36.1963   25.0830 H   0  0  0  0  0  0
  -20.9990  -28.3240   24.1411 H   0  0  0  0  0  0
  -20.5689  -26.2277   23.3606 H   0  0  0  0  0  0
  -21.6642  -26.7433   22.1199 H   0  0  0  0  0  0
  -19.6913  -25.6296   21.1233 H   0  0  0  0  0  0
  -19.6688  -27.3200   20.6761 H   0  0  0  0  0  0
  -17.4204  -26.6687   21.4025 H   0  0  0  0  0  0
  -18.0310  -26.0074   22.9018 H   0  0  0  0  0  0
  -19.7945  -30.7276   24.2248 H   0  0  0  0  0  0
  -17.5022  -31.6255   24.5176 H   0  0  0  0  0  0
  -15.5361  -30.2975   23.7651 H   0  0  0  0  0  0
  -15.8682  -28.0824   22.7029 H   0  0  0  0  0  0
  -24.5912  -30.7044   25.7802 H   0  0  0  0  0  0
  -24.8893  -32.2892   26.4867 H   0  0  0  0  0  0
  -25.8050  -30.8936   27.0242 H   0  0  0  0  0  0
  -26.2874  -29.6799   24.1161 H   0  0  0  0  0  0
  -27.4020  -29.7239   25.4631 H   0  0  0  0  0  0
  -27.8740  -30.4348   23.9363 H   0  0  0  0  0  0
  -27.2671  -33.3611   26.2066 H   0  0  0  0  0  0
  -28.3861  -32.6852   25.0320 H   0  0  0  0  0  0
  -28.0706  -31.8436   26.5427 H   0  0  0  0  0  0
  -28.2601  -38.0100   24.7513 H   0  0  0  0  0  0
  -28.1064  -36.2627   24.6300 H   0  0  0  0  0  0
  -27.2295  -37.1463   25.8878 H   0  0  0  0  0  0
  -20.9354  -29.8799   21.6941 H   0  0  0  0  0  0
  -26.0185  -38.2870   24.1409 H   0  0  0  0  0  0
  -30.9157  -20.8590   21.9674 H   0  0  0  0  0  0
  -28.2743  -17.8874   20.2689 H   0  0  0  0  0  0
  -32.1590  -16.7553   21.7418 H   0  0  0  0  0  0
  -26.1952  -24.6530   20.6941 H   0  0  0  0  0  0
  -27.0261  -24.0225   19.2862 H   0  0  0  0  0  0
  -29.5150  -24.1724   19.1099 H   0  0  0  0  0  0
  -30.4457  -24.8128   20.4231 H   0  0  0  0  0  0
  -26.2804  -22.2905   20.8003 H   0  0  0  0  0  0
  -27.1142  -22.9769   22.1630 H   0  0  0  0  0  0
  -29.9967  -22.9261   21.8632 H   0  0  0  0  0  0
  -30.4622  -22.2950   20.2993 H   0  0  0  0  0  0
  -28.3765  -25.2386   21.7488 H   0  0  0  0  0  0
  -32.9357  -20.0656   22.9806 H   0  0  0  0  0  0
  -33.4423  -18.4588   22.8740 H   0  0  0  0  0  0
  -28.8605  -15.4844   20.7899 H   0  0  0  0  0  0
  -27.0462  -19.0824   21.2249 H   0  0  0  0  0  0
  -26.3079  -20.6153   20.9173 H   0  0  0  0  0  0
  1 25  1  0  0  0
  1 30  2  0  0  0
  1 85  1  0  0  0
  2  3  1  0  0  0
  2 25  1  0  0  0
  2 87  1  0  0  0
  2 88  1  0  0  0
  3  4  1  0  0  0
  3 89  1  0  0  0
  3 90  1  0  0  0
  4  5  1  0  0  0
  4 91  1  0  0  0
  4 92  1  0  0  0
  5  6  1  0  0  0
  5 26  1  0  0  0
  5 93  1  0  0  0
  6 25  1  0  0  0
  6 94  1  0  0  0
  6 95  1  0  0  0
  7  8  2  0  0  0
  7 26  1  0  0  0
  7 29  1  0  0  0
  8  9  1  0  0  0
  8 22  1  0  0  0
  9 10  1  0  0  0
  9 27  2  0  0  0
 10 11  2  0  0  0
 10 15  1  0  0  0
 11 12  1  0  0  0
 11 96  1  0  0  0
 12 13  2  0  0  0
 12 97  1  0  0  0
 13 14  1  0  0  0
 13 31  1  0  0  0
 14 15  2  0  0  0
 14 98  1  0  0  0
 15 99  1  0  0  0
 16 17  2  0  0  0
 16 21  1  0  0  0
 16 31  1  0  0  0
 17 18  1  0  0  0
 17100  1  0  0  0
 18 19  2  0  0  0
 18101  1  0  0  0
 19 20  1  0  0  0
 19 24  1  0  0  0
 20 21  2  0  0  0
 20102  1  0  0  0
 21 23  1  0  0  0
 22 28  1  0  0  0
 22 32  2  0  0  0
 26 27  1  0  0  0
 28103  1  0  0  0
 28104  1  0  0  0
 29105  1  0  0  0
 29106  1  0  0  0
 33 34  1  0  0  0
 33 66  1  0  0  0
 33 70  2  0  0  0
 34 36  1  0  0  0
 34 59  1  0  0  0
 34107  1  0  0  0
 35 44  2  0  0  0
 35 45  1  0  0  0
 35 68  1  0  0  0
 36 56  1  0  0  0
 36108  1  0  0  0
 37 39  1  0  0  0
 37 47  1  0  0  0
 37 66  1  0  0  0
 37109  1  0  0  0
 38 43  2  0  0  0
 38 46  1  0  0  0
 38 47  1  0  0  0
 39 64  1  0  0  0
 39 67  2  0  0  0
 40 52  1  0  0  0
 40 53  2  0  0  0
 40 58  1  0  0  0
 41110  1  0  0  0
 41111  1  0  0  0
 41112  1  0  0  0
 41 48  1  0  0  0
 42 43  1  0  0  0
 42 66  1  0  0  0
 42113  1  0  0  0
 42114  1  0  0  0
 43 44  1  0  0  0
 44115  1  0  0  0
 45 46  2  0  0  0
 45116  1  0  0  0
 46117  1  0  0  0
 47118  1  0  0  0
 47119  1  0  0  0
 48 56  1  0  0  0
 48 65  1  0  0  0
 48120  1  0  0  0
 49 50  1  0  0  0
 49 53  1  0  0  0
 49 64  1  0  0  0
 49121  1  0  0  0
 50 51  1  0  0  0
 50122  1  0  0  0
 50123  1  0  0  0
 51 52  1  0  0  0
 51124  1  0  0  0
 51125  1  0  0  0
 52126  1  0  0  0
 52127  1  0  0  0
 53 54  1  0  0  0
 54 55  2  0  0  0
 54128  1  0  0  0
 55 57  1  0  0  0
 55129  1  0  0  0
 56 69  2  0  0  0
 57 58  2  0  0  0
 57130  1  0  0  0
 58131  1  0  0  0
 59 60  1  0  0  0
 59 61  1  0  0  0
 59 62  1  0  0  0
 60132  1  0  0  0
 60133  1  0  0  0
 60134  1  0  0  0
 61135  1  0  0  0
 61136  1  0  0  0
 61137  1  0  0  0
 62138  1  0  0  0
 62139  1  0  0  0
 62140  1  0  0  0
 63 65  1  0  0  0
 63141  1  0  0  0
 63142  1  0  0  0
 63143  1  0  0  0
 64144  1  0  0  0
 65145  1  0  0  0
 68 82  1  0  0  0
 71 74  2  0  0  0
 71 75  1  0  0  0
 71146  1  0  0  0
 72 74  1  0  0  0
 72 76  2  0  0  0
 72147  1  0  0  0
 73 75  2  0  0  0
 73 76  1  0  0  0
 73148  1  0  0  0
 74 77  1  0  0  0
 75 84  1  0  0  0
 76 85  1  0  0  0
 77 83  1  0  0  0
 77 86  2  0  0  0
 78 80  1  0  0  0
 78 82  1  0  0  0
 78149  1  0  0  0
 78150  1  0  0  0
 79 81  1  0  0  0
 79 82  1  0  0  0
 79151  1  0  0  0
 79152  1  0  0  0
 80 83  1  0  0  0
 80153  1  0  0  0
 80154  1  0  0  0
 81 83  1  0  0  0
 81155  1  0  0  0
 81156  1  0  0  0
 82157  1  0  0  0
 84158  1  0  0  0
 84159  1  0  0  0
 85160  1  0  0  0
 86161  1  0  0  0
 86162  1  0  0  0
M  CHG  1  86   1
M  ISO  4   1 100  68 101  82 101  85 100
M  END
> <chiral flag>
0

> <version>
0

> <s_m_source_file>
/data/baiqing/PycharmProjects/Reinvent-master-3.2/result/LINK_invent/BTK/process_docking_weight1_custom_product_contain_oxygen_bond_distance_aromatic_linkinvent_7_9_3/rearranged_h_0157.sdf

> <i_m_source_file_index>
68

> <r_mmod_Potential_Energy-OPLS-2005>
-85.1727752685547

> <r_mmod_Stretch_Energy-OPLS-2005>
82.2797622680664

> <r_mmod_Bend_Energy-OPLS-2005>
158.941436767578

> <r_mmod_Torsional_Energy-OPLS-2005>
274.673156738281

> <r_mmod_Improper_Torsional_Energy-OPLS-2005>
11.5633068084717

> <r_mmod_Van_der_Waal_Energy-OPLS-2005>
166.515335083008

> <r_mmod_Electrostatic_Energy-OPLS-2005>
-389.212921142578

> <r_mmod_Solvation_Energy-OPLS-2005>
-434.021179199219

> <b_mmod_Minimization_Converged-OPLS-2005>
0

> <r_mmod_RMS_Derivative-OPLS-2005>
1.34630453586578

$$$$
68
                    3D
 Structure written by MMmdl.
148156  0  0  1  0            999 V2000
  -30.4679  -15.1137   20.3804 C   0  0  0  0  0  0
  -30.4399  -12.6910   19.5367 C   0  0  0  0  0  0
  -29.5349  -12.5619   18.2861 C   0  0  0  0  0  0
  -28.0731  -12.3153   18.6991 C   0  0  0  0  0  0
  -27.6238  -13.2639   19.8397 C   0  0  2  0  0  0
  -28.6566  -13.3541   20.9848 C   0  0  0  0  0  0
  -25.2424  -13.8239   20.5727 C   0  0  0  0  0  0
  -24.1756  -13.0442   20.9231 C   0  0  0  0  0  0
  -24.6395  -11.6932   20.8750 C   0  0  0  0  0  0
  -23.9084  -10.4295   21.0403 C   0  0  0  0  0  0
  -24.3631   -9.4208   21.9181 C   0  0  0  0  0  0
  -23.6301   -8.2245   22.0752 C   0  0  0  0  0  0
  -22.4282   -8.0285   21.3543 C   0  0  0  0  0  0
  -21.9920   -9.0258   20.4645 C   0  0  0  0  0  0
  -22.7253  -10.2134   20.3053 C   0  0  0  0  0  0
  -21.6855   -6.0737   22.5279 C   0  0  0  0  0  0
  -21.4017   -6.5639   23.8213 C   0  0  0  0  0  0
  -21.3661   -5.6792   24.9175 C   0  0  0  0  0  0
  -21.6045   -4.3054   24.7225 C   0  0  0  0  0  0
  -21.8818   -3.8145   23.4345 C   0  0  0  0  0  0
  -21.9191   -4.6963   22.3401 C   0  0  0  0  0  0
  -22.7774  -13.5201   21.1886 C   0  0  0  0  0  0
  -22.1661   -4.2148   21.0979 F   0  0  0  0  0  0
  -21.5628   -3.4539   25.7738 F   0  0  0  0  0  0
  -29.9209  -13.8128   20.3921 N   0  0  0  0  0  0
  -26.2856  -12.9497   20.3248 N   0  0  0  0  0  0
  -25.9332  -11.6610   20.5730 N   0  0  0  0  0  0
  -22.0430  -12.8188   22.0447 N   0  0  0  0  0  0
  -25.4082  -15.1972   20.4174 N   0  0  0  0  0  0
  -31.6543  -15.1695   20.0290 O   0  0  0  0  0  0
  -21.6643   -6.8882   21.4242 O   0  0  0  0  0  0
  -22.3453  -14.5503   20.6728 O   0  0  0  0  0  0
  -24.6523  -31.8312   23.1759 C   0  0  0  0  0  0
  -25.9247  -32.4625   23.8193 C   0  0  1  0  0  0
  -27.2254  -27.0261   20.1680 C   0  0  0  0  0  0
  -25.5949  -33.8436   24.2105 N   0  0  0  0  0  0
  -23.4623  -30.4431   21.5222 C   0  0  2  0  0  0
  -24.9157  -28.8443   20.1033 C   0  0  0  0  0  0
  -22.7612  -29.4472   22.4811 C   0  0  0  0  0  0
  -18.0310  -28.1403   22.8472 C   0  0  0  0  0  0
  -24.1492  -36.7228   23.2647 C   0  0  0  0  0  0
  -26.0226  -30.6686   21.3907 C   0  0  0  0  0  0
  -26.0911  -29.2681   20.7338 C   0  0  0  0  0  0
  -27.2375  -28.3740   20.7485 C   0  0  0  0  0  0
  -26.0271  -26.7255   19.4864 C   0  0  0  0  0  0
  -24.9031  -27.5920   19.4622 C   0  0  0  0  0  0
  -23.6949  -29.7588   20.1454 C   0  0  0  0  0  0
  -25.4130  -36.2990   24.0304 C   0  0  1  0  0  0
  -20.5928  -28.3734   23.1217 C   0  0  2  0  0  0
  -20.6787  -26.9426   22.5411 C   0  0  0  0  0  0
  -19.5763  -26.6377   21.5218 C   0  0  0  0  0  0
  -18.1944  -26.7938   22.1625 C   0  0  0  0  0  0
  -19.1569  -28.8889   23.2833 C   0  0  0  0  0  0
  -18.9483  -30.1483   23.8863 C   0  0  0  0  0  0
  -17.6478  -30.6597   24.0557 C   0  0  0  0  0  0
  -25.9086  -34.9370   23.5026 C   0  0  0  0  0  0
  -16.5369  -29.9087   23.6339 C   0  0  0  0  0  0
  -16.7294  -28.6506   23.0359 C   0  0  0  0  0  0
  -26.4535  -31.6546   25.0692 C   0  0  0  0  0  0
  -25.3685  -31.3774   26.1366 C   0  0  0  0  0  0
  -27.0422  -30.2926   24.6363 C   0  0  0  0  0  0
  -27.6038  -32.4344   25.7489 C   0  0  0  0  0  0
  -27.5571  -37.1770   24.8465 C   0  0  0  0  0  0
  -21.4293  -29.3034   22.3568 N   0  0  0  0  0  0
  -26.4282  -37.3718   23.9405 N   0  0  0  0  0  0
  -24.7327  -31.0063   22.0841 N   0  0  0  0  0  0
  -23.4206  -28.8047   23.3021 O   0  0  0  0  0  0
  -28.2724  -26.0114   20.3219 O   0  0  0  0  0  0
  -26.5697  -34.8894   22.4621 O   0  0  0  0  0  0
  -23.5619  -32.1239   23.6917 O   0  0  0  0  0  0
  -29.6036  -18.2333   18.9137 C   0  0  0  0  0  0
  -29.6447  -17.7114   20.1990 C   0  0  0  0  0  0
  -29.1740  -20.1172   20.1057 C   0  0  0  0  0  0
  -29.9125  -24.4852   19.3781 C   0  0  0  0  0  0
  -28.1284  -22.9255   20.4974 C   0  0  0  0  0  0
  -28.4410  -24.4970   19.8039 C   0  0  1  0  0  0
  -29.2895  -19.6310   18.8655 N   0  0  0  0  0  0
  -29.7085  -16.3181   20.6824 N   0  0  0  0  0  0
  -28.9919  -21.5620   20.5642 N   0  0  0  0  0  0
  -29.3673  -18.9685   20.9623 O   0  0  0  0  0  0
  -31.4718  -12.8593   19.2262 H   0  0  0  0  0  0
  -30.4564  -11.7552   20.0979 H   0  0  0  0  0  0
  -29.8865  -11.7541   17.6430 H   0  0  0  0  0  0
  -29.5989  -13.4758   17.6938 H   0  0  0  0  0  0
  -27.9961  -11.2797   19.0324 H   0  0  0  0  0  0
  -27.4105  -12.4093   17.8379 H   0  0  0  0  0  0
  -27.5683  -14.2530   19.3838 H   0  0  0  0  0  0
  -28.7749  -12.3931   21.4879 H   0  0  0  0  0  0
  -28.3209  -14.0600   21.7455 H   0  0  0  0  0  0
  -25.2775   -9.5687   22.4757 H   0  0  0  0  0  0
  -24.0008   -7.4638   22.7475 H   0  0  0  0  0  0
  -21.0848   -8.8779   19.8953 H   0  0  0  0  0  0
  -22.3709  -10.9673   19.6162 H   0  0  0  0  0  0
  -21.2015   -7.6148   23.9717 H   0  0  0  0  0  0
  -21.1484   -6.0521   25.9078 H   0  0  0  0  0  0
  -22.0596   -2.7608   23.2845 H   0  0  0  0  0  0
  -22.4057  -11.9858   22.4844 H   0  0  0  0  0  0
  -21.1046  -13.1204   22.2653 H   0  0  0  0  0  0
  -24.6371  -15.8474   20.5264 H   0  0  0  0  0  0
  -26.2532  -15.6394   20.0793 H   0  0  0  0  0  0
  -26.7312  -32.5190   23.0910 H   0  0  0  0  0  0
  -25.0033  -33.9526   25.0210 H   0  0  0  0  0  0
  -22.7705  -31.2717   21.3570 H   0  0  0  0  0  0
  -23.3758  -35.9556   23.3292 H   0  0  0  0  0  0
  -24.3568  -36.8888   22.2065 H   0  0  0  0  0  0
  -23.7249  -37.6415   23.6709 H   0  0  0  0  0  0
  -26.1912  -31.4162   20.6144 H   0  0  0  0  0  0
  -26.8873  -30.7224   22.0404 H   0  0  0  0  0  0
  -28.1268  -28.6894   21.2760 H   0  0  0  0  0  0
  -25.9254  -25.7604   19.0116 H   0  0  0  0  0  0
  -24.0055  -27.2626   18.9570 H   0  0  0  0  0  0
  -23.8364  -30.5277   19.3852 H   0  0  0  0  0  0
  -22.8075  -29.2038   19.8359 H   0  0  0  0  0  0
  -25.1327  -36.1796   25.0796 H   0  0  0  0  0  0
  -21.0018  -28.3337   24.1340 H   0  0  0  0  0  0
  -20.5671  -26.2350   23.3641 H   0  0  0  0  0  0
  -21.6652  -26.7413   22.1216 H   0  0  0  0  0  0
  -19.6922  -25.6278   21.1270 H   0  0  0  0  0  0
  -19.6704  -27.3167   20.6732 H   0  0  0  0  0  0
  -17.4214  -26.6682   21.4028 H   0  0  0  0  0  0
  -18.0340  -26.0090   22.9032 H   0  0  0  0  0  0
  -19.7959  -30.7308   24.2218 H   0  0  0  0  0  0
  -17.5030  -31.6273   24.5165 H   0  0  0  0  0  0
  -15.5368  -30.2977   23.7684 H   0  0  0  0  0  0
  -15.8693  -28.0814   22.7094 H   0  0  0  0  0  0
  -24.5872  -30.7119   25.7680 H   0  0  0  0  0  0
  -24.8867  -32.2969   26.4700 H   0  0  0  0  0  0
  -25.7936  -30.9001   27.0204 H   0  0  0  0  0  0
  -26.3069  -29.6617   24.1359 H   0  0  0  0  0  0
  -27.3978  -29.7273   25.4988 H   0  0  0  0  0  0
  -27.8998  -30.4134   23.9739 H   0  0  0  0  0  0
  -27.2608  -33.3672   26.1977 H   0  0  0  0  0  0
  -28.3894  -32.6864   25.0352 H   0  0  0  0  0  0
  -28.0657  -31.8531   26.5480 H   0  0  0  0  0  0
  -28.2578  -38.0075   24.7504 H   0  0  0  0  0  0
  -28.1076  -36.2601   24.6301 H   0  0  0  0  0  0
  -27.2284  -37.1424   25.8867 H   0  0  0  0  0  0
  -20.9530  -29.8720   21.6705 H   0  0  0  0  0  0
  -26.0136  -38.2780   24.1406 H   0  0  0  0  0  0
  -29.7068  -17.6861   17.9872 H   0  0  0  0  0  0
  -30.1469  -25.3377   18.7402 H   0  0  0  0  0  0
  -30.1533  -23.5815   18.8176 H   0  0  0  0  0  0
  -30.5695  -24.5228   20.2468 H   0  0  0  0  0  0
  -27.1505  -22.6235   20.1202 H   0  0  0  0  0  0
  -27.9316  -23.1374   21.5490 H   0  0  0  0  0  0
  -27.8781  -24.4845   18.8702 H   0  0  0  0  0  0
  -28.9000  -16.0812   21.2384 H   0  0  0  0  0  0
  -29.3798  -21.5573   21.5024 H   0  0  0  0  0  0
  1 25  1  0  0  0
  1 30  2  0  0  0
  1 78  1  0  0  0
  2  3  1  0  0  0
  2 25  1  0  0  0
  2 81  1  0  0  0
  2 82  1  0  0  0
  3  4  1  0  0  0
  3 83  1  0  0  0
  3 84  1  0  0  0
  4  5  1  0  0  0
  4 85  1  0  0  0
  4 86  1  0  0  0
  5  6  1  0  0  0
  5 26  1  0  0  0
  5 87  1  0  0  0
  6 25  1  0  0  0
  6 88  1  0  0  0
  6 89  1  0  0  0
  7  8  2  0  0  0
  7 26  1  0  0  0
  7 29  1  0  0  0
  8  9  1  0  0  0
  8 22  1  0  0  0
  9 10  1  0  0  0
  9 27  2  0  0  0
 10 11  2  0  0  0
 10 15  1  0  0  0
 11 12  1  0  0  0
 11 90  1  0  0  0
 12 13  2  0  0  0
 12 91  1  0  0  0
 13 14  1  0  0  0
 13 31  1  0  0  0
 14 15  2  0  0  0
 14 92  1  0  0  0
 15 93  1  0  0  0
 16 17  2  0  0  0
 16 21  1  0  0  0
 16 31  1  0  0  0
 17 18  1  0  0  0
 17 94  1  0  0  0
 18 19  2  0  0  0
 18 95  1  0  0  0
 19 20  1  0  0  0
 19 24  1  0  0  0
 20 21  2  0  0  0
 20 96  1  0  0  0
 21 23  1  0  0  0
 22 28  1  0  0  0
 22 32  2  0  0  0
 26 27  1  0  0  0
 28 97  1  0  0  0
 28 98  1  0  0  0
 29 99  1  0  0  0
 29100  1  0  0  0
 33 34  1  0  0  0
 33 66  1  0  0  0
 33 70  2  0  0  0
 34 36  1  0  0  0
 34 59  1  0  0  0
 34101  1  0  0  0
 35 44  2  0  0  0
 35 45  1  0  0  0
 35 68  1  0  0  0
 36 56  1  0  0  0
 36102  1  0  0  0
 37 39  1  0  0  0
 37 47  1  0  0  0
 37 66  1  0  0  0
 37103  1  0  0  0
 38 43  2  0  0  0
 38 46  1  0  0  0
 38 47  1  0  0  0
 39 64  1  0  0  0
 39 67  2  0  0  0
 40 52  1  0  0  0
 40 53  2  0  0  0
 40 58  1  0  0  0
 41104  1  0  0  0
 41105  1  0  0  0
 41106  1  0  0  0
 41 48  1  0  0  0
 42 43  1  0  0  0
 42 66  1  0  0  0
 42107  1  0  0  0
 42108  1  0  0  0
 43 44  1  0  0  0
 44109  1  0  0  0
 45 46  2  0  0  0
 45110  1  0  0  0
 46111  1  0  0  0
 47112  1  0  0  0
 47113  1  0  0  0
 48 56  1  0  0  0
 48 65  1  0  0  0
 48114  1  0  0  0
 49 50  1  0  0  0
 49 53  1  0  0  0
 49 64  1  0  0  0
 49115  1  0  0  0
 50 51  1  0  0  0
 50116  1  0  0  0
 50117  1  0  0  0
 51 52  1  0  0  0
 51118  1  0  0  0
 51119  1  0  0  0
 52120  1  0  0  0
 52121  1  0  0  0
 53 54  1  0  0  0
 54 55  2  0  0  0
 54122  1  0  0  0
 55 57  1  0  0  0
 55123  1  0  0  0
 56 69  2  0  0  0
 57 58  2  0  0  0
 57124  1  0  0  0
 58125  1  0  0  0
 59 60  1  0  0  0
 59 61  1  0  0  0
 59 62  1  0  0  0
 60126  1  0  0  0
 60127  1  0  0  0
 60128  1  0  0  0
 61129  1  0  0  0
 61130  1  0  0  0
 61131  1  0  0  0
 62132  1  0  0  0
 62133  1  0  0  0
 62134  1  0  0  0
 63 65  1  0  0  0
 63135  1  0  0  0
 63136  1  0  0  0
 63137  1  0  0  0
 64138  1  0  0  0
 65139  1  0  0  0
 68 76  1  0  0  0
 71 72  2  0  0  0
 71 77  1  0  0  0
 71140  1  0  0  0
 72 78  1  0  0  0
 72 80  1  0  0  0
 73 77  2  0  0  0
 73 79  1  0  0  0
 73 80  1  0  0  0
 74141  1  0  0  0
 74142  1  0  0  0
 74143  1  0  0  0
 74 76  1  0  0  0
 75 76  1  0  0  0
 75 79  1  0  0  0
 75144  1  0  0  0
 75145  1  0  0  0
 76146  1  0  0  0
 78147  1  0  0  0
 79148  1  0  0  0
M  ISO  4   1 100  68 101  76 101  78 100
M  END
> <chiral flag>
0

> <version>
0

> <s_m_source_file>
/data/baiqing/PycharmProjects/Reinvent-master-3.2/result/LINK_invent/BTK/process_docking_weight1_custom_product_contain_oxygen_bond_distance_aromatic_linkinvent_7_9_3/rearranged_h_0157.sdf

> <i_m_source_file_index>
69

> <r_mmod_Potential_Energy-OPLS-2005>
762.433532714844

> <r_mmod_Stretch_Energy-OPLS-2005>
380.064697265625

> <r_mmod_Bend_Energy-OPLS-2005>
395.795684814453

> <r_mmod_Torsional_Energy-OPLS-2005>
262.512542724609

> <r_mmod_Improper_Torsional_Energy-OPLS-2005>
6.10946655273438

> <r_mmod_Van_der_Waal_Energy-OPLS-2005>
105.708526611328

> <r_mmod_Electrostatic_Energy-OPLS-2005>
-465.383270263672

> <r_mmod_Solvation_Energy-OPLS-2005>
-239.293823242188

> <b_mmod_Minimization_Converged-OPLS-2005>
0

> <r_mmod_RMS_Derivative-OPLS-2005>
0.411904811859131

$$$$
69
                    3D
 Structure written by MMmdl.
150158  0  0  1  0            999 V2000
  -30.7184  -14.5397   20.4894 C   0  0  0  0  0  0
  -30.4043  -12.3263   19.4421 C   0  0  0  0  0  0
  -29.4903  -12.4834   18.2071 C   0  0  0  0  0  0
  -28.0084  -12.3584   18.6078 C   0  0  0  0  0  0
  -27.6466  -13.2226   19.8465 C   0  0  2  0  0  0
  -28.6934  -13.0857   20.9762 C   0  0  0  0  0  0
  -25.2542  -13.8237   20.5709 C   0  0  0  0  0  0
  -24.1818  -13.0481   20.9188 C   0  0  0  0  0  0
  -24.6394  -11.6945   20.8725 C   0  0  0  0  0  0
  -23.9051  -10.4308   21.0375 C   0  0  0  0  0  0
  -24.3597   -9.4236   21.9171 C   0  0  0  0  0  0
  -23.6279   -8.2277   22.0770 C   0  0  0  0  0  0
  -22.4269   -8.0293   21.3557 C   0  0  0  0  0  0
  -21.9891   -9.0250   20.4657 C   0  0  0  0  0  0
  -22.7206  -10.2135   20.3039 C   0  0  0  0  0  0
  -21.6860   -6.0750   22.5293 C   0  0  0  0  0  0
  -21.4013   -6.5645   23.8234 C   0  0  0  0  0  0
  -21.3648   -5.6795   24.9194 C   0  0  0  0  0  0
  -21.6048   -4.3062   24.7238 C   0  0  0  0  0  0
  -21.8807   -3.8153   23.4356 C   0  0  0  0  0  0
  -21.9193   -4.6976   22.3416 C   0  0  0  0  0  0
  -22.7822  -13.5250   21.1822 C   0  0  0  0  0  0
  -22.1653   -4.2169   21.0994 F   0  0  0  0  0  0
  -21.5618   -3.4534   25.7745 F   0  0  0  0  0  0
  -30.0150  -13.3717   20.4065 N   0  0  0  0  0  0
  -26.2949  -12.9420   20.3247 N   0  0  0  0  0  0
  -25.9310  -11.6563   20.5686 N   0  0  0  0  0  0
  -22.0447  -12.8268   22.0380 N   0  0  0  0  0  0
  -25.4230  -15.1974   20.4137 N   0  0  0  0  0  0
  -31.8989  -14.5751   20.1314 O   0  0  0  0  0  0
  -21.6643   -6.8885   21.4251 O   0  0  0  0  0  0
  -22.3500  -14.5537   20.6651 O   0  0  0  0  0  0
  -24.6226  -31.8622   23.2026 C   0  0  0  0  0  0
  -25.9130  -32.4770   23.8321 C   0  0  1  0  0  0
  -27.2330  -27.3851   20.0860 C   0  0  0  0  0  0
  -25.5972  -33.8559   24.2255 N   0  0  0  0  0  0
  -23.4098  -30.4887   21.5434 C   0  0  2  0  0  0
  -24.8534  -28.9420   20.1151 C   0  0  0  0  0  0
  -22.7409  -29.4729   22.4972 C   0  0  0  0  0  0
  -18.0272  -28.1397   22.8478 C   0  0  0  0  0  0
  -24.1495  -36.7266   23.2628 C   0  0  0  0  0  0
  -25.9451  -30.8138   21.3615 C   0  0  0  0  0  0
  -26.0189  -29.4458   20.7047 C   0  0  0  0  0  0
  -27.2091  -28.6744   20.6836 C   0  0  0  0  0  0
  -26.0371  -26.9078   19.4992 C   0  0  0  0  0  0
  -24.8605  -27.6775   19.5100 C   0  0  0  0  0  0
  -23.6174  -29.8112   20.1624 C   0  0  0  0  0  0
  -25.4130  -36.3044   24.0296 C   0  0  1  0  0  0
  -20.5867  -28.3751   23.1266 C   0  0  2  0  0  0
  -20.6808  -26.9500   22.5349 C   0  0  0  0  0  0
  -19.5746  -26.6390   21.5213 C   0  0  0  0  0  0
  -18.1959  -26.7907   22.1672 C   0  0  0  0  0  0
  -19.1513  -28.8890   23.2869 C   0  0  0  0  0  0
  -18.9395  -30.1499   23.8870 C   0  0  0  0  0  0
  -17.6374  -30.6602   24.0548 C   0  0  0  0  0  0
  -25.9083  -34.9434   23.5071 C   0  0  0  0  0  0
  -16.5299  -29.9073   23.6326 C   0  0  0  0  0  0
  -16.7258  -28.6501   23.0320 C   0  0  0  0  0  0
  -26.4529  -31.6568   25.0678 C   0  0  0  0  0  0
  -25.3753  -31.3731   26.1385 C   0  0  0  0  0  0
  -27.0391  -30.2988   24.6149 C   0  0  0  0  0  0
  -27.6059  -32.4318   25.7481 C   0  0  0  0  0  0
  -27.5573  -37.1782   24.8464 C   0  0  0  0  0  0
  -21.4146  -29.3101   22.3636 N   0  0  0  0  0  0
  -26.4295  -37.3748   23.9395 N   0  0  0  0  0  0
  -24.6766  -31.0715   22.0924 N   0  0  0  0  0  0
  -23.4112  -28.8335   23.3105 O   0  0  0  0  0  0
  -28.4096  -26.6458   20.1066 O   0  0  0  0  0  0
  -26.5624  -34.8904   22.4621 O   0  0  0  0  0  0
  -23.5427  -32.1407   23.7434 O   0  0  0  0  0  0
  -29.7770  -19.4722   20.7859 C   0  0  0  0  0  0
  -27.6400  -19.5891   21.6794 C   0  0  0  0  0  0
  -28.7093  -20.3245   21.2303 C   0  0  0  0  0  0
  -29.5481  -18.1193   20.9669 C   0  0  0  0  0  0
  -30.4793  -16.9565   20.7669 C   0  0  0  0  0  0
  -28.4831  -24.1752   20.6488 C   0  0  0  0  0  0
  -28.6237  -22.6859   20.1928 C   0  0  0  0  0  0
  -28.4781  -25.2917   19.5654 C   0  0  0  0  0  0
  -28.8235  -21.7406   21.3126 N   0  0  0  0  0  0
  -30.0142  -15.6720   20.7790 N   0  0  0  0  0  0
  -31.6660  -17.2544   20.5766 O   0  0  0  0  0  0
  -28.3825  -24.4499   21.8515 O   0  0  0  0  0  0
  -27.9512  -17.8617   21.6274 S   0  0  0  0  0  0
  -31.4533  -12.3941   19.1446 H   0  0  0  0  0  0
  -30.2898  -11.3341   19.8875 H   0  0  0  0  0  0
  -29.7306  -11.7280   17.4593 H   0  0  0  0  0  0
  -29.6612  -13.4492   17.7302 H   0  0  0  0  0  0
  -27.8052  -11.3071   18.8076 H   0  0  0  0  0  0
  -27.3687  -12.6322   17.7672 H   0  0  0  0  0  0
  -27.6630  -14.2563   19.4998 H   0  0  0  0  0  0
  -28.6772  -12.0750   21.3896 H   0  0  0  0  0  0
  -28.4590  -13.7552   21.8035 H   0  0  0  0  0  0
  -25.2726   -9.5752   22.4753 H   0  0  0  0  0  0
  -23.9998   -7.4696   22.7515 H   0  0  0  0  0  0
  -21.0815   -8.8735   19.8984 H   0  0  0  0  0  0
  -22.3616  -10.9666   19.6153 H   0  0  0  0  0  0
  -21.1995   -7.6152   23.9745 H   0  0  0  0  0  0
  -21.1477   -6.0526   25.9106 H   0  0  0  0  0  0
  -22.0590   -2.7614   23.2852 H   0  0  0  0  0  0
  -22.3973  -11.9879   22.4753 H   0  0  0  0  0  0
  -21.1104  -13.1381   22.2605 H   0  0  0  0  0  0
  -24.6513  -15.8467   20.5243 H   0  0  0  0  0  0
  -26.2627  -15.6426   20.0678 H   0  0  0  0  0  0
  -26.7214  -32.5444   23.1081 H   0  0  0  0  0  0
  -25.0154  -33.9700   25.0421 H   0  0  0  0  0  0
  -22.7037  -31.3066   21.3937 H   0  0  0  0  0  0
  -23.3754  -35.9612   23.3322 H   0  0  0  0  0  0
  -24.3566  -36.8871   22.2042 H   0  0  0  0  0  0
  -23.7284  -37.6477   23.6661 H   0  0  0  0  0  0
  -26.0740  -31.5823   20.5988 H   0  0  0  0  0  0
  -26.8249  -30.8548   21.9922 H   0  0  0  0  0  0
  -28.1115  -29.0606   21.1360 H   0  0  0  0  0  0
  -25.9693  -25.9388   19.0326 H   0  0  0  0  0  0
  -23.9628  -27.2814   19.0569 H   0  0  0  0  0  0
  -23.7222  -30.5724   19.3877 H   0  0  0  0  0  0
  -22.7420  -29.2234   19.8786 H   0  0  0  0  0  0
  -25.1330  -36.1875   25.0790 H   0  0  0  0  0  0
  -20.9961  -28.3368   24.1373 H   0  0  0  0  0  0
  -20.5871  -26.2345   23.3523 H   0  0  0  0  0  0
  -21.6690  -26.7688   22.1058 H   0  0  0  0  0  0
  -19.6926  -25.6304   21.1222 H   0  0  0  0  0  0
  -19.6564  -27.3223   20.6769 H   0  0  0  0  0  0
  -17.4208  -26.6549   21.4111 H   0  0  0  0  0  0
  -18.0413  -26.0119   22.9136 H   0  0  0  0  0  0
  -19.7812  -30.7403   24.2204 H   0  0  0  0  0  0
  -17.4917  -31.6279   24.5124 H   0  0  0  0  0  0
  -15.5295  -30.2944   23.7673 H   0  0  0  0  0  0
  -15.8677  -28.0823   22.6973 H   0  0  0  0  0  0
  -24.5905  -30.7127   25.7674 H   0  0  0  0  0  0
  -24.8995  -32.2941   26.4770 H   0  0  0  0  0  0
  -25.8036  -30.8887   27.0168 H   0  0  0  0  0  0
  -26.2974  -29.6688   24.1221 H   0  0  0  0  0  0
  -27.4150  -29.7292   25.4662 H   0  0  0  0  0  0
  -27.8808  -30.4255   23.9330 H   0  0  0  0  0  0
  -27.2614  -33.3593   26.2071 H   0  0  0  0  0  0
  -28.3878  -32.6918   25.0331 H   0  0  0  0  0  0
  -28.0729  -31.8443   26.5404 H   0  0  0  0  0  0
  -28.2590  -38.0067   24.7481 H   0  0  0  0  0  0
  -28.1058  -36.2595   24.6347 H   0  0  0  0  0  0
  -27.2258  -37.1489   25.8850 H   0  0  0  0  0  0
  -20.9394  -29.8578   21.6595 H   0  0  0  0  0  0
  -26.0161  -38.2808   24.1416 H   0  0  0  0  0  0
  -30.7101  -19.8734   20.4145 H   0  0  0  0  0  0
  -26.6957  -19.9387   22.0793 H   0  0  0  0  0  0
  -27.7203  -22.4069   19.6484 H   0  0  0  0  0  0
  -29.4549  -22.6231   19.4880 H   0  0  0  0  0  0
  -27.7141  -25.0697   18.8276 H   0  0  0  0  0  0
  -29.4203  -25.2120   19.0237 H   0  0  0  0  0  0
  -28.4083  -22.1453   22.1476 H   0  0  0  0  0  0
  -29.0365  -15.5505   20.9674 H   0  0  0  0  0  0
  1 25  1  0  0  0
  1 30  2  0  0  0
  1 80  1  0  0  0
  2  3  1  0  0  0
  2 25  1  0  0  0
  2 84  1  0  0  0
  2 85  1  0  0  0
  3  4  1  0  0  0
  3 86  1  0  0  0
  3 87  1  0  0  0
  4  5  1  0  0  0
  4 88  1  0  0  0
  4 89  1  0  0  0
  5  6  1  0  0  0
  5 26  1  0  0  0
  5 90  1  0  0  0
  6 25  1  0  0  0
  6 91  1  0  0  0
  6 92  1  0  0  0
  7  8  2  0  0  0
  7 26  1  0  0  0
  7 29  1  0  0  0
  8  9  1  0  0  0
  8 22  1  0  0  0
  9 10  1  0  0  0
  9 27  2  0  0  0
 10 11  2  0  0  0
 10 15  1  0  0  0
 11 12  1  0  0  0
 11 93  1  0  0  0
 12 13  2  0  0  0
 12 94  1  0  0  0
 13 14  1  0  0  0
 13 31  1  0  0  0
 14 15  2  0  0  0
 14 95  1  0  0  0
 15 96  1  0  0  0
 16 17  2  0  0  0
 16 21  1  0  0  0
 16 31  1  0  0  0
 17 18  1  0  0  0
 17 97  1  0  0  0
 18 19  2  0  0  0
 18 98  1  0  0  0
 19 20  1  0  0  0
 19 24  1  0  0  0
 20 21  2  0  0  0
 20 99  1  0  0  0
 21 23  1  0  0  0
 22 28  1  0  0  0
 22 32  2  0  0  0
 26 27  1  0  0  0
 28100  1  0  0  0
 28101  1  0  0  0
 29102  1  0  0  0
 29103  1  0  0  0
 33 34  1  0  0  0
 33 66  1  0  0  0
 33 70  2  0  0  0
 34 36  1  0  0  0
 34 59  1  0  0  0
 34104  1  0  0  0
 35 44  2  0  0  0
 35 45  1  0  0  0
 35 68  1  0  0  0
 36 56  1  0  0  0
 36105  1  0  0  0
 37 39  1  0  0  0
 37 47  1  0  0  0
 37 66  1  0  0  0
 37106  1  0  0  0
 38 43  2  0  0  0
 38 46  1  0  0  0
 38 47  1  0  0  0
 39 64  1  0  0  0
 39 67  2  0  0  0
 40 52  1  0  0  0
 40 53  2  0  0  0
 40 58  1  0  0  0
 41107  1  0  0  0
 41108  1  0  0  0
 41109  1  0  0  0
 41 48  1  0  0  0
 42 43  1  0  0  0
 42 66  1  0  0  0
 42110  1  0  0  0
 42111  1  0  0  0
 43 44  1  0  0  0
 44112  1  0  0  0
 45 46  2  0  0  0
 45113  1  0  0  0
 46114  1  0  0  0
 47115  1  0  0  0
 47116  1  0  0  0
 48 56  1  0  0  0
 48 65  1  0  0  0
 48117  1  0  0  0
 49 50  1  0  0  0
 49 53  1  0  0  0
 49 64  1  0  0  0
 49118  1  0  0  0
 50 51  1  0  0  0
 50119  1  0  0  0
 50120  1  0  0  0
 51 52  1  0  0  0
 51121  1  0  0  0
 51122  1  0  0  0
 52123  1  0  0  0
 52124  1  0  0  0
 53 54  1  0  0  0
 54 55  2  0  0  0
 54125  1  0  0  0
 55 57  1  0  0  0
 55126  1  0  0  0
 56 69  2  0  0  0
 57 58  2  0  0  0
 57127  1  0  0  0
 58128  1  0  0  0
 59 60  1  0  0  0
 59 61  1  0  0  0
 59 62  1  0  0  0
 60129  1  0  0  0
 60130  1  0  0  0
 60131  1  0  0  0
 61132  1  0  0  0
 61133  1  0  0  0
 61134  1  0  0  0
 62135  1  0  0  0
 62136  1  0  0  0
 62137  1  0  0  0
 63 65  1  0  0  0
 63138  1  0  0  0
 63139  1  0  0  0
 63140  1  0  0  0
 64141  1  0  0  0
 65142  1  0  0  0
 68 78  1  0  0  0
 71 73  1  0  0  0
 71 74  2  0  0  0
 71143  1  0  0  0
 72 73  2  0  0  0
 72 83  1  0  0  0
 72144  1  0  0  0
 73 79  1  0  0  0
 74 75  1  0  0  0
 74 83  1  0  0  0
 75 80  1  0  0  0
 75 81  2  0  0  0
 76 77  1  0  0  0
 76 78  1  0  0  0
 76 82  2  0  0  0
 77 79  1  0  0  0
 77145  1  0  0  0
 77146  1  0  0  0
 78147  1  0  0  0
 78148  1  0  0  0
 79149  1  0  0  0
 80150  1  0  0  0
M  ISO  4   1 100  68 101  78 101  80 100
M  END
> <chiral flag>
0

> <version>
0

> <s_m_source_file>
/data/baiqing/PycharmProjects/Reinvent-master-3.2/result/LINK_invent/BTK/process_docking_weight1_custom_product_contain_oxygen_bond_distance_aromatic_linkinvent_7_9_3/rearranged_h_0157.sdf

> <i_m_source_file_index>
70

> <r_mmod_Potential_Energy-OPLS-2005>
-109.255249023438

> <r_mmod_Stretch_Energy-OPLS-2005>
49.2789840698242

> <r_mmod_Bend_Energy-OPLS-2005>
122.848785400391

> <r_mmod_Torsional_Energy-OPLS-2005>
235.519927978516

> <r_mmod_Improper_Torsional_Energy-OPLS-2005>
9.02894020080566

> <r_mmod_Van_der_Waal_Energy-OPLS-2005>
133.514373779297

> <r_mmod_Electrostatic_Energy-OPLS-2005>
-427.396057128906

> <r_mmod_Solvation_Energy-OPLS-2005>
-259.884368896484

> <b_mmod_Minimization_Converged-OPLS-2005>
0

> <r_mmod_RMS_Derivative-OPLS-2005>
4.43153047561646

$$$$
70
                    3D
 Structure written by MMmdl.
173182  0  0  1  0            999 V2000
  -30.6260  -14.6940   20.5241 C   0  0  0  0  0  0
  -30.4473  -12.4335   19.4639 C   0  0  0  0  0  0
  -29.5087  -12.4786   18.2344 C   0  0  0  0  0  0
  -28.0346  -12.3211   18.6509 C   0  0  0  0  0  0
  -27.6515  -13.2098   19.8614 C   0  0  2  0  0  0
  -28.6985  -13.1100   20.9927 C   0  0  0  0  0  0
  -25.2549  -13.8153   20.5688 C   0  0  0  0  0  0
  -24.1822  -13.0437   20.9186 C   0  0  0  0  0  0
  -24.6368  -11.6884   20.8757 C   0  0  0  0  0  0
  -23.9041  -10.4287   21.0435 C   0  0  0  0  0  0
  -24.3614   -9.4204   21.9200 C   0  0  0  0  0  0
  -23.6294   -8.2233   22.0757 C   0  0  0  0  0  0
  -22.4268   -8.0279   21.3555 C   0  0  0  0  0  0
  -21.9903   -9.0248   20.4648 C   0  0  0  0  0  0
  -22.7233  -10.2127   20.3062 C   0  0  0  0  0  0
  -21.6844   -6.0732   22.5285 C   0  0  0  0  0  0
  -21.4014   -6.5638   23.8216 C   0  0  0  0  0  0
  -21.3657   -5.6795   24.9177 C   0  0  0  0  0  0
  -21.6039   -4.3051   24.7227 C   0  0  0  0  0  0
  -21.8835   -3.8142   23.4344 C   0  0  0  0  0  0
  -21.9185   -4.6958   22.3394 C   0  0  0  0  0  0
  -22.7849  -13.5238   21.1849 C   0  0  0  0  0  0
  -22.1668   -4.2136   21.0979 F   0  0  0  0  0  0
  -21.5622   -3.4534   25.7747 F   0  0  0  0  0  0
  -30.0075  -13.4693   20.4259 N   0  0  0  0  0  0
  -26.2987  -12.9327   20.3342 N   0  0  0  0  0  0
  -25.9305  -11.6501   20.5794 N   0  0  0  0  0  0
  -22.0477  -12.8229   22.0391 N   0  0  0  0  0  0
  -25.4253  -15.1899   20.4124 N   0  0  0  0  0  0
  -31.7930  -14.8420   20.1537 O   0  0  0  0  0  0
  -21.6635   -6.8892   21.4249 O   0  0  0  0  0  0
  -22.3546  -14.5562   20.6681 O   0  0  0  0  0  0
  -24.6217  -31.8658   23.2055 C   0  0  0  0  0  0
  -25.9088  -32.4799   23.8397 C   0  0  1  0  0  0
  -27.2339  -27.3197   20.1292 C   0  0  0  0  0  0
  -25.5920  -33.8612   24.2315 N   0  0  0  0  0  0
  -23.4162  -30.4878   21.5450 C   0  0  2  0  0  0
  -24.8752  -28.9572   20.1030 C   0  0  0  0  0  0
  -22.7452  -29.4653   22.4916 C   0  0  0  0  0  0
  -18.0272  -28.1403   22.8487 C   0  0  0  0  0  0
  -24.1486  -36.7274   23.2635 C   0  0  0  0  0  0
  -25.9568  -30.7960   21.3830 C   0  0  0  0  0  0
  -26.0375  -29.4224   20.7286 C   0  0  0  0  0  0
  -27.2133  -28.6120   20.7461 C   0  0  0  0  0  0
  -26.0579  -26.9388   19.4345 C   0  0  0  0  0  0
  -24.8916  -27.7224   19.4438 C   0  0  0  0  0  0
  -23.6348  -29.8261   20.1593 C   0  0  0  0  0  0
  -25.4103  -36.3085   24.0331 C   0  0  1  0  0  0
  -20.5876  -28.3707   23.1292 C   0  0  2  0  0  0
  -20.6757  -26.9419   22.5441 C   0  0  0  0  0  0
  -19.5750  -26.6390   21.5228 C   0  0  0  0  0  0
  -18.1907  -26.7957   22.1607 C   0  0  0  0  0  0
  -19.1524  -28.8863   23.2891 C   0  0  0  0  0  0
  -18.9462  -30.1462   23.8913 C   0  0  0  0  0  0
  -17.6461  -30.6604   24.0565 C   0  0  0  0  0  0
  -25.9053  -34.9473   23.5117 C   0  0  0  0  0  0
  -16.5344  -29.9101   23.6331 C   0  0  0  0  0  0
  -16.7263  -28.6516   23.0357 C   0  0  0  0  0  0
  -26.4482  -31.6585   25.0745 C   0  0  0  0  0  0
  -25.3708  -31.3771   26.1475 C   0  0  0  0  0  0
  -27.0283  -30.2977   24.6220 C   0  0  0  0  0  0
  -27.6068  -32.4303   25.7494 C   0  0  0  0  0  0
  -27.5595  -37.1756   24.8429 C   0  0  0  0  0  0
  -21.4165  -29.3062   22.3665 N   0  0  0  0  0  0
  -26.4259  -37.3791   23.9439 N   0  0  0  0  0  0
  -24.6818  -31.0672   22.1005 N   0  0  0  0  0  0
  -23.4193  -28.8198   23.2983 O   0  0  0  0  0  0
  -28.3421  -26.4506   20.2480 O   0  0  0  0  0  0
  -26.5619  -34.8928   22.4681 O   0  0  0  0  0  0
  -23.5378  -32.1456   23.7370 O   0  0  0  0  0  0
  -30.5129  -19.4573   21.7754 C   0  0  0  0  0  0
  -30.5838  -18.0209   21.7712 C   0  0  0  0  0  0
  -29.2568  -19.3873   19.7528 C   0  0  0  0  0  0
  -30.8457  -22.4926   20.7984 C   0  0  0  0  0  0
  -29.2861  -17.9611   19.7509 C   0  0  0  0  0  0
  -29.0777  -23.8572   20.3054 C   0  0  0  0  0  0
  -29.8159  -20.1901   20.7727 C   0  0  0  0  0  0
  -29.9657  -17.2181   20.7677 C   0  0  0  0  0  0
  -30.4821  -23.7962   20.5522 C   0  0  0  0  0  0
  -28.6283  -22.5513   20.5469 C   0  0  0  0  0  0
  -27.2372  -22.0510   20.5749 C   0  0  0  0  0  0
  -26.1649  -22.8735   21.2831 C   0  0  0  0  0  0
  -29.4990  -18.5911   16.6798 C   0  0  0  0  0  0
  -30.5056  -16.4202   17.3803 C   0  0  0  0  0  0
  -28.2316  -16.4699   16.3071 C   0  0  0  0  0  0
  -28.4848  -17.2838   18.6511 C   0  0  0  0  0  0
  -28.2716  -25.0716   19.6995 C   0  0  0  0  0  0
  -29.1853  -17.1997   17.2689 C   0  0  0  0  0  0
  -29.7356  -21.6618   20.7155 N   0  0  0  0  0  0
  -29.8281  -15.7537   20.8982 N   0  0  0  0  0  0
  -26.8936  -20.9605   20.1194 O   0  0  0  0  0  0
  -31.3357  -24.8588   20.4823 O   0  0  0  0  0  0
  -31.4810  -12.5795   19.1454 H   0  0  0  0  0  0
  -30.4167  -11.4519   19.9357 H   0  0  0  0  0  0
  -29.7804  -11.6917   17.5288 H   0  0  0  0  0  0
  -29.6319  -13.4135   17.6953 H   0  0  0  0  0  0
  -27.8789  -11.2698   18.9016 H   0  0  0  0  0  0
  -27.3799  -12.5297   17.8054 H   0  0  0  0  0  0
  -27.6571  -14.2332   19.4980 H   0  0  0  0  0  0
  -28.7283  -12.0985   21.3978 H   0  0  0  0  0  0
  -28.4263  -13.7539   21.8279 H   0  0  0  0  0  0
  -25.2780   -9.5657   22.4753 H   0  0  0  0  0  0
  -23.9983   -7.4637   22.7483 H   0  0  0  0  0  0
  -21.0834   -8.8780   19.8965 H   0  0  0  0  0  0
  -22.3709  -10.9671   19.6164 H   0  0  0  0  0  0
  -21.2018   -7.6155   23.9710 H   0  0  0  0  0  0
  -21.1474   -6.0529   25.9082 H   0  0  0  0  0  0
  -22.0605   -2.7594   23.2856 H   0  0  0  0  0  0
  -22.4091  -11.9889   22.4789 H   0  0  0  0  0  0
  -21.1107  -13.1277   22.2607 H   0  0  0  0  0  0
  -24.6539  -15.8383   20.5299 H   0  0  0  0  0  0
  -26.2702  -15.6374   20.0882 H   0  0  0  0  0  0
  -26.7147  -32.5549   23.1162 H   0  0  0  0  0  0
  -25.0014  -33.9792   25.0425 H   0  0  0  0  0  0
  -22.7054  -31.3048   21.4028 H   0  0  0  0  0  0
  -23.3785  -35.9559   23.3216 H   0  0  0  0  0  0
  -24.3565  -36.8987   22.2054 H   0  0  0  0  0  0
  -23.7192  -37.6425   23.6724 H   0  0  0  0  0  0
  -26.0861  -31.5671   20.6216 H   0  0  0  0  0  0
  -26.8354  -30.8504   22.0129 H   0  0  0  0  0  0
  -28.0945  -28.9588   21.2692 H   0  0  0  0  0  0
  -25.9957  -26.0289   18.8599 H   0  0  0  0  0  0
  -24.0130  -27.3726   18.9207 H   0  0  0  0  0  0
  -23.7293  -30.6059   19.4014 H   0  0  0  0  0  0
  -22.7610  -29.2383   19.8690 H   0  0  0  0  0  0
  -25.1263  -36.1900   25.0807 H   0  0  0  0  0  0
  -20.9961  -28.3315   24.1426 H   0  0  0  0  0  0
  -20.5612  -26.2331   23.3637 H   0  0  0  0  0  0
  -21.6630  -26.7430   22.1277 H   0  0  0  0  0  0
  -19.6894  -25.6300   21.1256 H   0  0  0  0  0  0
  -19.6703  -27.3194   20.6744 H   0  0  0  0  0  0
  -17.4193  -26.6756   21.3975 H   0  0  0  0  0  0
  -18.0249  -26.0089   22.8975 H   0  0  0  0  0  0
  -19.7939  -30.7265   24.2299 H   0  0  0  0  0  0
  -17.5025  -31.6293   24.5173 H   0  0  0  0  0  0
  -15.5348  -30.3014   23.7659 H   0  0  0  0  0  0
  -15.8665  -28.0838   22.7077 H   0  0  0  0  0  0
  -24.5933  -30.7039   25.7845 H   0  0  0  0  0  0
  -24.8832  -32.2943   26.4780 H   0  0  0  0  0  0
  -25.8030  -30.9074   27.0321 H   0  0  0  0  0  0
  -26.2848  -29.6744   24.1227 H   0  0  0  0  0  0
  -27.3903  -29.7225   25.4755 H   0  0  0  0  0  0
  -27.8773  -30.4185   23.9487 H   0  0  0  0  0  0
  -27.2719  -33.3652   26.2008 H   0  0  0  0  0  0
  -28.3908  -32.6769   25.0321 H   0  0  0  0  0  0
  -28.0692  -31.8449   26.5453 H   0  0  0  0  0  0
  -28.2522  -38.0146   24.7617 H   0  0  0  0  0  0
  -28.1189  -36.2688   24.6061 H   0  0  0  0  0  0
  -27.2346  -37.1170   25.8836 H   0  0  0  0  0  0
  -20.9298  -29.8810   21.6926 H   0  0  0  0  0  0
  -26.0133  -38.2831   24.1577 H   0  0  0  0  0  0
  -30.9967  -19.9998   22.5739 H   0  0  0  0  0  0
  -31.0954  -17.5354   22.5896 H   0  0  0  0  0  0
  -28.7545  -19.8901   18.9432 H   0  0  0  0  0  0
  -31.8218  -22.0600   20.9768 H   0  0  0  0  0  0
  -26.5141  -23.2754   22.2340 H   0  0  0  0  0  0
  -25.2980  -22.2419   21.4762 H   0  0  0  0  0  0
  -25.8102  -23.6924   20.6649 H   0  0  0  0  0  0
  -29.8910  -18.5133   15.6660 H   0  0  0  0  0  0
  -30.2551  -19.1182   17.2636 H   0  0  0  0  0  0
  -28.6092  -19.2194   16.6396 H   0  0  0  0  0  0
  -30.9850  -16.2930   16.4096 H   0  0  0  0  0  0
  -30.3391  -15.4312   17.7925 H   0  0  0  0  0  0
  -31.2170  -16.9255   18.0346 H   0  0  0  0  0  0
  -28.6764  -16.3446   15.3200 H   0  0  0  0  0  0
  -27.3038  -17.0291   16.1804 H   0  0  0  0  0  0
  -27.9687  -15.4795   16.6811 H   0  0  0  0  0  0
  -27.5470  -17.8354   18.5514 H   0  0  0  0  0  0
  -28.1821  -16.2932   18.9765 H   0  0  0  0  0  0
  -27.2631  -24.7016   19.5933 H   0  0  0  0  0  0
  -28.6302  -25.1649   18.6733 H   0  0  0  0  0  0
  -28.8942  -15.4538   21.1301 H   0  0  0  0  0  0
  -32.2522  -24.6378   20.6154 H   0  0  0  0  0  0
  1 25  1  0  0  0
  1 30  2  0  0  0
  1 90  1  0  0  0
  2  3  1  0  0  0
  2 25  1  0  0  0
  2 93  1  0  0  0
  2 94  1  0  0  0
  3  4  1  0  0  0
  3 95  1  0  0  0
  3 96  1  0  0  0
  4  5  1  0  0  0
  4 97  1  0  0  0
  4 98  1  0  0  0
  5  6  1  0  0  0
  5 26  1  0  0  0
  5 99  1  0  0  0
  6 25  1  0  0  0
  6100  1  0  0  0
  6101  1  0  0  0
  7  8  2  0  0  0
  7 26  1  0  0  0
  7 29  1  0  0  0
  8  9  1  0  0  0
  8 22  1  0  0  0
  9 10  1  0  0  0
  9 27  2  0  0  0
 10 11  2  0  0  0
 10 15  1  0  0  0
 11 12  1  0  0  0
 11102  1  0  0  0
 12 13  2  0  0  0
 12103  1  0  0  0
 13 14  1  0  0  0
 13 31  1  0  0  0
 14 15  2  0  0  0
 14104  1  0  0  0
 15105  1  0  0  0
 16 17  2  0  0  0
 16 21  1  0  0  0
 16 31  1  0  0  0
 17 18  1  0  0  0
 17106  1  0  0  0
 18 19  2  0  0  0
 18107  1  0  0  0
 19 20  1  0  0  0
 19 24  1  0  0  0
 20 21  2  0  0  0
 20108  1  0  0  0
 21 23  1  0  0  0
 22 28  1  0  0  0
 22 32  2  0  0  0
 26 27  1  0  0  0
 28109  1  0  0  0
 28110  1  0  0  0
 29111  1  0  0  0
 29112  1  0  0  0
 33 34  1  0  0  0
 33 66  1  0  0  0
 33 70  2  0  0  0
 34 36  1  0  0  0
 34 59  1  0  0  0
 34113  1  0  0  0
 35 44  2  0  0  0
 35 45  1  0  0  0
 35 68  1  0  0  0
 36 56  1  0  0  0
 36114  1  0  0  0
 37 39  1  0  0  0
 37 47  1  0  0  0
 37 66  1  0  0  0
 37115  1  0  0  0
 38 43  2  0  0  0
 38 46  1  0  0  0
 38 47  1  0  0  0
 39 64  1  0  0  0
 39 67  2  0  0  0
 40 52  1  0  0  0
 40 53  2  0  0  0
 40 58  1  0  0  0
 41116  1  0  0  0
 41117  1  0  0  0
 41118  1  0  0  0
 41 48  1  0  0  0
 42 43  1  0  0  0
 42 66  1  0  0  0
 42119  1  0  0  0
 42120  1  0  0  0
 43 44  1  0  0  0
 44121  1  0  0  0
 45 46  2  0  0  0
 45122  1  0  0  0
 46123  1  0  0  0
 47124  1  0  0  0
 47125  1  0  0  0
 48 56  1  0  0  0
 48 65  1  0  0  0
 48126  1  0  0  0
 49 50  1  0  0  0
 49 53  1  0  0  0
 49 64  1  0  0  0
 49127  1  0  0  0
 50 51  1  0  0  0
 50128  1  0  0  0
 50129  1  0  0  0
 51 52  1  0  0  0
 51130  1  0  0  0
 51131  1  0  0  0
 52132  1  0  0  0
 52133  1  0  0  0
 53 54  1  0  0  0
 54 55  2  0  0  0
 54134  1  0  0  0
 55 57  1  0  0  0
 55135  1  0  0  0
 56 69  2  0  0  0
 57 58  2  0  0  0
 57136  1  0  0  0
 58137  1  0  0  0
 59 60  1  0  0  0
 59 61  1  0  0  0
 59 62  1  0  0  0
 60138  1  0  0  0
 60139  1  0  0  0
 60140  1  0  0  0
 61141  1  0  0  0
 61142  1  0  0  0
 61143  1  0  0  0
 62144  1  0  0  0
 62145  1  0  0  0
 62146  1  0  0  0
 63 65  1  0  0  0
 63147  1  0  0  0
 63148  1  0  0  0
 63149  1  0  0  0
 64150  1  0  0  0
 65151  1  0  0  0
 68 87  1  0  0  0
 71 72  2  0  0  0
 71 77  1  0  0  0
 71152  1  0  0  0
 72 78  1  0  0  0
 72153  1  0  0  0
 73 75  1  0  0  0
 73 77  2  0  0  0
 73154  1  0  0  0
 74 79  2  0  0  0
 74 89  1  0  0  0
 74155  1  0  0  0
 75 78  2  0  0  0
 75 86  1  0  0  0
 76 79  1  0  0  0
 76 80  2  0  0  0
 76 87  1  0  0  0
 77 89  1  0  0  0
 78 90  1  0  0  0
 79 92  1  0  0  0
 80 81  1  0  0  0
 80 89  1  0  0  0
 81 82  1  0  0  0
 81 91  2  0  0  0
 82156  1  0  0  0
 82157  1  0  0  0
 82158  1  0  0  0
 83159  1  0  0  0
 83160  1  0  0  0
 83161  1  0  0  0
 83 88  1  0  0  0
 84 88  1  0  0  0
 84162  1  0  0  0
 84163  1  0  0  0
 84164  1  0  0  0
 85 88  1  0  0  0
 85165  1  0  0  0
 85166  1  0  0  0
 85167  1  0  0  0
 86 88  1  0  0  0
 86168  1  0  0  0
 86169  1  0  0  0
 87170  1  0  0  0
 87171  1  0  0  0
 90172  1  0  0  0
 92173  1  0  0  0
M  ISO  4   1 100  68 101  87 101  90 100
M  END
> <chiral flag>
0

> <version>
0

> <s_m_source_file>
/data/baiqing/PycharmProjects/Reinvent-master-3.2/result/LINK_invent/BTK/process_docking_weight1_custom_product_contain_oxygen_bond_distance_aromatic_linkinvent_7_9_3/rearranged_h_0157.sdf

> <i_m_source_file_index>
71

> <r_mmod_Potential_Energy-OPLS-2005>
108.667304992676

> <r_mmod_Stretch_Energy-OPLS-2005>
94.3980255126953

> <r_mmod_Bend_Energy-OPLS-2005>
159.646942138672

> <r_mmod_Torsional_Energy-OPLS-2005>
306.117919921875

> <r_mmod_Improper_Torsional_Energy-OPLS-2005>
7.13756275177002

> <r_mmod_Van_der_Waal_Energy-OPLS-2005>
139.348648071289

> <r_mmod_Electrostatic_Energy-OPLS-2005>
-429.175811767578

> <r_mmod_Solvation_Energy-OPLS-2005>
-232.458831787109

> <b_mmod_Minimization_Converged-OPLS-2005>
0

> <r_mmod_RMS_Derivative-OPLS-2005>
4.91478490829468

$$$$
71
                    3D
 Structure written by MMmdl.
152161  0  0  1  0            999 V2000
  -30.5178  -14.9300   20.4075 C   0  0  0  0  0  0
  -30.4396  -12.5683   19.4978 C   0  0  0  0  0  0
  -29.5184  -12.5267   18.2563 C   0  0  0  0  0  0
  -28.0504  -12.3178   18.6731 C   0  0  0  0  0  0
  -27.6315  -13.2464   19.8418 C   0  0  2  0  0  0
  -28.6711  -13.2540   20.9823 C   0  0  0  0  0  0
  -25.2475  -13.8211   20.5743 C   0  0  0  0  0  0
  -24.1777  -13.0443   20.9216 C   0  0  0  0  0  0
  -24.6392  -11.6913   20.8747 C   0  0  0  0  0  0
  -23.9053  -10.4313   21.0415 C   0  0  0  0  0  0
  -24.3597   -9.4223   21.9175 C   0  0  0  0  0  0
  -23.6276   -8.2249   22.0739 C   0  0  0  0  0  0
  -22.4274   -8.0284   21.3507 C   0  0  0  0  0  0
  -21.9903   -9.0267   20.4619 C   0  0  0  0  0  0
  -22.7226  -10.2157   20.3052 C   0  0  0  0  0  0
  -21.6866   -6.0740   22.5278 C   0  0  0  0  0  0
  -21.4012   -6.5633   23.8209 C   0  0  0  0  0  0
  -21.3661   -5.6779   24.9165 C   0  0  0  0  0  0
  -21.6065   -4.3043   24.7223 C   0  0  0  0  0  0
  -21.8808   -3.8132   23.4340 C   0  0  0  0  0  0
  -21.9189   -4.6957   22.3398 C   0  0  0  0  0  0
  -22.7799  -13.5225   21.1893 C   0  0  0  0  0  0
  -22.1671   -4.2140   21.0972 F   0  0  0  0  0  0
  -21.5631   -3.4532   25.7732 F   0  0  0  0  0  0
  -29.9550  -13.6570   20.3954 N   0  0  0  0  0  0
  -26.2886  -12.9443   20.3240 N   0  0  0  0  0  0
  -25.9320  -11.6574   20.5709 N   0  0  0  0  0  0
  -22.0436  -12.8205   22.0426 N   0  0  0  0  0  0
  -25.4198  -15.1936   20.4266 N   0  0  0  0  0  0
  -31.7043  -15.0310   20.0729 O   0  0  0  0  0  0
  -21.6646   -6.8883   21.4226 O   0  0  0  0  0  0
  -22.3491  -14.5537   20.6752 O   0  0  0  0  0  0
  -24.6392  -31.8459   23.1825 C   0  0  0  0  0  0
  -25.9174  -32.4691   23.8228 C   0  0  1  0  0  0
  -27.2346  -27.1550   20.1645 C   0  0  0  0  0  0
  -25.5940  -33.8491   24.2184 N   0  0  0  0  0  0
  -23.4427  -30.4526   21.5299 C   0  0  2  0  0  0
  -24.8920  -28.8620   20.1180 C   0  0  0  0  0  0
  -22.7533  -29.4510   22.4878 C   0  0  0  0  0  0
  -18.0288  -28.1356   22.8476 C   0  0  0  0  0  0
  -24.1491  -36.7263   23.2640 C   0  0  0  0  0  0
  -25.9902  -30.7251   21.3729 C   0  0  0  0  0  0
  -26.0613  -29.3289   20.7304 C   0  0  0  0  0  0
  -27.2280  -28.4888   20.7292 C   0  0  0  0  0  0
  -26.0409  -26.7644   19.5298 C   0  0  0  0  0  0
  -24.8911  -27.5939   19.5043 C   0  0  0  0  0  0
  -23.6681  -29.7649   20.1533 C   0  0  0  0  0  0
  -25.4120  -36.3022   24.0314 C   0  0  1  0  0  0
  -20.5901  -28.3693   23.1264 C   0  0  2  0  0  0
  -20.6798  -26.9391   22.5430 C   0  0  0  0  0  0
  -19.5755  -26.6273   21.5276 C   0  0  0  0  0  0
  -18.1929  -26.7872   22.1660 C   0  0  0  0  0  0
  -19.1553  -28.8840   23.2846 C   0  0  0  0  0  0
  -18.9473  -30.1447   23.8839 C   0  0  0  0  0  0
  -17.6468  -30.6553   24.0521 C   0  0  0  0  0  0
  -25.9073  -34.9398   23.5057 C   0  0  0  0  0  0
  -16.5351  -29.9048   23.6290 C   0  0  0  0  0  0
  -16.7274  -28.6455   23.0347 C   0  0  0  0  0  0
  -26.4515  -31.6541   25.0661 C   0  0  0  0  0  0
  -25.3720  -31.3724   26.1373 C   0  0  0  0  0  0
  -27.0383  -30.2941   24.6209 C   0  0  0  0  0  0
  -27.6054  -32.4302   25.7455 C   0  0  0  0  0  0
  -27.5570  -37.1792   24.8476 C   0  0  0  0  0  0
  -21.4231  -29.3040   22.3663 N   0  0  0  0  0  0
  -26.4292  -37.3728   23.9404 N   0  0  0  0  0  0
  -24.7108  -31.0300   22.0849 N   0  0  0  0  0  0
  -23.4196  -28.8089   23.3031 O   0  0  0  0  0  0
  -28.3948  -26.3194   20.1952 O   0  0  0  0  0  0
  -26.5666  -34.8896   22.4634 O   0  0  0  0  0  0
  -23.5512  -32.1350   23.7044 O   0  0  0  0  0  0
  -29.0567  -18.5874   20.9479 C   0  0  0  0  0  0
  -29.2671  -19.9766   20.4055 C   0  0  0  0  0  0
  -29.7593  -17.4797   20.3808 C   0  0  0  0  0  0
  -30.1391  -19.8912   19.3429 C   0  0  0  0  0  0
  -28.5746  -23.9228   21.4612 C   0  0  0  0  0  0
  -28.7617  -21.3213   21.0806 C   0  0  0  0  0  0
  -28.1249  -23.4151   19.5378 C   0  0  0  0  0  0
  -28.6900  -24.7835   20.1497 C   0  0  1  0  0  0
  -28.6859  -22.6865   20.7284 N   0  0  0  0  0  0
  -30.6168  -20.9123   18.5247 N   0  0  0  0  0  0
  -29.7063  -16.0669   20.6737 N   0  0  0  0  0  0
  -28.4555  -21.0994   22.3747 N   0  3  0  0  0  0
  -28.4139  -24.1457   22.6503 O   0  0  0  0  0  0
  -30.7050  -18.2111   19.0774 S   0  0  0  0  0  0
  -31.4731  -12.7242   19.1874 H   0  0  0  0  0  0
  -30.4270  -11.6096   20.0198 H   0  0  0  0  0  0
  -29.8288  -11.7326   17.5765 H   0  0  0  0  0  0
  -29.6086  -13.4599   17.6986 H   0  0  0  0  0  0
  -27.9339  -11.2766   18.9746 H   0  0  0  0  0  0
  -27.3934  -12.4557   17.8144 H   0  0  0  0  0  0
  -27.5992  -14.2534   19.4201 H   0  0  0  0  0  0
  -28.7471  -12.2736   21.4532 H   0  0  0  0  0  0
  -28.3685  -13.9506   21.7661 H   0  0  0  0  0  0
  -25.2743   -9.5723   22.4742 H   0  0  0  0  0  0
  -23.9992   -7.4666   22.7474 H   0  0  0  0  0  0
  -21.0825   -8.8788   19.8946 H   0  0  0  0  0  0
  -22.3656  -10.9692   19.6163 H   0  0  0  0  0  0
  -21.2000   -7.6135   23.9705 H   0  0  0  0  0  0
  -21.1488   -6.0511   25.9067 H   0  0  0  0  0  0
  -22.0580   -2.7596   23.2843 H   0  0  0  0  0  0
  -22.4068  -11.9887   22.4830 H   0  0  0  0  0  0
  -21.1054  -13.1227   22.2633 H   0  0  0  0  0  0
  -24.6629  -15.8530   20.5712 H   0  0  0  0  0  0
  -26.2750  -15.6334   20.1105 H   0  0  0  0  0  0
  -26.7233  -32.5314   23.0947 H   0  0  0  0  0  0
  -25.0056  -33.9608   25.0311 H   0  0  0  0  0  0
  -22.7425  -31.2739   21.3654 H   0  0  0  0  0  0
  -23.3753  -35.9600   23.3319 H   0  0  0  0  0  0
  -24.3578  -36.8887   22.2056 H   0  0  0  0  0  0
  -23.7267  -37.6469   23.6677 H   0  0  0  0  0  0
  -26.1296  -31.4719   20.5892 H   0  0  0  0  0  0
  -26.8659  -30.7876   22.0075 H   0  0  0  0  0  0
  -28.1316  -28.8451   21.2030 H   0  0  0  0  0  0
  -25.9886  -25.7946   19.0544 H   0  0  0  0  0  0
  -23.9962  -27.2363   19.0142 H   0  0  0  0  0  0
  -23.8056  -30.5324   19.3905 H   0  0  0  0  0  0
  -22.7856  -29.2025   19.8448 H   0  0  0  0  0  0
  -25.1299  -36.1843   25.0808 H   0  0  0  0  0  0
  -20.9971  -28.3303   24.1389 H   0  0  0  0  0  0
  -20.5774  -26.2306   23.3658 H   0  0  0  0  0  0
  -21.6646  -26.7463   22.1174 H   0  0  0  0  0  0
  -19.6928  -25.6116   21.1457 H   0  0  0  0  0  0
  -19.6748  -27.2951   20.6704 H   0  0  0  0  0  0
  -17.4186  -26.6567   21.4082 H   0  0  0  0  0  0
  -18.0318  -26.0106   22.9132 H   0  0  0  0  0  0
  -19.7956  -30.7292   24.2168 H   0  0  0  0  0  0
  -17.5011  -31.6241   24.5089 H   0  0  0  0  0  0
  -15.5340  -30.2934   23.7609 H   0  0  0  0  0  0
  -15.8690  -28.0763   22.7076 H   0  0  0  0  0  0
  -24.5895  -30.7063   25.7709 H   0  0  0  0  0  0
  -24.8911  -32.2903   26.4760 H   0  0  0  0  0  0
  -25.8008  -30.8934   27.0177 H   0  0  0  0  0  0
  -26.2976  -29.6659   24.1238 H   0  0  0  0  0  0
  -27.4053  -29.7222   25.4750 H   0  0  0  0  0  0
  -27.8849  -30.4211   23.9457 H   0  0  0  0  0  0
  -27.2633  -33.3605   26.1992 H   0  0  0  0  0  0
  -28.3861  -32.6856   25.0280 H   0  0  0  0  0  0
  -28.0714  -31.8464   26.5401 H   0  0  0  0  0  0
  -28.2588  -38.0086   24.7458 H   0  0  0  0  0  0
  -28.1052  -36.2599   24.6349 H   0  0  0  0  0  0
  -27.2286  -37.1496   25.8884 H   0  0  0  0  0  0
  -20.9464  -29.8844   21.6895 H   0  0  0  0  0  0
  -26.0163  -38.2798   24.1389 H   0  0  0  0  0  0
  -28.3916  -18.4534   21.7878 H   0  0  0  0  0  0
  -28.5806  -23.1232   18.5926 H   0  0  0  0  0  0
  -27.0368  -23.3612   19.4842 H   0  0  0  0  0  0
  -29.7342  -24.8079   19.8347 H   0  0  0  0  0  0
  -29.9567  -21.1742   17.7972 H   0  0  0  0  0  0
  -31.4723  -20.6554   18.0408 H   0  0  0  0  0  0
  -28.8353  -15.7926   21.1019 H   0  0  0  0  0  0
  -28.6395  -20.1961   22.7804 H   0  0  0  0  0  0
  -28.1750  -21.8412   22.9987 H   0  0  0  0  0  0
  1 25  1  0  0  0
  1 30  2  0  0  0
  1 81  1  0  0  0
  2  3  1  0  0  0
  2 25  1  0  0  0
  2 85  1  0  0  0
  2 86  1  0  0  0
  3  4  1  0  0  0
  3 87  1  0  0  0
  3 88  1  0  0  0
  4  5  1  0  0  0
  4 89  1  0  0  0
  4 90  1  0  0  0
  5  6  1  0  0  0
  5 26  1  0  0  0
  5 91  1  0  0  0
  6 25  1  0  0  0
  6 92  1  0  0  0
  6 93  1  0  0  0
  7  8  2  0  0  0
  7 26  1  0  0  0
  7 29  1  0  0  0
  8  9  1  0  0  0
  8 22  1  0  0  0
  9 10  1  0  0  0
  9 27  2  0  0  0
 10 11  2  0  0  0
 10 15  1  0  0  0
 11 12  1  0  0  0
 11 94  1  0  0  0
 12 13  2  0  0  0
 12 95  1  0  0  0
 13 14  1  0  0  0
 13 31  1  0  0  0
 14 15  2  0  0  0
 14 96  1  0  0  0
 15 97  1  0  0  0
 16 17  2  0  0  0
 16 21  1  0  0  0
 16 31  1  0  0  0
 17 18  1  0  0  0
 17 98  1  0  0  0
 18 19  2  0  0  0
 18 99  1  0  0  0
 19 20  1  0  0  0
 19 24  1  0  0  0
 20 21  2  0  0  0
 20100  1  0  0  0
 21 23  1  0  0  0
 22 28  1  0  0  0
 22 32  2  0  0  0
 26 27  1  0  0  0
 28101  1  0  0  0
 28102  1  0  0  0
 29103  1  0  0  0
 29104  1  0  0  0
 33 34  1  0  0  0
 33 66  1  0  0  0
 33 70  2  0  0  0
 34 36  1  0  0  0
 34 59  1  0  0  0
 34105  1  0  0  0
 35 44  2  0  0  0
 35 45  1  0  0  0
 35 68  1  0  0  0
 36 56  1  0  0  0
 36106  1  0  0  0
 37 39  1  0  0  0
 37 47  1  0  0  0
 37 66  1  0  0  0
 37107  1  0  0  0
 38 43  2  0  0  0
 38 46  1  0  0  0
 38 47  1  0  0  0
 39 64  1  0  0  0
 39 67  2  0  0  0
 40 52  1  0  0  0
 40 53  2  0  0  0
 40 58  1  0  0  0
 41108  1  0  0  0
 41109  1  0  0  0
 41110  1  0  0  0
 41 48  1  0  0  0
 42 43  1  0  0  0
 42 66  1  0  0  0
 42111  1  0  0  0
 42112  1  0  0  0
 43 44  1  0  0  0
 44113  1  0  0  0
 45 46  2  0  0  0
 45114  1  0  0  0
 46115  1  0  0  0
 47116  1  0  0  0
 47117  1  0  0  0
 48 56  1  0  0  0
 48 65  1  0  0  0
 48118  1  0  0  0
 49 50  1  0  0  0
 49 53  1  0  0  0
 49 64  1  0  0  0
 49119  1  0  0  0
 50 51  1  0  0  0
 50120  1  0  0  0
 50121  1  0  0  0
 51 52  1  0  0  0
 51122  1  0  0  0
 51123  1  0  0  0
 52124  1  0  0  0
 52125  1  0  0  0
 53 54  1  0  0  0
 54 55  2  0  0  0
 54126  1  0  0  0
 55 57  1  0  0  0
 55127  1  0  0  0
 56 69  2  0  0  0
 57 58  2  0  0  0
 57128  1  0  0  0
 58129  1  0  0  0
 59 60  1  0  0  0
 59 61  1  0  0  0
 59 62  1  0  0  0
 60130  1  0  0  0
 60131  1  0  0  0
 60132  1  0  0  0
 61133  1  0  0  0
 61134  1  0  0  0
 61135  1  0  0  0
 62136  1  0  0  0
 62137  1  0  0  0
 62138  1  0  0  0
 63 65  1  0  0  0
 63139  1  0  0  0
 63140  1  0  0  0
 63141  1  0  0  0
 64142  1  0  0  0
 65143  1  0  0  0
 68 78  1  0  0  0
 71 72  1  0  0  0
 71 73  2  0  0  0
 71144  1  0  0  0
 72 74  2  0  0  0
 72 76  1  0  0  0
 73 81  1  0  0  0
 73 84  1  0  0  0
 74 80  1  0  0  0
 74 84  1  0  0  0
 75 78  1  0  0  0
 75 79  1  0  0  0
 75 83  2  0  0  0
 76 79  1  0  0  0
 76 82  2  0  0  0
 77 78  1  0  0  0
 77 79  1  0  0  0
 77145  1  0  0  0
 77146  1  0  0  0
 78147  1  0  0  0
 80148  1  0  0  0
 80149  1  0  0  0
 81150  1  0  0  0
 82151  1  0  0  0
 82152  1  0  0  0
M  CHG  1  82   1
M  ISO  4   1 100  68 101  78 101  81 100
M  END
> <chiral flag>
0

> <version>
0

> <s_m_source_file>
/data/baiqing/PycharmProjects/Reinvent-master-3.2/result/LINK_invent/BTK/process_docking_weight1_custom_product_contain_oxygen_bond_distance_aromatic_linkinvent_7_9_3/rearranged_h_0157.sdf

> <i_m_source_file_index>
72

> <r_mmod_Potential_Energy-OPLS-2005>
422.393768310547

> <r_mmod_Stretch_Energy-OPLS-2005>
207.507537841797

> <r_mmod_Bend_Energy-OPLS-2005>
375.177764892578

> <r_mmod_Torsional_Energy-OPLS-2005>
245.103607177734

> <r_mmod_Improper_Torsional_Energy-OPLS-2005>
13.7659177780151

> <r_mmod_Van_der_Waal_Energy-OPLS-2005>
108.361259460449

> <r_mmod_Electrostatic_Energy-OPLS-2005>
-192.343292236328

> <r_mmod_Solvation_Energy-OPLS-2005>
-501.247283935547

> <b_mmod_Minimization_Converged-OPLS-2005>
0

> <r_mmod_RMS_Derivative-OPLS-2005>
4.48423480987549

$$$$
72
                    3D
 Structure written by MMmdl.
158167  0  0  1  0            999 V2000
  -30.6447  -14.6997   20.4631 C   0  0  0  0  0  0
  -30.4217  -12.4272   19.4674 C   0  0  0  0  0  0
  -29.5033  -12.4990   18.2296 C   0  0  0  0  0  0
  -28.0290  -12.3343   18.6452 C   0  0  0  0  0  0
  -27.6404  -13.2336   19.8501 C   0  0  2  0  0  0
  -28.6852  -13.1665   20.9841 C   0  0  0  0  0  0
  -25.2511  -13.8210   20.5714 C   0  0  0  0  0  0
  -24.1797  -13.0449   20.9202 C   0  0  0  0  0  0
  -24.6391  -11.6927   20.8745 C   0  0  0  0  0  0
  -23.9070  -10.4299   21.0404 C   0  0  0  0  0  0
  -24.3622   -9.4213   21.9182 C   0  0  0  0  0  0
  -23.6297   -8.2248   22.0753 C   0  0  0  0  0  0
  -22.4278   -8.0284   21.3544 C   0  0  0  0  0  0
  -21.9914   -9.0257   20.4646 C   0  0  0  0  0  0
  -22.7242  -10.2137   20.3055 C   0  0  0  0  0  0
  -21.6855   -6.0737   22.5279 C   0  0  0  0  0  0
  -21.4016   -6.5641   23.8212 C   0  0  0  0  0  0
  -21.3660   -5.6793   24.9174 C   0  0  0  0  0  0
  -21.6044   -4.3055   24.7224 C   0  0  0  0  0  0
  -21.8819   -3.8147   23.4346 C   0  0  0  0  0  0
  -21.9193   -4.6964   22.3402 C   0  0  0  0  0  0
  -22.7819  -13.5227   21.1864 C   0  0  0  0  0  0
  -22.1662   -4.2150   21.0979 F   0  0  0  0  0  0
  -21.5628   -3.4539   25.7737 F   0  0  0  0  0  0
  -29.9867  -13.4951   20.3944 N   0  0  0  0  0  0
  -26.2934  -12.9420   20.3297 N   0  0  0  0  0  0
  -25.9323  -11.6558   20.5758 N   0  0  0  0  0  0
  -22.0470  -12.8213   22.0421 N   0  0  0  0  0  0
  -25.4225  -15.1935   20.4169 N   0  0  0  0  0  0
  -31.8417  -14.7562   20.1616 O   0  0  0  0  0  0
  -21.6643   -6.8880   21.4240 O   0  0  0  0  0  0
  -22.3498  -14.5530   20.6712 O   0  0  0  0  0  0
  -24.6294  -31.8565   23.1995 C   0  0  0  0  0  0
  -25.9129  -32.4759   23.8333 C   0  0  1  0  0  0
  -27.2207  -27.2818   20.1117 C   0  0  0  0  0  0
  -25.5931  -33.8562   24.2259 N   0  0  0  0  0  0
  -23.4240  -30.4802   21.5429 C   0  0  2  0  0  0
  -24.8686  -28.9301   20.1083 C   0  0  0  0  0  0
  -22.7489  -29.4610   22.4919 C   0  0  0  0  0  0
  -18.0289  -28.1386   22.8485 C   0  0  0  0  0  0
  -24.1490  -36.7286   23.2640 C   0  0  0  0  0  0
  -25.9683  -30.7749   21.3757 C   0  0  0  0  0  0
  -26.0390  -29.3997   20.7155 C   0  0  0  0  0  0
  -27.2135  -28.5855   20.7102 C   0  0  0  0  0  0
  -26.0175  -26.8659   19.4964 C   0  0  0  0  0  0
  -24.8616  -27.6700   19.4920 C   0  0  0  0  0  0
  -23.6394  -29.8155   20.1579 C   0  0  0  0  0  0
  -25.4116  -36.3072   24.0326 C   0  0  1  0  0  0
  -20.5891  -28.3694   23.1275 C   0  0  2  0  0  0
  -20.6777  -26.9414   22.5409 C   0  0  0  0  0  0
  -19.5753  -26.6384   21.5212 C   0  0  0  0  0  0
  -18.1933  -26.7928   22.1624 C   0  0  0  0  0  0
  -19.1542  -28.8857   23.2875 C   0  0  0  0  0  0
  -18.9464  -30.1458   23.8893 C   0  0  0  0  0  0
  -17.6463  -30.6587   24.0563 C   0  0  0  0  0  0
  -25.9056  -34.9442   23.5095 C   0  0  0  0  0  0
  -16.5354  -29.9085   23.6331 C   0  0  0  0  0  0
  -16.7276  -28.6503   23.0352 C   0  0  0  0  0  0
  -26.4501  -31.6582   25.0720 C   0  0  0  0  0  0
  -25.3725  -31.3730   26.1441 C   0  0  0  0  0  0
  -27.0350  -30.3002   24.6201 C   0  0  0  0  0  0
  -27.6053  -32.4325   25.7494 C   0  0  0  0  0  0
  -27.5579  -37.1799   24.8465 C   0  0  0  0  0  0
  -21.4199  -29.3042   22.3664 N   0  0  0  0  0  0
  -26.4291  -37.3771   23.9408 N   0  0  0  0  0  0
  -24.6930  -31.0548   22.0959 N   0  0  0  0  0  0
  -23.4199  -28.8152   23.3012 O   0  0  0  0  0  0
  -28.3417  -26.4287   20.1914 O   0  0  0  0  0  0
  -26.5629  -34.8916   22.4664 O   0  0  0  0  0  0
  -23.5450  -32.1380   23.7305 O   0  0  0  0  0  0
  -29.8368  -19.1491   18.3310 C   0  0  0  0  0  0
  -28.9899  -20.3601   20.7067 C   0  0  0  0  0  0
  -29.6610  -18.3155   19.4554 C   0  0  0  0  0  0
  -29.2401  -18.9311   20.6499 C   0  0  0  0  0  0
  -29.5965  -20.5483   18.3712 C   0  0  0  0  0  0
  -29.1584  -21.2099   19.5563 C   0  0  0  0  0  0
  -28.5830  -23.7529   20.1827 C   0  0  0  0  0  0
  -29.0345  -17.9742   21.8259 C   0  0  0  0  0  0
  -29.9032  -16.7757   19.3259 C   0  0  0  0  0  0
  -29.9065  -16.6622   21.7902 C   0  0  0  0  0  0
  -29.8157  -21.3355   17.0863 C   0  0  0  0  0  0
  -28.4646  -25.1560   19.4182 C   0  0  0  0  0  0
  -29.9028  -15.8762   20.5293 N   0  0  0  0  0  0
  -28.9186  -22.6641   19.4095 N   0  0  0  0  0  0
  -28.3823  -23.6738   21.3976 O   0  0  0  0  0  0
  -31.4654  -12.5318   19.1660 H   0  0  0  0  0  0
  -30.3469  -11.4512   19.9496 H   0  0  0  0  0  0
  -29.7772  -11.7267   17.5096 H   0  0  0  0  0  0
  -29.6392  -13.4549   17.7210 H   0  0  0  0  0  0
  -27.8789  -11.2857   18.9047 H   0  0  0  0  0  0
  -27.3720  -12.5332   17.7977 H   0  0  0  0  0  0
  -27.6360  -14.2566   19.4730 H   0  0  0  0  0  0
  -28.7092  -12.1748   21.4380 H   0  0  0  0  0  0
  -28.4309  -13.8675   21.7808 H   0  0  0  0  0  0
  -25.2766   -9.5691   22.4757 H   0  0  0  0  0  0
  -24.0007   -7.4639   22.7472 H   0  0  0  0  0  0
  -21.0845   -8.8776   19.8952 H   0  0  0  0  0  0
  -22.3699  -10.9676   19.6165 H   0  0  0  0  0  0
  -21.2009   -7.6149   23.9716 H   0  0  0  0  0  0
  -21.1482   -6.0523   25.9077 H   0  0  0  0  0  0
  -22.0597   -2.7610   23.2845 H   0  0  0  0  0  0
  -22.4093  -11.9878   22.4810 H   0  0  0  0  0  0
  -21.1086  -13.1232   22.2629 H   0  0  0  0  0  0
  -24.6613  -15.8522   20.5395 H   0  0  0  0  0  0
  -26.2864  -15.6353   20.1284 H   0  0  0  0  0  0
  -26.7193  -32.5410   23.1073 H   0  0  0  0  0  0
  -25.0071  -33.9700   25.0399 H   0  0  0  0  0  0
  -22.7196  -31.3021   21.3992 H   0  0  0  0  0  0
  -23.3753  -35.9617   23.3300 H   0  0  0  0  0  0
  -24.3579  -36.8911   22.2054 H   0  0  0  0  0  0
  -23.7243  -37.6486   23.6666 H   0  0  0  0  0  0
  -26.1061  -31.5376   20.6080 H   0  0  0  0  0  0
  -26.8464  -30.8212   22.0082 H   0  0  0  0  0  0
  -28.1105  -28.9409   21.1979 H   0  0  0  0  0  0
  -25.9144  -25.8920   19.0464 H   0  0  0  0  0  0
  -23.9592  -27.2986   19.0259 H   0  0  0  0  0  0
  -23.7624  -30.5924   19.4025 H   0  0  0  0  0  0
  -22.7575  -29.2488   19.8539 H   0  0  0  0  0  0
  -25.1299  -36.1919   25.0818 H   0  0  0  0  0  0
  -20.9984  -28.3272   24.1395 H   0  0  0  0  0  0
  -20.5677  -26.2304   23.3612 H   0  0  0  0  0  0
  -21.6645  -26.7439   22.1204 H   0  0  0  0  0  0
  -19.6915  -25.6294   21.1244 H   0  0  0  0  0  0
  -19.6690  -27.3192   20.6740 H   0  0  0  0  0  0
  -17.4202  -26.6674   21.4028 H   0  0  0  0  0  0
  -18.0335  -26.0071   22.9022 H   0  0  0  0  0  0
  -19.7940  -30.7275   24.2261 H   0  0  0  0  0  0
  -17.5018  -31.6267   24.5166 H   0  0  0  0  0  0
  -15.5355  -30.2986   23.7657 H   0  0  0  0  0  0
  -15.8676  -28.0821   22.7068 H   0  0  0  0  0  0
  -24.5904  -30.7074   25.7769 H   0  0  0  0  0  0
  -24.8912  -32.2898   26.4854 H   0  0  0  0  0  0
  -25.8043  -30.8916   27.0224 H   0  0  0  0  0  0
  -26.2933  -29.6745   24.1221 H   0  0  0  0  0  0
  -27.4031  -29.7268   25.4719 H   0  0  0  0  0  0
  -27.8809  -30.4279   23.9442 H   0  0  0  0  0  0
  -27.2658  -33.3628   26.2061 H   0  0  0  0  0  0
  -28.3869  -32.6882   25.0327 H   0  0  0  0  0  0
  -28.0715  -31.8458   26.5420 H   0  0  0  0  0  0
  -28.2595  -38.0097   24.7511 H   0  0  0  0  0  0
  -28.1076  -36.2627   24.6292 H   0  0  0  0  0  0
  -27.2296  -37.1449   25.8868 H   0  0  0  0  0  0
  -20.9381  -29.8765   21.6872 H   0  0  0  0  0  0
  -26.0169  -38.2845   24.1408 H   0  0  0  0  0  0
  -30.1576  -18.6958   17.4029 H   0  0  0  0  0  0
  -28.6513  -20.7985   21.6353 H   0  0  0  0  0  0
  -27.9788  -17.7006   21.8450 H   0  0  0  0  0  0
  -29.2245  -18.5110   22.7563 H   0  0  0  0  0  0
  -30.8462  -16.6616   18.7875 H   0  0  0  0  0  0
  -29.1405  -16.3897   18.6483 H   0  0  0  0  0  0
  -29.6035  -16.0135   22.6135 H   0  0  0  0  0  0
  -30.9425  -16.9384   21.9956 H   0  0  0  0  0  0
  -30.1738  -20.6963   16.2787 H   0  0  0  0  0  0
  -30.5601  -22.1186   17.2342 H   0  0  0  0  0  0
  -28.8851  -21.7942   16.7504 H   0  0  0  0  0  0
  -27.7316  -25.0587   18.6217 H   0  0  0  0  0  0
  -29.4053  -25.2632   18.8776 H   0  0  0  0  0  0
  -29.0517  -22.9608   18.4533 H   0  0  0  0  0  0
  1 25  1  0  0  0
  1 30  2  0  0  0
  1 83  1  0  0  0
  2  3  1  0  0  0
  2 25  1  0  0  0
  2 86  1  0  0  0
  2 87  1  0  0  0
  3  4  1  0  0  0
  3 88  1  0  0  0
  3 89  1  0  0  0
  4  5  1  0  0  0
  4 90  1  0  0  0
  4 91  1  0  0  0
  5  6  1  0  0  0
  5 26  1  0  0  0
  5 92  1  0  0  0
  6 25  1  0  0  0
  6 93  1  0  0  0
  6 94  1  0  0  0
  7  8  2  0  0  0
  7 26  1  0  0  0
  7 29  1  0  0  0
  8  9  1  0  0  0
  8 22  1  0  0  0
  9 10  1  0  0  0
  9 27  2  0  0  0
 10 11  2  0  0  0
 10 15  1  0  0  0
 11 12  1  0  0  0
 11 95  1  0  0  0
 12 13  2  0  0  0
 12 96  1  0  0  0
 13 14  1  0  0  0
 13 31  1  0  0  0
 14 15  2  0  0  0
 14 97  1  0  0  0
 15 98  1  0  0  0
 16 17  2  0  0  0
 16 21  1  0  0  0
 16 31  1  0  0  0
 17 18  1  0  0  0
 17 99  1  0  0  0
 18 19  2  0  0  0
 18100  1  0  0  0
 19 20  1  0  0  0
 19 24  1  0  0  0
 20 21  2  0  0  0
 20101  1  0  0  0
 21 23  1  0  0  0
 22 28  1  0  0  0
 22 32  2  0  0  0
 26 27  1  0  0  0
 28102  1  0  0  0
 28103  1  0  0  0
 29104  1  0  0  0
 29105  1  0  0  0
 33 34  1  0  0  0
 33 66  1  0  0  0
 33 70  2  0  0  0
 34 36  1  0  0  0
 34 59  1  0  0  0
 34106  1  0  0  0
 35 44  2  0  0  0
 35 45  1  0  0  0
 35 68  1  0  0  0
 36 56  1  0  0  0
 36107  1  0  0  0
 37 39  1  0  0  0
 37 47  1  0  0  0
 37 66  1  0  0  0
 37108  1  0  0  0
 38 43  2  0  0  0
 38 46  1  0  0  0
 38 47  1  0  0  0
 39 64  1  0  0  0
 39 67  2  0  0  0
 40 52  1  0  0  0
 40 53  2  0  0  0
 40 58  1  0  0  0
 41109  1  0  0  0
 41110  1  0  0  0
 41111  1  0  0  0
 41 48  1  0  0  0
 42 43  1  0  0  0
 42 66  1  0  0  0
 42112  1  0  0  0
 42113  1  0  0  0
 43 44  1  0  0  0
 44114  1  0  0  0
 45 46  2  0  0  0
 45115  1  0  0  0
 46116  1  0  0  0
 47117  1  0  0  0
 47118  1  0  0  0
 48 56  1  0  0  0
 48 65  1  0  0  0
 48119  1  0  0  0
 49 50  1  0  0  0
 49 53  1  0  0  0
 49 64  1  0  0  0
 49120  1  0  0  0
 50 51  1  0  0  0
 50121  1  0  0  0
 50122  1  0  0  0
 51 52  1  0  0  0
 51123  1  0  0  0
 51124  1  0  0  0
 52125  1  0  0  0
 52126  1  0  0  0
 53 54  1  0  0  0
 54 55  2  0  0  0
 54127  1  0  0  0
 55 57  1  0  0  0
 55128  1  0  0  0
 56 69  2  0  0  0
 57 58  2  0  0  0
 57129  1  0  0  0
 58130  1  0  0  0
 59 60  1  0  0  0
 59 61  1  0  0  0
 59 62  1  0  0  0
 60131  1  0  0  0
 60132  1  0  0  0
 60133  1  0  0  0
 61134  1  0  0  0
 61135  1  0  0  0
 61136  1  0  0  0
 62137  1  0  0  0
 62138  1  0  0  0
 62139  1  0  0  0
 63 65  1  0  0  0
 63140  1  0  0  0
 63141  1  0  0  0
 63142  1  0  0  0
 64143  1  0  0  0
 65144  1  0  0  0
 68 82  1  0  0  0
 71 73  2  0  0  0
 71 75  1  0  0  0
 71145  1  0  0  0
 72 74  2  0  0  0
 72 76  1  0  0  0
 72146  1  0  0  0
 73 74  1  0  0  0
 73 79  1  0  0  0
 74 78  1  0  0  0
 75 76  2  0  0  0
 75 81  1  0  0  0
 76 84  1  0  0  0
 77 82  1  0  0  0
 77 84  1  0  0  0
 77 85  2  0  0  0
 78 80  1  0  0  0
 78147  1  0  0  0
 78148  1  0  0  0
 79 83  1  0  0  0
 79149  1  0  0  0
 79150  1  0  0  0
 80 83  1  0  0  0
 80151  1  0  0  0
 80152  1  0  0  0
 81153  1  0  0  0
 81154  1  0  0  0
 81155  1  0  0  0
 82156  1  0  0  0
 82157  1  0  0  0
 84158  1  0  0  0
M  ISO  4   1 100  68 101  82 101  83 100
M  END
> <chiral flag>
0

> <version>
0

> <s_m_source_file>
/data/baiqing/PycharmProjects/Reinvent-master-3.2/result/LINK_invent/BTK/process_docking_weight1_custom_product_contain_oxygen_bond_distance_aromatic_linkinvent_7_9_3/rearranged_h_0157.sdf

> <i_m_source_file_index>
73

> <r_mmod_Potential_Energy-OPLS-2005>
250.913162231445

> <r_mmod_Stretch_Energy-OPLS-2005>
101.771560668945

> <r_mmod_Bend_Energy-OPLS-2005>
198.504119873047

> <r_mmod_Torsional_Energy-OPLS-2005>
297.385681152344

> <r_mmod_Improper_Torsional_Energy-OPLS-2005>
12.2281827926636

> <r_mmod_Van_der_Waal_Energy-OPLS-2005>
142.034866333008

> <r_mmod_Electrostatic_Energy-OPLS-2005>
-338.335021972656

> <r_mmod_Solvation_Energy-OPLS-2005>
-233.176223754883

> <b_mmod_Minimization_Converged-OPLS-2005>
1

> <r_mmod_RMS_Derivative-OPLS-2005>
0.0436178185045719

$$$$
73
                    3D
 Structure written by MMmdl.
151159  0  0  1  0            999 V2000
  -30.6705  -14.5693   20.6227 C   0  0  0  0  0  0
  -30.4414  -12.3666   19.4922 C   0  0  0  0  0  0
  -29.5395  -12.5339   18.2487 C   0  0  0  0  0  0
  -28.0513  -12.3762   18.6352 C   0  0  0  0  0  0
  -27.6650  -13.2237   19.8814 C   0  0  2  0  0  0
  -28.6902  -13.0410   21.0262 C   0  0  0  0  0  0
  -25.2535  -13.8142   20.5638 C   0  0  0  0  0  0
  -24.1844  -13.0386   20.9176 C   0  0  0  0  0  0
  -24.6413  -11.6856   20.8701 C   0  0  0  0  0  0
  -23.9039  -10.4256   21.0403 C   0  0  0  0  0  0
  -24.3548   -9.4163   21.9195 C   0  0  0  0  0  0
  -23.6283   -8.2150   22.0707 C   0  0  0  0  0  0
  -22.4254   -8.0221   21.3508 C   0  0  0  0  0  0
  -21.9908   -9.0148   20.4566 C   0  0  0  0  0  0
  -22.7205  -10.2049   20.3032 C   0  0  0  0  0  0
  -21.6808   -6.0765   22.5307 C   0  0  0  0  0  0
  -21.3971   -6.5672   23.8257 C   0  0  0  0  0  0
  -21.3676   -5.6802   24.9204 C   0  0  0  0  0  0
  -21.6059   -4.3074   24.7230 C   0  0  0  0  0  0
  -21.8804   -3.8165   23.4348 C   0  0  0  0  0  0
  -21.9157   -4.6996   22.3407 C   0  0  0  0  0  0
  -22.7849  -13.5158   21.1912 C   0  0  0  0  0  0
  -22.1648   -4.2184   21.0992 F   0  0  0  0  0  0
  -21.5623   -3.4535   25.7738 F   0  0  0  0  0  0
  -30.0255  -13.3683   20.4944 N   0  0  0  0  0  0
  -26.3036  -12.9360   20.3317 N   0  0  0  0  0  0
  -25.9352  -11.6497   20.5700 N   0  0  0  0  0  0
  -22.0395  -12.8171   22.0435 N   0  0  0  0  0  0
  -25.4224  -15.1872   20.4018 N   0  0  0  0  0  0
  -31.7912  -14.7636   20.1453 O   0  0  0  0  0  0
  -21.6578   -6.8864   21.4251 O   0  0  0  0  0  0
  -22.3548  -14.5472   20.6781 O   0  0  0  0  0  0
  -24.6223  -31.8609   23.2093 C   0  0  0  0  0  0
  -25.9072  -32.4766   23.8379 C   0  0  1  0  0  0
  -27.2117  -27.3648   20.0977 C   0  0  0  0  0  0
  -25.5954  -33.8569   24.2337 N   0  0  0  0  0  0
  -23.4076  -30.4815   21.5616 C   0  0  2  0  0  0
  -24.8481  -28.9471   20.1115 C   0  0  0  0  0  0
  -22.7422  -29.4587   22.5122 C   0  0  0  0  0  0
  -18.0246  -28.1327   22.8473 C   0  0  0  0  0  0
  -24.1528  -36.7302   23.2629 C   0  0  0  0  0  0
  -25.9423  -30.8055   21.3700 C   0  0  0  0  0  0
  -26.0120  -29.4381   20.7142 C   0  0  0  0  0  0
  -27.1963  -28.6527   20.7066 C   0  0  0  0  0  0
  -26.0256  -26.9152   19.4734 C   0  0  0  0  0  0
  -24.8518  -27.6922   19.4841 C   0  0  0  0  0  0
  -23.6076  -29.8103   20.1761 C   0  0  0  0  0  0
  -25.4127  -36.3061   24.0349 C   0  0  1  0  0  0
  -20.5807  -28.3637   23.1380 C   0  0  2  0  0  0
  -20.6742  -26.9386   22.5420 C   0  0  0  0  0  0
  -19.5737  -26.6371   21.5210 C   0  0  0  0  0  0
  -18.1909  -26.7872   22.1598 C   0  0  0  0  0  0
  -19.1470  -28.8795   23.2911 C   0  0  0  0  0  0
  -18.9366  -30.1390   23.8900 C   0  0  0  0  0  0
  -17.6369  -30.6533   24.0507 C   0  0  0  0  0  0
  -25.9063  -34.9434   23.5161 C   0  0  0  0  0  0
  -16.5283  -29.8991   23.6312 C   0  0  0  0  0  0
  -16.7229  -28.6405   23.0364 C   0  0  0  0  0  0
  -26.4451  -31.6510   25.0711 C   0  0  0  0  0  0
  -25.3617  -31.3583   26.1368 C   0  0  0  0  0  0
  -27.0221  -30.2908   24.6068 C   0  0  0  0  0  0
  -27.6103  -32.4124   25.7458 C   0  0  0  0  0  0
  -27.5644  -37.1766   24.8416 C   0  0  0  0  0  0
  -21.4147  -29.2998   22.3842 N   0  0  0  0  0  0
  -26.4300  -37.3771   23.9461 N   0  0  0  0  0  0
  -24.6773  -31.0620   22.1057 N   0  0  0  0  0  0
  -23.4162  -28.8192   23.3213 O   0  0  0  0  0  0
  -28.3495  -26.5642   20.1699 O   0  0  0  0  0  0
  -26.5615  -34.8926   22.4719 O   0  0  0  0  0  0
  -23.5423  -32.1412   23.7434 O   0  0  0  0  0  0
  -29.6065  -17.8600   20.2998 C   0  0  0  0  0  0
  -29.8905  -19.2500   20.6010 C   0  0  0  0  0  0
  -30.1724  -16.9352   21.1773 C   0  0  0  0  0  0
  -30.6531  -19.3641   21.7351 C   0  0  0  0  0  0
  -28.3741  -25.2899   19.6035 C   0  0  0  0  0  0
  -29.4424  -20.4064   19.7463 C   0  0  0  0  0  0
  -28.7094  -24.1315   20.2479 C   0  0  0  0  0  0
  -28.7641  -22.8519   19.5062 C   0  0  0  0  0  0
  -29.9682  -15.5716   21.2277 N   0  0  0  0  0  0
  -29.1861  -21.6625   20.2549 N   0  0  0  0  0  0
  -29.3278  -20.1608   18.4190 N   0  3  0  0  0  0
  -28.5040  -22.7427   18.3011 O   0  0  0  0  0  0
  -29.0081  -24.1508   21.5584 O   0  0  0  0  0  0
  -31.0281  -20.5362   22.3108 F   0  0  0  0  0  0
  -31.0790  -17.8078   22.4208 S   0  0  0  0  0  0
  -31.4981  -12.4667   19.2255 H   0  0  0  0  0  0
  -30.3407  -11.3640   19.9102 H   0  0  0  0  0  0
  -29.8143  -11.7941   17.4976 H   0  0  0  0  0  0
  -29.7085  -13.5128   17.7999 H   0  0  0  0  0  0
  -27.8741  -11.3208   18.8434 H   0  0  0  0  0  0
  -27.4122  -12.6352   17.7890 H   0  0  0  0  0  0
  -27.7025  -14.2747   19.5797 H   0  0  0  0  0  0
  -28.6748  -12.0117   21.3919 H   0  0  0  0  0  0
  -28.4182  -13.6564   21.8886 H   0  0  0  0  0  0
  -25.2654   -9.5680   22.4798 H   0  0  0  0  0  0
  -23.9968   -7.4567   22.7489 H   0  0  0  0  0  0
  -21.0799   -8.8668   19.8929 H   0  0  0  0  0  0
  -22.3673  -10.9548   19.6111 H   0  0  0  0  0  0
  -21.1966   -7.6178   23.9805 H   0  0  0  0  0  0
  -21.1538   -6.0516   25.9141 H   0  0  0  0  0  0
  -22.0582   -2.7636   23.2813 H   0  0  0  0  0  0
  -22.3844  -11.9796   22.4864 H   0  0  0  0  0  0
  -21.0975  -13.1227   22.2522 H   0  0  0  0  0  0
  -24.6466  -15.8356   20.5164 H   0  0  0  0  0  0
  -26.2673  -15.6405   20.0806 H   0  0  0  0  0  0
  -26.7148  -32.5395   23.1171 H   0  0  0  0  0  0
  -25.0123  -33.9678   25.0485 H   0  0  0  0  0  0
  -22.6996  -31.2992   21.4266 H   0  0  0  0  0  0
  -23.3815  -35.9588   23.3099 H   0  0  0  0  0  0
  -24.3713  -36.9075   22.2084 H   0  0  0  0  0  0
  -23.7207  -37.6457   23.6714 H   0  0  0  0  0  0
  -26.0579  -31.5721   20.5996 H   0  0  0  0  0  0
  -26.8327  -30.8555   21.9854 H   0  0  0  0  0  0
  -28.0919  -29.0193   21.1873 H   0  0  0  0  0  0
  -25.9756  -25.9546   18.9771 H   0  0  0  0  0  0
  -23.9554  -27.3199   19.0113 H   0  0  0  0  0  0
  -23.6807  -30.5775   19.4038 H   0  0  0  0  0  0
  -22.7332  -29.2100   19.9150 H   0  0  0  0  0  0
  -25.1280  -36.1947   25.0829 H   0  0  0  0  0  0
  -20.9845  -28.3126   24.1511 H   0  0  0  0  0  0
  -20.5654  -26.2218   23.3568 H   0  0  0  0  0  0
  -21.6609  -26.7418   22.1232 H   0  0  0  0  0  0
  -19.6923  -25.6289   21.1198 H   0  0  0  0  0  0
  -19.6722  -27.3159   20.6727 H   0  0  0  0  0  0
  -17.4235  -26.6598   21.3973 H   0  0  0  0  0  0
  -18.0318  -25.9961   22.8937 H   0  0  0  0  0  0
  -19.7861  -30.7172   24.2296 H   0  0  0  0  0  0
  -17.4917  -31.6200   24.5142 H   0  0  0  0  0  0
  -15.5266  -30.2868   23.7641 H   0  0  0  0  0  0
  -15.8640  -28.0671   22.7158 H   0  0  0  0  0  0
  -24.5983  -30.6752   25.7632 H   0  0  0  0  0  0
  -24.8548  -32.2679   26.4591 H   0  0  0  0  0  0
  -25.7860  -30.8912   27.0255 H   0  0  0  0  0  0
  -26.2721  -29.6744   24.1071 H   0  0  0  0  0  0
  -27.3923  -29.7083   25.4532 H   0  0  0  0  0  0
  -27.8636  -30.4198   23.9231 H   0  0  0  0  0  0
  -27.2857  -33.3491   26.1982 H   0  0  0  0  0  0
  -28.3940  -32.6488   25.0250 H   0  0  0  0  0  0
  -28.0698  -31.8173   26.5368 H   0  0  0  0  0  0
  -28.2467  -38.0241   24.7721 H   0  0  0  0  0  0
  -28.1320  -36.2814   24.5875 H   0  0  0  0  0  0
  -27.2415  -37.0948   25.8798 H   0  0  0  0  0  0
  -20.9335  -29.8720   21.7026 H   0  0  0  0  0  0
  -26.0182  -38.2857   24.1440 H   0  0  0  0  0  0
  -28.9897  -17.5848   19.4528 H   0  0  0  0  0  0
  -28.1228  -25.3256   18.5490 H   0  0  0  0  0  0
  -29.1079  -15.2750   21.6638 H   0  0  0  0  0  0
  -29.3546  -21.7422   21.2474 H   0  0  0  0  0  0
  -29.6278  -19.2966   17.9909 H   0  0  0  0  0  0
  -28.9964  -20.9031   17.8073 H   0  0  0  0  0  0
  -28.9316  -25.0502   21.8461 H   0  0  0  0  0  0
  1 25  1  0  0  0
  1 30  2  0  0  0
  1 79  1  0  0  0
  2  3  1  0  0  0
  2 25  1  0  0  0
  2 86  1  0  0  0
  2 87  1  0  0  0
  3  4  1  0  0  0
  3 88  1  0  0  0
  3 89  1  0  0  0
  4  5  1  0  0  0
  4 90  1  0  0  0
  4 91  1  0  0  0
  5  6  1  0  0  0
  5 26  1  0  0  0
  5 92  1  0  0  0
  6 25  1  0  0  0
  6 93  1  0  0  0
  6 94  1  0  0  0
  7  8  2  0  0  0
  7 26  1  0  0  0
  7 29  1  0  0  0
  8  9  1  0  0  0
  8 22  1  0  0  0
  9 10  1  0  0  0
  9 27  2  0  0  0
 10 11  2  0  0  0
 10 15  1  0  0  0
 11 12  1  0  0  0
 11 95  1  0  0  0
 12 13  2  0  0  0
 12 96  1  0  0  0
 13 14  1  0  0  0
 13 31  1  0  0  0
 14 15  2  0  0  0
 14 97  1  0  0  0
 15 98  1  0  0  0
 16 17  2  0  0  0
 16 21  1  0  0  0
 16 31  1  0  0  0
 17 18  1  0  0  0
 17 99  1  0  0  0
 18 19  2  0  0  0
 18100  1  0  0  0
 19 20  1  0  0  0
 19 24  1  0  0  0
 20 21  2  0  0  0
 20101  1  0  0  0
 21 23  1  0  0  0
 22 28  1  0  0  0
 22 32  2  0  0  0
 26 27  1  0  0  0
 28102  1  0  0  0
 28103  1  0  0  0
 29104  1  0  0  0
 29105  1  0  0  0
 33 34  1  0  0  0
 33 66  1  0  0  0
 33 70  2  0  0  0
 34 36  1  0  0  0
 34 59  1  0  0  0
 34106  1  0  0  0
 35 44  2  0  0  0
 35 45  1  0  0  0
 35 68  1  0  0  0
 36 56  1  0  0  0
 36107  1  0  0  0
 37 39  1  0  0  0
 37 47  1  0  0  0
 37 66  1  0  0  0
 37108  1  0  0  0
 38 43  2  0  0  0
 38 46  1  0  0  0
 38 47  1  0  0  0
 39 64  1  0  0  0
 39 67  2  0  0  0
 40 52  1  0  0  0
 40 53  2  0  0  0
 40 58  1  0  0  0
 41109  1  0  0  0
 41110  1  0  0  0
 41111  1  0  0  0
 41 48  1  0  0  0
 42 43  1  0  0  0
 42 66  1  0  0  0
 42112  1  0  0  0
 42113  1  0  0  0
 43 44  1  0  0  0
 44114  1  0  0  0
 45 46  2  0  0  0
 45115  1  0  0  0
 46116  1  0  0  0
 47117  1  0  0  0
 47118  1  0  0  0
 48 56  1  0  0  0
 48 65  1  0  0  0
 48119  1  0  0  0
 49 50  1  0  0  0
 49 53  1  0  0  0
 49 64  1  0  0  0
 49120  1  0  0  0
 50 51  1  0  0  0
 50121  1  0  0  0
 50122  1  0  0  0
 51 52  1  0  0  0
 51123  1  0  0  0
 51124  1  0  0  0
 52125  1  0  0  0
 52126  1  0  0  0
 53 54  1  0  0  0
 54 55  2  0  0  0
 54127  1  0  0  0
 55 57  1  0  0  0
 55128  1  0  0  0
 56 69  2  0  0  0
 57 58  2  0  0  0
 57129  1  0  0  0
 58130  1  0  0  0
 59 60  1  0  0  0
 59 61  1  0  0  0
 59 62  1  0  0  0
 60131  1  0  0  0
 60132  1  0  0  0
 60133  1  0  0  0
 61134  1  0  0  0
 61135  1  0  0  0
 61136  1  0  0  0
 62137  1  0  0  0
 62138  1  0  0  0
 62139  1  0  0  0
 63 65  1  0  0  0
 63140  1  0  0  0
 63141  1  0  0  0
 63142  1  0  0  0
 64143  1  0  0  0
 65144  1  0  0  0
 68 75  1  0  0  0
 71 72  1  0  0  0
 71 73  2  0  0  0
 71145  1  0  0  0
 72 74  2  0  0  0
 72 76  1  0  0  0
 73 79  1  0  0  0
 73 85  1  0  0  0
 74 84  1  0  0  0
 74 85  1  0  0  0
 75 77  2  0  0  0
 75146  1  0  0  0
 76 80  1  0  0  0
 76 81  2  0  0  0
 77 78  1  0  0  0
 77 83  1  0  0  0
 78 80  1  0  0  0
 78 82  2  0  0  0
 79147  1  0  0  0
 80148  1  0  0  0
 81149  1  0  0  0
 81150  1  0  0  0
 83151  1  0  0  0
M  CHG  1  81   1
M  ISO  4   1 100  68 101  75 101  79 100
M  END
> <chiral flag>
0

> <version>
0

> <s_m_source_file>
/data/baiqing/PycharmProjects/Reinvent-master-3.2/result/LINK_invent/BTK/process_docking_weight1_custom_product_contain_oxygen_bond_distance_aromatic_linkinvent_7_9_3/rearranged_h_0157.sdf

> <i_m_source_file_index>
74

> <r_mmod_Potential_Energy-OPLS-2005>
-229.867034912109

> <r_mmod_Stretch_Energy-OPLS-2005>
59.0655670166016

> <r_mmod_Bend_Energy-OPLS-2005>
125.579879760742

> <r_mmod_Torsional_Energy-OPLS-2005>
223.747360229492

> <r_mmod_Improper_Torsional_Energy-OPLS-2005>
3.59575343132019

> <r_mmod_Van_der_Waal_Energy-OPLS-2005>
141.131484985352

> <r_mmod_Electrostatic_Energy-OPLS-2005>
-347.660736083984

> <r_mmod_Solvation_Energy-OPLS-2005>
-466.9501953125

> <b_mmod_Minimization_Converged-OPLS-2005>
0

> <r_mmod_RMS_Derivative-OPLS-2005>
9.10556507110596

$$$$
74
                    3D
 Structure written by MMmdl.
160169  0  0  1  0            999 V2000
  -30.6237  -14.6281   20.5160 C   0  0  0  0  0  0
  -30.4406  -12.3873   19.4485 C   0  0  0  0  0  0
  -29.5049  -12.5088   18.2246 C   0  0  0  0  0  0
  -28.0288  -12.3458   18.6398 C   0  0  0  0  0  0
  -27.6560  -13.2134   19.8705 C   0  0  2  0  0  0
  -28.7018  -13.0541   20.9980 C   0  0  0  0  0  0
  -25.2566  -13.8161   20.5693 C   0  0  0  0  0  0
  -24.1819  -13.0432   20.9168 C   0  0  0  0  0  0
  -24.6389  -11.6903   20.8738 C   0  0  0  0  0  0
  -23.9061  -10.4289   21.0418 C   0  0  0  0  0  0
  -24.3612   -9.4202   21.9196 C   0  0  0  0  0  0
  -23.6285   -8.2242   22.0766 C   0  0  0  0  0  0
  -22.4274   -8.0281   21.3548 C   0  0  0  0  0  0
  -21.9907   -9.0260   20.4655 C   0  0  0  0  0  0
  -22.7238  -10.2134   20.3065 C   0  0  0  0  0  0
  -21.6850   -6.0733   22.5283 C   0  0  0  0  0  0
  -21.4014   -6.5637   23.8212 C   0  0  0  0  0  0
  -21.3656   -5.6792   24.9174 C   0  0  0  0  0  0
  -21.6047   -4.3057   24.7224 C   0  0  0  0  0  0
  -21.8817   -3.8147   23.4349 C   0  0  0  0  0  0
  -21.9190   -4.6962   22.3405 C   0  0  0  0  0  0
  -22.7845  -13.5231   21.1844 C   0  0  0  0  0  0
  -22.1657   -4.2152   21.0985 F   0  0  0  0  0  0
  -21.5628   -3.4542   25.7736 F   0  0  0  0  0  0
  -30.0192  -13.4003   20.4367 N   0  0  0  0  0  0
  -26.3003  -12.9340   20.3365 N   0  0  0  0  0  0
  -25.9321  -11.6499   20.5794 N   0  0  0  0  0  0
  -22.0487  -12.8225   22.0405 N   0  0  0  0  0  0
  -25.4270  -15.1881   20.4130 N   0  0  0  0  0  0
  -31.7778  -14.8036   20.1125 O   0  0  0  0  0  0
  -21.6636   -6.8880   21.4247 O   0  0  0  0  0  0
  -22.3530  -14.5550   20.6714 O   0  0  0  0  0  0
  -24.6219  -31.8609   23.2037 C   0  0  0  0  0  0
  -25.9080  -32.4780   23.8351 C   0  0  1  0  0  0
  -27.2230  -27.3242   20.1182 C   0  0  0  0  0  0
  -25.5915  -33.8581   24.2279 N   0  0  0  0  0  0
  -23.4151  -30.4842   21.5455 C   0  0  2  0  0  0
  -24.8647  -28.9435   20.1076 C   0  0  0  0  0  0
  -22.7468  -29.4600   22.4933 C   0  0  0  0  0  0
  -18.0289  -28.1361   22.8464 C   0  0  0  0  0  0
  -24.1503  -36.7287   23.2641 C   0  0  0  0  0  0
  -25.9563  -30.7933   21.3759 C   0  0  0  0  0  0
  -26.0304  -29.4215   20.7180 C   0  0  0  0  0  0
  -27.2091  -28.6204   20.7194 C   0  0  0  0  0  0
  -26.0391  -26.9081   19.4641 C   0  0  0  0  0  0
  -24.8704  -27.6935   19.4720 C   0  0  0  0  0  0
  -23.6311  -29.8219   20.1598 C   0  0  0  0  0  0
  -25.4123  -36.3077   24.0338 C   0  0  1  0  0  0
  -20.5885  -28.3649   23.1289 C   0  0  2  0  0  0
  -20.6775  -26.9375   22.5405 C   0  0  0  0  0  0
  -19.5756  -26.6363   21.5198 C   0  0  0  0  0  0
  -18.1935  -26.7900   22.1616 C   0  0  0  0  0  0
  -19.1539  -28.8827   23.2865 C   0  0  0  0  0  0
  -18.9472  -30.1432   23.8874 C   0  0  0  0  0  0
  -17.6476  -30.6565   24.0547 C   0  0  0  0  0  0
  -25.9061  -34.9449   23.5107 C   0  0  0  0  0  0
  -16.5361  -29.9060   23.6332 C   0  0  0  0  0  0
  -16.7279  -28.6484   23.0335 C   0  0  0  0  0  0
  -26.4483  -31.6583   25.0705 C   0  0  0  0  0  0
  -25.3735  -31.3719   26.1448 C   0  0  0  0  0  0
  -27.0330  -30.3019   24.6123 C   0  0  0  0  0  0
  -27.6036  -32.4315   25.7484 C   0  0  0  0  0  0
  -27.5582  -37.1797   24.8467 C   0  0  0  0  0  0
  -21.4184  -29.3007   22.3699 N   0  0  0  0  0  0
  -26.4294  -37.3769   23.9420 N   0  0  0  0  0  0
  -24.6826  -31.0631   22.0985 N   0  0  0  0  0  0
  -23.4218  -28.8125   23.2972 O   0  0  0  0  0  0
  -28.3525  -26.4944   20.1968 O   0  0  0  0  0  0
  -26.5616  -34.8902   22.4662 O   0  0  0  0  0  0
  -23.5380  -32.1392   23.7377 O   0  0  0  0  0  0
  -30.9438  -19.3059   20.3382 C   0  0  0  0  0  0
  -30.9707  -17.8761   20.3246 C   0  0  0  0  0  0
  -28.7708  -19.2728   21.3610 C   0  0  0  0  0  0
  -29.8566  -20.0535   20.8860 C   0  0  0  0  0  0
  -29.8954  -17.1099   20.8452 C   0  0  0  0  0  0
  -28.7895  -17.8487   21.3373 C   0  0  0  0  0  0
  -31.4413  -23.5903   21.7359 C   0  0  0  0  0  0
  -31.3729  -22.1327   21.2497 C   0  0  0  0  0  0
  -30.6117  -24.5138   20.8279 C   0  0  0  0  0  0
  -29.9178  -21.6134   21.1552 C   0  0  1  0  0  0
  -29.1482  -24.0367   20.7287 C   0  0  1  0  0  0
  -28.2580  -25.0484   19.8803 C   0  0  0  0  0  0
  -29.8152  -15.6524   20.9203 N   0  0  0  0  0  0
  -29.1083  -22.5661   20.2970 N   0  3  0  0  0  0
  -27.7244  -17.1687   21.8275 F   0  0  0  0  0  0
  -31.4805  -12.5167   19.1429 H   0  0  0  0  0  0
  -30.3794  -11.3877   19.8825 H   0  0  0  0  0  0
  -29.7652  -11.7602   17.4752 H   0  0  0  0  0  0
  -29.6467  -13.4797   17.7485 H   0  0  0  0  0  0
  -27.8661  -11.2927   18.8702 H   0  0  0  0  0  0
  -27.3710  -12.5776   17.8016 H   0  0  0  0  0  0
  -27.6782  -14.2508   19.5370 H   0  0  0  0  0  0
  -28.7124  -12.0275   21.3677 H   0  0  0  0  0  0
  -28.4473  -13.6727   21.8603 H   0  0  0  0  0  0
  -25.2756   -9.5675   22.4773 H   0  0  0  0  0  0
  -23.9991   -7.4634   22.7486 H   0  0  0  0  0  0
  -21.0838   -8.8785   19.8961 H   0  0  0  0  0  0
  -22.3706  -10.9678   19.6175 H   0  0  0  0  0  0
  -21.2013   -7.6145   23.9718 H   0  0  0  0  0  0
  -21.1477   -6.0521   25.9076 H   0  0  0  0  0  0
  -22.0600   -2.7613   23.2849 H   0  0  0  0  0  0
  -22.4086  -11.9854   22.4750 H   0  0  0  0  0  0
  -21.1128  -13.1285   22.2666 H   0  0  0  0  0  0
  -24.6705  -15.8460   20.5632 H   0  0  0  0  0  0
  -26.2994  -15.6411   20.1739 H   0  0  0  0  0  0
  -26.7138  -32.5465   23.1093 H   0  0  0  0  0  0
  -25.0104  -33.9728   25.0449 H   0  0  0  0  0  0
  -22.7053  -31.3024   21.4034 H   0  0  0  0  0  0
  -23.3763  -35.9623   23.3309 H   0  0  0  0  0  0
  -24.3595  -36.8894   22.2050 H   0  0  0  0  0  0
  -23.7262  -37.6491   23.6660 H   0  0  0  0  0  0
  -26.0863  -31.5573   20.6079 H   0  0  0  0  0  0
  -26.8365  -30.8407   22.0048 H   0  0  0  0  0  0
  -28.0997  -28.9764   21.2185 H   0  0  0  0  0  0
  -25.9783  -25.9677   18.9385 H   0  0  0  0  0  0
  -23.9803  -27.3271   18.9790 H   0  0  0  0  0  0
  -23.7455  -30.6009   19.4048 H   0  0  0  0  0  0
  -22.7529  -29.2498   19.8574 H   0  0  0  0  0  0
  -25.1295  -36.1931   25.0830 H   0  0  0  0  0  0
  -20.9959  -28.3212   24.1415 H   0  0  0  0  0  0
  -20.5680  -26.2240   23.3596 H   0  0  0  0  0  0
  -21.6647  -26.7406   22.1198 H   0  0  0  0  0  0
  -19.6929  -25.6273   21.1226 H   0  0  0  0  0  0
  -19.6722  -27.3176   20.6729 H   0  0  0  0  0  0
  -17.4205  -26.6642   21.4015 H   0  0  0  0  0  0
  -18.0333  -26.0037   22.9007 H   0  0  0  0  0  0
  -19.7955  -30.7236   24.2237 H   0  0  0  0  0  0
  -17.5035  -31.6251   24.5134 H   0  0  0  0  0  0
  -15.5356  -30.2956   23.7667 H   0  0  0  0  0  0
  -15.8676  -28.0808   22.7046 H   0  0  0  0  0  0
  -24.5922  -30.7039   25.7810 H   0  0  0  0  0  0
  -24.8904  -32.2876   26.4862 H   0  0  0  0  0  0
  -25.8069  -30.8931   27.0240 H   0  0  0  0  0  0
  -26.2882  -29.6775   24.1165 H   0  0  0  0  0  0
  -27.4081  -29.7264   25.4596 H   0  0  0  0  0  0
  -27.8734  -30.4336   23.9304 H   0  0  0  0  0  0
  -27.2649  -33.3626   26.2042 H   0  0  0  0  0  0
  -28.3862  -32.6859   25.0324 H   0  0  0  0  0  0
  -28.0687  -31.8456   26.5419 H   0  0  0  0  0  0
  -28.2583  -38.0105   24.7492 H   0  0  0  0  0  0
  -28.1092  -36.2625   24.6322 H   0  0  0  0  0  0
  -27.2289  -37.1455   25.8866 H   0  0  0  0  0  0
  -20.9348  -29.8756   21.6947 H   0  0  0  0  0  0
  -26.0184  -38.2850   24.1412 H   0  0  0  0  0  0
  -31.8178  -19.8201   19.9643 H   0  0  0  0  0  0
  -31.8450  -17.3793   19.9274 H   0  0  0  0  0  0
  -27.9160  -19.7637   21.8027 H   0  0  0  0  0  0
  -32.4785  -23.9256   21.7622 H   0  0  0  0  0  0
  -31.0763  -23.6539   22.7633 H   0  0  0  0  0  0
  -31.9456  -21.5060   21.9359 H   0  0  0  0  0  0
  -31.8633  -22.0573   20.2781 H   0  0  0  0  0  0
  -31.0616  -24.5648   19.8345 H   0  0  0  0  0  0
  -30.6400  -25.5288   21.2290 H   0  0  0  0  0  0
  -29.4957  -21.7157   22.1569 H   0  0  0  0  0  0
  -28.7340  -24.0631   21.7380 H   0  0  0  0  0  0
  -27.2377  -24.6903   20.0081 H   0  0  0  0  0  0
  -28.4937  -24.9376   18.8214 H   0  0  0  0  0  0
  -28.9248  -15.3302   21.2687 H   0  0  0  0  0  0
  -28.1536  -22.2458   20.3014 H   0  0  0  0  0  0
  -29.4349  -22.4825   19.3479 H   0  0  0  0  0  0
  1 25  1  0  0  0
  1 30  2  0  0  0
  1 83  1  0  0  0
  2  3  1  0  0  0
  2 25  1  0  0  0
  2 86  1  0  0  0
  2 87  1  0  0  0
  3  4  1  0  0  0
  3 88  1  0  0  0
  3 89  1  0  0  0
  4  5  1  0  0  0
  4 90  1  0  0  0
  4 91  1  0  0  0
  5  6  1  0  0  0
  5 26  1  0  0  0
  5 92  1  0  0  0
  6 25  1  0  0  0
  6 93  1  0  0  0
  6 94  1  0  0  0
  7  8  2  0  0  0
  7 26  1  0  0  0
  7 29  1  0  0  0
  8  9  1  0  0  0
  8 22  1  0  0  0
  9 10  1  0  0  0
  9 27  2  0  0  0
 10 11  2  0  0  0
 10 15  1  0  0  0
 11 12  1  0  0  0
 11 95  1  0  0  0
 12 13  2  0  0  0
 12 96  1  0  0  0
 13 14  1  0  0  0
 13 31  1  0  0  0
 14 15  2  0  0  0
 14 97  1  0  0  0
 15 98  1  0  0  0
 16 17  2  0  0  0
 16 21  1  0  0  0
 16 31  1  0  0  0
 17 18  1  0  0  0
 17 99  1  0  0  0
 18 19  2  0  0  0
 18100  1  0  0  0
 19 20  1  0  0  0
 19 24  1  0  0  0
 20 21  2  0  0  0
 20101  1  0  0  0
 21 23  1  0  0  0
 22 28  1  0  0  0
 22 32  2  0  0  0
 26 27  1  0  0  0
 28102  1  0  0  0
 28103  1  0  0  0
 29104  1  0  0  0
 29105  1  0  0  0
 33 34  1  0  0  0
 33 66  1  0  0  0
 33 70  2  0  0  0
 34 36  1  0  0  0
 34 59  1  0  0  0
 34106  1  0  0  0
 35 44  2  0  0  0
 35 45  1  0  0  0
 35 68  1  0  0  0
 36 56  1  0  0  0
 36107  1  0  0  0
 37 39  1  0  0  0
 37 47  1  0  0  0
 37 66  1  0  0  0
 37108  1  0  0  0
 38 43  2  0  0  0
 38 46  1  0  0  0
 38 47  1  0  0  0
 39 64  1  0  0  0
 39 67  2  0  0  0
 40 52  1  0  0  0
 40 53  2  0  0  0
 40 58  1  0  0  0
 41109  1  0  0  0
 41110  1  0  0  0
 41111  1  0  0  0
 41 48  1  0  0  0
 42 43  1  0  0  0
 42 66  1  0  0  0
 42112  1  0  0  0
 42113  1  0  0  0
 43 44  1  0  0  0
 44114  1  0  0  0
 45 46  2  0  0  0
 45115  1  0  0  0
 46116  1  0  0  0
 47117  1  0  0  0
 47118  1  0  0  0
 48 56  1  0  0  0
 48 65  1  0  0  0
 48119  1  0  0  0
 49 50  1  0  0  0
 49 53  1  0  0  0
 49 64  1  0  0  0
 49120  1  0  0  0
 50 51  1  0  0  0
 50121  1  0  0  0
 50122  1  0  0  0
 51 52  1  0  0  0
 51123  1  0  0  0
 51124  1  0  0  0
 52125  1  0  0  0
 52126  1  0  0  0
 53 54  1  0  0  0
 54 55  2  0  0  0
 54127  1  0  0  0
 55 57  1  0  0  0
 55128  1  0  0  0
 56 69  2  0  0  0
 57 58  2  0  0  0
 57129  1  0  0  0
 58130  1  0  0  0
 59 60  1  0  0  0
 59 61  1  0  0  0
 59 62  1  0  0  0
 60131  1  0  0  0
 60132  1  0  0  0
 60133  1  0  0  0
 61134  1  0  0  0
 61135  1  0  0  0
 61136  1  0  0  0
 62137  1  0  0  0
 62138  1  0  0  0
 62139  1  0  0  0
 63 65  1  0  0  0
 63140  1  0  0  0
 63141  1  0  0  0
 63142  1  0  0  0
 64143  1  0  0  0
 65144  1  0  0  0
 68 82  1  0  0  0
 71 72  2  0  0  0
 71 74  1  0  0  0
 71145  1  0  0  0
 72 75  1  0  0  0
 72146  1  0  0  0
 73 74  2  0  0  0
 73 76  1  0  0  0
 73147  1  0  0  0
 74 80  1  0  0  0
 75 76  2  0  0  0
 75 83  1  0  0  0
 76 85  1  0  0  0
 77 78  1  0  0  0
 77 79  1  0  0  0
 77148  1  0  0  0
 77149  1  0  0  0
 78 80  1  0  0  0
 78150  1  0  0  0
 78151  1  0  0  0
 79 81  1  0  0  0
 79152  1  0  0  0
 79153  1  0  0  0
 80 84  1  0  0  0
 80154  1  0  0  0
 81 82  1  0  0  0
 81 84  1  0  0  0
 81155  1  0  0  0
 82156  1  0  0  0
 82157  1  0  0  0
 83158  1  0  0  0
 84159  1  0  0  0
 84160  1  0  0  0
M  CHG  1  84   1
M  ISO  4   1 100  68 101  82 101  83 100
M  END
> <chiral flag>
0

> <version>
0

> <s_m_source_file>
/data/baiqing/PycharmProjects/Reinvent-master-3.2/result/LINK_invent/BTK/process_docking_weight1_custom_product_contain_oxygen_bond_distance_aromatic_linkinvent_7_9_3/rearranged_h_0157.sdf

> <i_m_source_file_index>
75

> <r_mmod_Potential_Energy-OPLS-2005>
-96.0550003051758

> <r_mmod_Stretch_Energy-OPLS-2005>
79.6443634033203

> <r_mmod_Bend_Energy-OPLS-2005>
145.291732788086

> <r_mmod_Torsional_Energy-OPLS-2005>
233.900512695312

> <r_mmod_Improper_Torsional_Energy-OPLS-2005>
4.40500259399414

> <r_mmod_Van_der_Waal_Energy-OPLS-2005>
149.76708984375

> <r_mmod_Electrostatic_Energy-OPLS-2005>
-302.527374267578

> <r_mmod_Solvation_Energy-OPLS-2005>
-451.844390869141

> <b_mmod_Minimization_Converged-OPLS-2005>
0

> <r_mmod_RMS_Derivative-OPLS-2005>
1.84354722499847

$$$$
75
                    3D
 Structure written by MMmdl.
154163  0  0  1  0            999 V2000
  -30.5442  -14.8542   20.4062 C   0  0  0  0  0  0
  -30.4598  -12.5205   19.4584 C   0  0  0  0  0  0
  -29.5240  -12.5494   18.2253 C   0  0  0  0  0  0
  -28.0469  -12.3603   18.6324 C   0  0  0  0  0  0
  -27.6502  -13.2413   19.8486 C   0  0  2  0  0  0
  -28.7077  -13.1667   20.9728 C   0  0  0  0  0  0
  -25.2524  -13.8178   20.5661 C   0  0  0  0  0  0
  -24.1809  -13.0412   20.9191 C   0  0  0  0  0  0
  -24.6435  -11.6899   20.8732 C   0  0  0  0  0  0
  -23.9073  -10.4283   21.0373 C   0  0  0  0  0  0
  -24.3608   -9.4203   21.9180 C   0  0  0  0  0  0
  -23.6312   -8.2222   22.0742 C   0  0  0  0  0  0
  -22.4296   -8.0259   21.3533 C   0  0  0  0  0  0
  -21.9908   -9.0228   20.4634 C   0  0  0  0  0  0
  -22.7206  -10.2119   20.3058 C   0  0  0  0  0  0
  -21.6833   -6.0724   22.5292 C   0  0  0  0  0  0
  -21.3995   -6.5632   23.8225 C   0  0  0  0  0  0
  -21.3653   -5.6790   24.9182 C   0  0  0  0  0  0
  -21.6065   -4.3051   24.7227 C   0  0  0  0  0  0
  -21.8798   -3.8134   23.4339 C   0  0  0  0  0  0
  -21.9178   -4.6948   22.3406 C   0  0  0  0  0  0
  -22.7823  -13.5199   21.1850 C   0  0  0  0  0  0
  -22.1648   -4.2137   21.0985 F   0  0  0  0  0  0
  -21.5644   -3.4530   25.7730 F   0  0  0  0  0  0
  -30.0000  -13.5785   20.3951 N   0  0  0  0  0  0
  -26.2995  -12.9425   20.3277 N   0  0  0  0  0  0
  -25.9374  -11.6557   20.5726 N   0  0  0  0  0  0
  -22.0424  -12.8263   22.0428 N   0  0  0  0  0  0
  -25.4159  -15.1875   20.4038 N   0  0  0  0  0  0
  -31.7207  -15.0071   20.0586 O   0  0  0  0  0  0
  -21.6643   -6.8864   21.4250 O   0  0  0  0  0  0
  -22.3510  -14.5497   20.6660 O   0  0  0  0  0  0
  -24.6421  -31.8427   23.1852 C   0  0  0  0  0  0
  -25.9201  -32.4686   23.8253 C   0  0  1  0  0  0
  -27.2522  -27.1945   20.1323 C   0  0  0  0  0  0
  -25.5981  -33.8485   24.2165 N   0  0  0  0  0  0
  -23.4475  -30.4611   21.5261 C   0  0  2  0  0  0
  -24.9018  -28.8875   20.1005 C   0  0  0  0  0  0
  -22.7544  -29.4579   22.4828 C   0  0  0  0  0  0
  -18.0310  -28.1408   22.8489 C   0  0  0  0  0  0
  -24.1495  -36.7234   23.2653 C   0  0  0  0  0  0
  -25.9967  -30.7314   21.3825 C   0  0  0  0  0  0
  -26.0688  -29.3471   20.7219 C   0  0  0  0  0  0
  -27.2348  -28.5068   20.7367 C   0  0  0  0  0  0
  -26.0624  -26.8138   19.4744 C   0  0  0  0  0  0
  -24.9064  -27.6308   19.4693 C   0  0  0  0  0  0
  -23.6738  -29.7822   20.1458 C   0  0  0  0  0  0
  -25.4123  -36.3013   24.0321 C   0  0  1  0  0  0
  -20.5925  -28.3727   23.1256 C   0  0  2  0  0  0
  -20.6807  -26.9439   22.5434 C   0  0  0  0  0  0
  -19.5800  -26.6385   21.5246 C   0  0  0  0  0  0
  -18.1953  -26.7957   22.1616 C   0  0  0  0  0  0
  -19.1552  -28.8875   23.2876 C   0  0  0  0  0  0
  -18.9480  -30.1464   23.8916 C   0  0  0  0  0  0
  -17.6471  -30.6613   24.0554 C   0  0  0  0  0  0
  -25.9082  -34.9404   23.5037 C   0  0  0  0  0  0
  -16.5365  -29.9111   23.6350 C   0  0  0  0  0  0
  -16.7280  -28.6532   23.0374 C   0  0  0  0  0  0
  -26.4538  -31.6562   25.0689 C   0  0  0  0  0  0
  -25.3729  -31.3756   26.1383 C   0  0  0  0  0  0
  -27.0418  -30.2964   24.6289 C   0  0  0  0  0  0
  -27.6064  -32.4320   25.7486 C   0  0  0  0  0  0
  -27.5577  -37.1770   24.8457 C   0  0  0  0  0  0
  -21.4246  -29.3061   22.3599 N   0  0  0  0  0  0
  -26.4264  -37.3743   23.9423 N   0  0  0  0  0  0
  -24.7136  -31.0344   22.0863 N   0  0  0  0  0  0
  -23.4193  -28.8159   23.3003 O   0  0  0  0  0  0
  -28.3337  -26.2709   20.2860 O   0  0  0  0  0  0
  -26.5646  -34.8920   22.4603 O   0  0  0  0  0  0
  -23.5538  -32.1279   23.7113 O   0  0  0  0  0  0
  -28.0904  -19.5100   20.1393 C   0  0  0  0  0  0
  -29.4280  -19.7619   20.0178 C   0  0  0  0  0  0
  -29.4002  -17.3524   20.3879 C   0  0  0  0  0  0
  -28.4512  -23.4779   19.8179 C   0  0  0  0  0  0
  -31.8212  -22.7627   20.0907 C   0  0  0  0  0  0
  -31.5318  -21.2887   19.8086 C   0  0  0  0  0  0
  -30.6155  -23.1289   20.9406 C   0  0  0  0  0  0
  -29.9870  -21.2195   19.6163 C   0  0  2  0  0  0
  -28.6633  -25.0600   19.4157 C   0  0  0  0  0  0
  -30.1662  -18.4846   20.1326 N   0  0  0  0  0  0
  -29.4825  -22.5943   20.1935 N   0  0  0  0  0  0
  -29.6817  -15.9087   20.7233 N   0  0  0  0  0  0
  -27.3345  -23.0034   19.5769 O   0  0  0  0  0  0
  -27.7017  -17.8311   20.4716 S   0  0  0  0  0  0
  -31.4948  -12.6788   19.1494 H   0  0  0  0  0  0
  -30.4348  -11.5379   19.9350 H   0  0  0  0  0  0
  -29.8256  -11.7809   17.5097 H   0  0  0  0  0  0
  -29.6410  -13.5049   17.7081 H   0  0  0  0  0  0
  -27.8984  -11.3097   18.8743 H   0  0  0  0  0  0
  -27.3899  -12.5724   17.7867 H   0  0  0  0  0  0
  -27.6418  -14.2693   19.4827 H   0  0  0  0  0  0
  -28.7837  -12.1526   21.3705 H   0  0  0  0  0  0
  -28.4402  -13.8067   21.8146 H   0  0  0  0  0  0
  -25.2725   -9.5711   22.4771 H   0  0  0  0  0  0
  -24.0014   -7.4616   22.7475 H   0  0  0  0  0  0
  -21.0806   -8.8707   19.8980 H   0  0  0  0  0  0
  -22.3600  -10.9656   19.6183 H   0  0  0  0  0  0
  -21.1992   -7.6143   23.9727 H   0  0  0  0  0  0
  -21.1509   -6.0521   25.9105 H   0  0  0  0  0  0
  -22.0598   -2.7592   23.2835 H   0  0  0  0  0  0
  -22.3962  -11.9893   22.4859 H   0  0  0  0  0  0
  -21.1043  -13.1365   22.2598 H   0  0  0  0  0  0
  -24.6351  -15.8305   20.4704 H   0  0  0  0  0  0
  -26.2560  -15.6189   20.0412 H   0  0  0  0  0  0
  -26.7282  -32.5288   23.1001 H   0  0  0  0  0  0
  -25.0172  -33.9599   25.0343 H   0  0  0  0  0  0
  -22.7517  -31.2862   21.3664 H   0  0  0  0  0  0
  -23.3777  -35.9551   23.3288 H   0  0  0  0  0  0
  -24.3626  -36.8871   22.2086 H   0  0  0  0  0  0
  -23.7225  -37.6418   23.6685 H   0  0  0  0  0  0
  -26.1589  -31.4920   20.6177 H   0  0  0  0  0  0
  -26.8629  -30.7681   22.0301 H   0  0  0  0  0  0
  -28.1195  -28.8420   21.2611 H   0  0  0  0  0  0
  -25.9998  -25.8396   19.0130 H   0  0  0  0  0  0
  -24.0088  -27.2699   18.9825 H   0  0  0  0  0  0
  -23.8073  -30.5526   19.3859 H   0  0  0  0  0  0
  -22.7904  -29.2201   19.8402 H   0  0  0  0  0  0
  -25.1322  -36.1833   25.0814 H   0  0  0  0  0  0
  -21.0024  -28.3336   24.1376 H   0  0  0  0  0  0
  -20.5743  -26.2340   23.3644 H   0  0  0  0  0  0
  -21.6662  -26.7485   22.1210 H   0  0  0  0  0  0
  -19.6966  -25.6284   21.1311 H   0  0  0  0  0  0
  -19.6769  -27.3162   20.6759 H   0  0  0  0  0  0
  -17.4248  -26.6707   21.3995 H   0  0  0  0  0  0
  -18.0328  -26.0098   22.9005 H   0  0  0  0  0  0
  -19.7952  -30.7258   24.2313 H   0  0  0  0  0  0
  -17.5047  -31.6311   24.5127 H   0  0  0  0  0  0
  -15.5366  -30.3015   23.7701 H   0  0  0  0  0  0
  -15.8680  -28.0860   22.7091 H   0  0  0  0  0  0
  -24.5887  -30.7142   25.7692 H   0  0  0  0  0  0
  -24.8960  -32.2945   26.4802 H   0  0  0  0  0  0
  -25.8015  -30.8914   27.0164 H   0  0  0  0  0  0
  -26.3039  -29.6660   24.1314 H   0  0  0  0  0  0
  -27.4054  -29.7312   25.4887 H   0  0  0  0  0  0
  -27.8940  -30.4221   23.9601 H   0  0  0  0  0  0
  -27.2650  -33.3613   26.2061 H   0  0  0  0  0  0
  -28.3891  -32.6874   25.0330 H   0  0  0  0  0  0
  -28.0718  -31.8440   26.5409 H   0  0  0  0  0  0
  -28.2540  -38.0117   24.7545 H   0  0  0  0  0  0
  -28.1099  -36.2644   24.6188 H   0  0  0  0  0  0
  -27.2313  -37.1315   25.8859 H   0  0  0  0  0  0
  -20.9424  -29.8700   21.6728 H   0  0  0  0  0  0
  -26.0122  -38.2792   24.1460 H   0  0  0  0  0  0
  -27.2945  -20.2331   20.0309 H   0  0  0  0  0  0
  -31.8200  -23.3496   19.1675 H   0  0  0  0  0  0
  -32.7670  -22.9301   20.6062 H   0  0  0  0  0  0
  -31.8238  -20.7286   20.7027 H   0  0  0  0  0  0
  -32.1061  -20.8768   18.9736 H   0  0  0  0  0  0
  -30.5459  -24.1935   21.1758 H   0  0  0  0  0  0
  -30.6856  -22.5978   21.8935 H   0  0  0  0  0  0
  -29.8304  -21.3296   18.5398 H   0  0  0  0  0  0
  -28.1826  -25.2134   18.4491 H   0  0  0  0  0  0
  -29.7283  -25.1480   19.2013 H   0  0  0  0  0  0
  -28.8534  -15.4994   21.1246 H   0  0  0  0  0  0
  1 25  1  0  0  0
  1 30  2  0  0  0
  1 82  1  0  0  0
  2  3  1  0  0  0
  2 25  1  0  0  0
  2 85  1  0  0  0
  2 86  1  0  0  0
  3  4  1  0  0  0
  3 87  1  0  0  0
  3 88  1  0  0  0
  4  5  1  0  0  0
  4 89  1  0  0  0
  4 90  1  0  0  0
  5  6  1  0  0  0
  5 26  1  0  0  0
  5 91  1  0  0  0
  6 25  1  0  0  0
  6 92  1  0  0  0
  6 93  1  0  0  0
  7  8  2  0  0  0
  7 26  1  0  0  0
  7 29  1  0  0  0
  8  9  1  0  0  0
  8 22  1  0  0  0
  9 10  1  0  0  0
  9 27  2  0  0  0
 10 11  2  0  0  0
 10 15  1  0  0  0
 11 12  1  0  0  0
 11 94  1  0  0  0
 12 13  2  0  0  0
 12 95  1  0  0  0
 13 14  1  0  0  0
 13 31  1  0  0  0
 14 15  2  0  0  0
 14 96  1  0  0  0
 15 97  1  0  0  0
 16 17  2  0  0  0
 16 21  1  0  0  0
 16 31  1  0  0  0
 17 18  1  0  0  0
 17 98  1  0  0  0
 18 19  2  0  0  0
 18 99  1  0  0  0
 19 20  1  0  0  0
 19 24  1  0  0  0
 20 21  2  0  0  0
 20100  1  0  0  0
 21 23  1  0  0  0
 22 28  1  0  0  0
 22 32  2  0  0  0
 26 27  1  0  0  0
 28101  1  0  0  0
 28102  1  0  0  0
 29103  1  0  0  0
 29104  1  0  0  0
 33 34  1  0  0  0
 33 66  1  0  0  0
 33 70  2  0  0  0
 34 36  1  0  0  0
 34 59  1  0  0  0
 34105  1  0  0  0
 35 44  2  0  0  0
 35 45  1  0  0  0
 35 68  1  0  0  0
 36 56  1  0  0  0
 36106  1  0  0  0
 37 39  1  0  0  0
 37 47  1  0  0  0
 37 66  1  0  0  0
 37107  1  0  0  0
 38 43  2  0  0  0
 38 46  1  0  0  0
 38 47  1  0  0  0
 39 64  1  0  0  0
 39 67  2  0  0  0
 40 52  1  0  0  0
 40 53  2  0  0  0
 40 58  1  0  0  0
 41108  1  0  0  0
 41109  1  0  0  0
 41110  1  0  0  0
 41 48  1  0  0  0
 42 43  1  0  0  0
 42 66  1  0  0  0
 42111  1  0  0  0
 42112  1  0  0  0
 43 44  1  0  0  0
 44113  1  0  0  0
 45 46  2  0  0  0
 45114  1  0  0  0
 46115  1  0  0  0
 47116  1  0  0  0
 47117  1  0  0  0
 48 56  1  0  0  0
 48 65  1  0  0  0
 48118  1  0  0  0
 49 50  1  0  0  0
 49 53  1  0  0  0
 49 64  1  0  0  0
 49119  1  0  0  0
 50 51  1  0  0  0
 50120  1  0  0  0
 50121  1  0  0  0
 51 52  1  0  0  0
 51122  1  0  0  0
 51123  1  0  0  0
 52124  1  0  0  0
 52125  1  0  0  0
 53 54  1  0  0  0
 54 55  2  0  0  0
 54126  1  0  0  0
 55 57  1  0  0  0
 55127  1  0  0  0
 56 69  2  0  0  0
 57 58  2  0  0  0
 57128  1  0  0  0
 58129  1  0  0  0
 59 60  1  0  0  0
 59 61  1  0  0  0
 59 62  1  0  0  0
 60130  1  0  0  0
 60131  1  0  0  0
 60132  1  0  0  0
 61133  1  0  0  0
 61134  1  0  0  0
 61135  1  0  0  0
 62136  1  0  0  0
 62137  1  0  0  0
 62138  1  0  0  0
 63 65  1  0  0  0
 63139  1  0  0  0
 63140  1  0  0  0
 63141  1  0  0  0
 64142  1  0  0  0
 65143  1  0  0  0
 68 79  1  0  0  0
 71 72  2  0  0  0
 71 84  1  0  0  0
 71144  1  0  0  0
 72 80  1  0  0  0
 72 78  1  0  0  0
 73 80  2  0  0  0
 73 82  1  0  0  0
 73 84  1  0  0  0
 74 79  1  0  0  0
 74 81  1  0  0  0
 74 83  2  0  0  0
 75 76  1  0  0  0
 75 77  1  0  0  0
 75145  1  0  0  0
 75146  1  0  0  0
 76 78  1  0  0  0
 76147  1  0  0  0
 76148  1  0  0  0
 77 81  1  0  0  0
 77149  1  0  0  0
 77150  1  0  0  0
 78 81  1  0  0  0
 78151  1  0  0  0
 79152  1  0  0  0
 79153  1  0  0  0
 82154  1  0  0  0
M  ISO  4   1 100  68 101  79 101  82 100
M  END
> <chiral flag>
0

> <version>
0

> <s_m_source_file>
/data/baiqing/PycharmProjects/Reinvent-master-3.2/result/LINK_invent/BTK/process_docking_weight1_custom_product_contain_oxygen_bond_distance_aromatic_linkinvent_7_9_3/rearranged_h_0157.sdf

> <i_m_source_file_index>
76

> <r_mmod_Potential_Energy-OPLS-2005>
443.734710693359

> <r_mmod_Stretch_Energy-OPLS-2005>
188.191207885742

> <r_mmod_Bend_Energy-OPLS-2005>
329.171661376953

> <r_mmod_Torsional_Energy-OPLS-2005>
319.699768066406

> <r_mmod_Improper_Torsional_Energy-OPLS-2005>
10.3449068069458

> <r_mmod_Van_der_Waal_Energy-OPLS-2005>
101.136413574219

> <r_mmod_Electrostatic_Energy-OPLS-2005>
-401.135711669922

> <r_mmod_Solvation_Energy-OPLS-2005>
-244.560760498047

> <b_mmod_Minimization_Converged-OPLS-2005>
0

> <r_mmod_RMS_Derivative-OPLS-2005>
6.64874410629272

$$$$
76
                    3D
 Structure written by MMmdl.
172181  0  0  1  0            999 V2000
  -30.6515  -14.7666   20.3789 C   0  0  0  0  0  0
  -30.4398  -12.4615   19.4646 C   0  0  0  0  0  0
  -29.5264  -12.5094   18.2239 C   0  0  0  0  0  0
  -28.0427  -12.3634   18.6236 C   0  0  0  0  0  0
  -27.6490  -13.2496   19.8370 C   0  0  2  0  0  0
  -28.6998  -13.2144   20.9668 C   0  0  0  0  0  0
  -25.2545  -13.8249   20.5689 C   0  0  0  0  0  0
  -24.1850  -13.0475   20.9215 C   0  0  0  0  0  0
  -24.6459  -11.6954   20.8709 C   0  0  0  0  0  0
  -23.9129  -10.4328   21.0401 C   0  0  0  0  0  0
  -24.3649   -9.4229   21.9190 C   0  0  0  0  0  0
  -23.6321   -8.2256   22.0767 C   0  0  0  0  0  0
  -22.4297   -8.0311   21.3564 C   0  0  0  0  0  0
  -21.9959   -9.0273   20.4658 C   0  0  0  0  0  0
  -22.7294  -10.2159   20.3040 C   0  0  0  0  0  0
  -21.6871   -6.0748   22.5301 C   0  0  0  0  0  0
  -21.4012   -6.5646   23.8233 C   0  0  0  0  0  0
  -21.3624   -5.6798   24.9190 C   0  0  0  0  0  0
  -21.6041   -4.3065   24.7239 C   0  0  0  0  0  0
  -21.8820   -3.8167   23.4364 C   0  0  0  0  0  0
  -21.9210   -4.6987   22.3415 C   0  0  0  0  0  0
  -22.7853  -13.5246   21.1863 C   0  0  0  0  0  0
  -22.1683   -4.2172   21.0996 F   0  0  0  0  0  0
  -21.5613   -3.4533   25.7735 F   0  0  0  0  0  0
  -30.0018  -13.5481   20.3702 N   0  0  0  0  0  0
  -26.2991  -12.9502   20.3207 N   0  0  0  0  0  0
  -25.9400  -11.6614   20.5665 N   0  0  0  0  0  0
  -22.0438  -12.8212   22.0353 N   0  0  0  0  0  0
  -25.4173  -15.1980   20.4120 N   0  0  0  0  0  0
  -31.8580  -14.7970   20.1266 O   0  0  0  0  0  0
  -21.6659   -6.8888   21.4257 O   0  0  0  0  0  0
  -22.3536  -14.5551   20.6696 O   0  0  0  0  0  0
  -24.6347  -31.8571   23.2054 C   0  0  0  0  0  0
  -25.9200  -32.4729   23.8368 C   0  0  1  0  0  0
  -27.1901  -27.2463   20.0814 C   0  0  0  0  0  0
  -25.6021  -33.8527   24.2283 N   0  0  0  0  0  0
  -23.4262  -30.4948   21.5468 C   0  0  2  0  0  0
  -24.8629  -28.9526   20.1005 C   0  0  0  0  0  0
  -22.7504  -29.4649   22.4848 C   0  0  0  0  0  0
  -18.0312  -28.1407   22.8463 C   0  0  0  0  0  0
  -24.1473  -36.7202   23.2634 C   0  0  0  0  0  0
  -25.9814  -30.7537   21.4059 C   0  0  0  0  0  0
  -26.0376  -29.3849   20.7255 C   0  0  0  0  0  0
  -27.1960  -28.5380   20.7188 C   0  0  0  0  0  0
  -25.9788  -26.8915   19.4391 C   0  0  0  0  0  0
  -24.8389  -27.7150   19.4523 C   0  0  0  0  0  0
  -23.6433  -29.8524   20.1547 C   0  0  0  0  0  0
  -25.4101  -36.3007   24.0328 C   0  0  1  0  0  0
  -20.5931  -28.3719   23.1228 C   0  0  2  0  0  0
  -20.6775  -26.9420   22.5384 C   0  0  0  0  0  0
  -19.5749  -26.6397   21.5179 C   0  0  0  0  0  0
  -18.1939  -26.7961   22.1589 C   0  0  0  0  0  0
  -19.1576  -28.8879   23.2848 C   0  0  0  0  0  0
  -18.9491  -30.1478   23.8855 C   0  0  0  0  0  0
  -17.6492  -30.6597   24.0576 C   0  0  0  0  0  0
  -25.9063  -34.9411   23.5086 C   0  0  0  0  0  0
  -16.5373  -29.9075   23.6373 C   0  0  0  0  0  0
  -16.7307  -28.6507   23.0364 C   0  0  0  0  0  0
  -26.4536  -31.6563   25.0790 C   0  0  0  0  0  0
  -25.3732  -31.3777   26.1501 C   0  0  0  0  0  0
  -27.0390  -30.2939   24.6394 C   0  0  0  0  0  0
  -27.6108  -32.4298   25.7551 C   0  0  0  0  0  0
  -27.5574  -37.1731   24.8438 C   0  0  0  0  0  0
  -21.4211  -29.3046   22.3568 N   0  0  0  0  0  0
  -26.4230  -37.3765   23.9459 N   0  0  0  0  0  0
  -24.6981  -31.0542   22.1050 N   0  0  0  0  0  0
  -23.4199  -28.8165   23.2948 O   0  0  0  0  0  0
  -28.2860  -26.3429   20.1359 O   0  0  0  0  0  0
  -26.5596  -34.8892   22.4619 O   0  0  0  0  0  0
  -23.5498  -32.1431   23.7331 O   0  0  0  0  0  0
  -31.6035  -18.9085   18.7024 C   0  0  0  0  0  0
  -30.8371  -20.0229   19.0925 C   0  0  0  0  0  0
  -31.3046  -17.6055   19.1590 C   0  0  0  0  0  0
  -29.4313  -18.5191   20.4015 C   0  0  0  0  0  0
  -29.7327  -19.8822   19.9585 C   0  0  0  0  0  0
  -30.2159  -17.3443   20.0323 C   0  0  0  0  0  0
  -28.5708  -22.3851   19.4369 C   0  0  0  0  0  0
  -28.6956  -23.6379   19.9798 C   0  0  0  0  0  0
  -28.0839  -22.1434   18.0526 C   0  0  0  0  0  0
  -29.3051  -23.4710   21.3528 C   0  0  0  0  0  0
  -28.9512  -21.2112   20.4018 C   0  0  2  0  0  0
  -25.2685  -21.0755   19.0619 C   0  0  0  0  0  0
  -25.2903  -21.8777   16.6650 C   0  0  0  0  0  0
  -25.3678  -19.4331   17.1833 C   0  0  0  0  0  0
  -28.3440  -25.0628   19.3387 C   0  0  0  0  0  0
  -27.3953  -20.8141   17.6833 C   0  0  0  0  0  0
  -25.8406  -20.8238   17.6524 C   0  0  0  0  0  0
  -29.9068  -15.9410   20.4641 N   0  0  0  0  0  0
  -29.6405  -22.0062   21.4606 N   0  3  0  0  0  0
  -28.2000  -22.9902   17.1622 O   0  0  0  0  0  0
  -31.4799  -12.5773   19.1526 H   0  0  0  0  0  0
  -30.3807  -11.4924   19.9635 H   0  0  0  0  0  0
  -29.8114  -11.7271   17.5184 H   0  0  0  0  0  0
  -29.6784  -13.4537   17.6988 H   0  0  0  0  0  0
  -27.8618  -11.3145   18.8537 H   0  0  0  0  0  0
  -27.4131  -12.6069   17.7674 H   0  0  0  0  0  0
  -27.6345  -14.2727   19.4574 H   0  0  0  0  0  0
  -28.7357  -12.2356   21.4500 H   0  0  0  0  0  0
  -28.4422  -13.9351   21.7442 H   0  0  0  0  0  0
  -25.2793   -9.5730   22.4753 H   0  0  0  0  0  0
  -24.0051   -7.4661   22.7489 H   0  0  0  0  0  0
  -21.0902   -8.8801   19.8957 H   0  0  0  0  0  0
  -22.3775  -10.9670   19.6118 H   0  0  0  0  0  0
  -21.1985   -7.6150   23.9730 H   0  0  0  0  0  0
  -21.1428   -6.0524   25.9093 H   0  0  0  0  0  0
  -22.0619   -2.7640   23.2856 H   0  0  0  0  0  0
  -22.3991  -11.9884   22.4806 H   0  0  0  0  0  0
  -21.1022  -13.1229   22.2418 H   0  0  0  0  0  0
  -24.6506  -15.8477   20.5506 H   0  0  0  0  0  0
  -26.2508  -15.6473   20.0560 H   0  0  0  0  0  0
  -26.7278  -32.5337   23.1106 H   0  0  0  0  0  0
  -25.0262  -33.9674   25.0495 H   0  0  0  0  0  0
  -22.7243  -31.3215   21.4177 H   0  0  0  0  0  0
  -23.3807  -35.9450   23.3160 H   0  0  0  0  0  0
  -24.3617  -36.8941   22.2077 H   0  0  0  0  0  0
  -23.7119  -37.6313   23.6745 H   0  0  0  0  0  0
  -26.1676  -31.5313   20.6638 H   0  0  0  0  0  0
  -26.8381  -30.7629   22.0652 H   0  0  0  0  0  0
  -28.0861  -28.8543   21.2418 H   0  0  0  0  0  0
  -25.8273  -25.9615   18.9221 H   0  0  0  0  0  0
  -23.9388  -27.3844   18.9526 H   0  0  0  0  0  0
  -23.7789  -30.6421   19.4138 H   0  0  0  0  0  0
  -22.7552  -29.3019   19.8411 H   0  0  0  0  0  0
  -25.1275  -36.1794   25.0817 H   0  0  0  0  0  0
  -21.0078  -28.3299   24.1331 H   0  0  0  0  0  0
  -20.5652  -26.2325   23.3592 H   0  0  0  0  0  0
  -21.6646  -26.7407   22.1217 H   0  0  0  0  0  0
  -19.6891  -25.6290   21.1238 H   0  0  0  0  0  0
  -19.6722  -27.3159   20.6660 H   0  0  0  0  0  0
  -17.4231  -26.6764   21.3949 H   0  0  0  0  0  0
  -18.0304  -26.0096   22.8973 H   0  0  0  0  0  0
  -19.7983  -30.7314   24.2166 H   0  0  0  0  0  0
  -17.5063  -31.6268   24.5193 H   0  0  0  0  0  0
  -15.5376  -30.2949   23.7752 H   0  0  0  0  0  0
  -15.8711  -28.0815   22.7084 H   0  0  0  0  0  0
  -24.5865  -30.7183   25.7816 H   0  0  0  0  0  0
  -24.8983  -32.2980   26.4910 H   0  0  0  0  0  0
  -25.8020  -30.8937   27.0288 H   0  0  0  0  0  0
  -26.3001  -29.6643   24.1433 H   0  0  0  0  0  0
  -27.3989  -29.7271   25.4994 H   0  0  0  0  0  0
  -27.8937  -30.4123   23.9732 H   0  0  0  0  0  0
  -27.2776  -33.3664   26.2040 H   0  0  0  0  0  0
  -28.3979  -32.6733   25.0400 H   0  0  0  0  0  0
  -28.0721  -31.8453   26.5527 H   0  0  0  0  0  0
  -28.2478  -38.0140   24.7672 H   0  0  0  0  0  0
  -28.1172  -36.2682   24.6013 H   0  0  0  0  0  0
  -27.2349  -37.1096   25.8845 H   0  0  0  0  0  0
  -20.9359  -29.8755   21.6782 H   0  0  0  0  0  0
  -26.0056  -38.2782   24.1598 H   0  0  0  0  0  0
  -32.4513  -19.0548   18.0428 H   0  0  0  0  0  0
  -31.1265  -21.0000   18.7212 H   0  0  0  0  0  0
  -31.9499  -16.8173   18.7974 H   0  0  0  0  0  0
  -28.5758  -18.3735   21.0474 H   0  0  0  0  0  0
  -28.5803  -23.7682   22.1105 H   0  0  0  0  0  0
  -30.1964  -24.0908   21.4698 H   0  0  0  0  0  0
  -27.9988  -20.8748   20.8173 H   0  0  0  0  0  0
  -24.1863  -20.9385   19.0787 H   0  0  0  0  0  0
  -25.4708  -22.0887   19.4110 H   0  0  0  0  0  0
  -25.6906  -20.3797   19.7879 H   0  0  0  0  0  0
  -24.2047  -21.8233   16.5709 H   0  0  0  0  0  0
  -25.7120  -21.7459   15.6669 H   0  0  0  0  0  0
  -25.5250  -22.8940   16.9812 H   0  0  0  0  0  0
  -24.2791  -19.3598   17.1629 H   0  0  0  0  0  0
  -25.7284  -18.6426   17.8416 H   0  0  0  0  0  0
  -25.7277  -19.2069   16.1785 H   0  0  0  0  0  0
  -27.4691  -24.8888   18.7221 H   0  0  0  0  0  0
  -29.1270  -25.2422   18.6011 H   0  0  0  0  0  0
  -27.7261  -20.0203   18.3496 H   0  0  0  0  0  0
  -27.7645  -20.5357   16.6961 H   0  0  0  0  0  0
  -28.9617  -15.7941   20.7889 H   0  0  0  0  0  0
  -29.4182  -21.6562   22.3776 H   0  0  0  0  0  0
  -30.6348  -21.9021   21.3344 H   0  0  0  0  0  0
  1 25  1  0  0  0
  1 30  2  0  0  0
  1 88  1  0  0  0
  2  3  1  0  0  0
  2 25  1  0  0  0
  2 91  1  0  0  0
  2 92  1  0  0  0
  3  4  1  0  0  0
  3 93  1  0  0  0
  3 94  1  0  0  0
  4  5  1  0  0  0
  4 95  1  0  0  0
  4 96  1  0  0  0
  5  6  1  0  0  0
  5 26  1  0  0  0
  5 97  1  0  0  0
  6 25  1  0  0  0
  6 98  1  0  0  0
  6 99  1  0  0  0
  7  8  2  0  0  0
  7 26  1  0  0  0
  7 29  1  0  0  0
  8  9  1  0  0  0
  8 22  1  0  0  0
  9 10  1  0  0  0
  9 27  2  0  0  0
 10 11  2  0  0  0
 10 15  1  0  0  0
 11 12  1  0  0  0
 11100  1  0  0  0
 12 13  2  0  0  0
 12101  1  0  0  0
 13 14  1  0  0  0
 13 31  1  0  0  0
 14 15  2  0  0  0
 14102  1  0  0  0
 15103  1  0  0  0
 16 17  2  0  0  0
 16 21  1  0  0  0
 16 31  1  0  0  0
 17 18  1  0  0  0
 17104  1  0  0  0
 18 19  2  0  0  0
 18105  1  0  0  0
 19 20  1  0  0  0
 19 24  1  0  0  0
 20 21  2  0  0  0
 20106  1  0  0  0
 21 23  1  0  0  0
 22 28  1  0  0  0
 22 32  2  0  0  0
 26 27  1  0  0  0
 28107  1  0  0  0
 28108  1  0  0  0
 29109  1  0  0  0
 29110  1  0  0  0
 33 34  1  0  0  0
 33 66  1  0  0  0
 33 70  2  0  0  0
 34 36  1  0  0  0
 34 59  1  0  0  0
 34111  1  0  0  0
 35 44  2  0  0  0
 35 45  1  0  0  0
 35 68  1  0  0  0
 36 56  1  0  0  0
 36112  1  0  0  0
 37 39  1  0  0  0
 37 47  1  0  0  0
 37 66  1  0  0  0
 37113  1  0  0  0
 38 43  2  0  0  0
 38 46  1  0  0  0
 38 47  1  0  0  0
 39 64  1  0  0  0
 39 67  2  0  0  0
 40 52  1  0  0  0
 40 53  2  0  0  0
 40 58  1  0  0  0
 41114  1  0  0  0
 41115  1  0  0  0
 41116  1  0  0  0
 41 48  1  0  0  0
 42 43  1  0  0  0
 42 66  1  0  0  0
 42117  1  0  0  0
 42118  1  0  0  0
 43 44  1  0  0  0
 44119  1  0  0  0
 45 46  2  0  0  0
 45120  1  0  0  0
 46121  1  0  0  0
 47122  1  0  0  0
 47123  1  0  0  0
 48 56  1  0  0  0
 48 65  1  0  0  0
 48124  1  0  0  0
 49 50  1  0  0  0
 49 53  1  0  0  0
 49 64  1  0  0  0
 49125  1  0  0  0
 50 51  1  0  0  0
 50126  1  0  0  0
 50127  1  0  0  0
 51 52  1  0  0  0
 51128  1  0  0  0
 51129  1  0  0  0
 52130  1  0  0  0
 52131  1  0  0  0
 53 54  1  0  0  0
 54 55  2  0  0  0
 54132  1  0  0  0
 55 57  1  0  0  0
 55133  1  0  0  0
 56 69  2  0  0  0
 57 58  2  0  0  0
 57134  1  0  0  0
 58135  1  0  0  0
 59 60  1  0  0  0
 59 61  1  0  0  0
 59 62  1  0  0  0
 60136  1  0  0  0
 60137  1  0  0  0
 60138  1  0  0  0
 61139  1  0  0  0
 61140  1  0  0  0
 61141  1  0  0  0
 62142  1  0  0  0
 62143  1  0  0  0
 62144  1  0  0  0
 63 65  1  0  0  0
 63145  1  0  0  0
 63146  1  0  0  0
 63147  1  0  0  0
 64148  1  0  0  0
 65149  1  0  0  0
 68 85  1  0  0  0
 71 72  2  0  0  0
 71 73  1  0  0  0
 71150  1  0  0  0
 72 75  1  0  0  0
 72151  1  0  0  0
 73 76  2  0  0  0
 73152  1  0  0  0
 74 75  2  0  0  0
 74 76  1  0  0  0
 74153  1  0  0  0
 75 81  1  0  0  0
 76 88  1  0  0  0
 77 78  2  0  0  0
 77 79  1  0  0  0
 77 81  1  0  0  0
 78 80  1  0  0  0
 78 85  1  0  0  0
 79 86  1  0  0  0
 79 90  2  0  0  0
 80 89  1  0  0  0
 80154  1  0  0  0
 80155  1  0  0  0
 81 89  1  0  0  0
 81156  1  0  0  0
 82157  1  0  0  0
 82158  1  0  0  0
 82159  1  0  0  0
 82 87  1  0  0  0
 83 87  1  0  0  0
 83160  1  0  0  0
 83161  1  0  0  0
 83162  1  0  0  0
 84 87  1  0  0  0
 84163  1  0  0  0
 84164  1  0  0  0
 84165  1  0  0  0
 85166  1  0  0  0
 85167  1  0  0  0
 86 87  1  0  0  0
 86168  1  0  0  0
 86169  1  0  0  0
 88170  1  0  0  0
 89171  1  0  0  0
 89172  1  0  0  0
M  CHG  1  89   1
M  ISO  4   1 100  68 101  85 101  88 100
M  END
> <chiral flag>
0

> <version>
0

> <s_m_source_file>
/data/baiqing/PycharmProjects/Reinvent-master-3.2/result/LINK_invent/BTK/process_docking_weight1_custom_product_contain_oxygen_bond_distance_aromatic_linkinvent_7_9_3/rearranged_h_0157.sdf

> <i_m_source_file_index>
77

> <r_mmod_Potential_Energy-OPLS-2005>
24.3259201049805

> <r_mmod_Stretch_Energy-OPLS-2005>
132.109954833984

> <r_mmod_Bend_Energy-OPLS-2005>
237.26628112793

> <r_mmod_Torsional_Energy-OPLS-2005>
230.589447021484

> <r_mmod_Improper_Torsional_Energy-OPLS-2005>
4.78786659240723

> <r_mmod_Van_der_Waal_Energy-OPLS-2005>
136.188522338867

> <r_mmod_Electrostatic_Energy-OPLS-2005>
-330.553894042969

> <r_mmod_Solvation_Energy-OPLS-2005>
-486.184356689453

> <b_mmod_Minimization_Converged-OPLS-2005>
0

> <r_mmod_RMS_Derivative-OPLS-2005>
5.49747848510742

$$$$
77
                    3D
 Structure written by MMmdl.
156165  0  0  1  0            999 V2000
  -30.6623  -14.5109   20.5397 C   0  0  0  0  0  0
  -30.4311  -12.3223   19.4313 C   0  0  0  0  0  0
  -29.4979  -12.4921   18.2127 C   0  0  0  0  0  0
  -28.0186  -12.3539   18.6263 C   0  0  0  0  0  0
  -27.6596  -13.2044   19.8744 C   0  0  2  0  0  0
  -28.7002  -12.9938   20.9980 C   0  0  0  0  0  0
  -25.2583  -13.8165   20.5685 C   0  0  0  0  0  0
  -24.1836  -13.0455   20.9186 C   0  0  0  0  0  0
  -24.6384  -11.6920   20.8743 C   0  0  0  0  0  0
  -23.9053  -10.4298   21.0413 C   0  0  0  0  0  0
  -24.3613   -9.4216   21.9185 C   0  0  0  0  0  0
  -23.6292   -8.2252   22.0758 C   0  0  0  0  0  0
  -22.4269   -8.0291   21.3556 C   0  0  0  0  0  0
  -21.9904   -9.0253   20.4651 C   0  0  0  0  0  0
  -22.7231  -10.2134   20.3059 C   0  0  0  0  0  0
  -21.6845   -6.0735   22.5283 C   0  0  0  0  0  0
  -21.4002   -6.5638   23.8216 C   0  0  0  0  0  0
  -21.3662   -5.6791   24.9177 C   0  0  0  0  0  0
  -21.6046   -4.3049   24.7232 C   0  0  0  0  0  0
  -21.8814   -3.8146   23.4348 C   0  0  0  0  0  0
  -21.9187   -4.6963   22.3411 C   0  0  0  0  0  0
  -22.7854  -13.5252   21.1849 C   0  0  0  0  0  0
  -22.1653   -4.2156   21.0982 F   0  0  0  0  0  0
  -21.5638   -3.4543   25.7752 F   0  0  0  0  0  0
  -30.0288  -13.3088   20.4465 N   0  0  0  0  0  0
  -26.3010  -12.9329   20.3359 N   0  0  0  0  0  0
  -25.9304  -11.6499   20.5774 N   0  0  0  0  0  0
  -22.0493  -12.8234   22.0405 N   0  0  0  0  0  0
  -25.4307  -15.1876   20.4089 N   0  0  0  0  0  0
  -31.8037  -14.6865   20.1029 O   0  0  0  0  0  0
  -21.6638   -6.8880   21.4247 O   0  0  0  0  0  0
  -22.3553  -14.5567   20.6704 O   0  0  0  0  0  0
  -24.6159  -31.8681   23.2081 C   0  0  0  0  0  0
  -25.9048  -32.4827   23.8368 C   0  0  1  0  0  0
  -27.2296  -27.4285   20.0982 C   0  0  0  0  0  0
  -25.5911  -33.8623   24.2315 N   0  0  0  0  0  0
  -23.4033  -30.4909   21.5493 C   0  0  2  0  0  0
  -24.8494  -28.9518   20.1163 C   0  0  0  0  0  0
  -22.7408  -29.4669   22.4997 C   0  0  0  0  0  0
  -18.0277  -28.1381   22.8511 C   0  0  0  0  0  0
  -24.1486  -36.7301   23.2639 C   0  0  0  0  0  0
  -25.9316  -30.8330   21.3600 C   0  0  0  0  0  0
  -26.0101  -29.4647   20.7101 C   0  0  0  0  0  0
  -27.2071  -28.7116   20.6939 C   0  0  0  0  0  0
  -26.0555  -26.9283   19.4996 C   0  0  0  0  0  0
  -24.8664  -27.6838   19.5087 C   0  0  0  0  0  0
  -23.6108  -29.8181   20.1660 C   0  0  0  0  0  0
  -25.4111  -36.3113   24.0341 C   0  0  1  0  0  0
  -20.5859  -28.3672   23.1331 C   0  0  2  0  0  0
  -20.6768  -26.9403   22.5429 C   0  0  0  0  0  0
  -19.5747  -26.6399   21.5231 C   0  0  0  0  0  0
  -18.1926  -26.7940   22.1623 C   0  0  0  0  0  0
  -19.1520  -28.8847   23.2922 C   0  0  0  0  0  0
  -18.9464  -30.1459   23.8927 C   0  0  0  0  0  0
  -17.6464  -30.6589   24.0581 C   0  0  0  0  0  0
  -25.9049  -34.9483   23.5127 C   0  0  0  0  0  0
  -16.5355  -29.9095   23.6328 C   0  0  0  0  0  0
  -16.7270  -28.6510   23.0363 C   0  0  0  0  0  0
  -26.4461  -31.6612   25.0699 C   0  0  0  0  0  0
  -25.3730  -31.3725   26.1452 C   0  0  0  0  0  0
  -27.0284  -30.3061   24.6073 C   0  0  0  0  0  0
  -27.6031  -32.4333   25.7457 C   0  0  0  0  0  0
  -27.5592  -37.1802   24.8461 C   0  0  0  0  0  0
  -21.4140  -29.3036   22.3732 N   0  0  0  0  0  0
  -26.4295  -37.3804   23.9423 N   0  0  0  0  0  0
  -24.6684  -31.0776   22.0980 N   0  0  0  0  0  0
  -23.4178  -28.8219   23.3046 O   0  0  0  0  0  0
  -28.3740  -26.6624   20.0904 O   0  0  0  0  0  0
  -26.5609  -34.8929   22.4690 O   0  0  0  0  0  0
  -23.5359  -32.1420   23.7508 O   0  0  0  0  0  0
  -29.1036  -17.8232   21.2823 C   0  0  0  0  0  0
  -29.3322  -19.1609   20.8017 C   0  0  0  0  0  0
  -30.3387  -19.1977   19.8819 C   0  0  0  0  0  0
  -29.9437  -16.8601   20.7530 C   0  0  0  0  0  0
  -28.4842  -24.1652   20.2848 C   0  0  0  0  0  0
  -28.6136  -20.4338   21.2428 C   0  0  0  0  0  0
  -30.7911  -20.4504   19.2140 C   0  0  0  0  0  0
  -30.4397  -21.6780   20.0804 C   0  0  0  0  0  0
  -28.5842  -22.9238   21.2055 C   0  0  0  0  0  0
  -28.3307  -25.5362   20.9914 C   0  0  0  0  0  0
  -29.9031  -15.5180   21.0330 N   0  0  0  0  0  0
  -29.0003  -21.6765   20.4836 N   0  3  2  0  0  0
  -28.4951  -24.0580   19.0523 O   0  0  0  0  0  0
  -31.0479  -17.6262   19.6171 S   0  0  0  0  0  0
  -31.4734  -12.4364   19.1247 H   0  0  0  0  0  0
  -30.3505  -11.3145   19.8413 H   0  0  0  0  0  0
  -29.7397  -11.7467   17.4540 H   0  0  0  0  0  0
  -29.6631  -13.4656   17.7481 H   0  0  0  0  0  0
  -27.8345  -11.2995   18.8363 H   0  0  0  0  0  0
  -27.3658  -12.6142   17.7922 H   0  0  0  0  0  0
  -27.7002  -14.2498   19.5683 H   0  0  0  0  0  0
  -28.6830  -11.9589   21.3445 H   0  0  0  0  0  0
  -28.4561  -13.5942   21.8752 H   0  0  0  0  0  0
  -25.2760   -9.5680   22.4751 H   0  0  0  0  0  0
  -24.0012   -7.4631   22.7456 H   0  0  0  0  0  0
  -21.0847   -8.8764   19.8939 H   0  0  0  0  0  0
  -22.3700  -10.9673   19.6156 H   0  0  0  0  0  0
  -21.1984   -7.6154   23.9727 H   0  0  0  0  0  0
  -21.1482   -6.0523   25.9084 H   0  0  0  0  0  0
  -22.0586   -2.7615   23.2858 H   0  0  0  0  0  0
  -22.4126  -11.9915   22.4809 H   0  0  0  0  0  0
  -21.1097  -13.1220   22.2587 H   0  0  0  0  0  0
  -24.6601  -15.8405   20.5038 H   0  0  0  0  0  0
  -26.2774  -15.6212   20.0632 H   0  0  0  0  0  0
  -26.7106  -32.5525   23.1118 H   0  0  0  0  0  0
  -25.0067  -33.9766   25.0466 H   0  0  0  0  0  0
  -22.6937  -31.3096   21.4102 H   0  0  0  0  0  0
  -23.3758  -35.9620   23.3297 H   0  0  0  0  0  0
  -24.3579  -36.8919   22.2054 H   0  0  0  0  0  0
  -23.7219  -37.6496   23.6650 H   0  0  0  0  0  0
  -26.0434  -31.5986   20.5911 H   0  0  0  0  0  0
  -26.8199  -30.8903   21.9771 H   0  0  0  0  0  0
  -28.1066  -29.1067   21.1454 H   0  0  0  0  0  0
  -26.0621  -25.9558   19.0263 H   0  0  0  0  0  0
  -23.9712  -27.2887   19.0487 H   0  0  0  0  0  0
  -23.7131  -30.5896   19.4032 H   0  0  0  0  0  0
  -22.7329  -29.2377   19.8746 H   0  0  0  0  0  0
  -25.1289  -36.1980   25.0840 H   0  0  0  0  0  0
  -20.9969  -28.3252   24.1442 H   0  0  0  0  0  0
  -20.5691  -26.2277   23.3626 H   0  0  0  0  0  0
  -21.6642  -26.7457   22.1219 H   0  0  0  0  0  0
  -19.6901  -25.6320   21.1243 H   0  0  0  0  0  0
  -19.6686  -27.3224   20.6774 H   0  0  0  0  0  0
  -17.4201  -26.6734   21.4010 H   0  0  0  0  0  0
  -18.0279  -26.0056   22.8984 H   0  0  0  0  0  0
  -19.7938  -30.7288   24.2293 H   0  0  0  0  0  0
  -17.5008  -31.6267   24.5189 H   0  0  0  0  0  0
  -15.5357  -30.3013   23.7634 H   0  0  0  0  0  0
  -15.8670  -28.0854   22.7062 H   0  0  0  0  0  0
  -24.5907  -30.7056   25.7803 H   0  0  0  0  0  0
  -24.8909  -32.2879   26.4892 H   0  0  0  0  0  0
  -25.8092  -30.8904   27.0212 H   0  0  0  0  0  0
  -26.2819  -29.6823   24.1142 H   0  0  0  0  0  0
  -27.4069  -29.7307   25.4534 H   0  0  0  0  0  0
  -27.8638  -30.4389   23.9200 H   0  0  0  0  0  0
  -27.2659  -33.3638   26.2041 H   0  0  0  0  0  0
  -28.3825  -32.6901   25.0268 H   0  0  0  0  0  0
  -28.0692  -31.8447   26.5368 H   0  0  0  0  0  0
  -28.2604  -38.0109   24.7555 H   0  0  0  0  0  0
  -28.1098  -36.2651   24.6232 H   0  0  0  0  0  0
  -27.2312  -37.1397   25.8862 H   0  0  0  0  0  0
  -20.9311  -29.8748   21.6941 H   0  0  0  0  0  0
  -26.0188  -38.2876   24.1447 H   0  0  0  0  0  0
  -28.3294  -17.6188   22.0109 H   0  0  0  0  0  0
  -28.8271  -20.5953   22.3012 H   0  0  0  0  0  0
  -27.5324  -20.3004   21.1736 H   0  0  0  0  0  0
  -30.3147  -20.5349   18.2363 H   0  0  0  0  0  0
  -31.8661  -20.4183   19.0308 H   0  0  0  0  0  0
  -30.6960  -22.5803   19.5242 H   0  0  0  0  0  0
  -31.0574  -21.6832   20.9796 H   0  0  0  0  0  0
  -27.5968  -22.7676   21.6423 H   0  0  0  0  0  0
  -29.2654  -23.1306   22.0301 H   0  0  0  0  0  0
  -29.1497  -25.6427   21.7040 H   0  0  0  0  0  0
  -27.4082  -25.5291   21.5754 H   0  0  0  0  0  0
  -29.0707  -15.2037   21.5081 H   0  0  0  0  0  0
  -28.4673  -21.6702   19.6271 H   0  0  0  0  0  0
  1 25  1  0  0  0
  1 30  2  0  0  0
  1 81  1  0  0  0
  2  3  1  0  0  0
  2 25  1  0  0  0
  2 85  1  0  0  0
  2 86  1  0  0  0
  3  4  1  0  0  0
  3 87  1  0  0  0
  3 88  1  0  0  0
  4  5  1  0  0  0
  4 89  1  0  0  0
  4 90  1  0  0  0
  5  6  1  0  0  0
  5 26  1  0  0  0
  5 91  1  0  0  0
  6 25  1  0  0  0
  6 92  1  0  0  0
  6 93  1  0  0  0
  7  8  2  0  0  0
  7 26  1  0  0  0
  7 29  1  0  0  0
  8  9  1  0  0  0
  8 22  1  0  0  0
  9 10  1  0  0  0
  9 27  2  0  0  0
 10 11  2  0  0  0
 10 15  1  0  0  0
 11 12  1  0  0  0
 11 94  1  0  0  0
 12 13  2  0  0  0
 12 95  1  0  0  0
 13 14  1  0  0  0
 13 31  1  0  0  0
 14 15  2  0  0  0
 14 96  1  0  0  0
 15 97  1  0  0  0
 16 17  2  0  0  0
 16 21  1  0  0  0
 16 31  1  0  0  0
 17 18  1  0  0  0
 17 98  1  0  0  0
 18 19  2  0  0  0
 18 99  1  0  0  0
 19 20  1  0  0  0
 19 24  1  0  0  0
 20 21  2  0  0  0
 20100  1  0  0  0
 21 23  1  0  0  0
 22 28  1  0  0  0
 22 32  2  0  0  0
 26 27  1  0  0  0
 28101  1  0  0  0
 28102  1  0  0  0
 29103  1  0  0  0
 29104  1  0  0  0
 33 34  1  0  0  0
 33 66  1  0  0  0
 33 70  2  0  0  0
 34 36  1  0  0  0
 34 59  1  0  0  0
 34105  1  0  0  0
 35 44  2  0  0  0
 35 45  1  0  0  0
 35 68  1  0  0  0
 36 56  1  0  0  0
 36106  1  0  0  0
 37 39  1  0  0  0
 37 47  1  0  0  0
 37 66  1  0  0  0
 37107  1  0  0  0
 38 43  2  0  0  0
 38 46  1  0  0  0
 38 47  1  0  0  0
 39 64  1  0  0  0
 39 67  2  0  0  0
 40 52  1  0  0  0
 40 53  2  0  0  0
 40 58  1  0  0  0
 41108  1  0  0  0
 41109  1  0  0  0
 41110  1  0  0  0
 41 48  1  0  0  0
 42 43  1  0  0  0
 42 66  1  0  0  0
 42111  1  0  0  0
 42112  1  0  0  0
 43 44  1  0  0  0
 44113  1  0  0  0
 45 46  2  0  0  0
 45114  1  0  0  0
 46115  1  0  0  0
 47116  1  0  0  0
 47117  1  0  0  0
 48 56  1  0  0  0
 48 65  1  0  0  0
 48118  1  0  0  0
 49 50  1  0  0  0
 49 53  1  0  0  0
 49 64  1  0  0  0
 49119  1  0  0  0
 50 51  1  0  0  0
 50120  1  0  0  0
 50121  1  0  0  0
 51 52  1  0  0  0
 51122  1  0  0  0
 51123  1  0  0  0
 52124  1  0  0  0
 52125  1  0  0  0
 53 54  1  0  0  0
 54 55  2  0  0  0
 54126  1  0  0  0
 55 57  1  0  0  0
 55127  1  0  0  0
 56 69  2  0  0  0
 57 58  2  0  0  0
 57128  1  0  0  0
 58129  1  0  0  0
 59 60  1  0  0  0
 59 61  1  0  0  0
 59 62  1  0  0  0
 60130  1  0  0  0
 60131  1  0  0  0
 60132  1  0  0  0
 61133  1  0  0  0
 61134  1  0  0  0
 61135  1  0  0  0
 62136  1  0  0  0
 62137  1  0  0  0
 62138  1  0  0  0
 63 65  1  0  0  0
 63139  1  0  0  0
 63140  1  0  0  0
 63141  1  0  0  0
 64142  1  0  0  0
 65143  1  0  0  0
 68 80  1  0  0  0
 71 72  1  0  0  0
 71 74  2  0  0  0
 71144  1  0  0  0
 72 73  2  0  0  0
 72 76  1  0  0  0
 73 77  1  0  0  0
 73 84  1  0  0  0
 74 81  1  0  0  0
 74 84  1  0  0  0
 75 79  1  0  0  0
 75 80  1  0  0  0
 75 83  2  0  0  0
 76 82  1  0  0  0
 76145  1  0  0  0
 76146  1  0  0  0
 77 78  1  0  0  0
 77147  1  0  0  0
 77148  1  0  0  0
 78 82  1  0  0  0
 78149  1  0  0  0
 78150  1  0  0  0
 79151  1  0  0  0
 79152  1  0  0  0
 79 82  1  0  0  0
 80153  1  0  0  0
 80154  1  0  0  0
 81155  1  0  0  0
 82156  1  0  0  0
M  CHG  1  82   1
M  ISO  4   1 100  68 101  80 101  81 100
M  END
> <chiral flag>
0

> <version>
0

> <s_m_source_file>
/data/baiqing/PycharmProjects/Reinvent-master-3.2/result/LINK_invent/BTK/process_docking_weight1_custom_product_contain_oxygen_bond_distance_aromatic_linkinvent_7_9_3/rearranged_h_0157.sdf

> <i_m_source_file_index>
78

> <r_mmod_Potential_Energy-OPLS-2005>
-273.363433837891

> <r_mmod_Stretch_Energy-OPLS-2005>
42.0258827209473

> <r_mmod_Bend_Energy-OPLS-2005>
108.164947509766

> <r_mmod_Torsional_Energy-OPLS-2005>
247.243286132812

> <r_mmod_Improper_Torsional_Energy-OPLS-2005>
3.81104636192322

> <r_mmod_Van_der_Waal_Energy-OPLS-2005>
135.770309448242

> <r_mmod_Electrostatic_Energy-OPLS-2005>
-343.291900634766

> <r_mmod_Solvation_Energy-OPLS-2005>
-483.162384033203

> <b_mmod_Minimization_Converged-OPLS-2005>
0

> <r_mmod_RMS_Derivative-OPLS-2005>
2.61985230445862

$$$$
78
                    3D
 Structure written by MMmdl.
166175  0  0  1  0            999 V2000
  -30.6334  -14.6648   20.4572 C   0  0  0  0  0  0
  -30.4298  -12.4011   19.4713 C   0  0  0  0  0  0
  -29.5134  -12.5037   18.2330 C   0  0  0  0  0  0
  -28.0337  -12.3535   18.6373 C   0  0  0  0  0  0
  -27.6508  -13.2286   19.8628 C   0  0  2  0  0  0
  -28.6923  -13.1163   20.9981 C   0  0  0  0  0  0
  -25.2549  -13.8202   20.5711 C   0  0  0  0  0  0
  -24.1820  -13.0452   20.9182 C   0  0  0  0  0  0
  -24.6396  -11.6926   20.8708 C   0  0  0  0  0  0
  -23.9064  -10.4305   21.0390 C   0  0  0  0  0  0
  -24.3620   -9.4221   21.9170 C   0  0  0  0  0  0
  -23.6300   -8.2258   22.0761 C   0  0  0  0  0  0
  -22.4274   -8.0288   21.3562 C   0  0  0  0  0  0
  -21.9910   -9.0255   20.4650 C   0  0  0  0  0  0
  -22.7239  -10.2133   20.3050 C   0  0  0  0  0  0
  -21.6842   -6.0751   22.5298 C   0  0  0  0  0  0
  -21.3992   -6.5651   23.8228 C   0  0  0  0  0  0
  -21.3666   -5.6806   24.9193 C   0  0  0  0  0  0
  -21.6046   -4.3068   24.7238 C   0  0  0  0  0  0
  -21.8801   -3.8158   23.4354 C   0  0  0  0  0  0
  -21.9179   -4.6975   22.3412 C   0  0  0  0  0  0
  -22.7835  -13.5223   21.1837 C   0  0  0  0  0  0
  -22.1643   -4.2165   21.0983 F   0  0  0  0  0  0
  -21.5647   -3.4548   25.7744 F   0  0  0  0  0  0
  -30.0066  -13.4446   20.4307 N   0  0  0  0  0  0
  -26.2980  -12.9411   20.3313 N   0  0  0  0  0  0
  -25.9323  -11.6552   20.5709 N   0  0  0  0  0  0
  -22.0481  -12.8225   22.0395 N   0  0  0  0  0  0
  -25.4245  -15.1935   20.4147 N   0  0  0  0  0  0
  -31.8053  -14.7758   20.0854 O   0  0  0  0  0  0
  -21.6634   -6.8890   21.4265 O   0  0  0  0  0  0
  -22.3533  -14.5535   20.6689 O   0  0  0  0  0  0
  -24.6248  -31.8615   23.2035 C   0  0  0  0  0  0
  -25.9097  -32.4791   23.8380 C   0  0  1  0  0  0
  -27.2293  -27.3315   20.1322 C   0  0  0  0  0  0
  -25.5900  -33.8594   24.2291 N   0  0  0  0  0  0
  -23.4203  -30.4815   21.5453 C   0  0  2  0  0  0
  -24.8733  -28.9374   20.1124 C   0  0  0  0  0  0
  -22.7472  -29.4612   22.4946 C   0  0  0  0  0  0
  -18.0287  -28.1385   22.8498 C   0  0  0  0  0  0
  -24.1483  -36.7296   23.2644 C   0  0  0  0  0  0
  -25.9599  -30.7960   21.3754 C   0  0  0  0  0  0
  -26.0404  -29.4239   20.7181 C   0  0  0  0  0  0
  -27.2253  -28.6310   20.7206 C   0  0  0  0  0  0
  -26.0484  -26.8903   19.5031 C   0  0  0  0  0  0
  -24.8780  -27.6744   19.4960 C   0  0  0  0  0  0
  -23.6377  -29.8141   20.1616 C   0  0  0  0  0  0
  -25.4113  -36.3094   24.0328 C   0  0  1  0  0  0
  -20.5880  -28.3689   23.1294 C   0  0  2  0  0  0
  -20.6776  -26.9416   22.5419 C   0  0  0  0  0  0
  -19.5746  -26.6379   21.5231 C   0  0  0  0  0  0
  -18.1921  -26.7932   22.1629 C   0  0  0  0  0  0
  -19.1535  -28.8863   23.2885 C   0  0  0  0  0  0
  -18.9454  -30.1458   23.8907 C   0  0  0  0  0  0
  -17.6455  -30.6595   24.0563 C   0  0  0  0  0  0
  -25.9045  -34.9457   23.5109 C   0  0  0  0  0  0
  -16.5350  -29.9087   23.6333 C   0  0  0  0  0  0
  -16.7274  -28.6497   23.0377 C   0  0  0  0  0  0
  -26.4486  -31.6610   25.0750 C   0  0  0  0  0  0
  -25.3702  -31.3734   26.1455 C   0  0  0  0  0  0
  -27.0359  -30.3043   24.6220 C   0  0  0  0  0  0
  -27.6047  -32.4355   25.7507 C   0  0  0  0  0  0
  -27.5579  -37.1804   24.8463 C   0  0  0  0  0  0
  -21.4186  -29.3032   22.3684 N   0  0  0  0  0  0
  -26.4301  -37.3784   23.9398 N   0  0  0  0  0  0
  -24.6867  -31.0630   22.0981 N   0  0  0  0  0  0
  -23.4193  -28.8162   23.3036 O   0  0  0  0  0  0
  -28.3034  -26.4371   20.1866 O   0  0  0  0  0  0
  -26.5624  -34.8924   22.4684 O   0  0  0  0  0  0
  -23.5404  -32.1413   23.7357 O   0  0  0  0  0  0
  -29.5545  -18.3554   20.3432 C   0  0  0  0  0  0
  -29.8015  -16.7888   18.4808 C   0  0  0  0  0  0
  -29.3562  -19.4747   19.4355 C   0  0  0  0  0  0
  -29.7807  -16.9939   19.8766 C   0  0  0  0  0  0
  -29.3485  -19.1529   18.0441 C   0  0  0  0  0  0
  -29.5820  -17.8422   17.5870 C   0  0  0  0  0  0
  -30.0401  -21.7195   20.8625 C   0  0  0  0  0  0
  -27.6748  -21.4773   20.0559 C   0  0  0  0  0  0
  -29.8679  -23.2982   20.8240 C   0  0  0  0  0  0
  -27.5004  -23.0424   20.0582 C   0  0  0  0  0  0
  -29.1380  -21.0105   19.8202 C   0  0  2  0  0  0
  -28.4080  -23.7982   21.0769 C   0  0  2  0  0  0
  -26.9358  -23.3283   23.0292 C   0  0  0  0  0  0
  -28.1738  -25.3969   21.2253 C   0  0  0  0  0  0
  -29.0895  -20.1009   17.0493 N   0  0  0  0  0  0
  -29.8786  -15.7901   20.7168 N   0  0  0  0  0  0
  -28.2053  -23.2318   22.3841 O   0  0  0  0  0  0
  -29.5658  -17.5891   16.2534 F   0  0  0  0  0  0
  -31.4760  -12.5051   19.1747 H   0  0  0  0  0  0
  -30.3510  -11.4147   19.9299 H   0  0  0  0  0  0
  -29.7819  -11.7400   17.5017 H   0  0  0  0  0  0
  -29.6643  -13.4631   17.7376 H   0  0  0  0  0  0
  -27.8611  -11.3008   18.8637 H   0  0  0  0  0  0
  -27.3889  -12.5902   17.7907 H   0  0  0  0  0  0
  -27.6610  -14.2603   19.5120 H   0  0  0  0  0  0
  -28.6997  -12.1086   21.4170 H   0  0  0  0  0  0
  -28.4401  -13.7830   21.8224 H   0  0  0  0  0  0
  -25.2771   -9.5705   22.4725 H   0  0  0  0  0  0
  -24.0014   -7.4642   22.7486 H   0  0  0  0  0  0
  -21.0852   -8.8766   19.8943 H   0  0  0  0  0  0
  -22.3705  -10.9660   19.6148 H   0  0  0  0  0  0
  -21.1966   -7.6151   23.9736 H   0  0  0  0  0  0
  -21.1516   -6.0540   25.9100 H   0  0  0  0  0  0
  -22.0566   -2.7616   23.2860 H   0  0  0  0  0  0
  -22.4079  -11.9877   22.4776 H   0  0  0  0  0  0
  -21.1085  -13.1235   22.2535 H   0  0  0  0  0  0
  -24.6577  -15.8471   20.5267 H   0  0  0  0  0  0
  -26.2732  -15.6349   20.0838 H   0  0  0  0  0  0
  -26.7166  -32.5479   23.1140 H   0  0  0  0  0  0
  -25.0040  -33.9750   25.0426 H   0  0  0  0  0  0
  -22.7129  -31.3003   21.4006 H   0  0  0  0  0  0
  -23.3757  -35.9616   23.3311 H   0  0  0  0  0  0
  -24.3571  -36.8928   22.2057 H   0  0  0  0  0  0
  -23.7225  -37.6489   23.6680 H   0  0  0  0  0  0
  -26.0910  -31.5626   20.6103 H   0  0  0  0  0  0
  -26.8384  -30.8461   22.0069 H   0  0  0  0  0  0
  -28.1198  -28.9948   21.2092 H   0  0  0  0  0  0
  -26.0269  -25.9102   19.0476 H   0  0  0  0  0  0
  -23.9828  -27.2924   19.0257 H   0  0  0  0  0  0
  -23.7518  -30.5907   19.4043 H   0  0  0  0  0  0
  -22.7598  -29.2392   19.8607 H   0  0  0  0  0  0
  -25.1295  -36.1962   25.0823 H   0  0  0  0  0  0
  -20.9975  -28.3277   24.1415 H   0  0  0  0  0  0
  -20.5712  -26.2297   23.3610 H   0  0  0  0  0  0
  -21.6640  -26.7463   22.1198 H   0  0  0  0  0  0
  -19.6908  -25.6290   21.1262 H   0  0  0  0  0  0
  -19.6686  -27.3187   20.6757 H   0  0  0  0  0  0
  -17.4196  -26.6712   21.4017 H   0  0  0  0  0  0
  -18.0293  -26.0069   22.9011 H   0  0  0  0  0  0
  -19.7926  -30.7269   24.2290 H   0  0  0  0  0  0
  -17.5010  -31.6285   24.5147 H   0  0  0  0  0  0
  -15.5349  -30.2996   23.7654 H   0  0  0  0  0  0
  -15.8667  -28.0809   22.7118 H   0  0  0  0  0  0
  -24.5867  -30.7115   25.7748 H   0  0  0  0  0  0
  -24.8893  -32.2890   26.4906 H   0  0  0  0  0  0
  -25.7988  -30.8868   27.0225 H   0  0  0  0  0  0
  -26.2963  -29.6770   24.1229 H   0  0  0  0  0  0
  -27.4045  -29.7323   25.4749 H   0  0  0  0  0  0
  -27.8830  -30.4347   23.9480 H   0  0  0  0  0  0
  -27.2679  -33.3674   26.2070 H   0  0  0  0  0  0
  -28.3855  -32.6899   25.0320 H   0  0  0  0  0  0
  -28.0731  -31.8496   26.5429 H   0  0  0  0  0  0
  -28.2597  -38.0102   24.7527 H   0  0  0  0  0  0
  -28.1079  -36.2632   24.6287 H   0  0  0  0  0  0
  -27.2292  -37.1455   25.8866 H   0  0  0  0  0  0
  -20.9370  -29.8737   21.6876 H   0  0  0  0  0  0
  -26.0186  -38.2863   24.1404 H   0  0  0  0  0  0
  -29.5314  -18.5446   21.4075 H   0  0  0  0  0  0
  -29.9478  -15.8049   18.0626 H   0  0  0  0  0  0
  -29.8252  -21.3300   21.8577 H   0  0  0  0  0  0
  -31.0851  -21.4760   20.6659 H   0  0  0  0  0  0
  -27.0403  -21.0658   19.2717 H   0  0  0  0  0  0
  -27.3050  -21.0557   20.9912 H   0  0  0  0  0  0
  -30.2092  -23.6785   19.8590 H   0  0  0  0  0  0
  -30.5333  -23.7428   21.5646 H   0  0  0  0  0  0
  -26.4538  -23.2944   20.2286 H   0  0  0  0  0  0
  -27.7205  -23.4225   19.0602 H   0  0  0  0  0  0
  -29.4475  -21.5528   18.9306 H   0  0  0  0  0  0
  -26.9588  -22.7089   23.9254 H   0  0  0  0  0  0
  -26.1160  -22.9626   22.4127 H   0  0  0  0  0  0
  -26.7087  -24.3394   23.3649 H   0  0  0  0  0  0
  -28.8346  -25.7345   22.0250 H   0  0  0  0  0  0
  -27.1734  -25.5190   21.6386 H   0  0  0  0  0  0
  -28.5080  -20.8929   17.2930 H   0  0  0  0  0  0
  -28.8715  -19.7228   16.1327 H   0  0  0  0  0  0
  -29.0685  -15.6247   21.2963 H   0  0  0  0  0  0
  1 25  1  0  0  0
  1 30  2  0  0  0
  1 86  1  0  0  0
  2  3  1  0  0  0
  2 25  1  0  0  0
  2 89  1  0  0  0
  2 90  1  0  0  0
  3  4  1  0  0  0
  3 91  1  0  0  0
  3 92  1  0  0  0
  4  5  1  0  0  0
  4 93  1  0  0  0
  4 94  1  0  0  0
  5  6  1  0  0  0
  5 26  1  0  0  0
  5 95  1  0  0  0
  6 25  1  0  0  0
  6 96  1  0  0  0
  6 97  1  0  0  0
  7  8  2  0  0  0
  7 26  1  0  0  0
  7 29  1  0  0  0
  8  9  1  0  0  0
  8 22  1  0  0  0
  9 10  1  0  0  0
  9 27  2  0  0  0
 10 11  2  0  0  0
 10 15  1  0  0  0
 11 12  1  0  0  0
 11 98  1  0  0  0
 12 13  2  0  0  0
 12 99  1  0  0  0
 13 14  1  0  0  0
 13 31  1  0  0  0
 14 15  2  0  0  0
 14100  1  0  0  0
 15101  1  0  0  0
 16 17  2  0  0  0
 16 21  1  0  0  0
 16 31  1  0  0  0
 17 18  1  0  0  0
 17102  1  0  0  0
 18 19  2  0  0  0
 18103  1  0  0  0
 19 20  1  0  0  0
 19 24  1  0  0  0
 20 21  2  0  0  0
 20104  1  0  0  0
 21 23  1  0  0  0
 22 28  1  0  0  0
 22 32  2  0  0  0
 26 27  1  0  0  0
 28105  1  0  0  0
 28106  1  0  0  0
 29107  1  0  0  0
 29108  1  0  0  0
 33 34  1  0  0  0
 33 66  1  0  0  0
 33 70  2  0  0  0
 34 36  1  0  0  0
 34 59  1  0  0  0
 34109  1  0  0  0
 35 44  2  0  0  0
 35 45  1  0  0  0
 35 68  1  0  0  0
 36 56  1  0  0  0
 36110  1  0  0  0
 37 39  1  0  0  0
 37 47  1  0  0  0
 37 66  1  0  0  0
 37111  1  0  0  0
 38 43  2  0  0  0
 38 46  1  0  0  0
 38 47  1  0  0  0
 39 64  1  0  0  0
 39 67  2  0  0  0
 40 52  1  0  0  0
 40 53  2  0  0  0
 40 58  1  0  0  0
 41112  1  0  0  0
 41113  1  0  0  0
 41114  1  0  0  0
 41 48  1  0  0  0
 42 43  1  0  0  0
 42 66  1  0  0  0
 42115  1  0  0  0
 42116  1  0  0  0
 43 44  1  0  0  0
 44117  1  0  0  0
 45 46  2  0  0  0
 45118  1  0  0  0
 46119  1  0  0  0
 47120  1  0  0  0
 47121  1  0  0  0
 48 56  1  0  0  0
 48 65  1  0  0  0
 48122  1  0  0  0
 49 50  1  0  0  0
 49 53  1  0  0  0
 49 64  1  0  0  0
 49123  1  0  0  0
 50 51  1  0  0  0
 50124  1  0  0  0
 50125  1  0  0  0
 51 52  1  0  0  0
 51126  1  0  0  0
 51127  1  0  0  0
 52128  1  0  0  0
 52129  1  0  0  0
 53 54  1  0  0  0
 54 55  2  0  0  0
 54130  1  0  0  0
 55 57  1  0  0  0
 55131  1  0  0  0
 56 69  2  0  0  0
 57 58  2  0  0  0
 57132  1  0  0  0
 58133  1  0  0  0
 59 60  1  0  0  0
 59 61  1  0  0  0
 59 62  1  0  0  0
 60134  1  0  0  0
 60135  1  0  0  0
 60136  1  0  0  0
 61137  1  0  0  0
 61138  1  0  0  0
 61139  1  0  0  0
 62140  1  0  0  0
 62141  1  0  0  0
 62142  1  0  0  0
 63 65  1  0  0  0
 63143  1  0  0  0
 63144  1  0  0  0
 63145  1  0  0  0
 64146  1  0  0  0
 65147  1  0  0  0
 68 84  1  0  0  0
 71 73  2  0  0  0
 71 74  1  0  0  0
 71148  1  0  0  0
 72 74  2  0  0  0
 72 76  1  0  0  0
 72149  1  0  0  0
 73 75  1  0  0  0
 73 81  1  0  0  0
 74 86  1  0  0  0
 75 76  2  0  0  0
 75 85  1  0  0  0
 76 88  1  0  0  0
 77 79  1  0  0  0
 77 81  1  0  0  0
 77150  1  0  0  0
 77151  1  0  0  0
 78 80  1  0  0  0
 78 81  1  0  0  0
 78152  1  0  0  0
 78153  1  0  0  0
 79 82  1  0  0  0
 79154  1  0  0  0
 79155  1  0  0  0
 80 82  1  0  0  0
 80156  1  0  0  0
 80157  1  0  0  0
 81158  1  0  0  0
 82 84  1  0  0  0
 82 87  1  0  0  0
 83 87  1  0  0  0
 83159  1  0  0  0
 83160  1  0  0  0
 83161  1  0  0  0
 84162  1  0  0  0
 84163  1  0  0  0
 85164  1  0  0  0
 85165  1  0  0  0
 86166  1  0  0  0
M  ISO  4   1 100  68 101  84 101  86 100
M  END
> <chiral flag>
0

> <version>
0

> <s_m_source_file>
/data/baiqing/PycharmProjects/Reinvent-master-3.2/result/LINK_invent/BTK/process_docking_weight1_custom_product_contain_oxygen_bond_distance_aromatic_linkinvent_7_9_3/rearranged_h_0157.sdf

> <i_m_source_file_index>
79

> <r_mmod_Potential_Energy-OPLS-2005>
213.44743347168

> <r_mmod_Stretch_Energy-OPLS-2005>
98.9309921264648

> <r_mmod_Bend_Energy-OPLS-2005>
185.700454711914

> <r_mmod_Torsional_Energy-OPLS-2005>
307.700164794922

> <r_mmod_Improper_Torsional_Energy-OPLS-2005>
10.3757266998291

> <r_mmod_Van_der_Waal_Energy-OPLS-2005>
150.663269042969

> <r_mmod_Electrostatic_Energy-OPLS-2005>
-385.744293212891

> <r_mmod_Solvation_Energy-OPLS-2005>
-209.893127441406

> <b_mmod_Minimization_Converged-OPLS-2005>
0

> <r_mmod_RMS_Derivative-OPLS-2005>
2.21955561637878

$$$$
79
                    3D
 Structure written by MMmdl.
161170  0  0  1  0            999 V2000
  -30.7231  -14.4539   20.6194 C   0  0  0  0  0  0
  -30.4217  -12.3142   19.4153 C   0  0  0  0  0  0
  -29.4903  -12.5154   18.2036 C   0  0  0  0  0  0
  -28.0138  -12.3691   18.6192 C   0  0  0  0  0  0
  -27.6625  -13.2073   19.8772 C   0  0  2  0  0  0
  -28.7030  -12.9837   20.9969 C   0  0  0  0  0  0
  -25.2594  -13.8167   20.5692 C   0  0  0  0  0  0
  -24.1840  -13.0442   20.9182 C   0  0  0  0  0  0
  -24.6391  -11.6911   20.8736 C   0  0  0  0  0  0
  -23.9060  -10.4296   21.0403 C   0  0  0  0  0  0
  -24.3613   -9.4212   21.9182 C   0  0  0  0  0  0
  -23.6291   -8.2247   22.0754 C   0  0  0  0  0  0
  -22.4274   -8.0282   21.3542 C   0  0  0  0  0  0
  -21.9906   -9.0257   20.4646 C   0  0  0  0  0  0
  -22.7235  -10.2137   20.3054 C   0  0  0  0  0  0
  -21.6852   -6.0736   22.5280 C   0  0  0  0  0  0
  -21.4012   -6.5639   23.8215 C   0  0  0  0  0  0
  -21.3659   -5.6792   24.9177 C   0  0  0  0  0  0
  -21.6047   -4.3055   24.7226 C   0  0  0  0  0  0
  -21.8820   -3.8147   23.4346 C   0  0  0  0  0  0
  -21.9191   -4.6964   22.3403 C   0  0  0  0  0  0
  -22.7861  -13.5240   21.1849 C   0  0  0  0  0  0
  -22.1661   -4.2150   21.0981 F   0  0  0  0  0  0
  -21.5630   -3.4538   25.7740 F   0  0  0  0  0  0
  -30.0368  -13.2890   20.4490 N   0  0  0  0  0  0
  -26.3031  -12.9335   20.3386 N   0  0  0  0  0  0
  -25.9318  -11.6492   20.5772 N   0  0  0  0  0  0
  -22.0497  -12.8230   22.0401 N   0  0  0  0  0  0
  -25.4316  -15.1885   20.4111 N   0  0  0  0  0  0
  -31.8046  -14.6811   20.0660 O   0  0  0  0  0  0
  -21.6636   -6.8880   21.4241 O   0  0  0  0  0  0
  -22.3547  -14.5545   20.6700 O   0  0  0  0  0  0
  -24.6148  -31.8670   23.2098 C   0  0  0  0  0  0
  -25.9039  -32.4824   23.8389 C   0  0  1  0  0  0
  -27.2380  -27.4362   20.1004 C   0  0  0  0  0  0
  -25.5886  -33.8617   24.2327 N   0  0  0  0  0  0
  -23.4047  -30.4891   21.5502 C   0  0  2  0  0  0
  -24.8545  -28.9531   20.1157 C   0  0  0  0  0  0
  -22.7418  -29.4646   22.4999 C   0  0  0  0  0  0
  -18.0265  -28.1373   22.8492 C   0  0  0  0  0  0
  -24.1488  -36.7317   23.2636 C   0  0  0  0  0  0
  -25.9327  -30.8336   21.3633 C   0  0  0  0  0  0
  -26.0135  -29.4663   20.7138 C   0  0  0  0  0  0
  -27.2112  -28.7136   20.7055 C   0  0  0  0  0  0
  -26.0674  -26.9352   19.4973 C   0  0  0  0  0  0
  -24.8754  -27.6864   19.5047 C   0  0  0  0  0  0
  -23.6148  -29.8189   20.1657 C   0  0  0  0  0  0
  -25.4108  -36.3113   24.0338 C   0  0  1  0  0  0
  -20.5857  -28.3663   23.1317 C   0  0  2  0  0  0
  -20.6761  -26.9400   22.5420 C   0  0  0  0  0  0
  -19.5744  -26.6384   21.5211 C   0  0  0  0  0  0
  -18.1916  -26.7924   22.1617 C   0  0  0  0  0  0
  -19.1514  -28.8836   23.2897 C   0  0  0  0  0  0
  -18.9450  -30.1440   23.8911 C   0  0  0  0  0  0
  -17.6455  -30.6588   24.0561 C   0  0  0  0  0  0
  -25.9031  -34.9474   23.5136 C   0  0  0  0  0  0
  -16.5344  -29.9092   23.6326 C   0  0  0  0  0  0
  -16.7253  -28.6501   23.0353 C   0  0  0  0  0  0
  -26.4468  -31.6603   25.0721 C   0  0  0  0  0  0
  -25.3729  -31.3700   26.1471 C   0  0  0  0  0  0
  -27.0303  -30.3048   24.6091 C   0  0  0  0  0  0
  -27.6049  -32.4321   25.7480 C   0  0  0  0  0  0
  -27.5584  -37.1809   24.8461 C   0  0  0  0  0  0
  -21.4144  -29.3029   22.3734 N   0  0  0  0  0  0
  -26.4298  -37.3796   23.9407 N   0  0  0  0  0  0
  -24.6688  -31.0769   22.1000 N   0  0  0  0  0  0
  -23.4181  -28.8187   23.3047 O   0  0  0  0  0  0
  -28.3774  -26.6647   20.0905 O   0  0  0  0  0  0
  -26.5602  -34.8926   22.4701 O   0  0  0  0  0  0
  -23.5340  -32.1424   23.7490 O   0  0  0  0  0  0
  -29.8501  -19.8378   20.8882 C   0  0  0  0  0  0
  -29.6421  -21.2362   20.7793 C   0  0  0  0  0  0
  -28.1273  -19.7226   22.5881 C   0  0  0  0  0  0
  -29.0966  -19.0644   21.8016 C   0  0  0  0  0  0
  -27.9168  -21.1155   22.4906 C   0  0  0  0  0  0
  -28.6781  -21.8964   21.5848 C   0  0  0  0  0  0
  -28.7918  -24.2904   20.7231 C   0  0  0  0  0  0
  -30.4960  -17.2192   22.9340 C   0  0  0  0  0  0
  -30.6912  -15.7125   22.7111 C   0  0  0  0  0  0
  -29.5779  -16.6386   20.8211 C   0  0  0  0  0  0
  -29.3243  -17.5590   22.0278 C   0  0  2  0  0  0
  -26.8688  -21.7579   23.3864 C   0  0  0  0  0  0
  -28.4510  -25.7299   21.1830 C   0  0  0  0  0  0
  -30.1272  -15.3919   21.3921 N   0  0  0  0  0  0
  -28.4716  -23.3157   21.6001 N   0  0  0  0  0  0
  -29.3132  -24.0866   19.6225 O   0  0  0  0  0  0
  -31.4650  -12.4168   19.1118 H   0  0  0  0  0  0
  -30.3276  -11.3003   19.8078 H   0  0  0  0  0  0
  -29.7306  -11.7946   17.4203 H   0  0  0  0  0  0
  -29.6543  -13.5038   17.7715 H   0  0  0  0  0  0
  -27.8287  -11.3123   18.8152 H   0  0  0  0  0  0
  -27.3600  -12.6430   17.7903 H   0  0  0  0  0  0
  -27.7077  -14.2563   19.5837 H   0  0  0  0  0  0
  -28.6781  -11.9478   21.3372 H   0  0  0  0  0  0
  -28.4565  -13.5833   21.8742 H   0  0  0  0  0  0
  -25.2757   -9.5689   22.4758 H   0  0  0  0  0  0
  -24.0003   -7.4635   22.7468 H   0  0  0  0  0  0
  -21.0841   -8.8774   19.8946 H   0  0  0  0  0  0
  -22.3694  -10.9676   19.6164 H   0  0  0  0  0  0
  -21.2002   -7.6147   23.9719 H   0  0  0  0  0  0
  -21.1482   -6.0522   25.9082 H   0  0  0  0  0  0
  -22.0597   -2.7609   23.2847 H   0  0  0  0  0  0
  -22.4105  -11.9888   22.4787 H   0  0  0  0  0  0
  -21.1117  -13.1262   22.2609 H   0  0  0  0  0  0
  -24.6690  -15.8469   20.5268 H   0  0  0  0  0  0
  -26.2932  -15.6276   20.1122 H   0  0  0  0  0  0
  -26.7112  -32.5549   23.1154 H   0  0  0  0  0  0
  -25.0046  -33.9769   25.0481 H   0  0  0  0  0  0
  -22.6933  -31.3057   21.4087 H   0  0  0  0  0  0
  -23.3750  -35.9651   23.3313 H   0  0  0  0  0  0
  -24.3579  -36.8926   22.2047 H   0  0  0  0  0  0
  -23.7248  -37.6526   23.6650 H   0  0  0  0  0  0
  -26.0415  -31.5996   20.5937 H   0  0  0  0  0  0
  -26.8209  -30.8905   21.9806 H   0  0  0  0  0  0
  -28.1075  -29.1040   21.1676 H   0  0  0  0  0  0
  -26.0793  -25.9618   19.0271 H   0  0  0  0  0  0
  -23.9850  -27.2862   19.0390 H   0  0  0  0  0  0
  -23.7181  -30.5924   19.4040 H   0  0  0  0  0  0
  -22.7401  -29.2352   19.8730 H   0  0  0  0  0  0
  -25.1282  -36.1981   25.0833 H   0  0  0  0  0  0
  -20.9928  -28.3232   24.1442 H   0  0  0  0  0  0
  -20.5669  -26.2265   23.3602 H   0  0  0  0  0  0
  -21.6635  -26.7455   22.1210 H   0  0  0  0  0  0
  -19.6917  -25.6295   21.1236 H   0  0  0  0  0  0
  -19.6696  -27.3204   20.6747 H   0  0  0  0  0  0
  -17.4191  -26.6669   21.4013 H   0  0  0  0  0  0
  -18.0317  -26.0062   22.9011 H   0  0  0  0  0  0
  -19.7930  -30.7236   24.2302 H   0  0  0  0  0  0
  -17.5016  -31.6274   24.5154 H   0  0  0  0  0  0
  -15.5346  -30.2996   23.7651 H   0  0  0  0  0  0
  -15.8650  -28.0822   22.7070 H   0  0  0  0  0  0
  -24.5906  -30.7045   25.7805 H   0  0  0  0  0  0
  -24.8901  -32.2842   26.4933 H   0  0  0  0  0  0
  -25.8072  -30.8864   27.0228 H   0  0  0  0  0  0
  -26.2848  -29.6804   24.1158 H   0  0  0  0  0  0
  -27.4102  -29.7285   25.4537 H   0  0  0  0  0  0
  -27.8666  -30.4378   23.9224 H   0  0  0  0  0  0
  -27.2685  -33.3622   26.2074 H   0  0  0  0  0  0
  -28.3843  -32.6883   25.0290 H   0  0  0  0  0  0
  -28.0728  -31.8428   26.5376 H   0  0  0  0  0  0
  -28.2602  -38.0106   24.7518 H   0  0  0  0  0  0
  -28.1081  -36.2639   24.6281 H   0  0  0  0  0  0
  -27.2293  -37.1452   25.8860 H   0  0  0  0  0  0
  -20.9317  -29.8754   21.6951 H   0  0  0  0  0  0
  -26.0196  -38.2878   24.1412 H   0  0  0  0  0  0
  -30.6123  -19.3697   20.2814 H   0  0  0  0  0  0
  -30.2583  -21.7948   20.0900 H   0  0  0  0  0  0
  -27.5473  -19.1506   23.2995 H   0  0  0  0  0  0
  -31.3877  -17.7572   22.6080 H   0  0  0  0  0  0
  -30.3152  -17.4760   23.9782 H   0  0  0  0  0  0
  -30.1442  -15.1422   23.4632 H   0  0  0  0  0  0
  -31.7446  -15.4375   22.7994 H   0  0  0  0  0  0
  -30.3085  -17.0742   20.1376 H   0  0  0  0  0  0
  -28.6637  -16.4543   20.2561 H   0  0  0  0  0  0
  -28.4238  -17.1773   22.5139 H   0  0  0  0  0  0
  -26.2977  -21.0091   23.9359 H   0  0  0  0  0  0
  -26.1590  -22.3381   22.7961 H   0  0  0  0  0  0
  -27.3384  -22.4180   24.1161 H   0  0  0  0  0  0
  -29.2328  -26.0661   21.8646 H   0  0  0  0  0  0
  -27.5257  -25.7067   21.7637 H   0  0  0  0  0  0
  -27.9780  -23.6563   22.4127 H   0  0  0  0  0  0
  1 25  1  0  0  0
  1 30  2  0  0  0
  1 84  1  0  0  0
  2  3  1  0  0  0
  2 25  1  0  0  0
  2 87  1  0  0  0
  2 88  1  0  0  0
  3  4  1  0  0  0
  3 89  1  0  0  0
  3 90  1  0  0  0
  4  5  1  0  0  0
  4 91  1  0  0  0
  4 92  1  0  0  0
  5  6  1  0  0  0
  5 26  1  0  0  0
  5 93  1  0  0  0
  6 25  1  0  0  0
  6 94  1  0  0  0
  6 95  1  0  0  0
  7  8  2  0  0  0
  7 26  1  0  0  0
  7 29  1  0  0  0
  8  9  1  0  0  0
  8 22  1  0  0  0
  9 10  1  0  0  0
  9 27  2  0  0  0
 10 11  2  0  0  0
 10 15  1  0  0  0
 11 12  1  0  0  0
 11 96  1  0  0  0
 12 13  2  0  0  0
 12 97  1  0  0  0
 13 14  1  0  0  0
 13 31  1  0  0  0
 14 15  2  0  0  0
 14 98  1  0  0  0
 15 99  1  0  0  0
 16 17  2  0  0  0
 16 21  1  0  0  0
 16 31  1  0  0  0
 17 18  1  0  0  0
 17100  1  0  0  0
 18 19  2  0  0  0
 18101  1  0  0  0
 19 20  1  0  0  0
 19 24  1  0  0  0
 20 21  2  0  0  0
 20102  1  0  0  0
 21 23  1  0  0  0
 22 28  1  0  0  0
 22 32  2  0  0  0
 26 27  1  0  0  0
 28103  1  0  0  0
 28104  1  0  0  0
 29105  1  0  0  0
 29106  1  0  0  0
 33 34  1  0  0  0
 33 66  1  0  0  0
 33 70  2  0  0  0
 34 36  1  0  0  0
 34 59  1  0  0  0
 34107  1  0  0  0
 35 44  2  0  0  0
 35 45  1  0  0  0
 35 68  1  0  0  0
 36 56  1  0  0  0
 36108  1  0  0  0
 37 39  1  0  0  0
 37 47  1  0  0  0
 37 66  1  0  0  0
 37109  1  0  0  0
 38 43  2  0  0  0
 38 46  1  0  0  0
 38 47  1  0  0  0
 39 64  1  0  0  0
 39 67  2  0  0  0
 40 52  1  0  0  0
 40 53  2  0  0  0
 40 58  1  0  0  0
 41110  1  0  0  0
 41111  1  0  0  0
 41112  1  0  0  0
 41 48  1  0  0  0
 42 43  1  0  0  0
 42 66  1  0  0  0
 42113  1  0  0  0
 42114  1  0  0  0
 43 44  1  0  0  0
 44115  1  0  0  0
 45 46  2  0  0  0
 45116  1  0  0  0
 46117  1  0  0  0
 47118  1  0  0  0
 47119  1  0  0  0
 48 56  1  0  0  0
 48 65  1  0  0  0
 48120  1  0  0  0
 49 50  1  0  0  0
 49 53  1  0  0  0
 49 64  1  0  0  0
 49121  1  0  0  0
 50 51  1  0  0  0
 50122  1  0  0  0
 50123  1  0  0  0
 51 52  1  0  0  0
 51124  1  0  0  0
 51125  1  0  0  0
 52126  1  0  0  0
 52127  1  0  0  0
 53 54  1  0  0  0
 54 55  2  0  0  0
 54128  1  0  0  0
 55 57  1  0  0  0
 55129  1  0  0  0
 56 69  2  0  0  0
 57 58  2  0  0  0
 57130  1  0  0  0
 58131  1  0  0  0
 59 60  1  0  0  0
 59 61  1  0  0  0
 59 62  1  0  0  0
 60132  1  0  0  0
 60133  1  0  0  0
 60134  1  0  0  0
 61135  1  0  0  0
 61136  1  0  0  0
 61137  1  0  0  0
 62138  1  0  0  0
 62139  1  0  0  0
 62140  1  0  0  0
 63 65  1  0  0  0
 63141  1  0  0  0
 63142  1  0  0  0
 63143  1  0  0  0
 64144  1  0  0  0
 65145  1  0  0  0
 68 83  1  0  0  0
 71 72  2  0  0  0
 71 74  1  0  0  0
 71146  1  0  0  0
 72 76  1  0  0  0
 72147  1  0  0  0
 73 74  2  0  0  0
 73 75  1  0  0  0
 73148  1  0  0  0
 74 81  1  0  0  0
 75 76  2  0  0  0
 75 82  1  0  0  0
 76 85  1  0  0  0
 77 83  1  0  0  0
 77 85  1  0  0  0
 77 86  2  0  0  0
 78 79  1  0  0  0
 78 81  1  0  0  0
 78149  1  0  0  0
 78150  1  0  0  0
 79 84  1  0  0  0
 79151  1  0  0  0
 79152  1  0  0  0
 80 81  1  0  0  0
 80 84  1  0  0  0
 80153  1  0  0  0
 80154  1  0  0  0
 81155  1  0  0  0
 82156  1  0  0  0
 82157  1  0  0  0
 82158  1  0  0  0
 83159  1  0  0  0
 83160  1  0  0  0
 85161  1  0  0  0
M  ISO  4   1 100  68 101  83 101  84 100
M  END
> <chiral flag>
0

> <version>
0

> <s_m_source_file>
/data/baiqing/PycharmProjects/Reinvent-master-3.2/result/LINK_invent/BTK/process_docking_weight1_custom_product_contain_oxygen_bond_distance_aromatic_linkinvent_7_9_3/rearranged_h_0157.sdf

> <i_m_source_file_index>
80

> <r_mmod_Potential_Energy-OPLS-2005>
147.365447998047

> <r_mmod_Stretch_Energy-OPLS-2005>
40.749568939209

> <r_mmod_Bend_Energy-OPLS-2005>
132.957626342773

> <r_mmod_Torsional_Energy-OPLS-2005>
363.715118408203

> <r_mmod_Improper_Torsional_Energy-OPLS-2005>
5.58098649978638

> <r_mmod_Van_der_Waal_Energy-OPLS-2005>
141.904800415039

> <r_mmod_Electrostatic_Energy-OPLS-2005>
-326.280731201172

> <r_mmod_Solvation_Energy-OPLS-2005>
-221.934326171875

> <b_mmod_Minimization_Converged-OPLS-2005>
0

> <r_mmod_RMS_Derivative-OPLS-2005>
0.970939755439758

$$$$
80
                    3D
 Structure written by MMmdl.
163173  0  0  1  0            999 V2000
  -30.4651  -15.1278   20.3946 C   0  0  0  0  0  0
  -30.4502  -12.7169   19.4871 C   0  0  0  0  0  0
  -29.5269  -12.5432   18.2565 C   0  0  0  0  0  0
  -28.0686  -12.2963   18.6897 C   0  0  0  0  0  0
  -27.6190  -13.2560   19.8212 C   0  0  2  0  0  0
  -28.6658  -13.3647   20.9476 C   0  0  0  0  0  0
  -25.2443  -13.8211   20.5736 C   0  0  0  0  0  0
  -24.1775  -13.0425   20.9256 C   0  0  0  0  0  0
  -24.6405  -11.6917   20.8764 C   0  0  0  0  0  0
  -23.9091  -10.4286   21.0407 C   0  0  0  0  0  0
  -24.3635   -9.4201   21.9188 C   0  0  0  0  0  0
  -23.6302   -8.2240   22.0752 C   0  0  0  0  0  0
  -22.4281   -8.0283   21.3545 C   0  0  0  0  0  0
  -21.9928   -9.0259   20.4646 C   0  0  0  0  0  0
  -22.7264  -10.2134   20.3054 C   0  0  0  0  0  0
  -21.6859   -6.0739   22.5281 C   0  0  0  0  0  0
  -21.4016   -6.5643   23.8215 C   0  0  0  0  0  0
  -21.3657   -5.6792   24.9174 C   0  0  0  0  0  0
  -21.6039   -4.3056   24.7225 C   0  0  0  0  0  0
  -21.8821   -3.8150   23.4348 C   0  0  0  0  0  0
  -21.9196   -4.6966   22.3405 C   0  0  0  0  0  0
  -22.7794  -13.5197   21.1900 C   0  0  0  0  0  0
  -22.1666   -4.2152   21.0982 F   0  0  0  0  0  0
  -21.5624   -3.4539   25.7738 F   0  0  0  0  0  0
  -29.9057  -13.8386   20.3156 N   0  0  0  0  0  0
  -26.2856  -12.9456   20.3211 N   0  0  0  0  0  0
  -25.9338  -11.6579   20.5724 N   0  0  0  0  0  0
  -22.0447  -12.8177   22.0447 N   0  0  0  0  0  0
  -25.4070  -15.1948   20.4178 N   0  0  0  0  0  0
  -31.6961  -15.1746   20.2716 O   0  0  0  0  0  0
  -21.6643   -6.8883   21.4242 O   0  0  0  0  0  0
  -22.3478  -14.5506   20.6747 O   0  0  0  0  0  0
  -24.6544  -31.8343   23.1785 C   0  0  0  0  0  0
  -25.9260  -32.4653   23.8225 C   0  0  1  0  0  0
  -27.2191  -27.0116   20.1943 C   0  0  0  0  0  0
  -25.5964  -33.8467   24.2133 N   0  0  0  0  0  0
  -23.4638  -30.4469   21.5280 C   0  0  2  0  0  0
  -24.9150  -28.8385   20.1317 C   0  0  0  0  0  0
  -22.7620  -29.4493   22.4848 C   0  0  0  0  0  0
  -18.0299  -28.1412   22.8488 C   0  0  0  0  0  0
  -24.1474  -36.7222   23.2643 C   0  0  0  0  0  0
  -26.0280  -30.6683   21.3956 C   0  0  0  0  0  0
  -26.0979  -29.2596   20.7551 C   0  0  0  0  0  0
  -27.2519  -28.3675   20.7583 C   0  0  0  0  0  0
  -26.0057  -26.7140   19.5418 C   0  0  0  0  0  0
  -24.8863  -27.5802   19.5100 C   0  0  0  0  0  0
  -23.7003  -29.7600   20.1566 C   0  0  0  0  0  0
  -25.4120  -36.3014   24.0305 C   0  0  1  0  0  0
  -20.5921  -28.3745   23.1222 C   0  0  2  0  0  0
  -20.6772  -26.9436   22.5409 C   0  0  0  0  0  0
  -19.5742  -26.6394   21.5218 C   0  0  0  0  0  0
  -18.1925  -26.7956   22.1633 C   0  0  0  0  0  0
  -19.1560  -28.8901   23.2851 C   0  0  0  0  0  0
  -18.9483  -30.1494   23.8884 C   0  0  0  0  0  0
  -17.6476  -30.6614   24.0554 C   0  0  0  0  0  0
  -25.9088  -34.9388   23.5041 C   0  0  0  0  0  0
  -16.5363  -29.9102   23.6342 C   0  0  0  0  0  0
  -16.7285  -28.6514   23.0385 C   0  0  0  0  0  0
  -26.4541  -31.6562   25.0714 C   0  0  0  0  0  0
  -25.3690  -31.3784   26.1390 C   0  0  0  0  0  0
  -27.0416  -30.2942   24.6366 C   0  0  0  0  0  0
  -27.6058  -32.4339   25.7515 C   0  0  0  0  0  0
  -27.5564  -37.1762   24.8468 C   0  0  0  0  0  0
  -21.4299  -29.3049   22.3589 N   0  0  0  0  0  0
  -26.4272  -37.3741   23.9416 N   0  0  0  0  0  0
  -24.7361  -31.0083   22.0883 N   0  0  0  0  0  0
  -23.4211  -28.8049   23.3050 O   0  0  0  0  0  0
  -28.2853  -26.0156   20.0461 O   0  0  0  0  0  0
  -26.5695  -34.8913   22.4629 O   0  0  0  0  0  0
  -23.5631  -32.1280   23.6926 O   0  0  0  0  0  0
  -29.6243  -19.0718   20.0313 C   0  0  0  0  0  0
  -29.1083  -20.3350   20.7666 C   0  0  0  0  0  0
  -28.6138  -19.8397   21.9597 C   0  0  0  0  0  0
  -29.5382  -17.7343   20.6287 C   0  0  0  0  0  0
  -29.3844  -24.7595   21.7290 C   0  0  0  0  0  0
  -28.5322  -24.6818   20.6910 C   0  0  0  0  0  0
  -30.1110  -23.5684   22.2148 C   0  0  0  0  0  0
  -30.4056  -22.4171   21.2187 C   0  0  0  0  0  0
  -28.3584  -20.9279   25.6968 C   0  0  0  0  0  0
  -28.8323  -19.5339   25.3774 C   0  0  0  0  0  0
  -28.3221  -23.1193   20.0693 C   0  0  1  0  0  0
  -28.9275  -20.6226   24.3293 C   0  0  0  0  0  0
  -28.2650  -23.1787   18.5405 C   0  0  0  0  0  0
  -28.0295  -20.6099   23.1039 C   0  0  0  0  0  0
  -29.2359  -21.8741   20.5099 N   0  0  0  0  0  0
  -29.6375  -16.3151   20.2278 N   0  0  0  0  0  0
  -30.5431  -23.4933   23.3664 O   0  0  0  0  0  0
  -28.7567  -18.0716   22.1568 S   0  0  0  0  0  0
  -31.4681  -12.9262   19.1553 H   0  0  0  0  0  0
  -30.5058  -11.7946   20.0675 H   0  0  0  0  0  0
  -29.8768  -11.7191   17.6329 H   0  0  0  0  0  0
  -29.5750  -13.4387   17.6346 H   0  0  0  0  0  0
  -28.0014  -11.2653   19.0385 H   0  0  0  0  0  0
  -27.3974  -12.3716   17.8335 H   0  0  0  0  0  0
  -27.5505  -14.2365   19.3495 H   0  0  0  0  0  0
  -28.8089  -12.4090   21.4539 H   0  0  0  0  0  0
  -28.3380  -14.0769   21.7068 H   0  0  0  0  0  0
  -25.2778   -9.5675   22.4769 H   0  0  0  0  0  0
  -24.0010   -7.4627   22.7471 H   0  0  0  0  0  0
  -21.0861   -8.8789   19.8950 H   0  0  0  0  0  0
  -22.3731  -10.9678   19.6165 H   0  0  0  0  0  0
  -21.2010   -7.6151   23.9721 H   0  0  0  0  0  0
  -21.1474   -6.0521   25.9077 H   0  0  0  0  0  0
  -22.0602   -2.7611   23.2849 H   0  0  0  0  0  0
  -22.4080  -11.9847   22.4836 H   0  0  0  0  0  0
  -21.1054  -13.1182   22.2637 H   0  0  0  0  0  0
  -24.6325  -15.8388   20.5334 H   0  0  0  0  0  0
  -26.2442  -15.6460   20.0756 H   0  0  0  0  0  0
  -26.7331  -32.5236   23.0954 H   0  0  0  0  0  0
  -25.0043  -33.9560   25.0239 H   0  0  0  0  0  0
  -22.7712  -31.2743   21.3590 H   0  0  0  0  0  0
  -23.3765  -35.9522   23.3301 H   0  0  0  0  0  0
  -24.3531  -36.8870   22.2053 H   0  0  0  0  0  0
  -23.7203  -37.6399   23.6699 H   0  0  0  0  0  0
  -26.1896  -31.4079   20.6098 H   0  0  0  0  0  0
  -26.8963  -30.7342   22.0392 H   0  0  0  0  0  0
  -28.1681  -28.7026   21.2239 H   0  0  0  0  0  0
  -25.9169  -25.7574   19.0458 H   0  0  0  0  0  0
  -23.9874  -27.2521   19.0063 H   0  0  0  0  0  0
  -23.8510  -30.5265   19.3953 H   0  0  0  0  0  0
  -22.8119  -29.2095   19.8419 H   0  0  0  0  0  0
  -25.1304  -36.1825   25.0794 H   0  0  0  0  0  0
  -21.0006  -28.3352   24.1348 H   0  0  0  0  0  0
  -20.5636  -26.2371   23.3644 H   0  0  0  0  0  0
  -21.6638  -26.7407   22.1216 H   0  0  0  0  0  0
  -19.6892  -25.6299   21.1263 H   0  0  0  0  0  0
  -19.6673  -27.3191   20.6735 H   0  0  0  0  0  0
  -17.4180  -26.6707   21.4048 H   0  0  0  0  0  0
  -18.0324  -26.0108   22.9038 H   0  0  0  0  0  0
  -19.7959  -30.7312   24.2260 H   0  0  0  0  0  0
  -17.5026  -31.6295   24.5160 H   0  0  0  0  0  0
  -15.5363  -30.2996   23.7693 H   0  0  0  0  0  0
  -15.8677  -28.0813   22.7136 H   0  0  0  0  0  0
  -24.5896  -30.7100   25.7715 H   0  0  0  0  0  0
  -24.8846  -32.2970   26.4705 H   0  0  0  0  0  0
  -25.7946  -30.9042   27.0242 H   0  0  0  0  0  0
  -26.3062  -29.6659   24.1334 H   0  0  0  0  0  0
  -27.3951  -29.7257   25.4978 H   0  0  0  0  0  0
  -27.9000  -30.4153   23.9758 H   0  0  0  0  0  0
  -27.2652  -33.3681   26.1995 H   0  0  0  0  0  0
  -28.3934  -32.6831   25.0390 H   0  0  0  0  0  0
  -28.0661  -31.8526   26.5515 H   0  0  0  0  0  0
  -28.2578  -38.0064   24.7528 H   0  0  0  0  0  0
  -28.1064  -36.2595   24.6282 H   0  0  0  0  0  0
  -27.2277  -37.1389   25.8868 H   0  0  0  0  0  0
  -20.9544  -29.8744   21.6726 H   0  0  0  0  0  0
  -26.0136  -38.2797   24.1459 H   0  0  0  0  0  0
  -30.0456  -19.2036   19.0451 H   0  0  0  0  0  0
  -29.6735  -25.7175   22.1320 H   0  0  0  0  0  0
  -30.9228  -21.6249   21.7620 H   0  0  0  0  0  0
  -31.1163  -22.7891   20.4806 H   0  0  0  0  0  0
  -28.9688  -21.5236   26.3734 H   0  0  0  0  0  0
  -27.2848  -21.0844   25.7793 H   0  0  0  0  0  0
  -28.0751  -18.7637   25.2464 H   0  0  0  0  0  0
  -29.7620  -19.1977   25.8322 H   0  0  0  0  0  0
  -27.3195  -22.8440   20.4009 H   0  0  0  0  0  0
  -29.9263  -21.0094   24.1375 H   0  0  0  0  0  0
  -29.2371  -23.4350   18.1191 H   0  0  0  0  0  0
  -27.5507  -23.9306   18.2028 H   0  0  0  0  0  0
  -27.9584  -22.2226   18.1166 H   0  0  0  0  0  0
  -27.0627  -20.1837   23.3724 H   0  0  0  0  0  0
  -27.8288  -21.6401   22.8128 H   0  0  0  0  0  0
  -28.7194  -15.9753   19.9870 H   0  0  0  0  0  0
  1 25  1  0  0  0
  1 30  2  0  0  0
  1 86  1  0  0  0
  2  3  1  0  0  0
  2 25  1  0  0  0
  2 89  1  0  0  0
  2 90  1  0  0  0
  3  4  1  0  0  0
  3 91  1  0  0  0
  3 92  1  0  0  0
  4  5  1  0  0  0
  4 93  1  0  0  0
  4 94  1  0  0  0
  5  6  1  0  0  0
  5 26  1  0  0  0
  5 95  1  0  0  0
  6 25  1  0  0  0
  6 96  1  0  0  0
  6 97  1  0  0  0
  7  8  2  0  0  0
  7 26  1  0  0  0
  7 29  1  0  0  0
  8  9  1  0  0  0
  8 22  1  0  0  0
  9 10  1  0  0  0
  9 27  2  0  0  0
 10 11  2  0  0  0
 10 15  1  0  0  0
 11 12  1  0  0  0
 11 98  1  0  0  0
 12 13  2  0  0  0
 12 99  1  0  0  0
 13 14  1  0  0  0
 13 31  1  0  0  0
 14 15  2  0  0  0
 14100  1  0  0  0
 15101  1  0  0  0
 16 17  2  0  0  0
 16 21  1  0  0  0
 16 31  1  0  0  0
 17 18  1  0  0  0
 17102  1  0  0  0
 18 19  2  0  0  0
 18103  1  0  0  0
 19 20  1  0  0  0
 19 24  1  0  0  0
 20 21  2  0  0  0
 20104  1  0  0  0
 21 23  1  0  0  0
 22 28  1  0  0  0
 22 32  2  0  0  0
 26 27  1  0  0  0
 28105  1  0  0  0
 28106  1  0  0  0
 29107  1  0  0  0
 29108  1  0  0  0
 33 34  1  0  0  0
 33 66  1  0  0  0
 33 70  2  0  0  0
 34 36  1  0  0  0
 34 59  1  0  0  0
 34109  1  0  0  0
 35 44  2  0  0  0
 35 45  1  0  0  0
 35 68  1  0  0  0
 36 56  1  0  0  0
 36110  1  0  0  0
 37 39  1  0  0  0
 37 47  1  0  0  0
 37 66  1  0  0  0
 37111  1  0  0  0
 38 43  2  0  0  0
 38 46  1  0  0  0
 38 47  1  0  0  0
 39 64  1  0  0  0
 39 67  2  0  0  0
 40 52  1  0  0  0
 40 53  2  0  0  0
 40 58  1  0  0  0
 41112  1  0  0  0
 41113  1  0  0  0
 41114  1  0  0  0
 41 48  1  0  0  0
 42 43  1  0  0  0
 42 66  1  0  0  0
 42115  1  0  0  0
 42116  1  0  0  0
 43 44  1  0  0  0
 44117  1  0  0  0
 45 46  2  0  0  0
 45118  1  0  0  0
 46119  1  0  0  0
 47120  1  0  0  0
 47121  1  0  0  0
 48 56  1  0  0  0
 48 65  1  0  0  0
 48122  1  0  0  0
 49 50  1  0  0  0
 49 53  1  0  0  0
 49 64  1  0  0  0
 49123  1  0  0  0
 50 51  1  0  0  0
 50124  1  0  0  0
 50125  1  0  0  0
 51 52  1  0  0  0
 51126  1  0  0  0
 51127  1  0  0  0
 52128  1  0  0  0
 52129  1  0  0  0
 53 54  1  0  0  0
 54 55  2  0  0  0
 54130  1  0  0  0
 55 57  1  0  0  0
 55131  1  0  0  0
 56 69  2  0  0  0
 57 58  2  0  0  0
 57132  1  0  0  0
 58133  1  0  0  0
 59 60  1  0  0  0
 59 61  1  0  0  0
 59 62  1  0  0  0
 60134  1  0  0  0
 60135  1  0  0  0
 60136  1  0  0  0
 61137  1  0  0  0
 61138  1  0  0  0
 61139  1  0  0  0
 62140  1  0  0  0
 62141  1  0  0  0
 62142  1  0  0  0
 63 65  1  0  0  0
 63143  1  0  0  0
 63144  1  0  0  0
 63145  1  0  0  0
 64146  1  0  0  0
 65147  1  0  0  0
 68 76  1  0  0  0
 71 72  1  0  0  0
 71 74  2  0  0  0
 71148  1  0  0  0
 72 73  2  0  0  0
 72 85  1  0  0  0
 73 84  1  0  0  0
 73 88  1  0  0  0
 74 86  1  0  0  0
 74 88  1  0  0  0
 75 76  2  0  0  0
 75 77  1  0  0  0
 75149  1  0  0  0
 76 81  1  0  0  0
 77 78  1  0  0  0
 77 87  2  0  0  0
 78 85  1  0  0  0
 78150  1  0  0  0
 78151  1  0  0  0
 79 80  1  0  0  0
 79 82  1  0  0  0
 79152  1  0  0  0
 79153  1  0  0  0
 80 82  1  0  0  0
 80154  1  0  0  0
 80155  1  0  0  0
 81 83  1  0  0  0
 81 85  1  0  0  0
 81156  1  0  0  0
 82 84  1  0  0  0
 82157  1  0  0  0
 83158  1  0  0  0
 83159  1  0  0  0
 83160  1  0  0  0
 84161  1  0  0  0
 84162  1  0  0  0
 86163  1  0  0  0
M  ISO  4   1 100  68 101  76 101  86 100
M  END
> <chiral flag>
0

> <version>
0

> <s_m_source_file>
/data/baiqing/PycharmProjects/Reinvent-master-3.2/result/LINK_invent/BTK/process_docking_weight1_custom_product_contain_oxygen_bond_distance_aromatic_linkinvent_7_9_3/rearranged_h_0157.sdf

> <i_m_source_file_index>
81

> <r_mmod_Potential_Energy-OPLS-2005>
969.927795410156

> <r_mmod_Stretch_Energy-OPLS-2005>
370.07470703125

> <r_mmod_Bend_Energy-OPLS-2005>
385.410858154297

> <r_mmod_Torsional_Energy-OPLS-2005>
352.729156494141

> <r_mmod_Improper_Torsional_Energy-OPLS-2005>
18.2842044830322

> <r_mmod_Van_der_Waal_Energy-OPLS-2005>
95.3408050537109

> <r_mmod_Electrostatic_Energy-OPLS-2005>
-355.920837402344

> <r_mmod_Solvation_Energy-OPLS-2005>
-219.319412231445

> <b_mmod_Minimization_Converged-OPLS-2005>
0

> <r_mmod_RMS_Derivative-OPLS-2005>
1.48878824710846

$$$$
81
                    3D
 Structure written by MMmdl.
149157  0  0  1  0            999 V2000
  -30.6823  -14.6902   20.4915 C   0  0  0  0  0  0
  -30.4096  -12.4281   19.4652 C   0  0  0  0  0  0
  -29.4970  -12.4949   18.2253 C   0  0  0  0  0  0
  -28.0214  -12.3344   18.6371 C   0  0  0  0  0  0
  -27.6304  -13.2327   19.8428 C   0  0  2  0  0  0
  -28.6811  -13.1863   20.9729 C   0  0  0  0  0  0
  -25.2479  -13.8193   20.5764 C   0  0  0  0  0  0
  -24.1766  -13.0431   20.9234 C   0  0  0  0  0  0
  -24.6360  -11.6910   20.8737 C   0  0  0  0  0  0
  -23.9042  -10.4288   21.0379 C   0  0  0  0  0  0
  -24.3590   -9.4214   21.9156 C   0  0  0  0  0  0
  -23.6278   -8.2244   22.0735 C   0  0  0  0  0  0
  -22.4257   -8.0270   21.3538 C   0  0  0  0  0  0
  -21.9884   -9.0239   20.4634 C   0  0  0  0  0  0
  -22.7207  -10.2127   20.3043 C   0  0  0  0  0  0
  -21.6857   -6.0722   22.5279 C   0  0  0  0  0  0
  -21.4020   -6.5626   23.8214 C   0  0  0  0  0  0
  -21.3665   -5.6782   24.9178 C   0  0  0  0  0  0
  -21.6053   -4.3046   24.7223 C   0  0  0  0  0  0
  -21.8818   -3.8133   23.4340 C   0  0  0  0  0  0
  -21.9193   -4.6951   22.3396 C   0  0  0  0  0  0
  -22.7798  -13.5216   21.1864 C   0  0  0  0  0  0
  -22.1666   -4.2146   21.0974 F   0  0  0  0  0  0
  -21.5631   -3.4521   25.7725 F   0  0  0  0  0  0
  -29.9802  -13.5116   20.3754 N   0  0  0  0  0  0
  -26.2876  -12.9397   20.3284 N   0  0  0  0  0  0
  -25.9286  -11.6542   20.5720 N   0  0  0  0  0  0
  -22.0448  -12.8230   22.0444 N   0  0  0  0  0  0
  -25.4190  -15.1913   20.4233 N   0  0  0  0  0  0
  -31.8779  -14.7171   20.1945 O   0  0  0  0  0  0
  -21.6653   -6.8853   21.4232 O   0  0  0  0  0  0
  -22.3483  -14.5512   20.6687 O   0  0  0  0  0  0
  -24.6452  -31.8625   23.2070 C   0  0  0  0  0  0
  -25.9236  -32.4821   23.8425 C   0  0  1  0  0  0
  -27.2347  -27.3024   20.1359 C   0  0  0  0  0  0
  -25.6011  -33.8612   24.2341 N   0  0  0  0  0  0
  -23.4615  -30.4866   21.5567 C   0  0  2  0  0  0
  -24.8921  -28.9326   20.1195 C   0  0  0  0  0  0
  -22.7826  -29.4771   22.5111 C   0  0  0  0  0  0
  -17.9950  -28.1223   22.8647 C   0  0  0  0  0  0
  -24.1496  -36.7311   23.2632 C   0  0  0  0  0  0
  -25.9910  -30.7839   21.3824 C   0  0  0  0  0  0
  -26.0608  -29.4061   20.7338 C   0  0  0  0  0  0
  -27.2389  -28.5976   20.7399 C   0  0  0  0  0  0
  -26.0510  -26.8831   19.5018 C   0  0  0  0  0  0
  -24.8862  -27.6746   19.4957 C   0  0  0  0  0  0
  -23.6653  -29.8179   20.1707 C   0  0  0  0  0  0
  -25.4116  -36.3088   24.0331 C   0  0  1  0  0  0
  -20.4803  -28.4592   22.7791 C   0  0  2  0  0  0
  -20.6891  -26.9580   22.5484 C   0  0  0  0  0  0
  -19.5612  -26.4505   21.6245 C   0  0  0  0  0  0
  -18.1549  -26.7593   22.1880 C   0  0  0  0  0  0
  -19.1164  -28.8976   23.2487 C   0  0  0  0  0  0
  -18.9379  -30.1456   23.8792 C   0  0  0  0  0  0
  -17.6395  -30.6470   24.0840 C   0  0  0  0  0  0
  -25.9063  -34.9467   23.5119 C   0  0  0  0  0  0
  -16.5233  -29.8945   23.6770 C   0  0  0  0  0  0
  -16.7005  -28.6306   23.0858 C   0  0  0  0  0  0
  -26.4548  -31.6601   25.0786 C   0  0  0  0  0  0
  -25.3748  -31.3750   26.1483 C   0  0  0  0  0  0
  -27.0398  -30.3020   24.6243 C   0  0  0  0  0  0
  -27.6087  -32.4321   25.7593 C   0  0  0  0  0  0
  -27.5582  -37.1817   24.8460 C   0  0  0  0  0  0
  -21.4597  -29.4448   22.3910 N   0  0  0  0  0  0
  -26.4284  -37.3783   23.9412 N   0  0  0  0  0  0
  -24.7209  -31.0606   22.1061 N   0  0  0  0  0  0
  -23.4237  -28.7537   23.2738 O   0  0  0  0  0  0
  -28.3079  -26.4053   20.0834 O   0  0  0  0  0  0
  -26.5582  -34.8912   22.4648 O   0  0  0  0  0  0
  -23.5582  -32.1421   23.7335 O   0  0  0  0  0  0
  -29.6695  -19.2838   20.8034 C   0  0  0  0  0  0
  -28.0853  -20.1096   19.4537 C   0  0  0  0  0  0
  -28.9840  -20.5099   20.3992 C   0  0  0  0  0  0
  -29.1431  -18.2092   20.0823 C   0  0  0  0  0  0
  -28.5920  -25.6142   21.2028 C   0  0  0  0  0  0
  -29.4095  -16.6941   19.8738 C   0  0  0  0  0  0
  -28.7860  -24.2538   21.3966 C   0  0  0  0  0  0
  -28.6669  -23.1038   20.4363 C   0  0  0  0  0  0
  -29.1593  -21.8878   20.8978 N   0  0  0  0  0  0
  -30.0529  -15.8853   20.7754 N   0  0  0  0  0  0
  -28.9746  -16.2187   18.8188 O   0  0  0  0  0  0
  -28.1670  -23.2085   19.3156 O   0  0  0  0  0  0
  -28.1782  -18.7531   19.2573 O   0  0  0  0  0  0
  -29.0730  -23.9145   22.6628 O   0  0  0  0  0  0
  -31.4558  -12.5158   19.1698 H   0  0  0  0  0  0
  -30.3175  -11.4581   19.9582 H   0  0  0  0  0  0
  -29.7682  -11.7213   17.5067 H   0  0  0  0  0  0
  -29.6371  -13.4476   17.7125 H   0  0  0  0  0  0
  -27.8659  -11.2836   18.8898 H   0  0  0  0  0  0
  -27.3685  -12.5425   17.7893 H   0  0  0  0  0  0
  -27.6064  -14.2480   19.4578 H   0  0  0  0  0  0
  -28.7088  -12.1976   21.4325 H   0  0  0  0  0  0
  -28.4226  -13.8903   21.7656 H   0  0  0  0  0  0
  -25.2721   -9.5734   22.4740 H   0  0  0  0  0  0
  -24.0010   -7.4647   22.7444 H   0  0  0  0  0  0
  -21.0825   -8.8729   19.8930 H   0  0  0  0  0  0
  -22.3617  -10.9660   19.6166 H   0  0  0  0  0  0
  -21.2011   -7.6137   23.9716 H   0  0  0  0  0  0
  -21.1499   -6.0509   25.9089 H   0  0  0  0  0  0
  -22.0585   -2.7591   23.2833 H   0  0  0  0  0  0
  -22.4070  -11.9918   22.4866 H   0  0  0  0  0  0
  -21.1047  -13.1228   22.2605 H   0  0  0  0  0  0
  -24.6536  -15.8467   20.5426 H   0  0  0  0  0  0
  -26.2678  -15.6249   20.0830 H   0  0  0  0  0  0
  -26.7321  -32.5484   23.1202 H   0  0  0  0  0  0
  -25.0218  -33.9763   25.0522 H   0  0  0  0  0  0
  -22.7680  -31.3170   21.4026 H   0  0  0  0  0  0
  -23.3748  -35.9655   23.3291 H   0  0  0  0  0  0
  -24.3595  -36.8921   22.2046 H   0  0  0  0  0  0
  -23.7261  -37.6517   23.6659 H   0  0  0  0  0  0
  -26.1169  -31.5403   20.6068 H   0  0  0  0  0  0
  -26.8729  -30.8421   22.0086 H   0  0  0  0  0  0
  -28.1419  -28.9501   21.2188 H   0  0  0  0  0  0
  -26.0273  -25.9154   19.0214 H   0  0  0  0  0  0
  -23.9910  -27.3035   19.0167 H   0  0  0  0  0  0
  -23.7883  -30.5900   19.4120 H   0  0  0  0  0  0
  -22.7814  -29.2536   19.8698 H   0  0  0  0  0  0
  -25.1290  -36.1945   25.0824 H   0  0  0  0  0  0
  -20.1642  -28.6721   21.7576 H   0  0  0  0  0  0
  -20.6505  -26.4318   23.5018 H   0  0  0  0  0  0
  -21.6658  -26.7482   22.1102 H   0  0  0  0  0  0
  -19.6631  -25.3772   21.4639 H   0  0  0  0  0  0
  -19.6647  -26.8997   20.6345 H   0  0  0  0  0  0
  -17.4180  -26.6590   21.3901 H   0  0  0  0  0  0
  -17.8952  -26.0038   22.9302 H   0  0  0  0  0  0
  -19.7942  -30.7458   24.1575 H   0  0  0  0  0  0
  -17.5016  -31.6155   24.5453 H   0  0  0  0  0  0
  -15.5252  -30.2829   23.8330 H   0  0  0  0  0  0
  -15.8339  -28.0559   22.7891 H   0  0  0  0  0  0
  -24.5926  -30.7097   25.7802 H   0  0  0  0  0  0
  -24.8951  -32.2932   26.4896 H   0  0  0  0  0  0
  -25.8048  -30.8934   27.0276 H   0  0  0  0  0  0
  -26.3001  -29.6766   24.1228 H   0  0  0  0  0  0
  -27.4047  -29.7271   25.4768 H   0  0  0  0  0  0
  -27.8891  -30.4309   23.9526 H   0  0  0  0  0  0
  -27.2668  -33.3599   26.2209 H   0  0  0  0  0  0
  -28.3910  -32.6904   25.0439 H   0  0  0  0  0  0
  -28.0748  -31.8411   26.5495 H   0  0  0  0  0  0
  -28.2572  -38.0129   24.7492 H   0  0  0  0  0  0
  -28.1089  -36.2657   24.6296 H   0  0  0  0  0  0
  -27.2304  -37.1477   25.8856 H   0  0  0  0  0  0
  -21.0767  -30.1611   21.7895 H   0  0  0  0  0  0
  -26.0166  -38.2849   24.1414 H   0  0  0  0  0  0
  -30.4738  -19.1918   21.5201 H   0  0  0  0  0  0
  -27.3414  -20.6180   18.8526 H   0  0  0  0  0  0
  -28.6974  -26.2704   22.0567 H   0  0  0  0  0  0
  -29.7328  -21.9635   21.7268 H   0  0  0  0  0  0
  -30.5286  -16.4426   21.4642 H   0  0  0  0  0  0
  -28.8250  -23.0049   22.7688 H   0  0  0  0  0  0
  1 25  1  0  0  0
  1 30  2  0  0  0
  1 80  1  0  0  0
  2  3  1  0  0  0
  2 25  1  0  0  0
  2 85  1  0  0  0
  2 86  1  0  0  0
  3  4  1  0  0  0
  3 87  1  0  0  0
  3 88  1  0  0  0
  4  5  1  0  0  0
  4 89  1  0  0  0
  4 90  1  0  0  0
  5  6  1  0  0  0
  5 26  1  0  0  0
  5 91  1  0  0  0
  6 25  1  0  0  0
  6 92  1  0  0  0
  6 93  1  0  0  0
  7  8  2  0  0  0
  7 26  1  0  0  0
  7 29  1  0  0  0
  8  9  1  0  0  0
  8 22  1  0  0  0
  9 10  1  0  0  0
  9 27  2  0  0  0
 10 11  2  0  0  0
 10 15  1  0  0  0
 11 12  1  0  0  0
 11 94  1  0  0  0
 12 13  2  0  0  0
 12 95  1  0  0  0
 13 14  1  0  0  0
 13 31  1  0  0  0
 14 15  2  0  0  0
 14 96  1  0  0  0
 15 97  1  0  0  0
 16 17  2  0  0  0
 16 21  1  0  0  0
 16 31  1  0  0  0
 17 18  1  0  0  0
 17 98  1  0  0  0
 18 19  2  0  0  0
 18 99  1  0  0  0
 19 20  1  0  0  0
 19 24  1  0  0  0
 20 21  2  0  0  0
 20100  1  0  0  0
 21 23  1  0  0  0
 22 28  1  0  0  0
 22 32  2  0  0  0
 26 27  1  0  0  0
 28101  1  0  0  0
 28102  1  0  0  0
 29103  1  0  0  0
 29104  1  0  0  0
 33 34  1  0  0  0
 33 66  1  0  0  0
 33 70  2  0  0  0
 34 36  1  0  0  0
 34 59  1  0  0  0
 34105  1  0  0  0
 35 44  2  0  0  0
 35 45  1  0  0  0
 35 68  1  0  0  0
 36 56  1  0  0  0
 36106  1  0  0  0
 37 39  1  0  0  0
 37 47  1  0  0  0
 37 66  1  0  0  0
 37107  1  0  0  0
 38 43  2  0  0  0
 38 46  1  0  0  0
 38 47  1  0  0  0
 39 64  1  0  0  0
 39 67  2  0  0  0
 40 52  1  0  0  0
 40 53  2  0  0  0
 40 58  1  0  0  0
 41108  1  0  0  0
 41109  1  0  0  0
 41110  1  0  0  0
 41 48  1  0  0  0
 42 43  1  0  0  0
 42 66  1  0  0  0
 42111  1  0  0  0
 42112  1  0  0  0
 43 44  1  0  0  0
 44113  1  0  0  0
 45 46  2  0  0  0
 45114  1  0  0  0
 46115  1  0  0  0
 47116  1  0  0  0
 47117  1  0  0  0
 48 56  1  0  0  0
 48 65  1  0  0  0
 48118  1  0  0  0
 49 50  1  0  0  0
 49 53  1  0  0  0
 49 64  1  0  0  0
 49119  1  0  0  0
 50 51  1  0  0  0
 50120  1  0  0  0
 50121  1  0  0  0
 51 52  1  0  0  0
 51122  1  0  0  0
 51123  1  0  0  0
 52124  1  0  0  0
 52125  1  0  0  0
 53 54  1  0  0  0
 54 55  2  0  0  0
 54126  1  0  0  0
 55 57  1  0  0  0
 55127  1  0  0  0
 56 69  2  0  0  0
 57 58  2  0  0  0
 57128  1  0  0  0
 58129  1  0  0  0
 59 60  1  0  0  0
 59 61  1  0  0  0
 59 62  1  0  0  0
 60130  1  0  0  0
 60131  1  0  0  0
 60132  1  0  0  0
 61133  1  0  0  0
 61134  1  0  0  0
 61135  1  0  0  0
 62136  1  0  0  0
 62137  1  0  0  0
 62138  1  0  0  0
 63 65  1  0  0  0
 63139  1  0  0  0
 63140  1  0  0  0
 63141  1  0  0  0
 64142  1  0  0  0
 65143  1  0  0  0
 68 75  1  0  0  0
 71 73  1  0  0  0
 71 74  2  0  0  0
 71144  1  0  0  0
 72 73  2  0  0  0
 72 83  1  0  0  0
 72145  1  0  0  0
 73 79  1  0  0  0
 74 76  1  0  0  0
 74 83  1  0  0  0
 75 77  2  0  0  0
 75146  1  0  0  0
 76 80  1  0  0  0
 76 81  2  0  0  0
 77 78  1  0  0  0
 77 84  1  0  0  0
 78 79  1  0  0  0
 78 82  2  0  0  0
 79147  1  0  0  0
 80148  1  0  0  0
 84149  1  0  0  0
M  ISO  4   1 100  68 101  75 101  80 100
M  END
> <chiral flag>
0

> <version>
0

> <s_m_source_file>
/data/baiqing/PycharmProjects/Reinvent-master-3.2/result/LINK_invent/BTK/process_docking_weight1_custom_product_contain_oxygen_bond_distance_aromatic_linkinvent_7_9_3/rearranged_h_0157.sdf

> <i_m_source_file_index>
82

> <r_mmod_Potential_Energy-OPLS-2005>
217.430358886719

> <r_mmod_Stretch_Energy-OPLS-2005>
85.4878845214844

> <r_mmod_Bend_Energy-OPLS-2005>
299.014923095703

> <r_mmod_Torsional_Energy-OPLS-2005>
322.631805419922

> <r_mmod_Improper_Torsional_Energy-OPLS-2005>
8.29988670349121

> <r_mmod_Van_der_Waal_Energy-OPLS-2005>
125.019691467285

> <r_mmod_Electrostatic_Energy-OPLS-2005>
-457.168334960938

> <r_mmod_Solvation_Energy-OPLS-2005>
-255.335052490234

> <b_mmod_Minimization_Converged-OPLS-2005>
0

> <r_mmod_RMS_Derivative-OPLS-2005>
3.43497633934021

$$$$
82
                    3D
 Structure written by MMmdl.
155163  0  0  1  0            999 V2000
  -30.5894  -14.7581   20.4449 C   0  0  0  0  0  0
  -30.4272  -12.4549   19.4930 C   0  0  0  0  0  0
  -29.5141  -12.4995   18.2479 C   0  0  0  0  0  0
  -28.0398  -12.3159   18.6545 C   0  0  0  0  0  0
  -27.6336  -13.2292   19.8418 C   0  0  2  0  0  0
  -28.6673  -13.1809   20.9858 C   0  0  0  0  0  0
  -25.2465  -13.8200   20.5678 C   0  0  0  0  0  0
  -24.1745  -13.0437   20.9194 C   0  0  0  0  0  0
  -24.6340  -11.6919   20.8734 C   0  0  0  0  0  0
  -23.9041  -10.4293   21.0393 C   0  0  0  0  0  0
  -24.3607   -9.4218   21.9183 C   0  0  0  0  0  0
  -23.6282   -8.2250   22.0764 C   0  0  0  0  0  0
  -22.4264   -8.0277   21.3545 C   0  0  0  0  0  0
  -21.9886   -9.0253   20.4652 C   0  0  0  0  0  0
  -22.7209  -10.2133   20.3048 C   0  0  0  0  0  0
  -21.6858   -6.0734   22.5276 C   0  0  0  0  0  0
  -21.4012   -6.5632   23.8209 C   0  0  0  0  0  0
  -21.3674   -5.6777   24.9172 C   0  0  0  0  0  0
  -21.6036   -4.3042   24.7222 C   0  0  0  0  0  0
  -21.8820   -3.8142   23.4352 C   0  0  0  0  0  0
  -21.9191   -4.6960   22.3403 C   0  0  0  0  0  0
  -22.7784  -13.5245   21.1888 C   0  0  0  0  0  0
  -22.1656   -4.2141   21.0986 F   0  0  0  0  0  0
  -21.5637   -3.4531   25.7748 F   0  0  0  0  0  0
  -29.9754  -13.5244   20.4141 N   0  0  0  0  0  0
  -26.2852  -12.9390   20.3200 N   0  0  0  0  0  0
  -25.9250  -11.6537   20.5700 N   0  0  0  0  0  0
  -22.0411  -12.8236   22.0436 N   0  0  0  0  0  0
  -25.4145  -15.1936   20.4162 N   0  0  0  0  0  0
  -31.7756  -14.8570   20.1166 O   0  0  0  0  0  0
  -21.6630   -6.8869   21.4231 O   0  0  0  0  0  0
  -22.3464  -14.5521   20.6711 O   0  0  0  0  0  0
  -24.6324  -31.8540   23.1936 C   0  0  0  0  0  0
  -25.9150  -32.4750   23.8295 C   0  0  1  0  0  0
  -27.2214  -27.2560   20.1198 C   0  0  0  0  0  0
  -25.5949  -33.8557   24.2237 N   0  0  0  0  0  0
  -23.4277  -30.4769   21.5385 C   0  0  2  0  0  0
  -24.8702  -28.9174   20.1132 C   0  0  0  0  0  0
  -22.7495  -29.4605   22.4896 C   0  0  0  0  0  0
  -18.0296  -28.1394   22.8476 C   0  0  0  0  0  0
  -24.1488  -36.7279   23.2635 C   0  0  0  0  0  0
  -25.9713  -30.7728   21.3640 C   0  0  0  0  0  0
  -26.0438  -29.3916   20.7088 C   0  0  0  0  0  0
  -27.2183  -28.5749   20.6959 C   0  0  0  0  0  0
  -26.0023  -26.8280   19.5515 C   0  0  0  0  0  0
  -24.8539  -27.6425   19.5276 C   0  0  0  0  0  0
  -23.6439  -29.8072   20.1561 C   0  0  0  0  0  0
  -25.4114  -36.3063   24.0316 C   0  0  1  0  0  0
  -20.5896  -28.3710   23.1283 C   0  0  2  0  0  0
  -20.6773  -26.9413   22.5437 C   0  0  0  0  0  0
  -19.5773  -26.6391   21.5216 C   0  0  0  0  0  0
  -18.1933  -26.7943   22.1585 C   0  0  0  0  0  0
  -19.1544  -28.8863   23.2881 C   0  0  0  0  0  0
  -18.9456  -30.1457   23.8916 C   0  0  0  0  0  0
  -17.6461  -30.6592   24.0569 C   0  0  0  0  0  0
  -25.9060  -34.9438   23.5081 C   0  0  0  0  0  0
  -16.5357  -29.9098   23.6322 C   0  0  0  0  0  0
  -16.7280  -28.6512   23.0334 C   0  0  0  0  0  0
  -26.4519  -31.6566   25.0680 C   0  0  0  0  0  0
  -25.3737  -31.3724   26.1401 C   0  0  0  0  0  0
  -27.0360  -30.2984   24.6140 C   0  0  0  0  0  0
  -27.6074  -32.4300   25.7465 C   0  0  0  0  0  0
  -27.5576  -37.1803   24.8467 C   0  0  0  0  0  0
  -21.4205  -29.3050   22.3658 N   0  0  0  0  0  0
  -26.4290  -37.3760   23.9408 N   0  0  0  0  0  0
  -24.6967  -31.0532   22.0889 N   0  0  0  0  0  0
  -23.4213  -28.8149   23.2988 O   0  0  0  0  0  0
  -28.3658  -26.4215   20.1901 O   0  0  0  0  0  0
  -26.5630  -34.8912   22.4643 O   0  0  0  0  0  0
  -23.5477  -32.1350   23.7245 O   0  0  0  0  0  0
  -28.1552  -19.7553   22.5090 C   0  0  0  0  0  0
  -28.7529  -18.5960   21.9613 C   0  0  0  0  0  0
  -28.1751  -20.9987   21.8335 C   0  0  0  0  0  0
  -29.4094  -19.9338   20.0405 C   0  0  0  0  0  0
  -29.3943  -18.6343   20.7058 C   0  0  0  0  0  0
  -28.8147  -21.1472   20.5832 C   0  0  0  0  0  0
  -28.1752  -25.0143   18.1589 C   0  0  0  0  0  0
  -30.1076  -17.3205   20.1367 C   0  0  0  0  0  0
  -28.2762  -23.7645   20.4624 C   0  0  0  0  0  0
  -28.5964  -25.1326   19.6375 C   0  0  2  0  0  0
  -28.8572  -22.4496   19.9454 N   0  0  0  0  0  0
  -29.8039  -15.8922   20.6068 N   0  0  0  0  0  0
  -29.9452  -25.0472   19.5137 F   0  0  0  0  0  0
  -30.3667  -11.4804   19.9821 H   0  0  0  0  0  0
  -31.4705  -12.5779   19.1985 H   0  0  0  0  0  0
  -29.7999  -11.7212   17.5401 H   0  0  0  0  0  0
  -29.6437  -13.4485   17.7240 H   0  0  0  0  0  0
  -27.9051  -11.2717   18.9346 H   0  0  0  0  0  0
  -27.3861  -12.4885   17.7966 H   0  0  0  0  0  0
  -27.6258  -14.2442   19.4450 H   0  0  0  0  0  0
  -28.6910  -12.1944   21.4517 H   0  0  0  0  0  0
  -28.3866  -13.8847   21.7718 H   0  0  0  0  0  0
  -25.2743   -9.5714   22.4775 H   0  0  0  0  0  0
  -24.0003   -7.4639   22.7469 H   0  0  0  0  0  0
  -21.0836   -8.8755   19.8952 H   0  0  0  0  0  0
  -22.3654  -10.9676   19.6168 H   0  0  0  0  0  0
  -21.1997   -7.6136   23.9717 H   0  0  0  0  0  0
  -21.1488   -6.0508   25.9073 H   0  0  0  0  0  0
  -22.0585   -2.7605   23.2857 H   0  0  0  0  0  0
  -22.4015  -11.9935   22.4897 H   0  0  0  0  0  0
  -21.1033  -13.1285   22.2597 H   0  0  0  0  0  0
  -24.6450  -15.8449   20.5349 H   0  0  0  0  0  0
  -26.2611  -15.6418   20.0931 H   0  0  0  0  0  0
  -26.7222  -32.5405   23.1043 H   0  0  0  0  0  0
  -25.0106  -33.9662   25.0396 H   0  0  0  0  0  0
  -22.7234  -31.2966   21.3903 H   0  0  0  0  0  0
  -23.3748  -35.9623   23.3301 H   0  0  0  0  0  0
  -24.3569  -36.8898   22.2054 H   0  0  0  0  0  0
  -23.7266  -37.6483   23.6663 H   0  0  0  0  0  0
  -26.0963  -31.5331   20.5908 H   0  0  0  0  0  0
  -26.8539  -30.8305   21.9908 H   0  0  0  0  0  0
  -28.1221  -28.9363   21.1657 H   0  0  0  0  0  0
  -25.8811  -25.8286   19.1774 H   0  0  0  0  0  0
  -23.9427  -27.2562   19.0916 H   0  0  0  0  0  0
  -23.7706  -30.5811   19.3967 H   0  0  0  0  0  0
  -22.7599  -29.2437   19.8522 H   0  0  0  0  0  0
  -25.1311  -36.1888   25.0813 H   0  0  0  0  0  0
  -20.9987  -28.3291   24.1404 H   0  0  0  0  0  0
  -20.5621  -26.2321   23.3643 H   0  0  0  0  0  0
  -21.6656  -26.7406   22.1281 H   0  0  0  0  0  0
  -19.6932  -25.6299   21.1253 H   0  0  0  0  0  0
  -19.6739  -27.3189   20.6747 H   0  0  0  0  0  0
  -18.0288  -26.0076   22.8950 H   0  0  0  0  0  0
  -17.4222  -26.6738   21.3950 H   0  0  0  0  0  0
  -19.7933  -30.7255   24.2301 H   0  0  0  0  0  0
  -17.5015  -31.6258   24.5202 H   0  0  0  0  0  0
  -15.5352  -30.2995   23.7639 H   0  0  0  0  0  0
  -15.8678  -28.0826   22.7046 H   0  0  0  0  0  0
  -24.5918  -30.7061   25.7735 H   0  0  0  0  0  0
  -24.8919  -32.2901   26.4791 H   0  0  0  0  0  0
  -25.8050  -30.8932   27.0196 H   0  0  0  0  0  0
  -26.2929  -29.6724   24.1183 H   0  0  0  0  0  0
  -27.4081  -29.7253   25.4641 H   0  0  0  0  0  0
  -27.8787  -30.4263   23.9338 H   0  0  0  0  0  0
  -27.2685  -33.3608   26.2024 H   0  0  0  0  0  0
  -28.3908  -32.6838   25.0313 H   0  0  0  0  0  0
  -28.0714  -31.8426   26.5398 H   0  0  0  0  0  0
  -28.2604  -38.0083   24.7484 H   0  0  0  0  0  0
  -28.1052  -36.2616   24.6329 H   0  0  0  0  0  0
  -27.2280  -37.1501   25.8860 H   0  0  0  0  0  0
  -20.9373  -29.8803   21.6896 H   0  0  0  0  0  0
  -26.0156  -38.2827   24.1404 H   0  0  0  0  0  0
  -27.6831  -19.6968   23.4804 H   0  0  0  0  0  0
  -28.7350  -17.6773   22.5298 H   0  0  0  0  0  0
  -27.7015  -21.8436   22.3094 H   0  0  0  0  0  0
  -29.9159  -19.9986   19.0879 H   0  0  0  0  0  0
  -28.7478  -24.2322   17.6614 H   0  0  0  0  0  0
  -28.3539  -25.9401   17.6133 H   0  0  0  0  0  0
  -27.1364  -24.7260   18.0281 H   0  0  0  0  0  0
  -31.1813  -17.4816   20.2457 H   0  0  0  0  0  0
  -29.9275  -17.3169   19.0592 H   0  0  0  0  0  0
  -27.1954  -23.6573   20.5573 H   0  0  0  0  0  0
  -28.6496  -23.9022   21.4770 H   0  0  0  0  0  0
  -29.4199  -22.5474   19.1060 H   0  0  0  0  0  0
  -28.8425  -15.7167   20.8551 H   0  0  0  0  0  0
  1 25  1  0  0  0
  1 30  2  0  0  0
  1 82  1  0  0  0
  2  3  1  0  0  0
  2 25  1  0  0  0
  2 84  1  0  0  0
  2 85  1  0  0  0
  3  4  1  0  0  0
  3 86  1  0  0  0
  3 87  1  0  0  0
  4  5  1  0  0  0
  4 88  1  0  0  0
  4 89  1  0  0  0
  5  6  1  0  0  0
  5 26  1  0  0  0
  5 90  1  0  0  0
  6 25  1  0  0  0
  6 91  1  0  0  0
  6 92  1  0  0  0
  7  8  2  0  0  0
  7 26  1  0  0  0
  7 29  1  0  0  0
  8  9  1  0  0  0
  8 22  1  0  0  0
  9 10  1  0  0  0
  9 27  2  0  0  0
 10 11  2  0  0  0
 10 15  1  0  0  0
 11 12  1  0  0  0
 11 93  1  0  0  0
 12 13  2  0  0  0
 12 94  1  0  0  0
 13 14  1  0  0  0
 13 31  1  0  0  0
 14 15  2  0  0  0
 14 95  1  0  0  0
 15 96  1  0  0  0
 16 17  2  0  0  0
 16 21  1  0  0  0
 16 31  1  0  0  0
 17 18  1  0  0  0
 17 97  1  0  0  0
 18 19  2  0  0  0
 18 98  1  0  0  0
 19 20  1  0  0  0
 19 24  1  0  0  0
 20 21  2  0  0  0
 20 99  1  0  0  0
 21 23  1  0  0  0
 22 28  1  0  0  0
 22 32  2  0  0  0
 26 27  1  0  0  0
 28100  1  0  0  0
 28101  1  0  0  0
 29102  1  0  0  0
 29103  1  0  0  0
 33 34  1  0  0  0
 33 66  1  0  0  0
 33 70  2  0  0  0
 34 36  1  0  0  0
 34 59  1  0  0  0
 34104  1  0  0  0
 35 44  2  0  0  0
 35 45  1  0  0  0
 35 68  1  0  0  0
 36 56  1  0  0  0
 36105  1  0  0  0
 37 39  1  0  0  0
 37 47  1  0  0  0
 37 66  1  0  0  0
 37106  1  0  0  0
 38 43  2  0  0  0
 38 46  1  0  0  0
 38 47  1  0  0  0
 39 64  1  0  0  0
 39 67  2  0  0  0
 40 52  1  0  0  0
 40 53  2  0  0  0
 40 58  1  0  0  0
 41107  1  0  0  0
 41108  1  0  0  0
 41109  1  0  0  0
 41 48  1  0  0  0
 42 43  1  0  0  0
 42 66  1  0  0  0
 42110  1  0  0  0
 42111  1  0  0  0
 43 44  1  0  0  0
 44112  1  0  0  0
 45 46  2  0  0  0
 45113  1  0  0  0
 46114  1  0  0  0
 47115  1  0  0  0
 47116  1  0  0  0
 48 56  1  0  0  0
 48 65  1  0  0  0
 48117  1  0  0  0
 49 50  1  0  0  0
 49 53  1  0  0  0
 49 64  1  0  0  0
 49118  1  0  0  0
 50 51  1  0  0  0
 50119  1  0  0  0
 50120  1  0  0  0
 51 52  1  0  0  0
 51121  1  0  0  0
 51122  1  0  0  0
 52123  1  0  0  0
 52124  1  0  0  0
 53 54  1  0  0  0
 54 55  2  0  0  0
 54125  1  0  0  0
 55 57  1  0  0  0
 55126  1  0  0  0
 56 69  2  0  0  0
 57 58  2  0  0  0
 57127  1  0  0  0
 58128  1  0  0  0
 59 60  1  0  0  0
 59 61  1  0  0  0
 59 62  1  0  0  0
 60129  1  0  0  0
 60130  1  0  0  0
 60131  1  0  0  0
 61132  1  0  0  0
 61133  1  0  0  0
 61134  1  0  0  0
 62135  1  0  0  0
 62136  1  0  0  0
 62137  1  0  0  0
 63 65  1  0  0  0
 63138  1  0  0  0
 63139  1  0  0  0
 63140  1  0  0  0
 64141  1  0  0  0
 65142  1  0  0  0
 68 80  1  0  0  0
 71 72  2  0  0  0
 71 73  1  0  0  0
 71143  1  0  0  0
 72 75  1  0  0  0
 72144  1  0  0  0
 73 76  2  0  0  0
 73145  1  0  0  0
 74 75  2  0  0  0
 74 76  1  0  0  0
 74146  1  0  0  0
 75 78  1  0  0  0
 76 81  1  0  0  0
 77147  1  0  0  0
 77148  1  0  0  0
 77149  1  0  0  0
 77 80  1  0  0  0
 78 82  1  0  0  0
 78150  1  0  0  0
 78151  1  0  0  0
 79 80  1  0  0  0
 79 81  1  0  0  0
 79152  1  0  0  0
 79153  1  0  0  0
 80 83  1  0  0  0
 81154  1  0  0  0
 82155  1  0  0  0
M  ISO  4   1 100  68 101  80 101  82 100
M  END
> <chiral flag>
0

> <version>
0

> <s_m_source_file>
/data/baiqing/PycharmProjects/Reinvent-master-3.2/result/LINK_invent/BTK/process_docking_weight1_custom_product_contain_oxygen_bond_distance_aromatic_linkinvent_7_9_3/rearranged_h_0157.sdf

> <i_m_source_file_index>
83

> <r_mmod_Potential_Energy-OPLS-2005>
94.4671020507812

> <r_mmod_Stretch_Energy-OPLS-2005>
123.763641357422

> <r_mmod_Bend_Energy-OPLS-2005>
201.804138183594

> <r_mmod_Torsional_Energy-OPLS-2005>
196.063659667969

> <r_mmod_Improper_Torsional_Energy-OPLS-2005>
6.53013706207275

> <r_mmod_Van_der_Waal_Energy-OPLS-2005>
137.570602416992

> <r_mmod_Electrostatic_Energy-OPLS-2005>
-444.694427490234

> <r_mmod_Solvation_Energy-OPLS-2005>
-214.288314819336

> <b_mmod_Minimization_Converged-OPLS-2005>
0

> <r_mmod_RMS_Derivative-OPLS-2005>
3.82266974449158

$$$$
83
                    3D
 Structure written by MMmdl.
150158  0  0  1  0            999 V2000
  -30.7279  -14.5115   20.5675 C   0  0  0  0  0  0
  -30.4170  -12.3339   19.4353 C   0  0  0  0  0  0
  -29.4959  -12.5058   18.2109 C   0  0  0  0  0  0
  -28.0180  -12.3614   18.6247 C   0  0  0  0  0  0
  -27.6593  -13.2161   19.8720 C   0  0  2  0  0  0
  -28.7034  -13.0404   20.9979 C   0  0  0  0  0  0
  -25.2585  -13.8188   20.5689 C   0  0  0  0  0  0
  -24.1835  -13.0444   20.9144 C   0  0  0  0  0  0
  -24.6392  -11.6914   20.8703 C   0  0  0  0  0  0
  -23.9042  -10.4300   21.0372 C   0  0  0  0  0  0
  -24.3599   -9.4227   21.9149 C   0  0  0  0  0  0
  -23.6283   -8.2257   22.0745 C   0  0  0  0  0  0
  -22.4251   -8.0285   21.3547 C   0  0  0  0  0  0
  -21.9887   -9.0248   20.4633 C   0  0  0  0  0  0
  -22.7209  -10.2136   20.3033 C   0  0  0  0  0  0
  -21.6852   -6.0719   22.5266 C   0  0  0  0  0  0
  -21.4016   -6.5632   23.8197 C   0  0  0  0  0  0
  -21.3668   -5.6793   24.9167 C   0  0  0  0  0  0
  -21.6046   -4.3048   24.7224 C   0  0  0  0  0  0
  -21.8820   -3.8133   23.4338 C   0  0  0  0  0  0
  -21.9201   -4.6948   22.3389 C   0  0  0  0  0  0
  -22.7862  -13.5249   21.1807 C   0  0  0  0  0  0
  -22.1655   -4.2137   21.0967 F   0  0  0  0  0  0
  -21.5643   -3.4529   25.7734 F   0  0  0  0  0  0
  -30.0281  -13.3461   20.4347 N   0  0  0  0  0  0
  -26.3022  -12.9371   20.3379 N   0  0  0  0  0  0
  -25.9329  -11.6525   20.5758 N   0  0  0  0  0  0
  -22.0517  -12.8236   22.0390 N   0  0  0  0  0  0
  -25.4334  -15.1902   20.4123 N   0  0  0  0  0  0
  -31.8480  -14.6532   20.0746 O   0  0  0  0  0  0
  -21.6638   -6.8861   21.4225 O   0  0  0  0  0  0
  -22.3529  -14.5552   20.6667 O   0  0  0  0  0  0
  -24.6207  -31.8627   23.2082 C   0  0  0  0  0  0
  -25.9079  -32.4804   23.8372 C   0  0  1  0  0  0
  -27.2282  -27.3749   20.0933 C   0  0  0  0  0  0
  -25.5900  -33.8606   24.2292 N   0  0  0  0  0  0
  -23.4114  -30.4901   21.5483 C   0  0  2  0  0  0
  -24.8574  -28.9590   20.1096 C   0  0  0  0  0  0
  -22.7460  -29.4632   22.4961 C   0  0  0  0  0  0
  -18.0278  -28.1394   22.8505 C   0  0  0  0  0  0
  -24.1463  -36.7289   23.2642 C   0  0  0  0  0  0
  -25.9507  -30.8125   21.3708 C   0  0  0  0  0  0
  -26.0243  -29.4457   20.7101 C   0  0  0  0  0  0
  -27.2130  -28.6646   20.6947 C   0  0  0  0  0  0
  -26.0347  -26.9333   19.4711 C   0  0  0  0  0  0
  -24.8616  -27.7051   19.4829 C   0  0  0  0  0  0
  -23.6213  -29.8294   20.1620 C   0  0  0  0  0  0
  -25.4080  -36.3097   24.0337 C   0  0  1  0  0  0
  -20.5876  -28.3673   23.1306 C   0  0  2  0  0  0
  -20.6753  -26.9400   22.5416 C   0  0  0  0  0  0
  -19.5729  -26.6381   21.5233 C   0  0  0  0  0  0
  -18.1918  -26.7932   22.1649 C   0  0  0  0  0  0
  -19.1534  -28.8857   23.2900 C   0  0  0  0  0  0
  -18.9458  -30.1466   23.8910 C   0  0  0  0  0  0
  -17.6466  -30.6600   24.0576 C   0  0  0  0  0  0
  -25.9021  -34.9468   23.5113 C   0  0  0  0  0  0
  -16.5357  -29.9102   23.6353 C   0  0  0  0  0  0
  -16.7269  -28.6515   23.0367 C   0  0  0  0  0  0
  -26.4463  -31.6628   25.0735 C   0  0  0  0  0  0
  -25.3705  -31.3792   26.1476 C   0  0  0  0  0  0
  -27.0295  -30.3055   24.6165 C   0  0  0  0  0  0
  -27.6010  -32.4370   25.7508 C   0  0  0  0  0  0
  -27.5571  -37.1778   24.8464 C   0  0  0  0  0  0
  -21.4172  -29.3041   22.3729 N   0  0  0  0  0  0
  -26.4265  -37.3786   23.9436 N   0  0  0  0  0  0
  -24.6799  -31.0677   22.1008 N   0  0  0  0  0  0
  -23.4215  -28.8157   23.2992 O   0  0  0  0  0  0
  -28.3663  -26.5648   20.1325 O   0  0  0  0  0  0
  -26.5613  -34.8936   22.4693 O   0  0  0  0  0  0
  -23.5374  -32.1415   23.7424 O   0  0  0  0  0  0
  -30.6819  -19.4238   21.1962 C   0  0  0  0  0  0
  -30.2068  -18.1355   21.1108 C   0  0  0  0  0  0
  -29.6557  -20.2489   20.6464 C   0  0  0  0  0  0
  -28.9339  -22.6231   20.0884 C   0  0  0  0  0  0
  -30.7964  -16.8084   21.5764 C   0  0  0  0  0  0
  -29.2988  -24.1331   20.2753 C   0  0  0  0  0  0
  -28.1727  -25.1414   19.8610 C   0  0  0  0  0  0
  -28.6295  -19.5057   20.2417 N   0  0  0  0  0  0
  -29.7728  -21.6844   20.5981 N   0  0  0  0  0  0
  -30.1212  -15.5439   21.1933 N   0  0  0  0  0  0
  -27.9058  -22.3301   19.4703 O   0  0  0  0  0  0
  -28.9709  -18.1676   20.5322 O   0  0  0  0  0  0
  -31.4624  -12.4178   19.1348 H   0  0  0  0  0  0
  -30.3125  -11.3308   19.8550 H   0  0  0  0  0  0
  -29.7442  -11.7688   17.4453 H   0  0  0  0  0  0
  -29.6584  -13.4861   17.7607 H   0  0  0  0  0  0
  -27.8338  -11.3056   18.8320 H   0  0  0  0  0  0
  -27.3650  -12.6221   17.7908 H   0  0  0  0  0  0
  -27.6931  -14.2581   19.5556 H   0  0  0  0  0  0
  -28.6919  -12.0147   21.3744 H   0  0  0  0  0  0
  -28.4627  -13.6714   21.8541 H   0  0  0  0  0  0
  -25.2754   -9.5715   22.4705 H   0  0  0  0  0  0
  -23.9996   -7.4666   22.7493 H   0  0  0  0  0  0
  -21.0815   -8.8747   19.8951 H   0  0  0  0  0  0
  -22.3646  -10.9655   19.6129 H   0  0  0  0  0  0
  -21.1986   -7.6141   23.9693 H   0  0  0  0  0  0
  -21.1493   -6.0521   25.9075 H   0  0  0  0  0  0
  -22.0588   -2.7593   23.2842 H   0  0  0  0  0  0
  -22.4149  -11.9868   22.4724 H   0  0  0  0  0  0
  -21.1140  -13.1269   22.2646 H   0  0  0  0  0  0
  -24.6682  -15.8493   20.5077 H   0  0  0  0  0  0
  -26.2987  -15.6292   20.1191 H   0  0  0  0  0  0
  -26.7148  -32.5481   23.1124 H   0  0  0  0  0  0
  -25.0040  -33.9759   25.0432 H   0  0  0  0  0  0
  -22.7013  -31.3081   21.4071 H   0  0  0  0  0  0
  -23.3740  -35.9614   23.3324 H   0  0  0  0  0  0
  -24.3552  -36.8877   22.2057 H   0  0  0  0  0  0
  -23.7214  -37.6486   23.6647 H   0  0  0  0  0  0
  -26.0724  -31.5785   20.6012 H   0  0  0  0  0  0
  -26.8338  -30.8601   21.9970 H   0  0  0  0  0  0
  -28.1096  -29.0343   21.1722 H   0  0  0  0  0  0
  -25.9709  -25.9827   18.9644 H   0  0  0  0  0  0
  -23.9679  -27.3307   19.0029 H   0  0  0  0  0  0
  -23.7260  -30.6045   19.4018 H   0  0  0  0  0  0
  -22.7463  -29.2467   19.8687 H   0  0  0  0  0  0
  -25.1252  -36.1940   25.0827 H   0  0  0  0  0  0
  -20.9969  -28.3225   24.1421 H   0  0  0  0  0  0
  -20.5675  -26.2267   23.3601 H   0  0  0  0  0  0
  -21.6605  -26.7415   22.1194 H   0  0  0  0  0  0
  -19.6866  -25.6299   21.1253 H   0  0  0  0  0  0
  -19.6665  -27.3216   20.6802 H   0  0  0  0  0  0
  -17.4171  -26.6722   21.4070 H   0  0  0  0  0  0
  -18.0270  -26.0068   22.9033 H   0  0  0  0  0  0
  -19.7939  -30.7280   24.2250 H   0  0  0  0  0  0
  -17.5030  -31.6280   24.5168 H   0  0  0  0  0  0
  -15.5369  -30.3015   23.7664 H   0  0  0  0  0  0
  -15.8657  -28.0852   22.7077 H   0  0  0  0  0  0
  -24.5859  -30.7142   25.7849 H   0  0  0  0  0  0
  -24.8921  -32.2984   26.4879 H   0  0  0  0  0  0
  -25.8025  -30.9006   27.0282 H   0  0  0  0  0  0
  -26.2873  -29.6836   24.1134 H   0  0  0  0  0  0
  -27.3970  -29.7253   25.4648 H   0  0  0  0  0  0
  -27.8746  -30.4343   23.9386 H   0  0  0  0  0  0
  -27.2592  -33.3666   26.2066 H   0  0  0  0  0  0
  -28.3823  -32.6960   25.0353 H   0  0  0  0  0  0
  -28.0674  -31.8532   26.5440 H   0  0  0  0  0  0
  -28.2553  -38.0114   24.7552 H   0  0  0  0  0  0
  -28.1092  -36.2641   24.6210 H   0  0  0  0  0  0
  -27.2303  -37.1331   25.8871 H   0  0  0  0  0  0
  -20.9337  -29.8781   21.6971 H   0  0  0  0  0  0
  -26.0146  -38.2845   24.1507 H   0  0  0  0  0  0
  -31.6306  -19.7273   21.6120 H   0  0  0  0  0  0
  -30.8386  -16.8151   22.6664 H   0  0  0  0  0  0
  -31.8432  -16.7940   21.2687 H   0  0  0  0  0  0
  -30.2023  -24.3434   19.7050 H   0  0  0  0  0  0
  -29.5501  -24.2932   21.3240 H   0  0  0  0  0  0
  -27.2681  -24.8095   20.3747 H   0  0  0  0  0  0
  -27.9963  -25.0292   18.7890 H   0  0  0  0  0  0
  -30.6066  -22.0514   21.0294 H   0  0  0  0  0  0
  -29.1891  -15.3950   21.5470 H   0  0  0  0  0  0
  1 25  1  0  0  0
  1 30  2  0  0  0
  1 80  1  0  0  0
  2  3  1  0  0  0
  2 25  1  0  0  0
  2 83  1  0  0  0
  2 84  1  0  0  0
  3  4  1  0  0  0
  3 85  1  0  0  0
  3 86  1  0  0  0
  4  5  1  0  0  0
  4 87  1  0  0  0
  4 88  1  0  0  0
  5  6  1  0  0  0
  5 26  1  0  0  0
  5 89  1  0  0  0
  6 25  1  0  0  0
  6 90  1  0  0  0
  6 91  1  0  0  0
  7  8  2  0  0  0
  7 26  1  0  0  0
  7 29  1  0  0  0
  8  9  1  0  0  0
  8 22  1  0  0  0
  9 10  1  0  0  0
  9 27  2  0  0  0
 10 11  2  0  0  0
 10 15  1  0  0  0
 11 12  1  0  0  0
 11 92  1  0  0  0
 12 13  2  0  0  0
 12 93  1  0  0  0
 13 14  1  0  0  0
 13 31  1  0  0  0
 14 15  2  0  0  0
 14 94  1  0  0  0
 15 95  1  0  0  0
 16 17  2  0  0  0
 16 21  1  0  0  0
 16 31  1  0  0  0
 17 18  1  0  0  0
 17 96  1  0  0  0
 18 19  2  0  0  0
 18 97  1  0  0  0
 19 20  1  0  0  0
 19 24  1  0  0  0
 20 21  2  0  0  0
 20 98  1  0  0  0
 21 23  1  0  0  0
 22 28  1  0  0  0
 22 32  2  0  0  0
 26 27  1  0  0  0
 28 99  1  0  0  0
 28100  1  0  0  0
 29101  1  0  0  0
 29102  1  0  0  0
 33 34  1  0  0  0
 33 66  1  0  0  0
 33 70  2  0  0  0
 34 36  1  0  0  0
 34 59  1  0  0  0
 34103  1  0  0  0
 35 44  2  0  0  0
 35 45  1  0  0  0
 35 68  1  0  0  0
 36 56  1  0  0  0
 36104  1  0  0  0
 37 39  1  0  0  0
 37 47  1  0  0  0
 37 66  1  0  0  0
 37105  1  0  0  0
 38 43  2  0  0  0
 38 46  1  0  0  0
 38 47  1  0  0  0
 39 64  1  0  0  0
 39 67  2  0  0  0
 40 52  1  0  0  0
 40 53  2  0  0  0
 40 58  1  0  0  0
 41106  1  0  0  0
 41107  1  0  0  0
 41108  1  0  0  0
 41 48  1  0  0  0
 42 43  1  0  0  0
 42 66  1  0  0  0
 42109  1  0  0  0
 42110  1  0  0  0
 43 44  1  0  0  0
 44111  1  0  0  0
 45 46  2  0  0  0
 45112  1  0  0  0
 46113  1  0  0  0
 47114  1  0  0  0
 47115  1  0  0  0
 48 56  1  0  0  0
 48 65  1  0  0  0
 48116  1  0  0  0
 49 50  1  0  0  0
 49 53  1  0  0  0
 49 64  1  0  0  0
 49117  1  0  0  0
 50 51  1  0  0  0
 50118  1  0  0  0
 50119  1  0  0  0
 51 52  1  0  0  0
 51120  1  0  0  0
 51121  1  0  0  0
 52122  1  0  0  0
 52123  1  0  0  0
 53 54  1  0  0  0
 54 55  2  0  0  0
 54124  1  0  0  0
 55 57  1  0  0  0
 55125  1  0  0  0
 56 69  2  0  0  0
 57 58  2  0  0  0
 57126  1  0  0  0
 58127  1  0  0  0
 59 60  1  0  0  0
 59 61  1  0  0  0
 59 62  1  0  0  0
 60128  1  0  0  0
 60129  1  0  0  0
 60130  1  0  0  0
 61131  1  0  0  0
 61132  1  0  0  0
 61133  1  0  0  0
 62134  1  0  0  0
 62135  1  0  0  0
 62136  1  0  0  0
 63 65  1  0  0  0
 63137  1  0  0  0
 63138  1  0  0  0
 63139  1  0  0  0
 64140  1  0  0  0
 65141  1  0  0  0
 68 77  1  0  0  0
 71 72  2  0  0  0
 71 73  1  0  0  0
 71142  1  0  0  0
 72 75  1  0  0  0
 72 82  1  0  0  0
 73 78  2  0  0  0
 73 79  1  0  0  0
 74 76  1  0  0  0
 74 79  1  0  0  0
 74 81  2  0  0  0
 75 80  1  0  0  0
 75143  1  0  0  0
 75144  1  0  0  0
 76 77  1  0  0  0
 76145  1  0  0  0
 76146  1  0  0  0
 77147  1  0  0  0
 77148  1  0  0  0
 78 82  1  0  0  0
 79149  1  0  0  0
 80150  1  0  0  0
M  ISO  4   1 100  68 101  77 101  80 100
M  END
> <chiral flag>
0

> <version>
0

> <s_m_source_file>
/data/baiqing/PycharmProjects/Reinvent-master-3.2/result/LINK_invent/BTK/process_docking_weight1_custom_product_contain_oxygen_bond_distance_aromatic_linkinvent_7_9_3/rearranged_h_0157.sdf

> <i_m_source_file_index>
84

> <r_mmod_Potential_Energy-OPLS-2005>
-259.459411621094

> <r_mmod_Stretch_Energy-OPLS-2005>
49.7835121154785

> <r_mmod_Bend_Energy-OPLS-2005>
118.351181030273

> <r_mmod_Torsional_Energy-OPLS-2005>
186.723098754883

> <r_mmod_Improper_Torsional_Energy-OPLS-2005>
2.35225629806519

> <r_mmod_Van_der_Waal_Energy-OPLS-2005>
138.055725097656

> <r_mmod_Electrostatic_Energy-OPLS-2005>
-515.244995117188

> <r_mmod_Solvation_Energy-OPLS-2005>
-262.740081787109

> <b_mmod_Minimization_Converged-OPLS-2005>
0

> <r_mmod_RMS_Derivative-OPLS-2005>
3.525723695755

$$$$
84
                    3D
 Structure written by MMmdl.
163172  0  0  1  0            999 V2000
  -30.5910  -14.8258   20.4363 C   0  0  0  0  0  0
  -30.4285  -12.5033   19.4897 C   0  0  0  0  0  0
  -29.5149  -12.5143   18.2454 C   0  0  0  0  0  0
  -28.0420  -12.3273   18.6557 C   0  0  0  0  0  0
  -27.6337  -13.2412   19.8415 C   0  0  2  0  0  0
  -28.6743  -13.2206   20.9812 C   0  0  0  0  0  0
  -25.2471  -13.8203   20.5667 C   0  0  0  0  0  0
  -24.1791  -13.0442   20.9229 C   0  0  0  0  0  0
  -24.6397  -11.6924   20.8764 C   0  0  0  0  0  0
  -23.9074  -10.4296   21.0410 C   0  0  0  0  0  0
  -24.3623   -9.4207   21.9184 C   0  0  0  0  0  0
  -23.6300   -8.2243   22.0752 C   0  0  0  0  0  0
  -22.4280   -8.0280   21.3541 C   0  0  0  0  0  0
  -21.9915   -9.0252   20.4640 C   0  0  0  0  0  0
  -22.7245  -10.2133   20.3055 C   0  0  0  0  0  0
  -21.6856   -6.0737   22.5279 C   0  0  0  0  0  0
  -21.4013   -6.5637   23.8212 C   0  0  0  0  0  0
  -21.3662   -5.6791   24.9174 C   0  0  0  0  0  0
  -21.6045   -4.3052   24.7224 C   0  0  0  0  0  0
  -21.8820   -3.8146   23.4343 C   0  0  0  0  0  0
  -21.9194   -4.6964   22.3402 C   0  0  0  0  0  0
  -22.7812  -13.5216   21.1880 C   0  0  0  0  0  0
  -22.1663   -4.2149   21.0980 F   0  0  0  0  0  0
  -21.5629   -3.4538   25.7738 F   0  0  0  0  0  0
  -29.9663  -13.5910   20.3915 N   0  0  0  0  0  0
  -26.2892  -12.9424   20.3218 N   0  0  0  0  0  0
  -25.9323  -11.6558   20.5727 N   0  0  0  0  0  0
  -22.0462  -12.8201   22.0433 N   0  0  0  0  0  0
  -25.4106  -15.1920   20.3997 N   0  0  0  0  0  0
  -31.7913  -14.8617   20.1530 O   0  0  0  0  0  0
  -21.6642   -6.8881   21.4240 O   0  0  0  0  0  0
  -22.3495  -14.5520   20.6727 O   0  0  0  0  0  0
  -24.6383  -31.8500   23.1934 C   0  0  0  0  0  0
  -25.9186  -32.4731   23.8301 C   0  0  1  0  0  0
  -27.2131  -27.2123   20.1412 C   0  0  0  0  0  0
  -25.5963  -33.8530   24.2232 N   0  0  0  0  0  0
  -23.4380  -30.4706   21.5368 C   0  0  2  0  0  0
  -24.8906  -28.9161   20.0994 C   0  0  0  0  0  0
  -22.7547  -29.4569   22.4874 C   0  0  0  0  0  0
  -18.0299  -28.1412   22.8493 C   0  0  0  0  0  0
  -24.1476  -36.7250   23.2638 C   0  0  0  0  0  0
  -25.9876  -30.7503   21.3804 C   0  0  0  0  0  0
  -26.0642  -29.3718   20.7153 C   0  0  0  0  0  0
  -27.2330  -28.5331   20.7242 C   0  0  0  0  0  0
  -26.0272  -26.8471   19.4743 C   0  0  0  0  0  0
  -24.8813  -27.6669   19.4603 C   0  0  0  0  0  0
  -23.6602  -29.8043   20.1528 C   0  0  0  0  0  0
  -25.4107  -36.3046   24.0324 C   0  0  1  0  0  0
  -20.5908  -28.3725   23.1244 C   0  0  2  0  0  0
  -20.6779  -26.9433   22.5405 C   0  0  0  0  0  0
  -19.5745  -26.6393   21.5220 C   0  0  0  0  0  0
  -18.1930  -26.7955   22.1627 C   0  0  0  0  0  0
  -19.1557  -28.8890   23.2858 C   0  0  0  0  0  0
  -18.9479  -30.1491   23.8878 C   0  0  0  0  0  0
  -17.6477  -30.6608   24.0572 C   0  0  0  0  0  0
  -25.9057  -34.9425   23.5073 C   0  0  0  0  0  0
  -16.5365  -29.9101   23.6357 C   0  0  0  0  0  0
  -16.7286  -28.6519   23.0377 C   0  0  0  0  0  0
  -26.4516  -31.6580   25.0723 C   0  0  0  0  0  0
  -25.3715  -31.3778   26.1437 C   0  0  0  0  0  0
  -27.0383  -30.2985   24.6270 C   0  0  0  0  0  0
  -27.6050  -32.4337   25.7513 C   0  0  0  0  0  0
  -27.5563  -37.1778   24.8463 C   0  0  0  0  0  0
  -21.4241  -29.3045   22.3617 N   0  0  0  0  0  0
  -26.4267  -37.3763   23.9419 N   0  0  0  0  0  0
  -24.7072  -31.0412   22.0938 N   0  0  0  0  0  0
  -23.4215  -28.8113   23.2998 O   0  0  0  0  0  0
  -28.1953  -26.1818   20.2832 O   0  0  0  0  0  0
  -26.5618  -34.8910   22.4637 O   0  0  0  0  0  0
  -23.5520  -32.1346   23.7195 O   0  0  0  0  0  0
  -30.9478  -20.2766   20.1247 C   0  0  0  0  0  0
  -31.4689  -17.8731   20.1814 C   0  0  0  0  0  0
  -29.1964  -18.6377   20.5997 C   0  0  0  0  0  0
  -29.5864  -20.0707   20.4395 C   0  0  0  0  0  0
  -31.8636  -19.2151   20.0076 C   0  0  0  0  0  0
  -30.1349  -17.4915   20.4698 C   0  0  0  0  0  0
  -28.1289  -23.6475   21.0951 C   0  0  0  0  0  0
  -28.9148  -22.6783   20.2409 C   0  0  0  0  0  0
  -27.7619  -18.3147   20.8194 C   0  0  0  0  0  0
  -27.8663  -25.0472   21.1233 C   0  0  0  0  0  0
  -27.5270  -22.7589   22.1670 C   0  0  0  0  0  0
  -27.7405  -21.3171   21.7202 C   0  0  0  0  0  0
  -27.4020  -17.6416   22.1382 C   0  0  0  0  0  0
  -27.0780  -25.5687   22.3395 C   0  0  0  0  0  0
  -28.7738  -21.3400   20.6925 N   0  0  0  0  0  0
  -33.1978  -19.5011   19.7238 N   0  0  0  0  0  0
  -29.8231  -15.9998   20.5976 N   0  0  0  0  0  0
  -29.6001  -22.9983   19.2651 O   0  0  0  0  0  0
  -26.8705  -18.5993   20.0160 O   0  0  0  0  0  0
  -31.4694  -12.6272   19.1867 H   0  0  0  0  0  0
  -30.3800  -11.5385   19.9971 H   0  0  0  0  0  0
  -29.8123  -11.7282   17.5501 H   0  0  0  0  0  0
  -29.6338  -13.4579   17.7102 H   0  0  0  0  0  0
  -27.9115  -11.2816   18.9369 H   0  0  0  0  0  0
  -27.3864  -12.4976   17.8005 H   0  0  0  0  0  0
  -27.6131  -14.2537   19.4386 H   0  0  0  0  0  0
  -28.7262  -12.2340   21.4448 H   0  0  0  0  0  0
  -28.3938  -13.9181   21.7726 H   0  0  0  0  0  0
  -25.2766   -9.5687   22.4760 H   0  0  0  0  0  0
  -24.0013   -7.4629   22.7469 H   0  0  0  0  0  0
  -21.0849   -8.8768   19.8938 H   0  0  0  0  0  0
  -22.3701  -10.9673   19.6166 H   0  0  0  0  0  0
  -21.2002   -7.6145   23.9716 H   0  0  0  0  0  0
  -21.1484   -6.0518   25.9078 H   0  0  0  0  0  0
  -22.0598   -2.7606   23.2846 H   0  0  0  0  0  0
  -22.4078  -11.9865   22.4824 H   0  0  0  0  0  0
  -21.1075  -13.1212   22.2635 H   0  0  0  0  0  0
  -24.6140  -15.8174   20.4525 H   0  0  0  0  0  0
  -26.2014  -15.6058   19.9252 H   0  0  0  0  0  0
  -26.7261  -32.5368   23.1047 H   0  0  0  0  0  0
  -25.0145  -33.9656   25.0400 H   0  0  0  0  0  0
  -22.7364  -31.2942   21.3891 H   0  0  0  0  0  0
  -23.3750  -35.9571   23.3302 H   0  0  0  0  0  0
  -24.3554  -36.8878   22.2050 H   0  0  0  0  0  0
  -23.7220  -37.6440   23.6673 H   0  0  0  0  0  0
  -26.1316  -31.5135   20.6143 H   0  0  0  0  0  0
  -26.8603  -30.7974   22.0202 H   0  0  0  0  0  0
  -28.1185  -28.8598   21.2503 H   0  0  0  0  0  0
  -25.9671  -25.8711   19.0139 H   0  0  0  0  0  0
  -23.9847  -27.3130   18.9700 H   0  0  0  0  0  0
  -23.7799  -30.5811   19.3967 H   0  0  0  0  0  0
  -22.7798  -29.2355   19.8498 H   0  0  0  0  0  0
  -25.1292  -36.1877   25.0818 H   0  0  0  0  0  0
  -21.0001  -28.3330   24.1366 H   0  0  0  0  0  0
  -20.5678  -26.2338   23.3622 H   0  0  0  0  0  0
  -21.6643  -26.7448   22.1197 H   0  0  0  0  0  0
  -19.6882  -25.6295   21.1279 H   0  0  0  0  0  0
  -19.6686  -27.3176   20.6732 H   0  0  0  0  0  0
  -17.4197  -26.6733   21.4031 H   0  0  0  0  0  0
  -18.0304  -26.0100   22.9019 H   0  0  0  0  0  0
  -19.7957  -30.7325   24.2214 H   0  0  0  0  0  0
  -17.5035  -31.6292   24.5176 H   0  0  0  0  0  0
  -15.5363  -30.2998   23.7695 H   0  0  0  0  0  0
  -15.8685  -28.0833   22.7103 H   0  0  0  0  0  0
  -24.5893  -30.7118   25.7770 H   0  0  0  0  0  0
  -24.8905  -32.2971   26.4795 H   0  0  0  0  0  0
  -25.8017  -30.9009   27.0255 H   0  0  0  0  0  0
  -26.3002  -29.6708   24.1269 H   0  0  0  0  0  0
  -27.3999  -29.7288   25.4837 H   0  0  0  0  0  0
  -27.8905  -30.4224   23.9586 H   0  0  0  0  0  0
  -27.2652  -33.3655   26.2044 H   0  0  0  0  0  0
  -28.3903  -32.6866   25.0379 H   0  0  0  0  0  0
  -28.0675  -31.8496   26.5478 H   0  0  0  0  0  0
  -28.2579  -38.0073   24.7521 H   0  0  0  0  0  0
  -28.1063  -36.2608   24.6286 H   0  0  0  0  0  0
  -27.2286  -37.1429   25.8865 H   0  0  0  0  0  0
  -20.9440  -29.8771   21.6816 H   0  0  0  0  0  0
  -26.0137  -38.2826   24.1452 H   0  0  0  0  0  0
  -31.3242  -21.2836   20.0165 H   0  0  0  0  0  0
  -32.2417  -17.1315   20.0749 H   0  0  0  0  0  0
  -26.4660  -22.9588   22.3219 H   0  0  0  0  0  0
  -28.0540  -22.9255   23.1079 H   0  0  0  0  0  0
  -26.8152  -20.9378   21.2861 H   0  0  0  0  0  0
  -28.0117  -20.6837   22.5659 H   0  0  0  0  0  0
  -27.8605  -18.1722   22.9721 H   0  0  0  0  0  0
  -27.7355  -16.6058   22.1572 H   0  0  0  0  0  0
  -26.3220  -17.6506   22.2808 H   0  0  0  0  0  0
  -26.0056  -25.5385   22.1418 H   0  0  0  0  0  0
  -27.3551  -26.5880   22.6037 H   0  0  0  0  0  0
  -27.2664  -25.0088   23.2531 H   0  0  0  0  0  0
  -33.5374  -20.4511   19.8429 H   0  0  0  0  0  0
  -33.9074  -18.7985   19.9143 H   0  0  0  0  0  0
  -28.8571  -15.7818   20.7845 H   0  0  0  0  0  0
  1 25  1  0  0  0
  1 30  2  0  0  0
  1 87  1  0  0  0
  2  3  1  0  0  0
  2 25  1  0  0  0
  2 90  1  0  0  0
  2 91  1  0  0  0
  3  4  1  0  0  0
  3 92  1  0  0  0
  3 93  1  0  0  0
  4  5  1  0  0  0
  4 94  1  0  0  0
  4 95  1  0  0  0
  5  6  1  0  0  0
  5 26  1  0  0  0
  5 96  1  0  0  0
  6 25  1  0  0  0
  6 97  1  0  0  0
  6 98  1  0  0  0
  7  8  2  0  0  0
  7 26  1  0  0  0
  7 29  1  0  0  0
  8  9  1  0  0  0
  8 22  1  0  0  0
  9 10  1  0  0  0
  9 27  2  0  0  0
 10 11  2  0  0  0
 10 15  1  0  0  0
 11 12  1  0  0  0
 11 99  1  0  0  0
 12 13  2  0  0  0
 12100  1  0  0  0
 13 14  1  0  0  0
 13 31  1  0  0  0
 14 15  2  0  0  0
 14101  1  0  0  0
 15102  1  0  0  0
 16 17  2  0  0  0
 16 21  1  0  0  0
 16 31  1  0  0  0
 17 18  1  0  0  0
 17103  1  0  0  0
 18 19  2  0  0  0
 18104  1  0  0  0
 19 20  1  0  0  0
 19 24  1  0  0  0
 20 21  2  0  0  0
 20105  1  0  0  0
 21 23  1  0  0  0
 22 28  1  0  0  0
 22 32  2  0  0  0
 26 27  1  0  0  0
 28106  1  0  0  0
 28107  1  0  0  0
 29108  1  0  0  0
 29109  1  0  0  0
 33 34  1  0  0  0
 33 66  1  0  0  0
 33 70  2  0  0  0
 34 36  1  0  0  0
 34 59  1  0  0  0
 34110  1  0  0  0
 35 44  2  0  0  0
 35 45  1  0  0  0
 35 68  1  0  0  0
 36 56  1  0  0  0
 36111  1  0  0  0
 37 39  1  0  0  0
 37 47  1  0  0  0
 37 66  1  0  0  0
 37112  1  0  0  0
 38 43  2  0  0  0
 38 46  1  0  0  0
 38 47  1  0  0  0
 39 64  1  0  0  0
 39 67  2  0  0  0
 40 52  1  0  0  0
 40 53  2  0  0  0
 40 58  1  0  0  0
 41113  1  0  0  0
 41114  1  0  0  0
 41115  1  0  0  0
 41 48  1  0  0  0
 42 43  1  0  0  0
 42 66  1  0  0  0
 42116  1  0  0  0
 42117  1  0  0  0
 43 44  1  0  0  0
 44118  1  0  0  0
 45 46  2  0  0  0
 45119  1  0  0  0
 46120  1  0  0  0
 47121  1  0  0  0
 47122  1  0  0  0
 48 56  1  0  0  0
 48 65  1  0  0  0
 48123  1  0  0  0
 49 50  1  0  0  0
 49 53  1  0  0  0
 49 64  1  0  0  0
 49124  1  0  0  0
 50 51  1  0  0  0
 50125  1  0  0  0
 50126  1  0  0  0
 51 52  1  0  0  0
 51127  1  0  0  0
 51128  1  0  0  0
 52129  1  0  0  0
 52130  1  0  0  0
 53 54  1  0  0  0
 54 55  2  0  0  0
 54131  1  0  0  0
 55 57  1  0  0  0
 55132  1  0  0  0
 56 69  2  0  0  0
 57 58  2  0  0  0
 57133  1  0  0  0
 58134  1  0  0  0
 59 60  1  0  0  0
 59 61  1  0  0  0
 59 62  1  0  0  0
 60135  1  0  0  0
 60136  1  0  0  0
 60137  1  0  0  0
 61138  1  0  0  0
 61139  1  0  0  0
 61140  1  0  0  0
 62141  1  0  0  0
 62142  1  0  0  0
 62143  1  0  0  0
 63 65  1  0  0  0
 63144  1  0  0  0
 63145  1  0  0  0
 63146  1  0  0  0
 64147  1  0  0  0
 65148  1  0  0  0
 68 80  1  0  0  0
 71 74  2  0  0  0
 71 75  1  0  0  0
 71149  1  0  0  0
 72 75  2  0  0  0
 72 76  1  0  0  0
 72150  1  0  0  0
 73 74  1  0  0  0
 73 76  2  0  0  0
 73 79  1  0  0  0
 74 85  1  0  0  0
 75 86  1  0  0  0
 76 87  1  0  0  0
 77 78  1  0  0  0
 77 80  2  0  0  0
 77 81  1  0  0  0
 78 85  1  0  0  0
 78 88  2  0  0  0
 79 83  1  0  0  0
 79 89  2  0  0  0
 80 84  1  0  0  0
 81 82  1  0  0  0
 81151  1  0  0  0
 81152  1  0  0  0
 82 85  1  0  0  0
 82153  1  0  0  0
 82154  1  0  0  0
 83155  1  0  0  0
 83156  1  0  0  0
 83157  1  0  0  0
 84158  1  0  0  0
 84159  1  0  0  0
 84160  1  0  0  0
 86161  1  0  0  0
 86162  1  0  0  0
 87163  1  0  0  0
M  ISO  4   1 100  68 101  80 101  87 100
M  END
> <chiral flag>
0

> <version>
0

> <s_m_source_file>
/data/baiqing/PycharmProjects/Reinvent-master-3.2/result/LINK_invent/BTK/process_docking_weight1_custom_product_contain_oxygen_bond_distance_aromatic_linkinvent_7_9_3/rearranged_h_0157.sdf

> <i_m_source_file_index>
85

> <r_mmod_Potential_Energy-OPLS-2005>
606.09326171875

> <r_mmod_Stretch_Energy-OPLS-2005>
198.910736083984

> <r_mmod_Bend_Energy-OPLS-2005>
265.392608642578

> <r_mmod_Torsional_Energy-OPLS-2005>
330.793853759766

> <r_mmod_Improper_Torsional_Energy-OPLS-2005>
9.59584712982178

> <r_mmod_Van_der_Waal_Energy-OPLS-2005>
149.211029052734

> <r_mmod_Electrostatic_Energy-OPLS-2005>
-251.155029296875

> <r_mmod_Solvation_Energy-OPLS-2005>
-235.244476318359

> <b_mmod_Minimization_Converged-OPLS-2005>
0

> <r_mmod_RMS_Derivative-OPLS-2005>
1.64807426929474

$$$$
85
                    3D
 Structure written by MMmdl.
158166  0  0  1  0            999 V2000
  -30.5621  -14.7793   20.4725 C   0  0  0  0  0  0
  -30.4428  -12.4761   19.4678 C   0  0  0  0  0  0
  -29.5130  -12.5164   18.2323 C   0  0  0  0  0  0
  -28.0434  -12.3172   18.6533 C   0  0  0  0  0  0
  -27.6407  -13.2235   19.8464 C   0  0  2  0  0  0
  -28.6849  -13.1518   20.9825 C   0  0  0  0  0  0
  -25.2516  -13.8179   20.5694 C   0  0  0  0  0  0
  -24.1812  -13.0436   20.9213 C   0  0  0  0  0  0
  -24.6410  -11.6917   20.8747 C   0  0  0  0  0  0
  -23.9092  -10.4302   21.0436 C   0  0  0  0  0  0
  -24.3631   -9.4199   21.9193 C   0  0  0  0  0  0
  -23.6301   -8.2241   22.0745 C   0  0  0  0  0  0
  -22.4278   -8.0292   21.3557 C   0  0  0  0  0  0
  -21.9936   -9.0262   20.4651 C   0  0  0  0  0  0
  -22.7264  -10.2143   20.3078 C   0  0  0  0  0  0
  -21.6847   -6.0755   22.5294 C   0  0  0  0  0  0
  -21.3997   -6.5651   23.8233 C   0  0  0  0  0  0
  -21.3654   -5.6789   24.9184 C   0  0  0  0  0  0
  -21.6044   -4.3063   24.7223 C   0  0  0  0  0  0
  -21.8803   -3.8161   23.4343 C   0  0  0  0  0  0
  -21.9179   -4.6982   22.3401 C   0  0  0  0  0  0
  -22.7831  -13.5241   21.1883 C   0  0  0  0  0  0
  -22.1648   -4.2181   21.0977 F   0  0  0  0  0  0
  -21.5643   -3.4538   25.7734 F   0  0  0  0  0  0
  -29.9805  -13.5289   20.4034 N   0  0  0  0  0  0
  -26.2930  -12.9366   20.3242 N   0  0  0  0  0  0
  -25.9334  -11.6530   20.5737 N   0  0  0  0  0  0
  -22.0468  -12.8227   22.0433 N   0  0  0  0  0  0
  -25.4225  -15.1904   20.4155 N   0  0  0  0  0  0
  -31.7549  -14.9148   20.1802 O   0  0  0  0  0  0
  -21.6620   -6.8904   21.4266 O   0  0  0  0  0  0
  -22.3536  -14.5547   20.6730 O   0  0  0  0  0  0
  -24.6361  -31.8525   23.1933 C   0  0  0  0  0  0
  -25.9187  -32.4726   23.8310 C   0  0  1  0  0  0
  -27.2068  -27.2260   20.1581 C   0  0  0  0  0  0
  -25.5957  -33.8522   24.2233 N   0  0  0  0  0  0
  -23.4332  -30.4780   21.5319 C   0  0  2  0  0  0
  -24.8809  -28.9136   20.1109 C   0  0  0  0  0  0
  -22.7516  -29.4628   22.4799 C   0  0  0  0  0  0
  -18.0302  -28.1371   22.8426 C   0  0  0  0  0  0
  -24.1488  -36.7294   23.2623 C   0  0  0  0  0  0
  -25.9832  -30.7552   21.3753 C   0  0  0  0  0  0
  -26.0529  -29.3726   20.7259 C   0  0  0  0  0  0
  -27.2216  -28.5415   20.7387 C   0  0  0  0  0  0
  -26.0283  -26.8510   19.4832 C   0  0  0  0  0  0
  -24.8754  -27.6636   19.4714 C   0  0  0  0  0  0
  -23.6579  -29.8114   20.1491 C   0  0  0  0  0  0
  -25.4099  -36.3043   24.0312 C   0  0  1  0  0  0
  -20.5918  -28.3717   23.1189 C   0  0  2  0  0  0
  -20.6816  -26.9434   22.5326 C   0  0  0  0  0  0
  -19.5801  -26.6460   21.5109 C   0  0  0  0  0  0
  -18.1972  -26.7939   22.1501 C   0  0  0  0  0  0
  -19.1552  -28.8839   23.2847 C   0  0  0  0  0  0
  -18.9476  -30.1407   23.8919 C   0  0  0  0  0  0
  -17.6480  -30.6525   24.0603 C   0  0  0  0  0  0
  -25.9050  -34.9419   23.5075 C   0  0  0  0  0  0
  -16.5377  -29.9052   23.6297 C   0  0  0  0  0  0
  -16.7297  -28.6487   23.0290 C   0  0  0  0  0  0
  -26.4508  -31.6564   25.0723 C   0  0  0  0  0  0
  -25.3703  -31.3787   26.1455 C   0  0  0  0  0  0
  -27.0352  -30.2949   24.6263 C   0  0  0  0  0  0
  -27.6050  -32.4314   25.7516 C   0  0  0  0  0  0
  -27.5568  -37.1801   24.8446 C   0  0  0  0  0  0
  -21.4210  -29.3113   22.3588 N   0  0  0  0  0  0
  -26.4260  -37.3756   23.9407 N   0  0  0  0  0  0
  -24.7037  -31.0462   22.0910 N   0  0  0  0  0  0
  -23.4231  -28.8138   23.2864 O   0  0  0  0  0  0
  -28.2893  -26.3100   20.1711 O   0  0  0  0  0  0
  -26.5631  -34.8903   22.4642 O   0  0  0  0  0  0
  -23.5500  -32.1373   23.7207 O   0  0  0  0  0  0
  -29.3303  -18.2740   19.9152 C   0  0  0  0  0  0
  -29.4952  -19.5790   20.5615 C   0  0  0  0  0  0
  -29.8529  -17.2627   20.7394 C   0  0  0  0  0  0
  -30.0284  -19.2282   21.7809 C   0  0  0  0  0  0
  -29.2318  -20.9865   19.9459 C   0  0  0  0  0  0
  -26.8444  -24.6135   21.4339 C   0  0  0  0  0  0
  -29.2304  -25.1244   21.9602 C   0  0  0  0  0  0
  -28.6916  -23.6193   19.9308 C   0  0  0  0  0  0
  -28.2281  -24.9230   20.8120 C   0  0  0  0  0  0
  -30.3087  -20.0663   22.8547 N   0  0  0  0  0  0
  -29.4305  -21.0424   18.6186 N   0  0  0  0  0  0
  -29.6972  -15.8660   20.6117 N   0  0  0  0  0  0
  -28.8573  -22.1977   20.5554 N   0  3  0  0  0  0
  -30.2706  -17.8660   21.9045 O   0  0  0  0  0  0
  -31.4825  -12.6202   19.1659 H   0  0  0  0  0  0
  -30.4002  -11.4937   19.9416 H   0  0  0  0  0  0
  -29.8025  -11.7514   17.5099 H   0  0  0  0  0  0
  -29.6181  -13.4740   17.7188 H   0  0  0  0  0  0
  -27.9252  -11.2702   18.9330 H   0  0  0  0  0  0
  -27.3737  -12.4796   17.8095 H   0  0  0  0  0  0
  -27.6302  -14.2418   19.4560 H   0  0  0  0  0  0
  -28.7317  -12.1448   21.3974 H   0  0  0  0  0  0
  -28.4164  -13.8099   21.8101 H   0  0  0  0  0  0
  -25.2786   -9.5641   22.4750 H   0  0  0  0  0  0
  -23.9997   -7.4635   22.7453 H   0  0  0  0  0  0
  -21.0865   -8.8800   19.8956 H   0  0  0  0  0  0
  -22.3743  -10.9684   19.6178 H   0  0  0  0  0  0
  -21.1979   -7.6160   23.9747 H   0  0  0  0  0  0
  -21.1498   -6.0517   25.9086 H   0  0  0  0  0  0
  -22.0587   -2.7630   23.2819 H   0  0  0  0  0  0
  -22.4077  -11.9879   22.4809 H   0  0  0  0  0  0
  -21.1097  -13.1281   22.2672 H   0  0  0  0  0  0
  -24.6592  -15.8451   20.5546 H   0  0  0  0  0  0
  -26.2673  -15.6360   20.0858 H   0  0  0  0  0  0
  -26.7252  -32.5358   23.1055 H   0  0  0  0  0  0
  -25.0136  -33.9680   25.0407 H   0  0  0  0  0  0
  -22.7341  -31.3025   21.3758 H   0  0  0  0  0  0
  -23.3716  -35.9662   23.3259 H   0  0  0  0  0  0
  -24.3563  -36.8957   22.2039 H   0  0  0  0  0  0
  -23.7286  -37.6512   23.6669 H   0  0  0  0  0  0
  -26.1282  -31.5051   20.5951 H   0  0  0  0  0  0
  -26.8621  -30.8080   22.0080 H   0  0  0  0  0  0
  -28.1198  -28.8843   21.2332 H   0  0  0  0  0  0
  -25.9919  -25.8971   18.9772 H   0  0  0  0  0  0
  -23.9870  -27.3174   18.9622 H   0  0  0  0  0  0
  -23.8037  -30.5903   19.3984 H   0  0  0  0  0  0
  -22.7750  -29.2570   19.8244 H   0  0  0  0  0  0
  -25.1271  -36.1867   25.0796 H   0  0  0  0  0  0
  -21.0086  -28.3298   24.1294 H   0  0  0  0  0  0
  -20.5741  -26.2292   23.3513 H   0  0  0  0  0  0
  -21.6665  -26.7493   22.1059 H   0  0  0  0  0  0
  -19.7002  -25.6448   21.0956 H   0  0  0  0  0  0
  -19.6740  -27.3379   20.6729 H   0  0  0  0  0  0
  -17.4259  -26.6740   21.3867 H   0  0  0  0  0  0
  -18.0347  -26.0019   22.8827 H   0  0  0  0  0  0
  -19.7954  -30.7207   24.2332 H   0  0  0  0  0  0
  -17.5031  -31.6174   24.5242 H   0  0  0  0  0  0
  -15.5387  -30.2986   23.7559 H   0  0  0  0  0  0
  -15.8716  -28.0819   22.6976 H   0  0  0  0  0  0
  -24.5858  -30.7115   25.7857 H   0  0  0  0  0  0
  -24.8911  -32.3006   26.4789 H   0  0  0  0  0  0
  -25.8027  -30.9073   27.0287 H   0  0  0  0  0  0
  -26.2973  -29.6668   24.1256 H   0  0  0  0  0  0
  -27.3954  -29.7243   25.4835 H   0  0  0  0  0  0
  -27.8891  -30.4179   23.9577 H   0  0  0  0  0  0
  -27.2640  -33.3600   26.2099 H   0  0  0  0  0  0
  -28.3922  -32.6896   25.0414 H   0  0  0  0  0  0
  -28.0671  -31.8422   26.5460 H   0  0  0  0  0  0
  -28.2576  -38.0105   24.7476 H   0  0  0  0  0  0
  -28.1071  -36.2634   24.6261 H   0  0  0  0  0  0
  -27.2301  -37.1465   25.8856 H   0  0  0  0  0  0
  -20.9369  -29.8967   21.6923 H   0  0  0  0  0  0
  -26.0117  -38.2819   24.1401 H   0  0  0  0  0  0
  -28.8833  -18.1015   18.9474 H   0  0  0  0  0  0
  -26.4683  -25.4461   22.0283 H   0  0  0  0  0  0
  -26.8905  -23.7515   22.1016 H   0  0  0  0  0  0
  -26.0989  -24.3737   20.6770 H   0  0  0  0  0  0
  -28.9324  -25.9586   22.5999 H   0  0  0  0  0  0
  -30.2291  -25.3429   21.5805 H   0  0  0  0  0  0
  -29.3060  -24.2441   22.5968 H   0  0  0  0  0  0
  -29.6484  -23.8613   19.4716 H   0  0  0  0  0  0
  -27.9918  -23.5261   19.1007 H   0  0  0  0  0  0
  -29.4650  -20.4800   23.2448 H   0  0  0  0  0  0
  -30.7896  -19.6063   23.6221 H   0  0  0  0  0  0
  -29.7977  -20.2296   18.1482 H   0  0  0  0  0  0
  -29.2935  -21.8692   18.0612 H   0  0  0  0  0  0
  -28.7399  -15.5612   20.6890 H   0  0  0  0  0  0
  -28.6975  -22.1508   21.5511 H   0  0  0  0  0  0
  1 25  1  0  0  0
  1 30  2  0  0  0
  1 82  1  0  0  0
  2  3  1  0  0  0
  2 25  1  0  0  0
  2 85  1  0  0  0
  2 86  1  0  0  0
  3  4  1  0  0  0
  3 87  1  0  0  0
  3 88  1  0  0  0
  4  5  1  0  0  0
  4 89  1  0  0  0
  4 90  1  0  0  0
  5  6  1  0  0  0
  5 26  1  0  0  0
  5 91  1  0  0  0
  6 25  1  0  0  0
  6 92  1  0  0  0
  6 93  1  0  0  0
  7  8  2  0  0  0
  7 26  1  0  0  0
  7 29  1  0  0  0
  8  9  1  0  0  0
  8 22  1  0  0  0
  9 10  1  0  0  0
  9 27  2  0  0  0
 10 11  2  0  0  0
 10 15  1  0  0  0
 11 12  1  0  0  0
 11 94  1  0  0  0
 12 13  2  0  0  0
 12 95  1  0  0  0
 13 14  1  0  0  0
 13 31  1  0  0  0
 14 15  2  0  0  0
 14 96  1  0  0  0
 15 97  1  0  0  0
 16 17  2  0  0  0
 16 21  1  0  0  0
 16 31  1  0  0  0
 17 18  1  0  0  0
 17 98  1  0  0  0
 18 19  2  0  0  0
 18 99  1  0  0  0
 19 20  1  0  0  0
 19 24  1  0  0  0
 20 21  2  0  0  0
 20100  1  0  0  0
 21 23  1  0  0  0
 22 28  1  0  0  0
 22 32  2  0  0  0
 26 27  1  0  0  0
 28101  1  0  0  0
 28102  1  0  0  0
 29103  1  0  0  0
 29104  1  0  0  0
 33 34  1  0  0  0
 33 66  1  0  0  0
 33 70  2  0  0  0
 34 36  1  0  0  0
 34 59  1  0  0  0
 34105  1  0  0  0
 35 44  2  0  0  0
 35 45  1  0  0  0
 35 68  1  0  0  0
 36 56  1  0  0  0
 36106  1  0  0  0
 37 39  1  0  0  0
 37 47  1  0  0  0
 37 66  1  0  0  0
 37107  1  0  0  0
 38 43  2  0  0  0
 38 46  1  0  0  0
 38 47  1  0  0  0
 39 64  1  0  0  0
 39 67  2  0  0  0
 40 52  1  0  0  0
 40 53  2  0  0  0
 40 58  1  0  0  0
 41108  1  0  0  0
 41109  1  0  0  0
 41110  1  0  0  0
 41 48  1  0  0  0
 42 43  1  0  0  0
 42 66  1  0  0  0
 42111  1  0  0  0
 42112  1  0  0  0
 43 44  1  0  0  0
 44113  1  0  0  0
 45 46  2  0  0  0
 45114  1  0  0  0
 46115  1  0  0  0
 47116  1  0  0  0
 47117  1  0  0  0
 48 56  1  0  0  0
 48 65  1  0  0  0
 48118  1  0  0  0
 49 50  1  0  0  0
 49 53  1  0  0  0
 49 64  1  0  0  0
 49119  1  0  0  0
 50 51  1  0  0  0
 50120  1  0  0  0
 50121  1  0  0  0
 51 52  1  0  0  0
 51122  1  0  0  0
 51123  1  0  0  0
 52124  1  0  0  0
 52125  1  0  0  0
 53 54  1  0  0  0
 54 55  2  0  0  0
 54126  1  0  0  0
 55 57  1  0  0  0
 55127  1  0  0  0
 56 69  2  0  0  0
 57 58  2  0  0  0
 57128  1  0  0  0
 58129  1  0  0  0
 59 60  1  0  0  0
 59 61  1  0  0  0
 59 62  1  0  0  0
 60130  1  0  0  0
 60131  1  0  0  0
 60132  1  0  0  0
 61133  1  0  0  0
 61134  1  0  0  0
 61135  1  0  0  0
 62136  1  0  0  0
 62137  1  0  0  0
 62138  1  0  0  0
 63 65  1  0  0  0
 63139  1  0  0  0
 63140  1  0  0  0
 63141  1  0  0  0
 64142  1  0  0  0
 65143  1  0  0  0
 68 79  1  0  0  0
 71 72  1  0  0  0
 71 73  2  0  0  0
 71144  1  0  0  0
 72 74  2  0  0  0
 72 75  1  0  0  0
 73 82  1  0  0  0
 73 84  1  0  0  0
 74 80  1  0  0  0
 74 84  1  0  0  0
 75 81  1  0  0  0
 75 83  2  0  0  0
 76145  1  0  0  0
 76146  1  0  0  0
 76147  1  0  0  0
 76 79  1  0  0  0
 77 79  1  0  0  0
 77148  1  0  0  0
 77149  1  0  0  0
 77150  1  0  0  0
 78 79  1  0  0  0
 78 83  1  0  0  0
 78151  1  0  0  0
 78152  1  0  0  0
 80153  1  0  0  0
 80154  1  0  0  0
 81155  1  0  0  0
 81156  1  0  0  0
 82157  1  0  0  0
 83158  1  0  0  0
M  CHG  1  83   1
M  ISO  4   1 100  68 101  79 101  82 100
M  END
> <chiral flag>
0

> <version>
0

> <s_m_source_file>
/data/baiqing/PycharmProjects/Reinvent-master-3.2/result/LINK_invent/BTK/process_docking_weight1_custom_product_contain_oxygen_bond_distance_aromatic_linkinvent_7_9_3/rearranged_h_0157.sdf

> <i_m_source_file_index>
86

> <r_mmod_Potential_Energy-OPLS-2005>
108.86784362793

> <r_mmod_Stretch_Energy-OPLS-2005>
142.656661987305

> <r_mmod_Bend_Energy-OPLS-2005>
211.414215087891

> <r_mmod_Torsional_Energy-OPLS-2005>
282.631286621094

> <r_mmod_Improper_Torsional_Energy-OPLS-2005>
14.825514793396

> <r_mmod_Van_der_Waal_Energy-OPLS-2005>
113.852958679199

> <r_mmod_Electrostatic_Energy-OPLS-2005>
-289.286773681641

> <r_mmod_Solvation_Energy-OPLS-2005>
-472.096588134766

> <b_mmod_Minimization_Converged-OPLS-2005>
0

> <r_mmod_RMS_Derivative-OPLS-2005>
4.61763381958008

$$$$
86
                    3D
 Structure written by MMmdl.
152161  0  0  1  0            999 V2000
  -30.5847  -14.8013   20.4620 C   0  0  0  0  0  0
  -30.4336  -12.4824   19.5095 C   0  0  0  0  0  0
  -29.5226  -12.5266   18.2597 C   0  0  0  0  0  0
  -28.0475  -12.3336   18.6560 C   0  0  0  0  0  0
  -27.6417  -13.2337   19.8511 C   0  0  2  0  0  0
  -28.6757  -13.1832   20.9994 C   0  0  0  0  0  0
  -25.2501  -13.8186   20.5661 C   0  0  0  0  0  0
  -24.1790  -13.0434   20.9155 C   0  0  0  0  0  0
  -24.6384  -11.6905   20.8692 C   0  0  0  0  0  0
  -23.9042  -10.4286   21.0395 C   0  0  0  0  0  0
  -24.3612   -9.4210   21.9185 C   0  0  0  0  0  0
  -23.6291   -8.2243   22.0767 C   0  0  0  0  0  0
  -22.4284   -8.0269   21.3542 C   0  0  0  0  0  0
  -21.9900   -9.0231   20.4630 C   0  0  0  0  0  0
  -22.7210  -10.2126   20.3039 C   0  0  0  0  0  0
  -21.6861   -6.0718   22.5273 C   0  0  0  0  0  0
  -21.4021   -6.5634   23.8192 C   0  0  0  0  0  0
  -21.3670   -5.6797   24.9167 C   0  0  0  0  0  0
  -21.6041   -4.3049   24.7221 C   0  0  0  0  0  0
  -21.8827   -3.8131   23.4338 C   0  0  0  0  0  0
  -21.9203   -4.6948   22.3393 C   0  0  0  0  0  0
  -22.7808  -13.5222   21.1809 C   0  0  0  0  0  0
  -22.1682   -4.2127   21.0968 F   0  0  0  0  0  0
  -21.5626   -3.4540   25.7733 F   0  0  0  0  0  0
  -29.9835  -13.5528   20.4397 N   0  0  0  0  0  0
  -26.2929  -12.9396   20.3230 N   0  0  0  0  0  0
  -25.9310  -11.6540   20.5694 N   0  0  0  0  0  0
  -22.0492  -12.8199   22.0377 N   0  0  0  0  0  0
  -25.4223  -15.1908   20.4147 N   0  0  0  0  0  0
  -31.7469  -14.9058   20.0566 O   0  0  0  0  0  0
  -21.6645   -6.8875   21.4245 O   0  0  0  0  0  0
  -22.3464  -14.5524   20.6658 O   0  0  0  0  0  0
  -24.6395  -31.8535   23.1989 C   0  0  0  0  0  0
  -25.9209  -32.4729   23.8349 C   0  0  1  0  0  0
  -27.1894  -27.1844   20.1357 C   0  0  0  0  0  0
  -25.5986  -33.8538   24.2267 N   0  0  0  0  0  0
  -23.4357  -30.4801   21.5486 C   0  0  2  0  0  0
  -24.8733  -28.9268   20.1078 C   0  0  0  0  0  0
  -22.7535  -29.4608   22.4932 C   0  0  0  0  0  0
  -18.0306  -28.1399   22.8496 C   0  0  0  0  0  0
  -24.1494  -36.7262   23.2633 C   0  0  0  0  0  0
  -25.9889  -30.7380   21.3928 C   0  0  0  0  0  0
  -26.0500  -29.3573   20.7321 C   0  0  0  0  0  0
  -27.2042  -28.4975   20.7435 C   0  0  0  0  0  0
  -25.9933  -26.8644   19.4473 C   0  0  0  0  0  0
  -24.8550  -27.6907   19.4543 C   0  0  0  0  0  0
  -23.6522  -29.8275   20.1615 C   0  0  0  0  0  0
  -25.4123  -36.3061   24.0331 C   0  0  1  0  0  0
  -20.5910  -28.3727   23.1257 C   0  0  2  0  0  0
  -20.6797  -26.9443   22.5414 C   0  0  0  0  0  0
  -19.5763  -26.6393   21.5225 C   0  0  0  0  0  0
  -18.1936  -26.7946   22.1627 C   0  0  0  0  0  0
  -19.1560  -28.8891   23.2865 C   0  0  0  0  0  0
  -18.9468  -30.1482   23.8885 C   0  0  0  0  0  0
  -17.6465  -30.6592   24.0576 C   0  0  0  0  0  0
  -25.9072  -34.9427   23.5098 C   0  0  0  0  0  0
  -16.5357  -29.9075   23.6356 C   0  0  0  0  0  0
  -16.7290  -28.6507   23.0372 C   0  0  0  0  0  0
  -26.4538  -31.6556   25.0751 C   0  0  0  0  0  0
  -25.3736  -31.3730   26.1454 C   0  0  0  0  0  0
  -27.0394  -30.2966   24.6276 C   0  0  0  0  0  0
  -27.6093  -32.4312   25.7545 C   0  0  0  0  0  0
  -27.5590  -37.1788   24.8467 C   0  0  0  0  0  0
  -21.4241  -29.3047   22.3629 N   0  0  0  0  0  0
  -26.4301  -37.3759   23.9409 N   0  0  0  0  0  0
  -24.7090  -31.0429   22.1024 N   0  0  0  0  0  0
  -23.4204  -28.8144   23.3049 O   0  0  0  0  0  0
  -28.2458  -26.2211   20.2557 O   0  0  0  0  0  0
  -26.5632  -34.8919   22.4656 O   0  0  0  0  0  0
  -23.5537  -32.1416   23.7243 O   0  0  0  0  0  0
  -29.5634  -19.7463   20.3288 C   0  0  0  0  0  0
  -29.8937  -19.4729   19.0098 C   0  0  0  0  0  0
  -29.8927  -17.3362   20.3655 C   0  0  0  0  0  0
  -28.5224  -23.4346   20.4504 C   0  0  0  0  0  0
  -28.2740  -21.5844   21.9281 C   0  0  0  0  0  0
  -29.4225  -21.2173   20.9723 C   0  0  2  0  0  0
  -28.1526  -24.7995   19.6894 C   0  0  0  0  0  0
  -29.5565  -18.4815   21.0651 N   0  0  0  0  0  0
  -29.3215  -22.3935   20.0169 N   0  0  0  0  0  0
  -27.9350  -23.0022   21.5852 N   0  3  0  0  0  0
  -30.0567  -20.3649   17.9523 N   0  0  0  0  0  0
  -29.8515  -15.9245   20.8539 N   0  0  0  0  0  0
  -30.2193  -17.7635   18.6900 S   0  0  0  0  0  0
  -31.4779  -12.5982   19.2144 H   0  0  0  0  0  0
  -30.3704  -11.5098   20.0005 H   0  0  0  0  0  0
  -29.8199  -11.7621   17.5410 H   0  0  0  0  0  0
  -29.6451  -13.4847   17.7532 H   0  0  0  0  0  0
  -27.9025  -11.2829   18.9131 H   0  0  0  0  0  0
  -27.3992  -12.5241   17.8024 H   0  0  0  0  0  0
  -27.6351  -14.2519   19.4631 H   0  0  0  0  0  0
  -28.7113  -12.1835   21.4383 H   0  0  0  0  0  0
  -28.3836  -13.8574   21.8065 H   0  0  0  0  0  0
  -25.2796   -9.5684   22.4706 H   0  0  0  0  0  0
  -23.9993   -7.4648   22.7496 H   0  0  0  0  0  0
  -21.0829   -8.8726   19.8928 H   0  0  0  0  0  0
  -22.3685  -10.9635   19.6096 H   0  0  0  0  0  0
  -21.2028   -7.6149   23.9682 H   0  0  0  0  0  0
  -21.1486   -6.0536   25.9062 H   0  0  0  0  0  0
  -22.0603   -2.7587   23.2842 H   0  0  0  0  0  0
  -22.4206  -11.9875   22.4709 H   0  0  0  0  0  0
  -21.1103  -13.1140   22.2615 H   0  0  0  0  0  0
  -24.6486  -15.8412   20.4997 H   0  0  0  0  0  0
  -26.2725  -15.6279   20.0832 H   0  0  0  0  0  0
  -26.7263  -32.5337   23.1079 H   0  0  0  0  0  0
  -25.0163  -33.9678   25.0436 H   0  0  0  0  0  0
  -22.7366  -31.3076   21.4117 H   0  0  0  0  0  0
  -23.3774  -35.9570   23.3270 H   0  0  0  0  0  0
  -24.3576  -36.8908   22.2050 H   0  0  0  0  0  0
  -23.7233  -37.6452   23.6667 H   0  0  0  0  0  0
  -26.1380  -31.4923   20.6193 H   0  0  0  0  0  0
  -26.8625  -30.7859   22.0313 H   0  0  0  0  0  0
  -28.0933  -28.8155   21.2685 H   0  0  0  0  0  0
  -25.8471  -25.9539   18.8926 H   0  0  0  0  0  0
  -23.9604  -27.3610   18.9452 H   0  0  0  0  0  0
  -23.7837  -30.6131   19.4170 H   0  0  0  0  0  0
  -22.7632  -29.2764   19.8490 H   0  0  0  0  0  0
  -25.1304  -36.1921   25.0821 H   0  0  0  0  0  0
  -21.0011  -28.3320   24.1377 H   0  0  0  0  0  0
  -20.5741  -26.2335   23.3625 H   0  0  0  0  0  0
  -21.6658  -26.7480   22.1184 H   0  0  0  0  0  0
  -19.6919  -25.6303   21.1255 H   0  0  0  0  0  0
  -19.6685  -27.3219   20.6757 H   0  0  0  0  0  0
  -17.4223  -26.6736   21.4007 H   0  0  0  0  0  0
  -18.0298  -26.0087   22.9017 H   0  0  0  0  0  0
  -19.7931  -30.7309   24.2241 H   0  0  0  0  0  0
  -17.5006  -31.6270   24.5177 H   0  0  0  0  0  0
  -15.5360  -30.2966   23.7668 H   0  0  0  0  0  0
  -15.8702  -28.0803   22.7090 H   0  0  0  0  0  0
  -24.5922  -30.7074   25.7774 H   0  0  0  0  0  0
  -24.8918  -32.2908   26.4851 H   0  0  0  0  0  0
  -25.8032  -30.8933   27.0266 H   0  0  0  0  0  0
  -26.2995  -29.6699   24.1288 H   0  0  0  0  0  0
  -27.4036  -29.7253   25.4826 H   0  0  0  0  0  0
  -27.8900  -30.4207   23.9570 H   0  0  0  0  0  0
  -27.2686  -33.3617   26.2107 H   0  0  0  0  0  0
  -28.3919  -32.6854   25.0381 H   0  0  0  0  0  0
  -28.0742  -31.8447   26.5480 H   0  0  0  0  0  0
  -28.2594  -38.0104   24.7551 H   0  0  0  0  0  0
  -28.1114  -36.2638   24.6264 H   0  0  0  0  0  0
  -27.2306  -37.1416   25.8870 H   0  0  0  0  0  0
  -20.9437  -29.8755   21.6810 H   0  0  0  0  0  0
  -26.0183  -38.2832   24.1422 H   0  0  0  0  0  0
  -28.5740  -21.4881   22.9732 H   0  0  0  0  0  0
  -27.4101  -20.9381   21.7671 H   0  0  0  0  0  0
  -30.3424  -21.3865   21.5307 H   0  0  0  0  0  0
  -27.1426  -24.5766   19.3726 H   0  0  0  0  0  0
  -28.7170  -24.8062   18.7582 H   0  0  0  0  0  0
  -29.7161  -22.3039   19.0897 H   0  0  0  0  0  0
  -27.2224  -23.5219   22.0777 H   0  0  0  0  0  0
  -31.0218  -20.6768   17.8579 H   0  0  0  0  0  0
  -29.8620  -19.8831   17.0795 H   0  0  0  0  0  0
  -29.0351  -15.7079   21.4017 H   0  0  0  0  0  0
  1 25  1  0  0  0
  1 30  2  0  0  0
  1 82  1  0  0  0
  2  3  1  0  0  0
  2 25  1  0  0  0
  2 84  1  0  0  0
  2 85  1  0  0  0
  3  4  1  0  0  0
  3 86  1  0  0  0
  3 87  1  0  0  0
  4  5  1  0  0  0
  4 88  1  0  0  0
  4 89  1  0  0  0
  5  6  1  0  0  0
  5 26  1  0  0  0
  5 90  1  0  0  0
  6 25  1  0  0  0
  6 91  1  0  0  0
  6 92  1  0  0  0
  7  8  2  0  0  0
  7 26  1  0  0  0
  7 29  1  0  0  0
  8  9  1  0  0  0
  8 22  1  0  0  0
  9 10  1  0  0  0
  9 27  2  0  0  0
 10 11  2  0  0  0
 10 15  1  0  0  0
 11 12  1  0  0  0
 11 93  1  0  0  0
 12 13  2  0  0  0
 12 94  1  0  0  0
 13 14  1  0  0  0
 13 31  1  0  0  0
 14 15  2  0  0  0
 14 95  1  0  0  0
 15 96  1  0  0  0
 16 17  2  0  0  0
 16 21  1  0  0  0
 16 31  1  0  0  0
 17 18  1  0  0  0
 17 97  1  0  0  0
 18 19  2  0  0  0
 18 98  1  0  0  0
 19 20  1  0  0  0
 19 24  1  0  0  0
 20 21  2  0  0  0
 20 99  1  0  0  0
 21 23  1  0  0  0
 22 28  1  0  0  0
 22 32  2  0  0  0
 26 27  1  0  0  0
 28100  1  0  0  0
 28101  1  0  0  0
 29102  1  0  0  0
 29103  1  0  0  0
 33 34  1  0  0  0
 33 66  1  0  0  0
 33 70  2  0  0  0
 34 36  1  0  0  0
 34 59  1  0  0  0
 34104  1  0  0  0
 35 44  2  0  0  0
 35 45  1  0  0  0
 35 68  1  0  0  0
 36 56  1  0  0  0
 36105  1  0  0  0
 37 39  1  0  0  0
 37 47  1  0  0  0
 37 66  1  0  0  0
 37106  1  0  0  0
 38 43  2  0  0  0
 38 46  1  0  0  0
 38 47  1  0  0  0
 39 64  1  0  0  0
 39 67  2  0  0  0
 40 52  1  0  0  0
 40 53  2  0  0  0
 40 58  1  0  0  0
 41107  1  0  0  0
 41108  1  0  0  0
 41109  1  0  0  0
 41 48  1  0  0  0
 42 43  1  0  0  0
 42 66  1  0  0  0
 42110  1  0  0  0
 42111  1  0  0  0
 43 44  1  0  0  0
 44112  1  0  0  0
 45 46  2  0  0  0
 45113  1  0  0  0
 46114  1  0  0  0
 47115  1  0  0  0
 47116  1  0  0  0
 48 56  1  0  0  0
 48 65  1  0  0  0
 48117  1  0  0  0
 49 50  1  0  0  0
 49 53  1  0  0  0
 49 64  1  0  0  0
 49118  1  0  0  0
 50 51  1  0  0  0
 50119  1  0  0  0
 50120  1  0  0  0
 51 52  1  0  0  0
 51121  1  0  0  0
 51122  1  0  0  0
 52123  1  0  0  0
 52124  1  0  0  0
 53 54  1  0  0  0
 54 55  2  0  0  0
 54125  1  0  0  0
 55 57  1  0  0  0
 55126  1  0  0  0
 56 69  2  0  0  0
 57 58  2  0  0  0
 57127  1  0  0  0
 58128  1  0  0  0
 59 60  1  0  0  0
 59 61  1  0  0  0
 59 62  1  0  0  0
 60129  1  0  0  0
 60130  1  0  0  0
 60131  1  0  0  0
 61132  1  0  0  0
 61133  1  0  0  0
 61134  1  0  0  0
 62135  1  0  0  0
 62136  1  0  0  0
 62137  1  0  0  0
 63 65  1  0  0  0
 63138  1  0  0  0
 63139  1  0  0  0
 63140  1  0  0  0
 64141  1  0  0  0
 65142  1  0  0  0
 68 77  1  0  0  0
 71 72  2  0  0  0
 71 78  1  0  0  0
 71 76  1  0  0  0
 72 81  1  0  0  0
 72 83  1  0  0  0
 73 78  2  0  0  0
 73 82  1  0  0  0
 73 83  1  0  0  0
 74 77  1  0  0  0
 74 79  1  0  0  0
 74 80  2  0  0  0
 75 76  1  0  0  0
 75 80  1  0  0  0
 75143  1  0  0  0
 75144  1  0  0  0
 76 79  1  0  0  0
 76145  1  0  0  0
 77146  1  0  0  0
 77147  1  0  0  0
 79148  1  0  0  0
 80149  1  0  0  0
 81150  1  0  0  0
 81151  1  0  0  0
 82152  1  0  0  0
M  CHG  1  80   1
M  ISO  4   1 100  68 101  77 101  82 100
M  END
> <chiral flag>
0

> <version>
0

> <s_m_source_file>
/data/baiqing/PycharmProjects/Reinvent-master-3.2/result/LINK_invent/BTK/process_docking_weight1_custom_product_contain_oxygen_bond_distance_aromatic_linkinvent_7_9_3/rearranged_h_0157.sdf

> <i_m_source_file_index>
87

> <r_mmod_Potential_Energy-OPLS-2005>
140.133987426758

> <r_mmod_Stretch_Energy-OPLS-2005>
152.402221679688

> <r_mmod_Bend_Energy-OPLS-2005>
265.180297851562

> <r_mmod_Torsional_Energy-OPLS-2005>
250.297988891602

> <r_mmod_Improper_Torsional_Energy-OPLS-2005>
14.7573337554932

> <r_mmod_Van_der_Waal_Energy-OPLS-2005>
121.734962463379

> <r_mmod_Electrostatic_Energy-OPLS-2005>
-336.622161865234

> <r_mmod_Solvation_Energy-OPLS-2005>
-455.196075439453

> <b_mmod_Minimization_Converged-OPLS-2005>
0

> <r_mmod_RMS_Derivative-OPLS-2005>
3.92413234710693

$$$$
87
                    3D
 Structure written by MMmdl.
160169  0  0  1  0            999 V2000
  -30.6670  -14.6532   20.4812 C   0  0  0  0  0  0
  -30.4246  -12.3975   19.4627 C   0  0  0  0  0  0
  -29.5055  -12.5029   18.2271 C   0  0  0  0  0  0
  -28.0293  -12.3428   18.6394 C   0  0  0  0  0  0
  -27.6493  -13.2270   19.8593 C   0  0  2  0  0  0
  -28.6968  -13.1272   20.9915 C   0  0  0  0  0  0
  -25.2538  -13.8180   20.5693 C   0  0  0  0  0  0
  -24.1823  -13.0439   20.9218 C   0  0  0  0  0  0
  -24.6407  -11.6910   20.8764 C   0  0  0  0  0  0
  -23.9095  -10.4283   21.0411 C   0  0  0  0  0  0
  -24.3638   -9.4196   21.9185 C   0  0  0  0  0  0
  -23.6297   -8.2245   22.0743 C   0  0  0  0  0  0
  -22.4283   -8.0279   21.3539 C   0  0  0  0  0  0
  -21.9934   -9.0263   20.4648 C   0  0  0  0  0  0
  -22.7268  -10.2139   20.3062 C   0  0  0  0  0  0
  -21.6850   -6.0752   22.5290 C   0  0  0  0  0  0
  -21.4015   -6.5647   23.8229 C   0  0  0  0  0  0
  -21.3656   -5.6795   24.9187 C   0  0  0  0  0  0
  -21.6047   -4.3062   24.7233 C   0  0  0  0  0  0
  -21.8811   -3.8164   23.4347 C   0  0  0  0  0  0
  -21.9187   -4.6981   22.3405 C   0  0  0  0  0  0
  -22.7842  -13.5231   21.1864 C   0  0  0  0  0  0
  -22.1652   -4.2181   21.0981 F   0  0  0  0  0  0
  -21.5636   -3.4538   25.7740 F   0  0  0  0  0  0
  -30.0066  -13.4517   20.4110 N   0  0  0  0  0  0
  -26.2983  -12.9388   20.3339 N   0  0  0  0  0  0
  -25.9341  -11.6533   20.5789 N   0  0  0  0  0  0
  -22.0479  -12.8227   22.0413 N   0  0  0  0  0  0
  -25.4193  -15.1907   20.4028 N   0  0  0  0  0  0
  -31.8495  -14.7232   20.1348 O   0  0  0  0  0  0
  -21.6627   -6.8889   21.4250 O   0  0  0  0  0  0
  -22.3526  -14.5545   20.6713 O   0  0  0  0  0  0
  -24.6264  -31.8596   23.2027 C   0  0  0  0  0  0
  -25.9112  -32.4778   23.8356 C   0  0  1  0  0  0
  -27.2237  -27.3146   20.1254 C   0  0  0  0  0  0
  -25.5923  -33.8578   24.2280 N   0  0  0  0  0  0
  -23.4211  -30.4822   21.5447 C   0  0  2  0  0  0
  -24.8693  -28.9373   20.1124 C   0  0  0  0  0  0
  -22.7479  -29.4617   22.4930 C   0  0  0  0  0  0
  -18.0290  -28.1381   22.8486 C   0  0  0  0  0  0
  -24.1489  -36.7286   23.2643 C   0  0  0  0  0  0
  -25.9627  -30.7889   21.3770 C   0  0  0  0  0  0
  -26.0386  -29.4157   20.7189 C   0  0  0  0  0  0
  -27.2209  -28.6162   20.7155 C   0  0  0  0  0  0
  -26.0399  -26.8990   19.4776 C   0  0  0  0  0  0
  -24.8715  -27.6831   19.4831 C   0  0  0  0  0  0
  -23.6372  -29.8176   20.1601 C   0  0  0  0  0  0
  -25.4118  -36.3083   24.0328 C   0  0  1  0  0  0
  -20.5891  -28.3683   23.1279 C   0  0  2  0  0  0
  -20.6773  -26.9402   22.5411 C   0  0  0  0  0  0
  -19.5749  -26.6377   21.5211 C   0  0  0  0  0  0
  -18.1929  -26.7927   22.1620 C   0  0  0  0  0  0
  -19.1546  -28.8850   23.2880 C   0  0  0  0  0  0
  -18.9471  -30.1454   23.8895 C   0  0  0  0  0  0
  -17.6470  -30.6582   24.0562 C   0  0  0  0  0  0
  -25.9051  -34.9452   23.5107 C   0  0  0  0  0  0
  -16.5359  -29.9077   23.6334 C   0  0  0  0  0  0
  -16.7276  -28.6496   23.0356 C   0  0  0  0  0  0
  -26.4497  -31.6592   25.0730 C   0  0  0  0  0  0
  -25.3728  -31.3735   26.1458 C   0  0  0  0  0  0
  -27.0345  -30.3015   24.6195 C   0  0  0  0  0  0
  -27.6055  -32.4332   25.7500 C   0  0  0  0  0  0
  -27.5583  -37.1800   24.8465 C   0  0  0  0  0  0
  -21.4192  -29.3042   22.3675 N   0  0  0  0  0  0
  -26.4294  -37.3777   23.9408 N   0  0  0  0  0  0
  -24.6882  -31.0605   22.0982 N   0  0  0  0  0  0
  -23.4199  -28.8166   23.3021 O   0  0  0  0  0  0
  -28.3218  -26.4405   20.1632 O   0  0  0  0  0  0
  -26.5615  -34.8922   22.4672 O   0  0  0  0  0  0
  -23.5424  -32.1395   23.7345 O   0  0  0  0  0  0
  -31.5190  -19.0402   20.7436 C   0  0  0  0  0  0
  -31.5867  -17.6116   20.7822 C   0  0  0  0  0  0
  -30.1978  -19.3894   20.6315 C   0  0  0  0  0  0
  -30.3020  -17.1328   20.6898 C   0  0  0  0  0  0
  -27.8558  -22.4779   20.2030 C   0  0  0  0  0  0
  -30.0415  -23.2757   20.9285 C   0  0  0  0  0  0
  -28.4728  -21.0746   19.8383 C   0  0  0  0  0  0
  -30.6475  -21.8752   20.5522 C   0  0  0  0  0  0
  -28.7967  -23.7309   20.0998 C   0  0  0  0  0  0
  -30.1971  -24.6656   18.3412 C   0  0  0  0  0  0
  -28.0573  -25.0576   20.6473 C   0  0  0  0  0  0
  -29.6922  -20.7445   20.5893 N   0  0  0  0  0  0
  -29.9238  -15.7888   20.7261 N   0  0  0  0  0  0
  -29.4199  -18.2256   20.5989 O   0  0  0  0  0  0
  -29.0593  -23.8857   18.6998 O   0  0  0  0  0  0
  -31.4703  -12.4915   19.1637 H   0  0  0  0  0  0
  -30.3335  -11.4143   19.9282 H   0  0  0  0  0  0
  -29.7711  -11.7439   17.4907 H   0  0  0  0  0  0
  -29.6495  -13.4674   17.7376 H   0  0  0  0  0  0
  -27.8686  -11.2903   18.8780 H   0  0  0  0  0  0
  -27.3752  -12.5660   17.7955 H   0  0  0  0  0  0
  -27.6537  -14.2566   19.5004 H   0  0  0  0  0  0
  -28.7115  -12.1226   21.4188 H   0  0  0  0  0  0
  -28.4491  -13.8022   21.8120 H   0  0  0  0  0  0
  -25.2779   -9.5678   22.4766 H   0  0  0  0  0  0
  -24.0018   -7.4655   22.7463 H   0  0  0  0  0  0
  -21.0867   -8.8792   19.8954 H   0  0  0  0  0  0
  -22.3730  -10.9685   19.6182 H   0  0  0  0  0  0
  -21.2005   -7.6154   23.9739 H   0  0  0  0  0  0
  -21.1480   -6.0529   25.9092 H   0  0  0  0  0  0
  -22.0589   -2.7625   23.2858 H   0  0  0  0  0  0
  -22.4095  -11.9885   22.4796 H   0  0  0  0  0  0
  -21.1097  -13.1249   22.2613 H   0  0  0  0  0  0
  -24.6413  -15.8340   20.4990 H   0  0  0  0  0  0
  -26.2561  -15.6313   20.0411 H   0  0  0  0  0  0
  -26.7183  -32.5445   23.1108 H   0  0  0  0  0  0
  -25.0089  -33.9727   25.0436 H   0  0  0  0  0  0
  -22.7157  -31.3022   21.4007 H   0  0  0  0  0  0
  -23.3751  -35.9618   23.3309 H   0  0  0  0  0  0
  -24.3581  -36.8898   22.2055 H   0  0  0  0  0  0
  -23.7238  -37.6489   23.6658 H   0  0  0  0  0  0
  -26.0978  -31.5526   20.6099 H   0  0  0  0  0  0
  -26.8422  -30.8352   22.0077 H   0  0  0  0  0  0
  -28.1170  -28.9765   21.2015 H   0  0  0  0  0  0
  -26.0047  -25.9445   18.9729 H   0  0  0  0  0  0
  -23.9778  -27.3112   19.0015 H   0  0  0  0  0  0
  -23.7582  -30.5942   19.4037 H   0  0  0  0  0  0
  -22.7574  -29.2469   19.8573 H   0  0  0  0  0  0
  -25.1298  -36.1940   25.0816 H   0  0  0  0  0  0
  -20.9983  -28.3258   24.1400 H   0  0  0  0  0  0
  -20.5671  -26.2291   23.3614 H   0  0  0  0  0  0
  -21.6645  -26.7431   22.1210 H   0  0  0  0  0  0
  -19.6909  -25.6283   21.1250 H   0  0  0  0  0  0
  -19.6691  -27.3188   20.6741 H   0  0  0  0  0  0
  -17.4198  -26.6686   21.4016 H   0  0  0  0  0  0
  -18.0323  -26.0064   22.9015 H   0  0  0  0  0  0
  -19.7941  -30.7279   24.2261 H   0  0  0  0  0  0
  -17.5017  -31.6265   24.5156 H   0  0  0  0  0  0
  -15.5362  -30.2984   23.7652 H   0  0  0  0  0  0
  -15.8674  -28.0818   22.7076 H   0  0  0  0  0  0
  -24.5897  -30.7092   25.7790 H   0  0  0  0  0  0
  -24.8932  -32.2905   26.4890 H   0  0  0  0  0  0
  -25.8050  -30.8907   27.0232 H   0  0  0  0  0  0
  -26.2925  -29.6762   24.1216 H   0  0  0  0  0  0
  -27.4038  -29.7279   25.4708 H   0  0  0  0  0  0
  -27.8797  -30.4310   23.9431 H   0  0  0  0  0  0
  -27.2665  -33.3633   26.2082 H   0  0  0  0  0  0
  -28.3862  -32.6894   25.0322 H   0  0  0  0  0  0
  -28.0728  -31.8454   26.5416 H   0  0  0  0  0  0
  -28.2602  -38.0099   24.7512 H   0  0  0  0  0  0
  -28.1080  -36.2626   24.6291 H   0  0  0  0  0  0
  -27.2297  -37.1450   25.8869 H   0  0  0  0  0  0
  -20.9365  -29.8771   21.6892 H   0  0  0  0  0  0
  -26.0174  -38.2850   24.1412 H   0  0  0  0  0  0
  -32.3605  -19.7145   20.7980 H   0  0  0  0  0  0
  -32.4873  -17.0215   20.8746 H   0  0  0  0  0  0
  -27.4709  -22.4187   21.2224 H   0  0  0  0  0  0
  -26.9788  -22.6415   19.5754 H   0  0  0  0  0  0
  -30.8223  -24.0343   20.8856 H   0  0  0  0  0  0
  -29.7550  -23.2388   21.9803 H   0  0  0  0  0  0
  -28.7096  -21.0515   18.7733 H   0  0  0  0  0  0
  -27.7260  -20.2959   20.0000 H   0  0  0  0  0  0
  -31.4710  -21.6806   21.2398 H   0  0  0  0  0  0
  -31.0854  -21.9242   19.5539 H   0  0  0  0  0  0
  -30.1726  -24.8737   17.2715 H   0  0  0  0  0  0
  -31.1243  -24.1285   18.5416 H   0  0  0  0  0  0
  -30.2403  -25.6221   18.8597 H   0  0  0  0  0  0
  -28.2147  -25.0954   21.7252 H   0  0  0  0  0  0
  -26.9919  -24.8476   20.5751 H   0  0  0  0  0  0
  -28.9451  -15.6157   20.8935 H   0  0  0  0  0  0
  1 25  1  0  0  0
  1 30  2  0  0  0
  1 83  1  0  0  0
  2  3  1  0  0  0
  2 25  1  0  0  0
  2 86  1  0  0  0
  2 87  1  0  0  0
  3  4  1  0  0  0
  3 88  1  0  0  0
  3 89  1  0  0  0
  4  5  1  0  0  0
  4 90  1  0  0  0
  4 91  1  0  0  0
  5  6  1  0  0  0
  5 26  1  0  0  0
  5 92  1  0  0  0
  6 25  1  0  0  0
  6 93  1  0  0  0
  6 94  1  0  0  0
  7  8  2  0  0  0
  7 26  1  0  0  0
  7 29  1  0  0  0
  8  9  1  0  0  0
  8 22  1  0  0  0
  9 10  1  0  0  0
  9 27  2  0  0  0
 10 11  2  0  0  0
 10 15  1  0  0  0
 11 12  1  0  0  0
 11 95  1  0  0  0
 12 13  2  0  0  0
 12 96  1  0  0  0
 13 14  1  0  0  0
 13 31  1  0  0  0
 14 15  2  0  0  0
 14 97  1  0  0  0
 15 98  1  0  0  0
 16 17  2  0  0  0
 16 21  1  0  0  0
 16 31  1  0  0  0
 17 18  1  0  0  0
 17 99  1  0  0  0
 18 19  2  0  0  0
 18100  1  0  0  0
 19 20  1  0  0  0
 19 24  1  0  0  0
 20 21  2  0  0  0
 20101  1  0  0  0
 21 23  1  0  0  0
 22 28  1  0  0  0
 22 32  2  0  0  0
 26 27  1  0  0  0
 28102  1  0  0  0
 28103  1  0  0  0
 29104  1  0  0  0
 29105  1  0  0  0
 33 34  1  0  0  0
 33 66  1  0  0  0
 33 70  2  0  0  0
 34 36  1  0  0  0
 34 59  1  0  0  0
 34106  1  0  0  0
 35 44  2  0  0  0
 35 45  1  0  0  0
 35 68  1  0  0  0
 36 56  1  0  0  0
 36107  1  0  0  0
 37 39  1  0  0  0
 37 47  1  0  0  0
 37 66  1  0  0  0
 37108  1  0  0  0
 38 43  2  0  0  0
 38 46  1  0  0  0
 38 47  1  0  0  0
 39 64  1  0  0  0
 39 67  2  0  0  0
 40 52  1  0  0  0
 40 53  2  0  0  0
 40 58  1  0  0  0
 41109  1  0  0  0
 41110  1  0  0  0
 41111  1  0  0  0
 41 48  1  0  0  0
 42 43  1  0  0  0
 42 66  1  0  0  0
 42112  1  0  0  0
 42113  1  0  0  0
 43 44  1  0  0  0
 44114  1  0  0  0
 45 46  2  0  0  0
 45115  1  0  0  0
 46116  1  0  0  0
 47117  1  0  0  0
 47118  1  0  0  0
 48 56  1  0  0  0
 48 65  1  0  0  0
 48119  1  0  0  0
 49 50  1  0  0  0
 49 53  1  0  0  0
 49 64  1  0  0  0
 49120  1  0  0  0
 50 51  1  0  0  0
 50121  1  0  0  0
 50122  1  0  0  0
 51 52  1  0  0  0
 51123  1  0  0  0
 51124  1  0  0  0
 52125  1  0  0  0
 52126  1  0  0  0
 53 54  1  0  0  0
 54 55  2  0  0  0
 54127  1  0  0  0
 55 57  1  0  0  0
 55128  1  0  0  0
 56 69  2  0  0  0
 57 58  2  0  0  0
 57129  1  0  0  0
 58130  1  0  0  0
 59 60  1  0  0  0
 59 61  1  0  0  0
 59 62  1  0  0  0
 60131  1  0  0  0
 60132  1  0  0  0
 60133  1  0  0  0
 61134  1  0  0  0
 61135  1  0  0  0
 61136  1  0  0  0
 62137  1  0  0  0
 62138  1  0  0  0
 62139  1  0  0  0
 63 65  1  0  0  0
 63140  1  0  0  0
 63141  1  0  0  0
 63142  1  0  0  0
 64143  1  0  0  0
 65144  1  0  0  0
 68 81  1  0  0  0
 71 72  1  0  0  0
 71 73  2  0  0  0
 71145  1  0  0  0
 72 74  2  0  0  0
 72146  1  0  0  0
 73 82  1  0  0  0
 73 84  1  0  0  0
 74 83  1  0  0  0
 74 84  1  0  0  0
 75 77  1  0  0  0
 75 79  1  0  0  0
 75147  1  0  0  0
 75148  1  0  0  0
 76 78  1  0  0  0
 76 79  1  0  0  0
 76149  1  0  0  0
 76150  1  0  0  0
 77 82  1  0  0  0
 77151  1  0  0  0
 77152  1  0  0  0
 78 82  1  0  0  0
 78153  1  0  0  0
 78154  1  0  0  0
 79 81  1  0  0  0
 79 85  1  0  0  0
 80 85  1  0  0  0
 80155  1  0  0  0
 80156  1  0  0  0
 80157  1  0  0  0
 81158  1  0  0  0
 81159  1  0  0  0
 83160  1  0  0  0
M  ISO  4   1 100  68 101  81 101  83 100
M  END
> <chiral flag>
0

> <version>
0

> <s_m_source_file>
/data/baiqing/PycharmProjects/Reinvent-master-3.2/result/LINK_invent/BTK/process_docking_weight1_custom_product_contain_oxygen_bond_distance_aromatic_linkinvent_7_9_3/rearranged_h_0157.sdf

> <i_m_source_file_index>
88

> <r_mmod_Potential_Energy-OPLS-2005>
111.10425567627

> <r_mmod_Stretch_Energy-OPLS-2005>
86.7891540527344

> <r_mmod_Bend_Energy-OPLS-2005>
166.839660644531

> <r_mmod_Torsional_Energy-OPLS-2005>
273.148162841797

> <r_mmod_Improper_Torsional_Energy-OPLS-2005>
7.97537183761597

> <r_mmod_Van_der_Waal_Energy-OPLS-2005>
139.949951171875

> <r_mmod_Electrostatic_Energy-OPLS-2005>
-389.991760253906

> <r_mmod_Solvation_Energy-OPLS-2005>
-227.968139648438

> <b_mmod_Minimization_Converged-OPLS-2005>
0

> <r_mmod_RMS_Derivative-OPLS-2005>
1.75410747528076

$$$$
88
                    3D
 Structure written by MMmdl.
159168  0  0  1  0            999 V2000
  -30.6231  -14.6273   20.5156 C   0  0  0  0  0  0
  -30.4406  -12.3889   19.4512 C   0  0  0  0  0  0
  -29.5120  -12.5125   18.2227 C   0  0  0  0  0  0
  -28.0324  -12.3522   18.6299 C   0  0  0  0  0  0
  -27.6552  -13.2144   19.8646 C   0  0  2  0  0  0
  -28.6981  -13.0560   20.9940 C   0  0  0  0  0  0
  -25.2565  -13.8155   20.5668 C   0  0  0  0  0  0
  -24.1825  -13.0432   20.9180 C   0  0  0  0  0  0
  -24.6384  -11.6894   20.8716 C   0  0  0  0  0  0
  -23.9044  -10.4284   21.0389 C   0  0  0  0  0  0
  -24.3605   -9.4205   21.9167 C   0  0  0  0  0  0
  -23.6297   -8.2231   22.0741 C   0  0  0  0  0  0
  -22.4276   -8.0261   21.3537 C   0  0  0  0  0  0
  -21.9898   -9.0227   20.4638 C   0  0  0  0  0  0
  -22.7213  -10.2116   20.3039 C   0  0  0  0  0  0
  -21.6851   -6.0721   22.5281 C   0  0  0  0  0  0
  -21.4013   -6.5627   23.8215 C   0  0  0  0  0  0
  -21.3660   -5.6779   24.9176 C   0  0  0  0  0  0
  -21.6045   -4.3044   24.7227 C   0  0  0  0  0  0
  -21.8820   -3.8133   23.4352 C   0  0  0  0  0  0
  -21.9195   -4.6948   22.3407 C   0  0  0  0  0  0
  -22.7853  -13.5234   21.1856 C   0  0  0  0  0  0
  -22.1666   -4.2131   21.0986 F   0  0  0  0  0  0
  -21.5632   -3.4530   25.7747 F   0  0  0  0  0  0
  -30.0155  -13.4025   20.4366 N   0  0  0  0  0  0
  -26.2988  -12.9327   20.3298 N   0  0  0  0  0  0
  -25.9309  -11.6482   20.5721 N   0  0  0  0  0  0
  -22.0491  -12.8226   22.0414 N   0  0  0  0  0  0
  -25.4276  -15.1877   20.4082 N   0  0  0  0  0  0
  -31.7819  -14.7967   20.1257 O   0  0  0  0  0  0
  -21.6638   -6.8861   21.4240 O   0  0  0  0  0  0
  -22.3538  -14.5540   20.6700 O   0  0  0  0  0  0
  -24.6263  -31.8608   23.2026 C   0  0  0  0  0  0
  -25.9113  -32.4785   23.8356 C   0  0  1  0  0  0
  -27.2202  -27.3147   20.1153 C   0  0  0  0  0  0
  -25.5937  -33.8587   24.2272 N   0  0  0  0  0  0
  -23.4200  -30.4861   21.5459 C   0  0  2  0  0  0
  -24.8650  -28.9451   20.1107 C   0  0  0  0  0  0
  -22.7481  -29.4630   22.4925 C   0  0  0  0  0  0
  -18.0289  -28.1402   22.8467 C   0  0  0  0  0  0
  -24.1493  -36.7291   23.2633 C   0  0  0  0  0  0
  -25.9619  -30.7912   21.3745 C   0  0  0  0  0  0
  -26.0356  -29.4193   20.7148 C   0  0  0  0  0  0
  -27.2167  -28.6173   20.7064 C   0  0  0  0  0  0
  -26.0211  -26.8977   19.4867 C   0  0  0  0  0  0
  -24.8597  -27.6896   19.4879 C   0  0  0  0  0  0
  -23.6350  -29.8264   20.1598 C   0  0  0  0  0  0
  -25.4119  -36.3081   24.0318 C   0  0  1  0  0  0
  -20.5885  -28.3703   23.1268 C   0  0  2  0  0  0
  -20.6786  -26.9427   22.5404 C   0  0  0  0  0  0
  -19.5767  -26.6387   21.5206 C   0  0  0  0  0  0
  -18.1942  -26.7943   22.1609 C   0  0  0  0  0  0
  -19.1540  -28.8869   23.2861 C   0  0  0  0  0  0
  -18.9467  -30.1471   23.8873 C   0  0  0  0  0  0
  -17.6470  -30.6600   24.0557 C   0  0  0  0  0  0
  -25.9060  -34.9457   23.5091 C   0  0  0  0  0  0
  -16.5358  -29.9097   23.6334 C   0  0  0  0  0  0
  -16.7277  -28.6523   23.0334 C   0  0  0  0  0  0
  -26.4495  -31.6606   25.0736 C   0  0  0  0  0  0
  -25.3725  -31.3765   26.1464 C   0  0  0  0  0  0
  -27.0339  -30.3025   24.6205 C   0  0  0  0  0  0
  -27.6050  -32.4342   25.7520 C   0  0  0  0  0  0
  -27.5577  -37.1804   24.8462 C   0  0  0  0  0  0
  -21.4193  -29.3058   22.3670 N   0  0  0  0  0  0
  -26.4289  -37.3779   23.9408 N   0  0  0  0  0  0
  -24.6885  -31.0616   22.0984 N   0  0  0  0  0  0
  -23.4201  -28.8158   23.3003 O   0  0  0  0  0  0
  -28.3343  -26.4550   20.1739 O   0  0  0  0  0  0
  -26.5620  -34.8916   22.4652 O   0  0  0  0  0  0
  -23.5430  -32.1416   23.7348 O   0  0  0  0  0  0
  -31.1858  -17.8067   20.5802 C   0  0  0  0  0  0
  -31.1920  -19.2174   20.4050 C   0  0  0  0  0  0
  -28.8033  -17.9528   20.6893 C   0  0  0  0  0  0
  -29.9552  -17.1191   20.7105 C   0  0  0  0  0  0
  -29.9877  -19.9635   20.3451 C   0  0  0  0  0  0
  -28.7211  -21.7798   17.8594 C   0  0  0  0  0  0
  -30.1490  -21.5407   18.3708 C   0  0  0  0  0  0
  -27.8925  -22.0853   19.1138 C   0  0  0  0  0  0
  -30.0321  -21.4855   19.9049 C   0  0  1  0  0  0
  -29.2265  -23.9132   20.2756 C   0  0  0  0  0  0
  -28.0929  -25.0015   19.9839 C   0  0  0  0  0  0
  -28.8064  -19.3093   20.5010 N   0  0  0  0  0  0
  -29.8155  -15.6704   20.8804 N   0  0  0  0  0  0
  -28.8655  -22.4141   20.1843 N   0  3  1  0  0  0
  -31.4826  -12.5161   19.1507 H   0  0  0  0  0  0
  -30.3750  -11.3898   19.8832 H   0  0  0  0  0  0
  -29.7794  -11.7645   17.4748 H   0  0  0  0  0  0
  -29.6592  -13.4847   17.7485 H   0  0  0  0  0  0
  -27.8639  -11.2979   18.8515 H   0  0  0  0  0  0
  -27.3815  -12.5921   17.7883 H   0  0  0  0  0  0
  -27.6774  -14.2536   19.5347 H   0  0  0  0  0  0
  -28.7065  -12.0290   21.3622 H   0  0  0  0  0  0
  -28.4418  -13.6766   21.8539 H   0  0  0  0  0  0
  -25.2753   -9.5690   22.4735 H   0  0  0  0  0  0
  -24.0013   -7.4618   22.7453 H   0  0  0  0  0  0
  -21.0827   -8.8722   19.8956 H   0  0  0  0  0  0
  -22.3649  -10.9637   19.6140 H   0  0  0  0  0  0
  -21.2000   -7.6133   23.9717 H   0  0  0  0  0  0
  -21.1489   -6.0509   25.9083 H   0  0  0  0  0  0
  -22.0604   -2.7593   23.2855 H   0  0  0  0  0  0
  -22.4119  -11.9900   22.4816 H   0  0  0  0  0  0
  -21.1095  -13.1234   22.2609 H   0  0  0  0  0  0
  -24.6519  -15.8345   20.5014 H   0  0  0  0  0  0
  -26.2597  -15.6192   20.0275 H   0  0  0  0  0  0
  -26.7182  -32.5453   23.1108 H   0  0  0  0  0  0
  -25.0106  -33.9750   25.0429 H   0  0  0  0  0  0
  -22.7138  -31.3074   21.4061 H   0  0  0  0  0  0
  -23.3757  -35.9620   23.3293 H   0  0  0  0  0  0
  -24.3582  -36.8919   22.2047 H   0  0  0  0  0  0
  -23.7249  -37.6489   23.6666 H   0  0  0  0  0  0
  -26.0924  -31.5558   20.6070 H   0  0  0  0  0  0
  -26.8423  -30.8384   22.0042 H   0  0  0  0  0  0
  -28.1135  -28.9785   21.1895 H   0  0  0  0  0  0
  -25.9363  -25.9419   18.9930 H   0  0  0  0  0  0
  -23.9620  -27.3222   19.0091 H   0  0  0  0  0  0
  -23.7557  -30.6058   19.4067 H   0  0  0  0  0  0
  -22.7548  -29.2588   19.8538 H   0  0  0  0  0  0
  -25.1302  -36.1924   25.0809 H   0  0  0  0  0  0
  -20.9963  -28.3286   24.1390 H   0  0  0  0  0  0
  -20.5694  -26.2316   23.3605 H   0  0  0  0  0  0
  -21.6658  -26.7477   22.1194 H   0  0  0  0  0  0
  -19.6935  -25.6287   21.1258 H   0  0  0  0  0  0
  -19.6712  -27.3171   20.6712 H   0  0  0  0  0  0
  -17.4214  -26.6659   21.4012 H   0  0  0  0  0  0
  -18.0355  -26.0099   22.9022 H   0  0  0  0  0  0
  -19.7951  -30.7295   24.2216 H   0  0  0  0  0  0
  -17.5035  -31.6276   24.5170 H   0  0  0  0  0  0
  -15.5360  -30.2998   23.7687 H   0  0  0  0  0  0
  -15.8670  -28.0856   22.7036 H   0  0  0  0  0  0
  -24.5880  -30.7134   25.7799 H   0  0  0  0  0  0
  -24.8941  -32.2946   26.4888 H   0  0  0  0  0  0
  -25.8037  -30.8943   27.0247 H   0  0  0  0  0  0
  -26.2921  -29.6787   24.1200 H   0  0  0  0  0  0
  -27.4000  -29.7276   25.4725 H   0  0  0  0  0  0
  -27.8808  -30.4311   23.9456 H   0  0  0  0  0  0
  -27.2652  -33.3640   26.2097 H   0  0  0  0  0  0
  -28.3870  -32.6907   25.0361 H   0  0  0  0  0  0
  -28.0708  -31.8471   26.5448 H   0  0  0  0  0  0
  -28.2590  -38.0105   24.7508 H   0  0  0  0  0  0
  -28.1075  -36.2634   24.6289 H   0  0  0  0  0  0
  -27.2294  -37.1452   25.8864 H   0  0  0  0  0  0
  -20.9369  -29.8791   21.6887 H   0  0  0  0  0  0
  -26.0163  -38.2845   24.1423 H   0  0  0  0  0  0
  -32.1256  -17.2753   20.6052 H   0  0  0  0  0  0
  -32.1396  -19.7204   20.2662 H   0  0  0  0  0  0
  -27.8240  -17.5097   20.7998 H   0  0  0  0  0  0
  -28.3249  -20.9076   17.3370 H   0  0  0  0  0  0
  -28.7012  -22.6185   17.1624 H   0  0  0  0  0  0
  -30.7712  -22.3890   18.0836 H   0  0  0  0  0  0
  -30.6159  -20.6549   17.9396 H   0  0  0  0  0  0
  -27.3523  -21.1849   19.4076 H   0  0  0  0  0  0
  -27.1129  -22.8234   18.9433 H   0  0  0  0  0  0
  -30.9264  -21.9046   20.3685 H   0  0  0  0  0  0
  -29.6286  -24.0854   21.2747 H   0  0  0  0  0  0
  -30.0509  -24.1201   19.5930 H   0  0  0  0  0  0
  -27.2211  -24.7215   20.5776 H   0  0  0  0  0  0
  -27.8236  -24.8897   18.9342 H   0  0  0  0  0  0
  -28.8942  -15.3636   21.1580 H   0  0  0  0  0  0
  -28.4608  -22.1299   21.0649 H   0  0  0  0  0  0
  1 25  1  0  0  0
  1 30  2  0  0  0
  1 83  1  0  0  0
  2  3  1  0  0  0
  2 25  1  0  0  0
  2 85  1  0  0  0
  2 86  1  0  0  0
  3  4  1  0  0  0
  3 87  1  0  0  0
  3 88  1  0  0  0
  4  5  1  0  0  0
  4 89  1  0  0  0
  4 90  1  0  0  0
  5  6  1  0  0  0
  5 26  1  0  0  0
  5 91  1  0  0  0
  6 25  1  0  0  0
  6 92  1  0  0  0
  6 93  1  0  0  0
  7  8  2  0  0  0
  7 26  1  0  0  0
  7 29  1  0  0  0
  8  9  1  0  0  0
  8 22  1  0  0  0
  9 10  1  0  0  0
  9 27  2  0  0  0
 10 11  2  0  0  0
 10 15  1  0  0  0
 11 12  1  0  0  0
 11 94  1  0  0  0
 12 13  2  0  0  0
 12 95  1  0  0  0
 13 14  1  0  0  0
 13 31  1  0  0  0
 14 15  2  0  0  0
 14 96  1  0  0  0
 15 97  1  0  0  0
 16 17  2  0  0  0
 16 21  1  0  0  0
 16 31  1  0  0  0
 17 18  1  0  0  0
 17 98  1  0  0  0
 18 19  2  0  0  0
 18 99  1  0  0  0
 19 20  1  0  0  0
 19 24  1  0  0  0
 20 21  2  0  0  0
 20100  1  0  0  0
 21 23  1  0  0  0
 22 28  1  0  0  0
 22 32  2  0  0  0
 26 27  1  0  0  0
 28101  1  0  0  0
 28102  1  0  0  0
 29103  1  0  0  0
 29104  1  0  0  0
 33 34  1  0  0  0
 33 66  1  0  0  0
 33 70  2  0  0  0
 34 36  1  0  0  0
 34 59  1  0  0  0
 34105  1  0  0  0
 35 44  2  0  0  0
 35 45  1  0  0  0
 35 68  1  0  0  0
 36 56  1  0  0  0
 36106  1  0  0  0
 37 39  1  0  0  0
 37 47  1  0  0  0
 37 66  1  0  0  0
 37107  1  0  0  0
 38 43  2  0  0  0
 38 46  1  0  0  0
 38 47  1  0  0  0
 39 64  1  0  0  0
 39 67  2  0  0  0
 40 52  1  0  0  0
 40 53  2  0  0  0
 40 58  1  0  0  0
 41108  1  0  0  0
 41109  1  0  0  0
 41110  1  0  0  0
 41 48  1  0  0  0
 42 43  1  0  0  0
 42 66  1  0  0  0
 42111  1  0  0  0
 42112  1  0  0  0
 43 44  1  0  0  0
 44113  1  0  0  0
 45 46  2  0  0  0
 45114  1  0  0  0
 46115  1  0  0  0
 47116  1  0  0  0
 47117  1  0  0  0
 48 56  1  0  0  0
 48 65  1  0  0  0
 48118  1  0  0  0
 49 50  1  0  0  0
 49 53  1  0  0  0
 49 64  1  0  0  0
 49119  1  0  0  0
 50 51  1  0  0  0
 50120  1  0  0  0
 50121  1  0  0  0
 51 52  1  0  0  0
 51122  1  0  0  0
 51123  1  0  0  0
 52124  1  0  0  0
 52125  1  0  0  0
 53 54  1  0  0  0
 54 55  2  0  0  0
 54126  1  0  0  0
 55 57  1  0  0  0
 55127  1  0  0  0
 56 69  2  0  0  0
 57 58  2  0  0  0
 57128  1  0  0  0
 58129  1  0  0  0
 59 60  1  0  0  0
 59 61  1  0  0  0
 59 62  1  0  0  0
 60130  1  0  0  0
 60131  1  0  0  0
 60132  1  0  0  0
 61133  1  0  0  0
 61134  1  0  0  0
 61135  1  0  0  0
 62136  1  0  0  0
 62137  1  0  0  0
 62138  1  0  0  0
 63 65  1  0  0  0
 63139  1  0  0  0
 63140  1  0  0  0
 63141  1  0  0  0
 64142  1  0  0  0
 65143  1  0  0  0
 68 81  1  0  0  0
 71 72  2  0  0  0
 71 74  1  0  0  0
 71144  1  0  0  0
 72 75  1  0  0  0
 72145  1  0  0  0
 73 74  2  0  0  0
 73 82  1  0  0  0
 73146  1  0  0  0
 74 83  1  0  0  0
 75 82  2  0  0  0
 75 79  1  0  0  0
 76 77  1  0  0  0
 76 78  1  0  0  0
 76147  1  0  0  0
 76148  1  0  0  0
 77 79  1  0  0  0
 77149  1  0  0  0
 77150  1  0  0  0
 78 84  1  0  0  0
 78151  1  0  0  0
 78152  1  0  0  0
 79 84  1  0  0  0
 79153  1  0  0  0
 80 81  1  0  0  0
 80154  1  0  0  0
 80155  1  0  0  0
 80 84  1  0  0  0
 81156  1  0  0  0
 81157  1  0  0  0
 83158  1  0  0  0
 84159  1  0  0  0
M  CHG  1  84   1
M  ISO  4   1 100  68 101  81 101  83 100
M  END
> <chiral flag>
0

> <version>
0

> <s_m_source_file>
/data/baiqing/PycharmProjects/Reinvent-master-3.2/result/LINK_invent/BTK/process_docking_weight1_custom_product_contain_oxygen_bond_distance_aromatic_linkinvent_7_9_3/rearranged_h_0157.sdf

> <i_m_source_file_index>
89

> <r_mmod_Potential_Energy-OPLS-2005>
-146.680541992188

> <r_mmod_Stretch_Energy-OPLS-2005>
84.3467407226562

> <r_mmod_Bend_Energy-OPLS-2005>
169.832305908203

> <r_mmod_Torsional_Energy-OPLS-2005>
283.987243652344

> <r_mmod_Improper_Torsional_Energy-OPLS-2005>
5.34519004821777

> <r_mmod_Van_der_Waal_Energy-OPLS-2005>
152.304275512695

> <r_mmod_Electrostatic_Energy-OPLS-2005>
-457.6123046875

> <r_mmod_Solvation_Energy-OPLS-2005>
-432.980621337891

> <b_mmod_Minimization_Converged-OPLS-2005>
0

> <r_mmod_RMS_Derivative-OPLS-2005>
1.62605929374695

$$$$
89
                    3D
 Structure written by MMmdl.
159168  0  0  1  0            999 V2000
  -30.5176  -14.8090   20.4775 C   0  0  0  0  0  0
  -30.4609  -12.4973   19.4760 C   0  0  0  0  0  0
  -29.5249  -12.5250   18.2432 C   0  0  0  0  0  0
  -28.0484  -12.3341   18.6497 C   0  0  0  0  0  0
  -27.6482  -13.2190   19.8585 C   0  0  2  0  0  0
  -28.6933  -13.1164   20.9922 C   0  0  0  0  0  0
  -25.2546  -13.8166   20.5681 C   0  0  0  0  0  0
  -24.1822  -13.0440   20.9213 C   0  0  0  0  0  0
  -24.6388  -11.6911   20.8748 C   0  0  0  0  0  0
  -23.9060  -10.4299   21.0408 C   0  0  0  0  0  0
  -24.3610   -9.4213   21.9181 C   0  0  0  0  0  0
  -23.6286   -8.2249   22.0753 C   0  0  0  0  0  0
  -22.4266   -8.0291   21.3551 C   0  0  0  0  0  0
  -21.9901   -9.0266   20.4653 C   0  0  0  0  0  0
  -22.7235  -10.2142   20.3061 C   0  0  0  0  0  0
  -21.6857   -6.0736   22.5277 C   0  0  0  0  0  0
  -21.4020   -6.5635   23.8212 C   0  0  0  0  0  0
  -21.3659   -5.6785   24.9171 C   0  0  0  0  0  0
  -21.6039   -4.3048   24.7219 C   0  0  0  0  0  0
  -21.8823   -3.8147   23.4341 C   0  0  0  0  0  0
  -21.9195   -4.6964   22.3398 C   0  0  0  0  0  0
  -22.7845  -13.5241   21.1870 C   0  0  0  0  0  0
  -22.1660   -4.2153   21.0978 F   0  0  0  0  0  0
  -21.5625   -3.4532   25.7730 F   0  0  0  0  0  0
  -29.9917  -13.5290   20.4303 N   0  0  0  0  0  0
  -26.2957  -12.9338   20.3272 N   0  0  0  0  0  0
  -25.9309  -11.6498   20.5724 N   0  0  0  0  0  0
  -22.0485  -12.8241   22.0426 N   0  0  0  0  0  0
  -25.4267  -15.1884   20.4081 N   0  0  0  0  0  0
  -31.6774  -15.0140   20.1002 O   0  0  0  0  0  0
  -21.6645   -6.8878   21.4237 O   0  0  0  0  0  0
  -22.3537  -14.5554   20.6718 O   0  0  0  0  0  0
  -24.6357  -31.8508   23.1940 C   0  0  0  0  0  0
  -25.9158  -32.4729   23.8307 C   0  0  1  0  0  0
  -27.2253  -27.2145   20.1424 C   0  0  0  0  0  0
  -25.5924  -33.8535   24.2218 N   0  0  0  0  0  0
  -23.4353  -30.4719   21.5381 C   0  0  2  0  0  0
  -24.8851  -28.9085   20.1153 C   0  0  0  0  0  0
  -22.7519  -29.4584   22.4891 C   0  0  0  0  0  0
  -18.0292  -28.1385   22.8486 C   0  0  0  0  0  0
  -24.1487  -36.7274   23.2638 C   0  0  0  0  0  0
  -25.9857  -30.7489   21.3814 C   0  0  0  0  0  0
  -26.0605  -29.3663   20.7255 C   0  0  0  0  0  0
  -27.2342  -28.5353   20.7227 C   0  0  0  0  0  0
  -26.0280  -26.8424   19.4925 C   0  0  0  0  0  0
  -24.8766  -27.6547   19.4870 C   0  0  0  0  0  0
  -23.6573  -29.8013   20.1572 C   0  0  0  0  0  0
  -25.4113  -36.3047   24.0315 C   0  0  1  0  0  0
  -20.5901  -28.3705   23.1245 C   0  0  2  0  0  0
  -20.6772  -26.9415   22.5397 C   0  0  0  0  0  0
  -19.5745  -26.6377   21.5204 C   0  0  0  0  0  0
  -18.1933  -26.7921   22.1633 C   0  0  0  0  0  0
  -19.1550  -28.8863   23.2859 C   0  0  0  0  0  0
  -18.9475  -30.1462   23.8886 C   0  0  0  0  0  0
  -17.6477  -30.6590   24.0560 C   0  0  0  0  0  0
  -25.9064  -34.9424   23.5076 C   0  0  0  0  0  0
  -16.5367  -29.9087   23.6334 C   0  0  0  0  0  0
  -16.7280  -28.6497   23.0369 C   0  0  0  0  0  0
  -26.4508  -31.6573   25.0721 C   0  0  0  0  0  0
  -25.3715  -31.3781   26.1437 C   0  0  0  0  0  0
  -27.0340  -30.2959   24.6269 C   0  0  0  0  0  0
  -27.6042  -32.4337   25.7498 C   0  0  0  0  0  0
  -27.5572  -37.1779   24.8466 C   0  0  0  0  0  0
  -21.4223  -29.3040   22.3621 N   0  0  0  0  0  0
  -26.4283  -37.3749   23.9412 N   0  0  0  0  0  0
  -24.7050  -31.0429   22.0939 N   0  0  0  0  0  0
  -23.4193  -28.8134   23.3024 O   0  0  0  0  0  0
  -28.3011  -26.2782   20.1710 O   0  0  0  0  0  0
  -26.5663  -34.8908   22.4666 O   0  0  0  0  0  0
  -23.5491  -32.1361   23.7196 O   0  0  0  0  0  0
  -28.1149  -17.5834   21.3040 C   0  0  0  0  0  0
  -27.9497  -19.0007   21.1537 C   0  0  0  0  0  0
  -29.1262  -19.4868   20.6244 C   0  0  0  0  0  0
  -29.3360  -17.1885   20.8300 C   0  0  0  0  0  0
  -29.8621  -23.6690   19.2268 C   0  0  0  0  0  0
  -28.9266  -23.5691   20.1899 C   0  0  0  0  0  0
  -30.6859  -22.5097   18.8091 C   0  0  0  0  0  0
  -30.6782  -21.2033   19.6378 C   0  0  0  0  0  0
  -28.6991  -22.1324   20.8752 C   0  0  2  0  0  0
  -26.6728  -19.7212   21.5065 C   0  0  0  0  0  0
  -29.0573  -22.2383   22.3673 C   0  0  0  0  0  0
  -28.0081  -24.8383   20.5882 C   0  0  0  0  0  0
  -29.4040  -20.9000   20.2903 N   0  0  0  0  0  0
  -29.6088  -15.7951   20.8528 N   0  0  0  0  0  0
  -31.3990  -22.5603   17.8046 O   0  0  0  0  0  0
  -30.0054  -18.3664   20.3868 O   0  0  0  0  0  0
  -31.4931  -12.6751   19.1707 H   0  0  0  0  0  0
  -30.4540  -11.5129   19.9459 H   0  0  0  0  0  0
  -29.8182  -11.7530   17.5304 H   0  0  0  0  0  0
  -29.6375  -13.4774   17.7234 H   0  0  0  0  0  0
  -27.9051  -11.2814   18.8970 H   0  0  0  0  0  0
  -27.3955  -12.5386   17.8006 H   0  0  0  0  0  0
  -27.6481  -14.2449   19.4905 H   0  0  0  0  0  0
  -28.7464  -12.0948   21.3719 H   0  0  0  0  0  0
  -28.4057  -13.7298   21.8475 H   0  0  0  0  0  0
  -25.2753   -9.5690   22.4754 H   0  0  0  0  0  0
  -24.0005   -7.4635   22.7462 H   0  0  0  0  0  0
  -21.0839   -8.8788   19.8949 H   0  0  0  0  0  0
  -22.3698  -10.9681   19.6173 H   0  0  0  0  0  0
  -21.2019   -7.6141   23.9715 H   0  0  0  0  0  0
  -21.1472   -6.0514   25.9072 H   0  0  0  0  0  0
  -22.0602   -2.7608   23.2842 H   0  0  0  0  0  0
  -22.4105  -11.9897   22.4797 H   0  0  0  0  0  0
  -21.1107  -13.1278   22.2652 H   0  0  0  0  0  0
  -24.6519  -15.8351   20.5095 H   0  0  0  0  0  0
  -26.2433  -15.6150   19.9917 H   0  0  0  0  0  0
  -26.7227  -32.5347   23.1045 H   0  0  0  0  0  0
  -24.9994  -33.9674   25.0306 H   0  0  0  0  0  0
  -22.7344  -31.2956   21.3867 H   0  0  0  0  0  0
  -23.3742  -35.9611   23.3291 H   0  0  0  0  0  0
  -24.3586  -36.8917   22.2058 H   0  0  0  0  0  0
  -23.7249  -37.6473   23.6678 H   0  0  0  0  0  0
  -26.1319  -31.5083   20.6118 H   0  0  0  0  0  0
  -26.8600  -30.7972   22.0190 H   0  0  0  0  0  0
  -28.1324  -28.8858   21.2104 H   0  0  0  0  0  0
  -25.9624  -25.8931   18.9815 H   0  0  0  0  0  0
  -23.9799  -27.3008   18.9966 H   0  0  0  0  0  0
  -23.7847  -30.5742   19.3981 H   0  0  0  0  0  0
  -22.7732  -29.2376   19.8525 H   0  0  0  0  0  0
  -25.1286  -36.1887   25.0802 H   0  0  0  0  0  0
  -21.0006  -28.3291   24.1361 H   0  0  0  0  0  0
  -20.5652  -26.2325   23.3612 H   0  0  0  0  0  0
  -21.6641  -26.7409   22.1208 H   0  0  0  0  0  0
  -19.6906  -25.6282   21.1247 H   0  0  0  0  0  0
  -19.6671  -27.3172   20.6720 H   0  0  0  0  0  0
  -17.4187  -26.6655   21.4053 H   0  0  0  0  0  0
  -18.0352  -26.0067   22.9039 H   0  0  0  0  0  0
  -19.7957  -30.7274   24.2252 H   0  0  0  0  0  0
  -17.5038  -31.6279   24.5153 H   0  0  0  0  0  0
  -15.5371  -30.2999   23.7654 H   0  0  0  0  0  0
  -15.8675  -28.0808   22.7110 H   0  0  0  0  0  0
  -24.5851  -30.7172   25.7780 H   0  0  0  0  0  0
  -24.8963  -32.2982   26.4841 H   0  0  0  0  0  0
  -25.8010  -30.8963   27.0227 H   0  0  0  0  0  0
  -26.2933  -29.6716   24.1254 H   0  0  0  0  0  0
  -27.3926  -29.7225   25.4829 H   0  0  0  0  0  0
  -27.8858  -30.4183   23.9576 H   0  0  0  0  0  0
  -27.2616  -33.3639   26.2042 H   0  0  0  0  0  0
  -28.3859  -32.6905   25.0338 H   0  0  0  0  0  0
  -28.0691  -31.8493   26.5448 H   0  0  0  0  0  0
  -28.2578  -38.0083   24.7498 H   0  0  0  0  0  0
  -28.1071  -36.2611   24.6288 H   0  0  0  0  0  0
  -27.2298  -37.1424   25.8872 H   0  0  0  0  0  0
  -20.9419  -29.8754   21.6808 H   0  0  0  0  0  0
  -26.0153  -38.2814   24.1427 H   0  0  0  0  0  0
  -27.3657  -16.9129   21.7041 H   0  0  0  0  0  0
  -30.0226  -24.6084   18.7209 H   0  0  0  0  0  0
  -31.4618  -21.2631   20.3944 H   0  0  0  0  0  0
  -30.9459  -20.3788   18.9754 H   0  0  0  0  0  0
  -27.6276  -21.9812   20.7765 H   0  0  0  0  0  0
  -25.9252  -19.0166   21.8700 H   0  0  0  0  0  0
  -26.2584  -20.2121   20.6256 H   0  0  0  0  0  0
  -26.8328  -20.4574   22.2922 H   0  0  0  0  0  0
  -30.0939  -22.5492   22.5011 H   0  0  0  0  0  0
  -28.9356  -21.2878   22.8860 H   0  0  0  0  0  0
  -28.4264  -22.9607   22.8844 H   0  0  0  0  0  0
  -27.9707  -24.8609   21.6762 H   0  0  0  0  0  0
  -27.0013  -24.5538   20.2917 H   0  0  0  0  0  0
  -28.7954  -15.2992   21.1811 H   0  0  0  0  0  0
  1 25  1  0  0  0
  1 30  2  0  0  0
  1 84  1  0  0  0
  2  3  1  0  0  0
  2 25  1  0  0  0
  2 87  1  0  0  0
  2 88  1  0  0  0
  3  4  1  0  0  0
  3 89  1  0  0  0
  3 90  1  0  0  0
  4  5  1  0  0  0
  4 91  1  0  0  0
  4 92  1  0  0  0
  5  6  1  0  0  0
  5 26  1  0  0  0
  5 93  1  0  0  0
  6 25  1  0  0  0
  6 94  1  0  0  0
  6 95  1  0  0  0
  7  8  2  0  0  0
  7 26  1  0  0  0
  7 29  1  0  0  0
  8  9  1  0  0  0
  8 22  1  0  0  0
  9 10  1  0  0  0
  9 27  2  0  0  0
 10 11  2  0  0  0
 10 15  1  0  0  0
 11 12  1  0  0  0
 11 96  1  0  0  0
 12 13  2  0  0  0
 12 97  1  0  0  0
 13 14  1  0  0  0
 13 31  1  0  0  0
 14 15  2  0  0  0
 14 98  1  0  0  0
 15 99  1  0  0  0
 16 17  2  0  0  0
 16 21  1  0  0  0
 16 31  1  0  0  0
 17 18  1  0  0  0
 17100  1  0  0  0
 18 19  2  0  0  0
 18101  1  0  0  0
 19 20  1  0  0  0
 19 24  1  0  0  0
 20 21  2  0  0  0
 20102  1  0  0  0
 21 23  1  0  0  0
 22 28  1  0  0  0
 22 32  2  0  0  0
 26 27  1  0  0  0
 28103  1  0  0  0
 28104  1  0  0  0
 29105  1  0  0  0
 29106  1  0  0  0
 33 34  1  0  0  0
 33 66  1  0  0  0
 33 70  2  0  0  0
 34 36  1  0  0  0
 34 59  1  0  0  0
 34107  1  0  0  0
 35 44  2  0  0  0
 35 45  1  0  0  0
 35 68  1  0  0  0
 36 56  1  0  0  0
 36108  1  0  0  0
 37 39  1  0  0  0
 37 47  1  0  0  0
 37 66  1  0  0  0
 37109  1  0  0  0
 38 43  2  0  0  0
 38 46  1  0  0  0
 38 47  1  0  0  0
 39 64  1  0  0  0
 39 67  2  0  0  0
 40 52  1  0  0  0
 40 53  2  0  0  0
 40 58  1  0  0  0
 41110  1  0  0  0
 41111  1  0  0  0
 41112  1  0  0  0
 41 48  1  0  0  0
 42 43  1  0  0  0
 42 66  1  0  0  0
 42113  1  0  0  0
 42114  1  0  0  0
 43 44  1  0  0  0
 44115  1  0  0  0
 45 46  2  0  0  0
 45116  1  0  0  0
 46117  1  0  0  0
 47118  1  0  0  0
 47119  1  0  0  0
 48 56  1  0  0  0
 48 65  1  0  0  0
 48120  1  0  0  0
 49 50  1  0  0  0
 49 53  1  0  0  0
 49 64  1  0  0  0
 49121  1  0  0  0
 50 51  1  0  0  0
 50122  1  0  0  0
 50123  1  0  0  0
 51 52  1  0  0  0
 51124  1  0  0  0
 51125  1  0  0  0
 52126  1  0  0  0
 52127  1  0  0  0
 53 54  1  0  0  0
 54 55  2  0  0  0
 54128  1  0  0  0
 55 57  1  0  0  0
 55129  1  0  0  0
 56 69  2  0  0  0
 57 58  2  0  0  0
 57130  1  0  0  0
 58131  1  0  0  0
 59 60  1  0  0  0
 59 61  1  0  0  0
 59 62  1  0  0  0
 60132  1  0  0  0
 60133  1  0  0  0
 60134  1  0  0  0
 61135  1  0  0  0
 61136  1  0  0  0
 61137  1  0  0  0
 62138  1  0  0  0
 62139  1  0  0  0
 62140  1  0  0  0
 63 65  1  0  0  0
 63141  1  0  0  0
 63142  1  0  0  0
 63143  1  0  0  0
 64144  1  0  0  0
 65145  1  0  0  0
 68 82  1  0  0  0
 71 72  1  0  0  0
 71 74  2  0  0  0
 71146  1  0  0  0
 72 73  2  0  0  0
 72 80  1  0  0  0
 73 83  1  0  0  0
 73 86  1  0  0  0
 74 84  1  0  0  0
 74 86  1  0  0  0
 75 76  2  0  0  0
 75 77  1  0  0  0
 75147  1  0  0  0
 76 79  1  0  0  0
 76 82  1  0  0  0
 77 78  1  0  0  0
 77 85  2  0  0  0
 78 83  1  0  0  0
 78148  1  0  0  0
 78149  1  0  0  0
 79 81  1  0  0  0
 79 83  1  0  0  0
 79150  1  0  0  0
 80151  1  0  0  0
 80152  1  0  0  0
 80153  1  0  0  0
 81154  1  0  0  0
 81155  1  0  0  0
 81156  1  0  0  0
 82157  1  0  0  0
 82158  1  0  0  0
 84159  1  0  0  0
M  ISO  4   1 100  68 101  82 101  84 100
M  END
> <chiral flag>
0

> <version>
0

> <s_m_source_file>
/data/baiqing/PycharmProjects/Reinvent-master-3.2/result/LINK_invent/BTK/process_docking_weight1_custom_product_contain_oxygen_bond_distance_aromatic_linkinvent_7_9_3/rearranged_h_0157.sdf

> <i_m_source_file_index>
90

> <r_mmod_Potential_Energy-OPLS-2005>
253.584091186523

> <r_mmod_Stretch_Energy-OPLS-2005>
159.777191162109

> <r_mmod_Bend_Energy-OPLS-2005>
258.431121826172

> <r_mmod_Torsional_Energy-OPLS-2005>
216.838882446289

> <r_mmod_Improper_Torsional_Energy-OPLS-2005>
4.66151809692383

> <r_mmod_Van_der_Waal_Energy-OPLS-2005>
122.660186767578

> <r_mmod_Electrostatic_Energy-OPLS-2005>
-386.255340576172

> <r_mmod_Solvation_Energy-OPLS-2005>
-240.602203369141

> <b_mmod_Minimization_Converged-OPLS-2005>
0

> <r_mmod_RMS_Derivative-OPLS-2005>
1.57260119915009

$$$$
90
                    3D
 Structure written by MMmdl.
154163  0  0  1  0            999 V2000
  -30.5631  -14.8479   20.4354 C   0  0  0  0  0  0
  -30.4439  -12.5193   19.4845 C   0  0  0  0  0  0
  -29.5190  -12.5182   18.2456 C   0  0  0  0  0  0
  -28.0477  -12.3229   18.6606 C   0  0  0  0  0  0
  -27.6394  -13.2366   19.8458 C   0  0  2  0  0  0
  -28.6840  -13.2071   20.9826 C   0  0  0  0  0  0
  -25.2503  -13.8199   20.5695 C   0  0  0  0  0  0
  -24.1802  -13.0439   20.9217 C   0  0  0  0  0  0
  -24.6399  -11.6919   20.8750 C   0  0  0  0  0  0
  -23.9073  -10.4295   21.0409 C   0  0  0  0  0  0
  -24.3623   -9.4207   21.9184 C   0  0  0  0  0  0
  -23.6297   -8.2243   22.0754 C   0  0  0  0  0  0
  -22.4278   -8.0283   21.3547 C   0  0  0  0  0  0
  -21.9917   -9.0258   20.4648 C   0  0  0  0  0  0
  -22.7247  -10.2138   20.3055 C   0  0  0  0  0  0
  -21.6854   -6.0737   22.5280 C   0  0  0  0  0  0
  -21.4013   -6.5637   23.8214 C   0  0  0  0  0  0
  -21.3658   -5.6792   24.9177 C   0  0  0  0  0  0
  -21.6045   -4.3055   24.7227 C   0  0  0  0  0  0
  -21.8818   -3.8149   23.4347 C   0  0  0  0  0  0
  -21.9193   -4.6964   22.3401 C   0  0  0  0  0  0
  -22.7822  -13.5219   21.1876 C   0  0  0  0  0  0
  -22.1663   -4.2150   21.0979 F   0  0  0  0  0  0
  -21.5629   -3.4537   25.7740 F   0  0  0  0  0  0
  -29.9750  -13.5935   20.3974 N   0  0  0  0  0  0
  -26.2928  -12.9413   20.3257 N   0  0  0  0  0  0
  -25.9332  -11.6554   20.5741 N   0  0  0  0  0  0
  -22.0466  -12.8209   22.0429 N   0  0  0  0  0  0
  -25.4174  -15.1927   20.4100 N   0  0  0  0  0  0
  -31.7559  -14.9503   20.1296 O   0  0  0  0  0  0
  -21.6641   -6.8881   21.4242 O   0  0  0  0  0  0
  -22.3508  -14.5523   20.6720 O   0  0  0  0  0  0
  -24.6386  -31.8495   23.1937 C   0  0  0  0  0  0
  -25.9181  -32.4726   23.8309 C   0  0  1  0  0  0
  -27.2185  -27.1929   20.1412 C   0  0  0  0  0  0
  -25.5950  -33.8530   24.2227 N   0  0  0  0  0  0
  -23.4404  -30.4707   21.5377 C   0  0  2  0  0  0
  -24.8914  -28.9093   20.1087 C   0  0  0  0  0  0
  -22.7546  -29.4569   22.4876 C   0  0  0  0  0  0
  -18.0300  -28.1399   22.8483 C   0  0  0  0  0  0
  -24.1482  -36.7257   23.2638 C   0  0  0  0  0  0
  -25.9928  -30.7392   21.3876 C   0  0  0  0  0  0
  -26.0659  -29.3553   20.7304 C   0  0  0  0  0  0
  -27.2325  -28.5089   20.7387 C   0  0  0  0  0  0
  -26.0266  -26.8446   19.4687 C   0  0  0  0  0  0
  -24.8805  -27.6640   19.4644 C   0  0  0  0  0  0
  -23.6650  -29.8040   20.1552 C   0  0  0  0  0  0
  -25.4112  -36.3049   24.0322 C   0  0  1  0  0  0
  -20.5908  -28.3718   23.1246 C   0  0  2  0  0  0
  -20.6782  -26.9427   22.5404 C   0  0  0  0  0  0
  -19.5752  -26.6388   21.5213 C   0  0  0  0  0  0
  -18.1935  -26.7940   22.1628 C   0  0  0  0  0  0
  -19.1557  -28.8877   23.2857 C   0  0  0  0  0  0
  -18.9476  -30.1475   23.8881 C   0  0  0  0  0  0
  -17.6474  -30.6598   24.0562 C   0  0  0  0  0  0
  -25.9061  -34.9425   23.5078 C   0  0  0  0  0  0
  -16.5364  -29.9093   23.6341 C   0  0  0  0  0  0
  -16.7285  -28.6509   23.0363 C   0  0  0  0  0  0
  -26.4523  -31.6577   25.0727 C   0  0  0  0  0  0
  -25.3723  -31.3768   26.1437 C   0  0  0  0  0  0
  -27.0377  -30.2977   24.6273 C   0  0  0  0  0  0
  -27.6064  -32.4335   25.7509 C   0  0  0  0  0  0
  -27.5577  -37.1776   24.8461 C   0  0  0  0  0  0
  -21.4241  -29.3053   22.3625 N   0  0  0  0  0  0
  -26.4274  -37.3765   23.9424 N   0  0  0  0  0  0
  -24.7098  -31.0397   22.0950 N   0  0  0  0  0  0
  -23.4210  -28.8106   23.3000 O   0  0  0  0  0  0
  -28.2515  -26.2024   20.1910 O   0  0  0  0  0  0
  -26.5639  -34.8914   22.4649 O   0  0  0  0  0  0
  -23.5516  -32.1351   23.7181 O   0  0  0  0  0  0
  -31.0368  -18.1341   20.1551 C   0  0  0  0  0  0
  -30.8491  -19.5783   20.0110 C   0  0  0  0  0  0
  -29.5802  -20.1143   20.2301 C   0  0  0  0  0  0
  -29.9168  -17.3847   20.4677 C   0  0  0  0  0  0
  -28.4669  -23.5578   20.4318 C   0  0  0  0  0  0
  -27.8804  -24.8391   20.5162 C   0  0  0  0  0  0
  -32.0079  -20.3745   19.6029 C   0  0  0  0  0  0
  -29.7737  -22.8405   19.9774 C   0  0  0  0  0  0
  -27.9358  -22.1497   20.8640 C   0  0  0  0  0  0
  -29.0368  -21.5340   20.0843 N   0  0  0  0  0  0
  -33.1439  -20.3139   20.3057 N   0  0  0  0  0  0
  -29.7448  -15.9759   20.6284 N   0  0  0  0  0  0
  -31.9597  -21.1333   18.5035 N   0  3  0  0  0  0
  -28.6049  -18.6379   20.6299 S   0  0  0  0  0  0
  -31.4798  -12.6680   19.1755 H   0  0  0  0  0  0
  -30.4192  -11.5517   19.9882 H   0  0  0  0  0  0
  -29.8191  -11.7338   17.5496 H   0  0  0  0  0  0
  -29.6258  -13.4613   17.7075 H   0  0  0  0  0  0
  -27.9233  -11.2771   18.9432 H   0  0  0  0  0  0
  -27.3879  -12.4879   17.8083 H   0  0  0  0  0  0
  -27.6209  -14.2499   19.4444 H   0  0  0  0  0  0
  -28.7443  -12.2147   21.4321 H   0  0  0  0  0  0
  -28.3999  -13.8894   21.7852 H   0  0  0  0  0  0
  -25.2769   -9.5682   22.4755 H   0  0  0  0  0  0
  -24.0009   -7.4632   22.7468 H   0  0  0  0  0  0
  -21.0852   -8.8776   19.8951 H   0  0  0  0  0  0
  -22.3706  -10.9675   19.6162 H   0  0  0  0  0  0
  -21.2004   -7.6145   23.9716 H   0  0  0  0  0  0
  -21.1479   -6.0522   25.9079 H   0  0  0  0  0  0
  -22.0595   -2.7613   23.2849 H   0  0  0  0  0  0
  -22.4079  -11.9871   22.4820 H   0  0  0  0  0  0
  -21.1078  -13.1230   22.2624 H   0  0  0  0  0  0
  -24.6441  -15.8407   20.5143 H   0  0  0  0  0  0
  -26.2522  -15.6320   20.0445 H   0  0  0  0  0  0
  -26.7245  -32.5360   23.1045 H   0  0  0  0  0  0
  -25.0104  -33.9661   25.0378 H   0  0  0  0  0  0
  -22.7404  -31.2950   21.3870 H   0  0  0  0  0  0
  -23.3760  -35.9570   23.3281 H   0  0  0  0  0  0
  -24.3576  -36.8907   22.2057 H   0  0  0  0  0  0
  -23.7213  -37.6440   23.6679 H   0  0  0  0  0  0
  -26.1429  -31.4957   20.6158 H   0  0  0  0  0  0
  -26.8655  -30.7894   22.0266 H   0  0  0  0  0  0
  -28.1257  -28.8376   21.2509 H   0  0  0  0  0  0
  -25.9612  -25.8895   18.9673 H   0  0  0  0  0  0
  -23.9858  -27.3199   18.9642 H   0  0  0  0  0  0
  -23.7968  -30.5802   19.4004 H   0  0  0  0  0  0
  -22.7814  -29.2424   19.8465 H   0  0  0  0  0  0
  -25.1290  -36.1881   25.0812 H   0  0  0  0  0  0
  -21.0009  -28.3310   24.1363 H   0  0  0  0  0  0
  -20.5679  -26.2332   23.3617 H   0  0  0  0  0  0
  -21.6648  -26.7441   22.1200 H   0  0  0  0  0  0
  -19.6909  -25.6294   21.1255 H   0  0  0  0  0  0
  -19.6684  -27.3186   20.6730 H   0  0  0  0  0  0
  -17.4201  -26.6692   21.4033 H   0  0  0  0  0  0
  -18.0331  -26.0090   22.9030 H   0  0  0  0  0  0
  -19.7953  -30.7296   24.2242 H   0  0  0  0  0  0
  -17.5030  -31.6277   24.5164 H   0  0  0  0  0  0
  -15.5364  -30.2987   23.7674 H   0  0  0  0  0  0
  -15.8684  -28.0816   22.7094 H   0  0  0  0  0  0
  -24.5878  -30.7140   25.7770 H   0  0  0  0  0  0
  -24.8935  -32.2953   26.4840 H   0  0  0  0  0  0
  -25.8016  -30.8954   27.0233 H   0  0  0  0  0  0
  -26.2980  -29.6712   24.1271 H   0  0  0  0  0  0
  -27.3998  -29.7265   25.4834 H   0  0  0  0  0  0
  -27.8893  -30.4225   23.9580 H   0  0  0  0  0  0
  -27.2664  -33.3659   26.2036 H   0  0  0  0  0  0
  -28.3906  -32.6864   25.0357 H   0  0  0  0  0  0
  -28.0695  -31.8489   26.5470 H   0  0  0  0  0  0
  -28.2566  -38.0101   24.7555 H   0  0  0  0  0  0
  -28.1101  -36.2636   24.6225 H   0  0  0  0  0  0
  -27.2306  -37.1355   25.8865 H   0  0  0  0  0  0
  -20.9436  -29.8780   21.6827 H   0  0  0  0  0  0
  -26.0144  -38.2826   24.1464 H   0  0  0  0  0  0
  -32.0110  -17.7003   19.9796 H   0  0  0  0  0  0
  -26.8940  -24.8517   20.9601 H   0  0  0  0  0  0
  -30.6136  -22.8771   20.6724 H   0  0  0  0  0  0
  -30.1170  -23.0472   18.9635 H   0  0  0  0  0  0
  -26.9555  -21.8472   20.4920 H   0  0  0  0  0  0
  -28.0230  -21.9002   21.9226 H   0  0  0  0  0  0
  -33.1772  -19.7602   21.1488 H   0  0  0  0  0  0
  -33.9776  -20.8235   20.0622 H   0  0  0  0  0  0
  -28.8005  -15.7098   20.8642 H   0  0  0  0  0  0
  -31.1128  -21.1341   17.9546 H   0  0  0  0  0  0
  -32.7437  -21.6637   18.1599 H   0  0  0  0  0  0
  1 25  1  0  0  0
  1 30  2  0  0  0
  1 82  1  0  0  0
  2  3  1  0  0  0
  2 25  1  0  0  0
  2 85  1  0  0  0
  2 86  1  0  0  0
  3  4  1  0  0  0
  3 87  1  0  0  0
  3 88  1  0  0  0
  4  5  1  0  0  0
  4 89  1  0  0  0
  4 90  1  0  0  0
  5  6  1  0  0  0
  5 26  1  0  0  0
  5 91  1  0  0  0
  6 25  1  0  0  0
  6 92  1  0  0  0
  6 93  1  0  0  0
  7  8  2  0  0  0
  7 26  1  0  0  0
  7 29  1  0  0  0
  8  9  1  0  0  0
  8 22  1  0  0  0
  9 10  1  0  0  0
  9 27  2  0  0  0
 10 11  2  0  0  0
 10 15  1  0  0  0
 11 12  1  0  0  0
 11 94  1  0  0  0
 12 13  2  0  0  0
 12 95  1  0  0  0
 13 14  1  0  0  0
 13 31  1  0  0  0
 14 15  2  0  0  0
 14 96  1  0  0  0
 15 97  1  0  0  0
 16 17  2  0  0  0
 16 21  1  0  0  0
 16 31  1  0  0  0
 17 18  1  0  0  0
 17 98  1  0  0  0
 18 19  2  0  0  0
 18 99  1  0  0  0
 19 20  1  0  0  0
 19 24  1  0  0  0
 20 21  2  0  0  0
 20100  1  0  0  0
 21 23  1  0  0  0
 22 28  1  0  0  0
 22 32  2  0  0  0
 26 27  1  0  0  0
 28101  1  0  0  0
 28102  1  0  0  0
 29103  1  0  0  0
 29104  1  0  0  0
 33 34  1  0  0  0
 33 66  1  0  0  0
 33 70  2  0  0  0
 34 36  1  0  0  0
 34 59  1  0  0  0
 34105  1  0  0  0
 35 44  2  0  0  0
 35 45  1  0  0  0
 35 68  1  0  0  0
 36 56  1  0  0  0
 36106  1  0  0  0
 37 39  1  0  0  0
 37 47  1  0  0  0
 37 66  1  0  0  0
 37107  1  0  0  0
 38 43  2  0  0  0
 38 46  1  0  0  0
 38 47  1  0  0  0
 39 64  1  0  0  0
 39 67  2  0  0  0
 40 52  1  0  0  0
 40 53  2  0  0  0
 40 58  1  0  0  0
 41108  1  0  0  0
 41109  1  0  0  0
 41110  1  0  0  0
 41 48  1  0  0  0
 42 43  1  0  0  0
 42 66  1  0  0  0
 42111  1  0  0  0
 42112  1  0  0  0
 43 44  1  0  0  0
 44113  1  0  0  0
 45 46  2  0  0  0
 45114  1  0  0  0
 46115  1  0  0  0
 47116  1  0  0  0
 47117  1  0  0  0
 48 56  1  0  0  0
 48 65  1  0  0  0
 48118  1  0  0  0
 49 50  1  0  0  0
 49 53  1  0  0  0
 49 64  1  0  0  0
 49119  1  0  0  0
 50 51  1  0  0  0
 50120  1  0  0  0
 50121  1  0  0  0
 51 52  1  0  0  0
 51122  1  0  0  0
 51123  1  0  0  0
 52124  1  0  0  0
 52125  1  0  0  0
 53 54  1  0  0  0
 54 55  2  0  0  0
 54126  1  0  0  0
 55 57  1  0  0  0
 55127  1  0  0  0
 56 69  2  0  0  0
 57 58  2  0  0  0
 57128  1  0  0  0
 58129  1  0  0  0
 59 60  1  0  0  0
 59 61  1  0  0  0
 59 62  1  0  0  0
 60130  1  0  0  0
 60131  1  0  0  0
 60132  1  0  0  0
 61133  1  0  0  0
 61134  1  0  0  0
 61135  1  0  0  0
 62136  1  0  0  0
 62137  1  0  0  0
 62138  1  0  0  0
 63 65  1  0  0  0
 63139  1  0  0  0
 63140  1  0  0  0
 63141  1  0  0  0
 64142  1  0  0  0
 65143  1  0  0  0
 68 76  1  0  0  0
 71 72  1  0  0  0
 71 74  2  0  0  0
 71144  1  0  0  0
 72 73  2  0  0  0
 72 77  1  0  0  0
 73 80  1  0  0  0
 73 84  1  0  0  0
 74 82  1  0  0  0
 74 84  1  0  0  0
 75 76  2  0  0  0
 75 78  1  0  0  0
 75 79  1  0  0  0
 76145  1  0  0  0
 77 81  1  0  0  0
 77 83  2  0  0  0
 78 80  1  0  0  0
 78146  1  0  0  0
 78147  1  0  0  0
 79 80  1  0  0  0
 79148  1  0  0  0
 79149  1  0  0  0
 81150  1  0  0  0
 81151  1  0  0  0
 82152  1  0  0  0
 83153  1  0  0  0
 83154  1  0  0  0
M  CHG  1  83   1
M  ISO  4   1 100  68 101  76 101  82 100
M  END
> <chiral flag>
0

> <version>
0

> <s_m_source_file>
/data/baiqing/PycharmProjects/Reinvent-master-3.2/result/LINK_invent/BTK/process_docking_weight1_custom_product_contain_oxygen_bond_distance_aromatic_linkinvent_7_9_3/rearranged_h_0157.sdf

> <i_m_source_file_index>
91

> <r_mmod_Potential_Energy-OPLS-2005>
175.77799987793

> <r_mmod_Stretch_Energy-OPLS-2005>
153.677719116211

> <r_mmod_Bend_Energy-OPLS-2005>
281.310729980469

> <r_mmod_Torsional_Energy-OPLS-2005>
238.572860717773

> <r_mmod_Improper_Torsional_Energy-OPLS-2005>
9.19429492950439

> <r_mmod_Van_der_Waal_Energy-OPLS-2005>
113.243721008301

> <r_mmod_Electrostatic_Energy-OPLS-2005>
-270.384460449219

> <r_mmod_Solvation_Energy-OPLS-2005>
-490.608276367188

> <b_mmod_Minimization_Converged-OPLS-2005>
0

> <r_mmod_RMS_Derivative-OPLS-2005>
0.711633205413818

$$$$
91
                    3D
 Structure written by MMmdl.
158167  0  0  1  0            999 V2000
  -30.7116  -14.4970   20.5701 C   0  0  0  0  0  0
  -30.4211  -12.3229   19.4305 C   0  0  0  0  0  0
  -29.4959  -12.5100   18.2101 C   0  0  0  0  0  0
  -28.0160  -12.3708   18.6195 C   0  0  0  0  0  0
  -27.6606  -13.2105   19.8763 C   0  0  2  0  0  0
  -28.7039  -12.9908   20.9934 C   0  0  0  0  0  0
  -25.2590  -13.8169   20.5699 C   0  0  0  0  0  0
  -24.1838  -13.0441   20.9174 C   0  0  0  0  0  0
  -24.6395  -11.6909   20.8730 C   0  0  0  0  0  0
  -23.9061  -10.4294   21.0399 C   0  0  0  0  0  0
  -24.3614   -9.4212   21.9179 C   0  0  0  0  0  0
  -23.6290   -8.2245   22.0751 C   0  0  0  0  0  0
  -22.4271   -8.0282   21.3544 C   0  0  0  0  0  0
  -21.9907   -9.0254   20.4645 C   0  0  0  0  0  0
  -22.7233  -10.2134   20.3052 C   0  0  0  0  0  0
  -21.6853   -6.0734   22.5279 C   0  0  0  0  0  0
  -21.4012   -6.5640   23.8212 C   0  0  0  0  0  0
  -21.3661   -5.6792   24.9172 C   0  0  0  0  0  0
  -21.6045   -4.3054   24.7224 C   0  0  0  0  0  0
  -21.8819   -3.8144   23.4346 C   0  0  0  0  0  0
  -21.9194   -4.6962   22.3403 C   0  0  0  0  0  0
  -22.7862  -13.5241   21.1839 C   0  0  0  0  0  0
  -22.1662   -4.2148   21.0981 F   0  0  0  0  0  0
  -21.5632   -3.4540   25.7737 F   0  0  0  0  0  0
  -30.0265  -13.3216   20.4413 N   0  0  0  0  0  0
  -26.3024  -12.9342   20.3383 N   0  0  0  0  0  0
  -25.9324  -11.6498   20.5765 N   0  0  0  0  0  0
  -22.0506  -12.8233   22.0395 N   0  0  0  0  0  0
  -25.4335  -15.1885   20.4126 N   0  0  0  0  0  0
  -31.8469  -14.6280   20.0996 O   0  0  0  0  0  0
  -21.6641   -6.8876   21.4239 O   0  0  0  0  0  0
  -22.3549  -14.5554   20.6696 O   0  0  0  0  0  0
  -24.6181  -31.8676   23.2113 C   0  0  0  0  0  0
  -25.9069  -32.4821   23.8407 C   0  0  1  0  0  0
  -27.2234  -27.4047   20.0933 C   0  0  0  0  0  0
  -25.5915  -33.8620   24.2338 N   0  0  0  0  0  0
  -23.4060  -30.4948   21.5532 C   0  0  2  0  0  0
  -24.8491  -28.9652   20.1122 C   0  0  0  0  0  0
  -22.7425  -29.4667   22.4985 C   0  0  0  0  0  0
  -18.0275  -28.1381   22.8495 C   0  0  0  0  0  0
  -24.1486  -36.7312   23.2635 C   0  0  0  0  0  0
  -25.9402  -30.8237   21.3708 C   0  0  0  0  0  0
  -26.0141  -29.4589   20.7122 C   0  0  0  0  0  0
  -27.2037  -28.6872   20.6995 C   0  0  0  0  0  0
  -26.0348  -26.9465   19.4724 C   0  0  0  0  0  0
  -24.8563  -27.7098   19.4884 C   0  0  0  0  0  0
  -23.6136  -29.8345   20.1656 C   0  0  0  0  0  0
  -25.4107  -36.3113   24.0340 C   0  0  1  0  0  0
  -20.5869  -28.3674   23.1306 C   0  0  2  0  0  0
  -20.6771  -26.9408   22.5412 C   0  0  0  0  0  0
  -19.5744  -26.6389   21.5215 C   0  0  0  0  0  0
  -18.1923  -26.7928   22.1627 C   0  0  0  0  0  0
  -19.1525  -28.8843   23.2901 C   0  0  0  0  0  0
  -18.9451  -30.1447   23.8915 C   0  0  0  0  0  0
  -17.6452  -30.6585   24.0563 C   0  0  0  0  0  0
  -25.9036  -34.9476   23.5134 C   0  0  0  0  0  0
  -16.5343  -29.9084   23.6328 C   0  0  0  0  0  0
  -16.7263  -28.6500   23.0354 C   0  0  0  0  0  0
  -26.4483  -31.6600   25.0741 C   0  0  0  0  0  0
  -25.3742  -31.3708   26.1481 C   0  0  0  0  0  0
  -27.0310  -30.3036   24.6138 C   0  0  0  0  0  0
  -27.6065  -32.4314   25.7499 C   0  0  0  0  0  0
  -27.5585  -37.1808   24.8461 C   0  0  0  0  0  0
  -21.4151  -29.3045   22.3715 N   0  0  0  0  0  0
  -26.4294  -37.3798   23.9412 N   0  0  0  0  0  0
  -24.6734  -31.0758   22.1030 N   0  0  0  0  0  0
  -23.4186  -28.8201   23.3029 O   0  0  0  0  0  0
  -28.3721  -26.6238   20.1322 O   0  0  0  0  0  0
  -26.5593  -34.8925   22.4693 O   0  0  0  0  0  0
  -23.5369  -32.1441   23.7495 O   0  0  0  0  0  0
  -29.4495  -20.5686   20.7152 C   0  0  0  0  0  0
  -31.6358  -19.6034   21.1785 C   0  0  0  0  0  0
  -31.4134  -22.0074   20.8050 C   0  0  0  0  0  0
  -30.2482  -19.4247   20.9927 C   0  0  0  0  0  0
  -30.0153  -21.8725   20.6263 C   0  0  0  0  0  0
  -32.2133  -20.8822   21.0811 C   0  0  0  0  0  0
  -29.3662  -24.3240   20.3681 C   0  0  0  0  0  0
  -29.7380  -17.3953   22.5091 C   0  0  0  0  0  0
  -29.5173  -15.8951   22.2584 C   0  0  0  0  0  0
  -30.2426  -16.9125   20.2346 C   0  0  0  0  0  0
  -29.6304  -18.0182   21.1221 C   0  0  2  0  0  0
  -28.1892  -25.2041   19.8916 C   0  0  0  0  0  0
  -29.9920  -15.6099   20.8971 N   0  0  0  0  0  0
  -29.1522  -22.9838   20.3260 N   0  0  0  0  0  0
  -30.4080  -24.8508   20.7697 O   0  0  0  0  0  0
  -33.5482  -21.0311   21.2535 F   0  0  0  0  0  0
  -31.4660  -12.4139   19.1282 H   0  0  0  0  0  0
  -30.3216  -11.3144   19.8355 H   0  0  0  0  0  0
  -29.7394  -11.7815   17.4358 H   0  0  0  0  0  0
  -29.6635  -13.4934   17.7677 H   0  0  0  0  0  0
  -27.8253  -11.3150   18.8150 H   0  0  0  0  0  0
  -27.3673  -12.6455   17.7872 H   0  0  0  0  0  0
  -27.7033  -14.2595   19.5820 H   0  0  0  0  0  0
  -28.6923  -11.9491   21.3171 H   0  0  0  0  0  0
  -28.4576  -13.5593   21.8852 H   0  0  0  0  0  0
  -25.2759   -9.5692   22.4754 H   0  0  0  0  0  0
  -24.0002   -7.4640   22.7473 H   0  0  0  0  0  0
  -21.0837   -8.8769   19.8953 H   0  0  0  0  0  0
  -22.3688  -10.9672   19.6162 H   0  0  0  0  0  0
  -21.1998   -7.6148   23.9716 H   0  0  0  0  0  0
  -21.1486   -6.0520   25.9077 H   0  0  0  0  0  0
  -22.0597   -2.7606   23.2846 H   0  0  0  0  0  0
  -22.4115  -11.9886   22.4773 H   0  0  0  0  0  0
  -21.1127  -13.1267   22.2609 H   0  0  0  0  0  0
  -24.6738  -15.8503   20.5276 H   0  0  0  0  0  0
  -26.2988  -15.6250   20.1193 H   0  0  0  0  0  0
  -26.7139  -32.5516   23.1168 H   0  0  0  0  0  0
  -25.0078  -33.9780   25.0492 H   0  0  0  0  0  0
  -22.6962  -31.3133   21.4175 H   0  0  0  0  0  0
  -23.3752  -35.9640   23.3298 H   0  0  0  0  0  0
  -24.3585  -36.8923   22.2049 H   0  0  0  0  0  0
  -23.7228  -37.6514   23.6645 H   0  0  0  0  0  0
  -26.0600  -31.5920   20.6057 H   0  0  0  0  0  0
  -26.8255  -30.8716   21.9930 H   0  0  0  0  0  0
  -28.0993  -29.0621   21.1754 H   0  0  0  0  0  0
  -25.9845  -25.9940   18.9665 H   0  0  0  0  0  0
  -23.9628  -27.3275   19.0141 H   0  0  0  0  0  0
  -23.7231  -30.6127   19.4096 H   0  0  0  0  0  0
  -22.7364  -29.2574   19.8682 H   0  0  0  0  0  0
  -25.1287  -36.1981   25.0835 H   0  0  0  0  0  0
  -20.9959  -28.3239   24.1428 H   0  0  0  0  0  0
  -20.5679  -26.2283   23.3603 H   0  0  0  0  0  0
  -21.6638  -26.7455   22.1193 H   0  0  0  0  0  0
  -19.6901  -25.6303   21.1237 H   0  0  0  0  0  0
  -19.6679  -27.3206   20.6751 H   0  0  0  0  0  0
  -17.4193  -26.6679   21.4027 H   0  0  0  0  0  0
  -18.0319  -26.0066   22.9017 H   0  0  0  0  0  0
  -19.7925  -30.7261   24.2295 H   0  0  0  0  0  0
  -17.5004  -31.6270   24.5154 H   0  0  0  0  0  0
  -15.5345  -30.2991   23.7645 H   0  0  0  0  0  0
  -15.8662  -28.0820   22.7071 H   0  0  0  0  0  0
  -24.5911  -30.7068   25.7806 H   0  0  0  0  0  0
  -24.8941  -32.2864   26.4947 H   0  0  0  0  0  0
  -25.8085  -30.8854   27.0229 H   0  0  0  0  0  0
  -26.2859  -29.6800   24.1182 H   0  0  0  0  0  0
  -27.4052  -29.7276   25.4613 H   0  0  0  0  0  0
  -27.8714  -30.4343   23.9315 H   0  0  0  0  0  0
  -27.2696  -33.3606   26.2109 H   0  0  0  0  0  0
  -28.3858  -32.6884   25.0312 H   0  0  0  0  0  0
  -28.0751  -31.8414   26.5386 H   0  0  0  0  0  0
  -28.2599  -38.0111   24.7532 H   0  0  0  0  0  0
  -28.1089  -36.2648   24.6264 H   0  0  0  0  0  0
  -27.2307  -37.1425   25.8864 H   0  0  0  0  0  0
  -20.9310  -29.8768   21.6941 H   0  0  0  0  0  0
  -26.0186  -38.2876   24.1423 H   0  0  0  0  0  0
  -28.3843  -20.4420   20.5768 H   0  0  0  0  0  0
  -32.2719  -18.7590   21.4006 H   0  0  0  0  0  0
  -31.9066  -22.9633   20.7277 H   0  0  0  0  0  0
  -30.7391  -17.5437   22.9168 H   0  0  0  0  0  0
  -29.0284  -17.8210   23.2202 H   0  0  0  0  0  0
  -28.4484  -15.6873   22.3110 H   0  0  0  0  0  0
  -30.0169  -15.2848   23.0132 H   0  0  0  0  0  0
  -31.3172  -17.0675   20.1321 H   0  0  0  0  0  0
  -29.8219  -16.9313   19.2287 H   0  0  0  0  0  0
  -28.5696  -18.0898   20.8737 H   0  0  0  0  0  0
  -27.3032  -24.8412   20.4157 H   0  0  0  0  0  0
  -28.0468  -25.0293   18.8243 H   0  0  0  0  0  0
  -28.2167  -22.7320   20.0360 H   0  0  0  0  0  0
  1 25  1  0  0  0
  1 30  2  0  0  0
  1 83  1  0  0  0
  2  3  1  0  0  0
  2 25  1  0  0  0
  2 87  1  0  0  0
  2 88  1  0  0  0
  3  4  1  0  0  0
  3 89  1  0  0  0
  3 90  1  0  0  0
  4  5  1  0  0  0
  4 91  1  0  0  0
  4 92  1  0  0  0
  5  6  1  0  0  0
  5 26  1  0  0  0
  5 93  1  0  0  0
  6 25  1  0  0  0
  6 94  1  0  0  0
  6 95  1  0  0  0
  7  8  2  0  0  0
  7 26  1  0  0  0
  7 29  1  0  0  0
  8  9  1  0  0  0
  8 22  1  0  0  0
  9 10  1  0  0  0
  9 27  2  0  0  0
 10 11  2  0  0  0
 10 15  1  0  0  0
 11 12  1  0  0  0
 11 96  1  0  0  0
 12 13  2  0  0  0
 12 97  1  0  0  0
 13 14  1  0  0  0
 13 31  1  0  0  0
 14 15  2  0  0  0
 14 98  1  0  0  0
 15 99  1  0  0  0
 16 17  2  0  0  0
 16 21  1  0  0  0
 16 31  1  0  0  0
 17 18  1  0  0  0
 17100  1  0  0  0
 18 19  2  0  0  0
 18101  1  0  0  0
 19 20  1  0  0  0
 19 24  1  0  0  0
 20 21  2  0  0  0
 20102  1  0  0  0
 21 23  1  0  0  0
 22 28  1  0  0  0
 22 32  2  0  0  0
 26 27  1  0  0  0
 28103  1  0  0  0
 28104  1  0  0  0
 29105  1  0  0  0
 29106  1  0  0  0
 33 34  1  0  0  0
 33 66  1  0  0  0
 33 70  2  0  0  0
 34 36  1  0  0  0
 34 59  1  0  0  0
 34107  1  0  0  0
 35 44  2  0  0  0
 35 45  1  0  0  0
 35 68  1  0  0  0
 36 56  1  0  0  0
 36108  1  0  0  0
 37 39  1  0  0  0
 37 47  1  0  0  0
 37 66  1  0  0  0
 37109  1  0  0  0
 38 43  2  0  0  0
 38 46  1  0  0  0
 38 47  1  0  0  0
 39 64  1  0  0  0
 39 67  2  0  0  0
 40 52  1  0  0  0
 40 53  2  0  0  0
 40 58  1  0  0  0
 41110  1  0  0  0
 41111  1  0  0  0
 41112  1  0  0  0
 41 48  1  0  0  0
 42 43  1  0  0  0
 42 66  1  0  0  0
 42113  1  0  0  0
 42114  1  0  0  0
 43 44  1  0  0  0
 44115  1  0  0  0
 45 46  2  0  0  0
 45116  1  0  0  0
 46117  1  0  0  0
 47118  1  0  0  0
 47119  1  0  0  0
 48 56  1  0  0  0
 48 65  1  0  0  0
 48120  1  0  0  0
 49 50  1  0  0  0
 49 53  1  0  0  0
 49 64  1  0  0  0
 49121  1  0  0  0
 50 51  1  0  0  0
 50122  1  0  0  0
 50123  1  0  0  0
 51 52  1  0  0  0
 51124  1  0  0  0
 51125  1  0  0  0
 52126  1  0  0  0
 52127  1  0  0  0
 53 54  1  0  0  0
 54 55  2  0  0  0
 54128  1  0  0  0
 55 57  1  0  0  0
 55129  1  0  0  0
 56 69  2  0  0  0
 57 58  2  0  0  0
 57130  1  0  0  0
 58131  1  0  0  0
 59 60  1  0  0  0
 59 61  1  0  0  0
 59 62  1  0  0  0
 60132  1  0  0  0
 60133  1  0  0  0
 60134  1  0  0  0
 61135  1  0  0  0
 61136  1  0  0  0
 61137  1  0  0  0
 62138  1  0  0  0
 62139  1  0  0  0
 62140  1  0  0  0
 63 65  1  0  0  0
 63141  1  0  0  0
 63142  1  0  0  0
 63143  1  0  0  0
 64144  1  0  0  0
 65145  1  0  0  0
 68 82  1  0  0  0
 71 74  2  0  0  0
 71 75  1  0  0  0
 71146  1  0  0  0
 72 74  1  0  0  0
 72 76  2  0  0  0
 72147  1  0  0  0
 73 75  2  0  0  0
 73 76  1  0  0  0
 73148  1  0  0  0
 74 81  1  0  0  0
 75 84  1  0  0  0
 76 86  1  0  0  0
 77 82  1  0  0  0
 77 84  1  0  0  0
 77 85  2  0  0  0
 78 79  1  0  0  0
 78 81  1  0  0  0
 78149  1  0  0  0
 78150  1  0  0  0
 79 83  1  0  0  0
 79151  1  0  0  0
 79152  1  0  0  0
 80 81  1  0  0  0
 80 83  1  0  0  0
 80153  1  0  0  0
 80154  1  0  0  0
 81155  1  0  0  0
 82156  1  0  0  0
 82157  1  0  0  0
 84158  1  0  0  0
M  ISO  4   1 100  68 101  82 101  83 100
M  END
> <chiral flag>
0

> <version>
0

> <s_m_source_file>
/data/baiqing/PycharmProjects/Reinvent-master-3.2/result/LINK_invent/BTK/process_docking_weight1_custom_product_contain_oxygen_bond_distance_aromatic_linkinvent_7_9_3/rearranged_h_0157.sdf

> <i_m_source_file_index>
92

> <r_mmod_Potential_Energy-OPLS-2005>
164.109191894531

> <r_mmod_Stretch_Energy-OPLS-2005>
46.8210678100586

> <r_mmod_Bend_Energy-OPLS-2005>
131.939178466797

> <r_mmod_Torsional_Energy-OPLS-2005>
318.380035400391

> <r_mmod_Improper_Torsional_Energy-OPLS-2005>
12.0706071853638

> <r_mmod_Van_der_Waal_Energy-OPLS-2005>
158.325180053711

> <r_mmod_Electrostatic_Energy-OPLS-2005>
-289.959625244141

> <r_mmod_Solvation_Energy-OPLS-2005>
-231.411529541016

> <b_mmod_Minimization_Converged-OPLS-2005>
0

> <r_mmod_RMS_Derivative-OPLS-2005>
0.613847374916077

$$$$
92
                    3D
 Structure written by MMmdl.
157166  0  0  1  0            999 V2000
  -30.6001  -14.7749   20.5054 C   0  0  0  0  0  0
  -30.4338  -12.4855   19.4681 C   0  0  0  0  0  0
  -29.5063  -12.5099   18.2339 C   0  0  0  0  0  0
  -28.0356  -12.3233   18.6536 C   0  0  0  0  0  0
  -27.6382  -13.2294   19.8489 C   0  0  2  0  0  0
  -28.6827  -13.1719   20.9824 C   0  0  0  0  0  0
  -25.2506  -13.8188   20.5698 C   0  0  0  0  0  0
  -24.1786  -13.0430   20.9209 C   0  0  0  0  0  0
  -24.6382  -11.6917   20.8760 C   0  0  0  0  0  0
  -23.9062  -10.4295   21.0409 C   0  0  0  0  0  0
  -24.3614   -9.4207   21.9183 C   0  0  0  0  0  0
  -23.6289   -8.2242   22.0758 C   0  0  0  0  0  0
  -22.4278   -8.0285   21.3544 C   0  0  0  0  0  0
  -21.9916   -9.0256   20.4645 C   0  0  0  0  0  0
  -22.7242  -10.2135   20.3052 C   0  0  0  0  0  0
  -21.6855   -6.0743   22.5279 C   0  0  0  0  0  0
  -21.4012   -6.5643   23.8212 C   0  0  0  0  0  0
  -21.3659   -5.6794   24.9172 C   0  0  0  0  0  0
  -21.6035   -4.3057   24.7219 C   0  0  0  0  0  0
  -21.8821   -3.8155   23.4340 C   0  0  0  0  0  0
  -21.9193   -4.6973   22.3399 C   0  0  0  0  0  0
  -22.7814  -13.5222   21.1875 C   0  0  0  0  0  0
  -22.1662   -4.2154   21.0976 F   0  0  0  0  0  0
  -21.5630   -3.4546   25.7731 F   0  0  0  0  0  0
  -29.9744  -13.5489   20.3942 N   0  0  0  0  0  0
  -26.2919  -12.9386   20.3282 N   0  0  0  0  0  0
  -25.9303  -11.6535   20.5754 N   0  0  0  0  0  0
  -22.0463  -12.8200   22.0428 N   0  0  0  0  0  0
  -25.4198  -15.1913   20.4129 N   0  0  0  0  0  0
  -31.7903  -14.8659   20.1885 O   0  0  0  0  0  0
  -21.6647   -6.8881   21.4239 O   0  0  0  0  0  0
  -22.3505  -14.5534   20.6740 O   0  0  0  0  0  0
  -24.6328  -31.8521   23.1960 C   0  0  0  0  0  0
  -25.9140  -32.4732   23.8321 C   0  0  1  0  0  0
  -27.2279  -27.2344   20.1719 C   0  0  0  0  0  0
  -25.5942  -33.8534   24.2240 N   0  0  0  0  0  0
  -23.4330  -30.4729   21.5366 C   0  0  2  0  0  0
  -24.8882  -28.9117   20.1140 C   0  0  0  0  0  0
  -22.7508  -29.4578   22.4871 C   0  0  0  0  0  0
  -18.0310  -28.1366   22.8478 C   0  0  0  0  0  0
  -24.1494  -36.7258   23.2646 C   0  0  0  0  0  0
  -25.9804  -30.7619   21.3796 C   0  0  0  0  0  0
  -26.0586  -29.3801   20.7277 C   0  0  0  0  0  0
  -27.2335  -28.5569   20.7381 C   0  0  0  0  0  0
  -26.0399  -26.8386   19.5233 C   0  0  0  0  0  0
  -24.8860  -27.6499   19.4977 C   0  0  0  0  0  0
  -23.6581  -29.7998   20.1553 C   0  0  0  0  0  0
  -25.4117  -36.3046   24.0335 C   0  0  1  0  0  0
  -20.5913  -28.3682   23.1252 C   0  0  2  0  0  0
  -20.6777  -26.9388   22.5410 C   0  0  0  0  0  0
  -19.5755  -26.6363   21.5212 C   0  0  0  0  0  0
  -18.1936  -26.7912   22.1611 C   0  0  0  0  0  0
  -19.1565  -28.8844   23.2865 C   0  0  0  0  0  0
  -18.9483  -30.1436   23.8890 C   0  0  0  0  0  0
  -17.6488  -30.6570   24.0546 C   0  0  0  0  0  0
  -25.9057  -34.9425   23.5097 C   0  0  0  0  0  0
  -16.5379  -29.9055   23.6338 C   0  0  0  0  0  0
  -16.7301  -28.6471   23.0369 C   0  0  0  0  0  0
  -26.4508  -31.6563   25.0719 C   0  0  0  0  0  0
  -25.3706  -31.3729   26.1424 C   0  0  0  0  0  0
  -27.0358  -30.2978   24.6217 C   0  0  0  0  0  0
  -27.6071  -32.4306   25.7485 C   0  0  0  0  0  0
  -27.5574  -37.1772   24.8468 C   0  0  0  0  0  0
  -21.4212  -29.3022   22.3610 N   0  0  0  0  0  0
  -26.4285  -37.3745   23.9418 N   0  0  0  0  0  0
  -24.7002  -31.0470   22.0936 N   0  0  0  0  0  0
  -23.4202  -28.8133   23.2984 O   0  0  0  0  0  0
  -28.3036  -26.3095   20.2124 O   0  0  0  0  0  0
  -26.5624  -34.8894   22.4653 O   0  0  0  0  0  0
  -23.5476  -32.1358   23.7244 O   0  0  0  0  0  0
  -29.1437  -19.8920   21.3853 C   0  0  0  0  0  0
  -29.7865  -18.6696   20.8227 C   0  0  0  0  0  0
  -29.1948  -21.0802   20.6273 C   0  0  0  0  0  0
  -28.8237  -23.6258   20.2595 C   0  0  0  0  0  0
  -31.5589  -16.3241   23.3232 C   0  0  0  0  0  0
  -30.0999  -16.1748   23.7614 C   0  0  0  0  0  0
  -31.5344  -17.2714   22.1088 C   0  0  0  0  0  0
  -29.3133  -17.1313   22.8564 C   0  0  0  0  0  0
  -30.0975  -17.2479   21.5268 C   0  0  0  0  0  0
  -28.0578  -24.9394   20.8238 C   0  0  0  0  0  0
  -30.2827  -18.9268   19.6263 N   0  0  0  0  0  0
  -28.7007  -22.3832   20.8961 N   0  0  0  0  0  0
  -29.8277  -15.8932   20.8260 N   0  0  0  0  0  0
  -29.5206  -23.7528   19.2495 O   0  0  0  0  0  0
  -30.0446  -20.5660   19.1917 S   0  0  0  0  0  0
  -31.4709  -12.6244   19.1606 H   0  0  0  0  0  0
  -30.3962  -11.5102   19.9565 H   0  0  0  0  0  0
  -29.7917  -11.7262   17.5306 H   0  0  0  0  0  0
  -29.6213  -13.4571   17.7046 H   0  0  0  0  0  0
  -27.9065  -11.2765   18.9313 H   0  0  0  0  0  0
  -27.3705  -12.4958   17.8062 H   0  0  0  0  0  0
  -27.6306  -14.2484   19.4616 H   0  0  0  0  0  0
  -28.7316  -12.1713   21.4144 H   0  0  0  0  0  0
  -28.4056  -13.8409   21.7989 H   0  0  0  0  0  0
  -25.2753   -9.5699   22.4773 H   0  0  0  0  0  0
  -24.0003   -7.4642   22.7488 H   0  0  0  0  0  0
  -21.0846   -8.8762   19.8954 H   0  0  0  0  0  0
  -22.3682  -10.9674   19.6173 H   0  0  0  0  0  0
  -21.2006   -7.6153   23.9714 H   0  0  0  0  0  0
  -21.1477   -6.0528   25.9069 H   0  0  0  0  0  0
  -22.0602   -2.7619   23.2837 H   0  0  0  0  0  0
  -22.4081  -11.9833   22.4761 H   0  0  0  0  0  0
  -21.1091  -13.1236   22.2664 H   0  0  0  0  0  0
  -24.6467  -15.8404   20.5153 H   0  0  0  0  0  0
  -26.2545  -15.6305   20.0482 H   0  0  0  0  0  0
  -26.7204  -32.5384   23.1057 H   0  0  0  0  0  0
  -25.0113  -33.9677   25.0404 H   0  0  0  0  0  0
  -22.7316  -31.2954   21.3790 H   0  0  0  0  0  0
  -23.3766  -35.9580   23.3315 H   0  0  0  0  0  0
  -24.3590  -36.8867   22.2056 H   0  0  0  0  0  0
  -23.7238  -37.6456   23.6662 H   0  0  0  0  0  0
  -26.1221  -31.5219   20.6100 H   0  0  0  0  0  0
  -26.8558  -30.8131   22.0155 H   0  0  0  0  0  0
  -28.1264  -28.9131   21.2341 H   0  0  0  0  0  0
  -25.9978  -25.8672   19.0503 H   0  0  0  0  0  0
  -23.9900  -27.2849   19.0144 H   0  0  0  0  0  0
  -23.7815  -30.5719   19.3955 H   0  0  0  0  0  0
  -22.7800  -29.2280   19.8498 H   0  0  0  0  0  0
  -25.1289  -36.1894   25.0825 H   0  0  0  0  0  0
  -21.0031  -28.3275   24.1365 H   0  0  0  0  0  0
  -20.5653  -26.2293   23.3626 H   0  0  0  0  0  0
  -21.6645  -26.7365   22.1211 H   0  0  0  0  0  0
  -19.6919  -25.6282   21.1228 H   0  0  0  0  0  0
  -19.6718  -27.3174   20.6748 H   0  0  0  0  0  0
  -17.4214  -26.6723   21.3997 H   0  0  0  0  0  0
  -18.0294  -26.0035   22.8981 H   0  0  0  0  0  0
  -19.7966  -30.7237   24.2263 H   0  0  0  0  0  0
  -17.5043  -31.6250   24.5134 H   0  0  0  0  0  0
  -15.5374  -30.2947   23.7646 H   0  0  0  0  0  0
  -15.8705  -28.0757   22.7110 H   0  0  0  0  0  0
  -24.5981  -30.6955   25.7776 H   0  0  0  0  0  0
  -24.8777  -32.2880   26.4706 H   0  0  0  0  0  0
  -25.8014  -30.9054   27.0287 H   0  0  0  0  0  0
  -26.2948  -29.6716   24.1240 H   0  0  0  0  0  0
  -27.4036  -29.7255   25.4740 H   0  0  0  0  0  0
  -27.8817  -30.4260   23.9465 H   0  0  0  0  0  0
  -27.2727  -33.3675   26.1951 H   0  0  0  0  0  0
  -28.3926  -32.6735   25.0318 H   0  0  0  0  0  0
  -28.0665  -31.8478   26.5478 H   0  0  0  0  0  0
  -28.2567  -38.0083   24.7499 H   0  0  0  0  0  0
  -28.1078  -36.2605   24.6301 H   0  0  0  0  0  0
  -27.2288  -37.1420   25.8867 H   0  0  0  0  0  0
  -20.9414  -29.8766   21.6818 H   0  0  0  0  0  0
  -26.0168  -38.2817   24.1432 H   0  0  0  0  0  0
  -28.6867  -19.8678   22.3634 H   0  0  0  0  0  0
  -31.9630  -15.3495   23.0461 H   0  0  0  0  0  0
  -32.1857  -16.7159   24.1251 H   0  0  0  0  0  0
  -29.9535  -16.4059   24.8178 H   0  0  0  0  0  0
  -29.7692  -15.1468   23.6085 H   0  0  0  0  0  0
  -32.3131  -17.0552   21.3777 H   0  0  0  0  0  0
  -31.7496  -18.2768   22.4752 H   0  0  0  0  0  0
  -29.2961  -18.0862   23.3805 H   0  0  0  0  0  0
  -28.2751  -16.8283   22.7200 H   0  0  0  0  0  0
  -28.3324  -25.0300   21.8759 H   0  0  0  0  0  0
  -26.9937  -24.7061   20.8317 H   0  0  0  0  0  0
  -28.1279  -22.4389   21.7281 H   0  0  0  0  0  0
  -28.8450  -15.6748   20.8255 H   0  0  0  0  0  0
  1 25  1  0  0  0
  1 30  2  0  0  0
  1 83  1  0  0  0
  2  3  1  0  0  0
  2 25  1  0  0  0
  2 86  1  0  0  0
  2 87  1  0  0  0
  3  4  1  0  0  0
  3 88  1  0  0  0
  3 89  1  0  0  0
  4  5  1  0  0  0
  4 90  1  0  0  0
  4 91  1  0  0  0
  5  6  1  0  0  0
  5 26  1  0  0  0
  5 92  1  0  0  0
  6 25  1  0  0  0
  6 93  1  0  0  0
  6 94  1  0  0  0
  7  8  2  0  0  0
  7 26  1  0  0  0
  7 29  1  0  0  0
  8  9  1  0  0  0
  8 22  1  0  0  0
  9 10  1  0  0  0
  9 27  2  0  0  0
 10 11  2  0  0  0
 10 15  1  0  0  0
 11 12  1  0  0  0
 11 95  1  0  0  0
 12 13  2  0  0  0
 12 96  1  0  0  0
 13 14  1  0  0  0
 13 31  1  0  0  0
 14 15  2  0  0  0
 14 97  1  0  0  0
 15 98  1  0  0  0
 16 17  2  0  0  0
 16 21  1  0  0  0
 16 31  1  0  0  0
 17 18  1  0  0  0
 17 99  1  0  0  0
 18 19  2  0  0  0
 18100  1  0  0  0
 19 20  1  0  0  0
 19 24  1  0  0  0
 20 21  2  0  0  0
 20101  1  0  0  0
 21 23  1  0  0  0
 22 28  1  0  0  0
 22 32  2  0  0  0
 26 27  1  0  0  0
 28102  1  0  0  0
 28103  1  0  0  0
 29104  1  0  0  0
 29105  1  0  0  0
 33 34  1  0  0  0
 33 66  1  0  0  0
 33 70  2  0  0  0
 34 36  1  0  0  0
 34 59  1  0  0  0
 34106  1  0  0  0
 35 44  2  0  0  0
 35 45  1  0  0  0
 35 68  1  0  0  0
 36 56  1  0  0  0
 36107  1  0  0  0
 37 39  1  0  0  0
 37 47  1  0  0  0
 37 66  1  0  0  0
 37108  1  0  0  0
 38 43  2  0  0  0
 38 46  1  0  0  0
 38 47  1  0  0  0
 39 64  1  0  0  0
 39 67  2  0  0  0
 40 52  1  0  0  0
 40 53  2  0  0  0
 40 58  1  0  0  0
 41109  1  0  0  0
 41110  1  0  0  0
 41111  1  0  0  0
 41 48  1  0  0  0
 42 43  1  0  0  0
 42 66  1  0  0  0
 42112  1  0  0  0
 42113  1  0  0  0
 43 44  1  0  0  0
 44114  1  0  0  0
 45 46  2  0  0  0
 45115  1  0  0  0
 46116  1  0  0  0
 47117  1  0  0  0
 47118  1  0  0  0
 48 56  1  0  0  0
 48 65  1  0  0  0
 48119  1  0  0  0
 49 50  1  0  0  0
 49 53  1  0  0  0
 49 64  1  0  0  0
 49120  1  0  0  0
 50 51  1  0  0  0
 50121  1  0  0  0
 50122  1  0  0  0
 51 52  1  0  0  0
 51123  1  0  0  0
 51124  1  0  0  0
 52125  1  0  0  0
 52126  1  0  0  0
 53 54  1  0  0  0
 54 55  2  0  0  0
 54127  1  0  0  0
 55 57  1  0  0  0
 55128  1  0  0  0
 56 69  2  0  0  0
 57 58  2  0  0  0
 57129  1  0  0  0
 58130  1  0  0  0
 59 60  1  0  0  0
 59 61  1  0  0  0
 59 62  1  0  0  0
 60131  1  0  0  0
 60132  1  0  0  0
 60133  1  0  0  0
 61134  1  0  0  0
 61135  1  0  0  0
 61136  1  0  0  0
 62137  1  0  0  0
 62138  1  0  0  0
 62139  1  0  0  0
 63 65  1  0  0  0
 63140  1  0  0  0
 63141  1  0  0  0
 63142  1  0  0  0
 64143  1  0  0  0
 65144  1  0  0  0
 68 80  1  0  0  0
 71 72  1  0  0  0
 71 73  2  0  0  0
 71145  1  0  0  0
 72 79  1  0  0  0
 72 81  2  0  0  0
 73 82  1  0  0  0
 73 85  1  0  0  0
 74 80  1  0  0  0
 74 82  1  0  0  0
 74 84  2  0  0  0
 75 76  1  0  0  0
 75 77  1  0  0  0
 75146  1  0  0  0
 75147  1  0  0  0
 76 78  1  0  0  0
 76148  1  0  0  0
 76149  1  0  0  0
 77 79  1  0  0  0
 77150  1  0  0  0
 77151  1  0  0  0
 78 79  1  0  0  0
 78152  1  0  0  0
 78153  1  0  0  0
 79 83  1  0  0  0
 80154  1  0  0  0
 80155  1  0  0  0
 81 85  1  0  0  0
 82156  1  0  0  0
 83157  1  0  0  0
M  ISO  4   1 100  68 101  80 101  83 100
M  END
> <chiral flag>
0

> <version>
0

> <s_m_source_file>
/data/baiqing/PycharmProjects/Reinvent-master-3.2/result/LINK_invent/BTK/process_docking_weight1_custom_product_contain_oxygen_bond_distance_aromatic_linkinvent_7_9_3/rearranged_h_0157.sdf

> <i_m_source_file_index>
93

> <r_mmod_Potential_Energy-OPLS-2005>
142.803283691406

> <r_mmod_Stretch_Energy-OPLS-2005>
148.802459716797

> <r_mmod_Bend_Energy-OPLS-2005>
219.283584594727

> <r_mmod_Torsional_Energy-OPLS-2005>
263.927154541016

> <r_mmod_Improper_Torsional_Energy-OPLS-2005>
4.66564989089966

> <r_mmod_Van_der_Waal_Energy-OPLS-2005>
115.082862854004

> <r_mmod_Electrostatic_Energy-OPLS-2005>
-450.509094238281

> <r_mmod_Solvation_Energy-OPLS-2005>
-260.466644287109

> <b_mmod_Minimization_Converged-OPLS-2005>
0

> <r_mmod_RMS_Derivative-OPLS-2005>
2.65925192832947

$$$$
93
                    3D
 Structure written by MMmdl.
163172  0  0  1  0            999 V2000
  -30.6030  -14.6947   20.4858 C   0  0  0  0  0  0
  -30.4355  -12.4313   19.4591 C   0  0  0  0  0  0
  -29.5072  -12.5068   18.2264 C   0  0  0  0  0  0
  -28.0317  -12.3339   18.6395 C   0  0  0  0  0  0
  -27.6425  -13.2192   19.8538 C   0  0  2  0  0  0
  -28.6864  -13.1217   20.9873 C   0  0  0  0  0  0
  -25.2515  -13.8170   20.5672 C   0  0  0  0  0  0
  -24.1802  -13.0438   20.9227 C   0  0  0  0  0  0
  -24.6376  -11.6912   20.8767 C   0  0  0  0  0  0
  -23.9036  -10.4300   21.0421 C   0  0  0  0  0  0
  -24.3601   -9.4209   21.9190 C   0  0  0  0  0  0
  -23.6294   -8.2230   22.0735 C   0  0  0  0  0  0
  -22.4276   -8.0273   21.3536 C   0  0  0  0  0  0
  -21.9910   -9.0239   20.4629 C   0  0  0  0  0  0
  -22.7224  -10.2131   20.3056 C   0  0  0  0  0  0
  -21.6839   -6.0741   22.5292 C   0  0  0  0  0  0
  -21.3999   -6.5635   23.8232 C   0  0  0  0  0  0
  -21.3663   -5.6784   24.9185 C   0  0  0  0  0  0
  -21.6060   -4.3050   24.7225 C   0  0  0  0  0  0
  -21.8818   -3.8146   23.4342 C   0  0  0  0  0  0
  -21.9187   -4.6969   22.3408 C   0  0  0  0  0  0
  -22.7841  -13.5224   21.1896 C   0  0  0  0  0  0
  -22.1655   -4.2156   21.0986 F   0  0  0  0  0  0
  -21.5647   -3.4538   25.7734 F   0  0  0  0  0  0
  -29.9886  -13.4714   20.4079 N   0  0  0  0  0  0
  -26.2927  -12.9345   20.3270 N   0  0  0  0  0  0
  -25.9297  -11.6509   20.5765 N   0  0  0  0  0  0
  -22.0466  -12.8213   22.0439 N   0  0  0  0  0  0
  -25.4203  -15.1886   20.4024 N   0  0  0  0  0  0
  -31.7941  -14.8171   20.1823 O   0  0  0  0  0  0
  -21.6632   -6.8879   21.4253 O   0  0  0  0  0  0
  -22.3543  -14.5548   20.6756 O   0  0  0  0  0  0
  -24.6271  -31.8557   23.1975 C   0  0  0  0  0  0
  -25.9113  -32.4740   23.8312 C   0  0  1  0  0  0
  -27.2311  -27.2961   20.1266 C   0  0  0  0  0  0
  -25.5930  -33.8548   24.2239 N   0  0  0  0  0  0
  -23.4193  -30.4766   21.5407 C   0  0  2  0  0  0
  -24.8604  -28.9092   20.1199 C   0  0  0  0  0  0
  -22.7455  -29.4621   22.4946 C   0  0  0  0  0  0
  -18.0279  -28.1401   22.8481 C   0  0  0  0  0  0
  -24.1493  -36.7288   23.2638 C   0  0  0  0  0  0
  -25.9571  -30.7817   21.3636 C   0  0  0  0  0  0
  -26.0271  -29.4035   20.7117 C   0  0  0  0  0  0
  -27.2098  -28.6115   20.6913 C   0  0  0  0  0  0
  -26.0293  -26.8305   19.5508 C   0  0  0  0  0  0
  -24.8634  -27.6299   19.5342 C   0  0  0  0  0  0
  -23.6318  -29.7980   20.1599 C   0  0  0  0  0  0
  -25.4116  -36.3057   24.0323 C   0  0  1  0  0  0
  -20.5872  -28.3700   23.1293 C   0  0  2  0  0  0
  -20.6772  -26.9430   22.5416 C   0  0  0  0  0  0
  -19.5751  -26.6397   21.5215 C   0  0  0  0  0  0
  -18.1928  -26.7943   22.1622 C   0  0  0  0  0  0
  -19.1528  -28.8866   23.2884 C   0  0  0  0  0  0
  -18.9453  -30.1465   23.8901 C   0  0  0  0  0  0
  -17.6454  -30.6601   24.0565 C   0  0  0  0  0  0
  -25.9058  -34.9432   23.5084 C   0  0  0  0  0  0
  -16.5344  -29.9104   23.6335 C   0  0  0  0  0  0
  -16.7266  -28.6527   23.0348 C   0  0  0  0  0  0
  -26.4504  -31.6566   25.0698 C   0  0  0  0  0  0
  -25.3738  -31.3707   26.1427 C   0  0  0  0  0  0
  -27.0344  -30.2985   24.6164 C   0  0  0  0  0  0
  -27.6062  -32.4307   25.7462 C   0  0  0  0  0  0
  -27.5579  -37.1796   24.8456 C   0  0  0  0  0  0
  -21.4169  -29.3049   22.3678 N   0  0  0  0  0  0
  -26.4285  -37.3761   23.9409 N   0  0  0  0  0  0
  -24.6868  -31.0564   22.0907 N   0  0  0  0  0  0
  -23.4172  -28.8179   23.3039 O   0  0  0  0  0  0
  -28.4435  -26.5867   20.1200 O   0  0  0  0  0  0
  -26.5633  -34.8907   22.4655 O   0  0  0  0  0  0
  -23.5440  -32.1361   23.7321 O   0  0  0  0  0  0
  -29.2903  -18.3077   20.2792 C   0  0  0  0  0  0
  -31.3000  -17.6185   21.4463 C   0  0  0  0  0  0
  -29.6404  -19.7189   20.3531 C   0  0  0  0  0  0
  -30.1229  -17.2307   20.7738 C   0  0  0  0  0  0
  -30.8743  -20.0121   21.0121 C   0  0  0  0  0  0
  -31.6560  -18.9740   21.5693 C   0  0  0  0  0  0
  -28.8370  -20.7628   19.5670 C   0  0  0  0  0  0
  -28.3523  -24.4485   18.7059 C   0  0  0  0  0  0
  -28.0495  -24.2955   21.2218 C   0  0  0  0  0  0
  -27.7722  -22.9874   18.8523 C   0  0  0  0  0  0
  -28.5695  -22.7855   21.1883 C   0  0  0  0  0  0
  -28.6795  -25.1401   20.0696 C   0  0  0  0  0  0
  -28.4620  -22.0899   19.8559 N   0  0  0  0  0  0
  -31.4399  -21.2902   21.0986 N   0  0  0  0  0  0
  -29.7865  -15.7980   20.6583 N   0  0  0  0  0  0
  -28.4630  -20.3187   18.3645 N   0  3  0  0  0  0
  -30.0776  -25.0205   20.2253 O   0  0  0  0  0  0
  -32.8152  -19.2915   22.2024 F   0  0  0  0  0  0
  -31.4760  -12.5695   19.1589 H   0  0  0  0  0  0
  -30.3870  -11.4457   19.9241 H   0  0  0  0  0  0
  -29.7861  -11.7432   17.4993 H   0  0  0  0  0  0
  -29.6404  -13.4673   17.7248 H   0  0  0  0  0  0
  -27.8815  -11.2837   18.8893 H   0  0  0  0  0  0
  -27.3719  -12.5407   17.7951 H   0  0  0  0  0  0
  -27.6434  -14.2442   19.4864 H   0  0  0  0  0  0
  -28.7184  -12.1151   21.4067 H   0  0  0  0  0  0
  -28.4265  -13.7851   21.8142 H   0  0  0  0  0  0
  -25.2738   -9.5683   22.4776 H   0  0  0  0  0  0
  -24.0018   -7.4606   22.7436 H   0  0  0  0  0  0
  -21.0844   -8.8744   19.8924 H   0  0  0  0  0  0
  -22.3675  -10.9672   19.6165 H   0  0  0  0  0  0
  -21.1979   -7.6142   23.9738 H   0  0  0  0  0  0
  -21.1487   -6.0502   25.9092 H   0  0  0  0  0  0
  -22.0589   -2.7610   23.2831 H   0  0  0  0  0  0
  -22.4051  -11.9855   22.4823 H   0  0  0  0  0  0
  -21.1082  -13.1234   22.2634 H   0  0  0  0  0  0
  -24.6461  -15.8352   20.5093 H   0  0  0  0  0  0
  -26.2412  -15.6266   20.0060 H   0  0  0  0  0  0
  -26.7177  -32.5385   23.1051 H   0  0  0  0  0  0
  -25.0061  -33.9680   25.0374 H   0  0  0  0  0  0
  -22.7145  -31.2970   21.3927 H   0  0  0  0  0  0
  -23.3750  -35.9630   23.3289 H   0  0  0  0  0  0
  -24.3579  -36.8926   22.2056 H   0  0  0  0  0  0
  -23.7253  -37.6485   23.6677 H   0  0  0  0  0  0
  -26.0853  -31.5426   20.5920 H   0  0  0  0  0  0
  -26.8400  -30.8324   21.9899 H   0  0  0  0  0  0
  -28.1178  -29.0005   21.1295 H   0  0  0  0  0  0
  -25.9623  -25.8473   19.1136 H   0  0  0  0  0  0
  -23.9604  -27.2400   19.0833 H   0  0  0  0  0  0
  -23.7585  -30.5683   19.3977 H   0  0  0  0  0  0
  -22.7495  -29.2305   19.8593 H   0  0  0  0  0  0
  -25.1307  -36.1890   25.0818 H   0  0  0  0  0  0
  -20.9969  -28.3288   24.1411 H   0  0  0  0  0  0
  -20.5677  -26.2323   23.3618 H   0  0  0  0  0  0
  -21.6644  -26.7472   22.1207 H   0  0  0  0  0  0
  -19.6917  -25.6306   21.1250 H   0  0  0  0  0  0
  -19.6693  -27.3205   20.6741 H   0  0  0  0  0  0
  -17.4204  -26.6691   21.4018 H   0  0  0  0  0  0
  -18.0330  -26.0091   22.9021 H   0  0  0  0  0  0
  -19.7925  -30.7279   24.2285 H   0  0  0  0  0  0
  -17.5006  -31.6278   24.5172 H   0  0  0  0  0  0
  -15.5347  -30.3007   23.7653 H   0  0  0  0  0  0
  -15.8662  -28.0840   22.7065 H   0  0  0  0  0  0
  -24.5910  -30.7063   25.7750 H   0  0  0  0  0  0
  -24.8943  -32.2876   26.4868 H   0  0  0  0  0  0
  -25.8076  -30.8864   27.0185 H   0  0  0  0  0  0
  -26.2915  -29.6714   24.1224 H   0  0  0  0  0  0
  -27.4058  -29.7266   25.4676 H   0  0  0  0  0  0
  -27.8777  -30.4250   23.9369 H   0  0  0  0  0  0
  -27.2674  -33.3605   26.2042 H   0  0  0  0  0  0
  -28.3875  -32.6869   25.0293 H   0  0  0  0  0  0
  -28.0732  -31.8427   26.5369 H   0  0  0  0  0  0
  -28.2582  -38.0106   24.7520 H   0  0  0  0  0  0
  -28.1090  -36.2641   24.6265 H   0  0  0  0  0  0
  -27.2303  -37.1422   25.8857 H   0  0  0  0  0  0
  -20.9354  -29.8739   21.6849 H   0  0  0  0  0  0
  -26.0157  -38.2829   24.1424 H   0  0  0  0  0  0
  -28.3745  -18.0391   19.7732 H   0  0  0  0  0  0
  -31.9600  -16.8831   21.8789 H   0  0  0  0  0  0
  -27.6400  -25.0527   18.1520 H   0  0  0  0  0  0
  -29.2415  -24.4346   18.0750 H   0  0  0  0  0  0
  -28.3189  -24.7517   22.1745 H   0  0  0  0  0  0
  -26.9616  -24.3420   21.1540 H   0  0  0  0  0  0
  -27.7539  -22.5593   17.8508 H   0  0  0  0  0  0
  -26.7217  -23.0523   19.1430 H   0  0  0  0  0  0
  -28.0278  -22.2033   21.9347 H   0  0  0  0  0  0
  -29.6032  -22.7945   21.5207 H   0  0  0  0  0  0
  -31.2356  -21.9747   20.3795 H   0  0  0  0  0  0
  -32.4058  -21.3224   21.4143 H   0  0  0  0  0  0
  -28.8041  -15.5785   20.6953 H   0  0  0  0  0  0
  -28.8198  -19.4362   18.0319 H   0  0  0  0  0  0
  -27.8812  -20.8611   17.7509 H   0  0  0  0  0  0
  -30.3122  -25.4599   21.0343 H   0  0  0  0  0  0
  1 25  1  0  0  0
  1 30  2  0  0  0
  1 85  1  0  0  0
  2  3  1  0  0  0
  2 25  1  0  0  0
  2 89  1  0  0  0
  2 90  1  0  0  0
  3  4  1  0  0  0
  3 91  1  0  0  0
  3 92  1  0  0  0
  4  5  1  0  0  0
  4 93  1  0  0  0
  4 94  1  0  0  0
  5  6  1  0  0  0
  5 26  1  0  0  0
  5 95  1  0  0  0
  6 25  1  0  0  0
  6 96  1  0  0  0
  6 97  1  0  0  0
  7  8  2  0  0  0
  7 26  1  0  0  0
  7 29  1  0  0  0
  8  9  1  0  0  0
  8 22  1  0  0  0
  9 10  1  0  0  0
  9 27  2  0  0  0
 10 11  2  0  0  0
 10 15  1  0  0  0
 11 12  1  0  0  0
 11 98  1  0  0  0
 12 13  2  0  0  0
 12 99  1  0  0  0
 13 14  1  0  0  0
 13 31  1  0  0  0
 14 15  2  0  0  0
 14100  1  0  0  0
 15101  1  0  0  0
 16 17  2  0  0  0
 16 21  1  0  0  0
 16 31  1  0  0  0
 17 18  1  0  0  0
 17102  1  0  0  0
 18 19  2  0  0  0
 18103  1  0  0  0
 19 20  1  0  0  0
 19 24  1  0  0  0
 20 21  2  0  0  0
 20104  1  0  0  0
 21 23  1  0  0  0
 22 28  1  0  0  0
 22 32  2  0  0  0
 26 27  1  0  0  0
 28105  1  0  0  0
 28106  1  0  0  0
 29107  1  0  0  0
 29108  1  0  0  0
 33 34  1  0  0  0
 33 66  1  0  0  0
 33 70  2  0  0  0
 34 36  1  0  0  0
 34 59  1  0  0  0
 34109  1  0  0  0
 35 44  2  0  0  0
 35 45  1  0  0  0
 35 68  1  0  0  0
 36 56  1  0  0  0
 36110  1  0  0  0
 37 39  1  0  0  0
 37 47  1  0  0  0
 37 66  1  0  0  0
 37111  1  0  0  0
 38 43  2  0  0  0
 38 46  1  0  0  0
 38 47  1  0  0  0
 39 64  1  0  0  0
 39 67  2  0  0  0
 40 52  1  0  0  0
 40 53  2  0  0  0
 40 58  1  0  0  0
 41112  1  0  0  0
 41113  1  0  0  0
 41114  1  0  0  0
 41 48  1  0  0  0
 42 43  1  0  0  0
 42 66  1  0  0  0
 42115  1  0  0  0
 42116  1  0  0  0
 43 44  1  0  0  0
 44117  1  0  0  0
 45 46  2  0  0  0
 45118  1  0  0  0
 46119  1  0  0  0
 47120  1  0  0  0
 47121  1  0  0  0
 48 56  1  0  0  0
 48 65  1  0  0  0
 48122  1  0  0  0
 49 50  1  0  0  0
 49 53  1  0  0  0
 49 64  1  0  0  0
 49123  1  0  0  0
 50 51  1  0  0  0
 50124  1  0  0  0
 50125  1  0  0  0
 51 52  1  0  0  0
 51126  1  0  0  0
 51127  1  0  0  0
 52128  1  0  0  0
 52129  1  0  0  0
 53 54  1  0  0  0
 54 55  2  0  0  0
 54130  1  0  0  0
 55 57  1  0  0  0
 55131  1  0  0  0
 56 69  2  0  0  0
 57 58  2  0  0  0
 57132  1  0  0  0
 58133  1  0  0  0
 59 60  1  0  0  0
 59 61  1  0  0  0
 59 62  1  0  0  0
 60134  1  0  0  0
 60135  1  0  0  0
 60136  1  0  0  0
 61137  1  0  0  0
 61138  1  0  0  0
 61139  1  0  0  0
 62140  1  0  0  0
 62141  1  0  0  0
 62142  1  0  0  0
 63 65  1  0  0  0
 63143  1  0  0  0
 63144  1  0  0  0
 63145  1  0  0  0
 64146  1  0  0  0
 65147  1  0  0  0
 68 82  1  0  0  0
 71 73  2  0  0  0
 71 74  1  0  0  0
 71148  1  0  0  0
 72 74  2  0  0  0
 72 76  1  0  0  0
 72149  1  0  0  0
 73 75  1  0  0  0
 73 77  1  0  0  0
 74 85  1  0  0  0
 75 76  2  0  0  0
 75 84  1  0  0  0
 76 88  1  0  0  0
 77 83  1  0  0  0
 77 86  2  0  0  0
 78 80  1  0  0  0
 78 82  1  0  0  0
 78150  1  0  0  0
 78151  1  0  0  0
 79 81  1  0  0  0
 79 82  1  0  0  0
 79152  1  0  0  0
 79153  1  0  0  0
 80 83  1  0  0  0
 80154  1  0  0  0
 80155  1  0  0  0
 81 83  1  0  0  0
 81156  1  0  0  0
 81157  1  0  0  0
 82 87  1  0  0  0
 84158  1  0  0  0
 84159  1  0  0  0
 85160  1  0  0  0
 86161  1  0  0  0
 86162  1  0  0  0
 87163  1  0  0  0
M  CHG  1  86   1
M  ISO  4   1 100  68 101  82 101  85 100
M  END
> <chiral flag>
0

> <version>
0

> <s_m_source_file>
/data/baiqing/PycharmProjects/Reinvent-master-3.2/result/LINK_invent/BTK/process_docking_weight1_custom_product_contain_oxygen_bond_distance_aromatic_linkinvent_7_9_3/rearranged_h_0157.sdf

> <i_m_source_file_index>
94

> <r_mmod_Potential_Energy-OPLS-2005>
121.880805969238

> <r_mmod_Stretch_Energy-OPLS-2005>
109.826515197754

> <r_mmod_Bend_Energy-OPLS-2005>
215.497009277344

> <r_mmod_Torsional_Energy-OPLS-2005>
274.864562988281

> <r_mmod_Improper_Torsional_Energy-OPLS-2005>
11.1650295257568

> <r_mmod_Van_der_Waal_Energy-OPLS-2005>
164.481750488281

> <r_mmod_Electrostatic_Energy-OPLS-2005>
-288.416656494141

> <r_mmod_Solvation_Energy-OPLS-2005>
-423.902801513672

> <b_mmod_Minimization_Converged-OPLS-2005>
0

> <r_mmod_RMS_Derivative-OPLS-2005>
2.06730437278748

$$$$
94
                    3D
 Structure written by MMmdl.
153162  0  0  1  0            999 V2000
  -30.5455  -14.7957   20.4490 C   0  0  0  0  0  0
  -30.4470  -12.4863   19.4684 C   0  0  0  0  0  0
  -29.5149  -12.5112   18.2347 C   0  0  0  0  0  0
  -28.0413  -12.3222   18.6505 C   0  0  0  0  0  0
  -27.6399  -13.2238   19.8473 C   0  0  2  0  0  0
  -28.6857  -13.1562   20.9809 C   0  0  0  0  0  0
  -25.2511  -13.8174   20.5682 C   0  0  0  0  0  0
  -24.1803  -13.0428   20.9213 C   0  0  0  0  0  0
  -24.6385  -11.6904   20.8750 C   0  0  0  0  0  0
  -23.9061  -10.4286   21.0411 C   0  0  0  0  0  0
  -24.3614   -9.4201   21.9187 C   0  0  0  0  0  0
  -23.6290   -8.2237   22.0755 C   0  0  0  0  0  0
  -22.4272   -8.0276   21.3544 C   0  0  0  0  0  0
  -21.9907   -9.0250   20.4647 C   0  0  0  0  0  0
  -22.7235  -10.2129   20.3058 C   0  0  0  0  0  0
  -21.6851   -6.0732   22.5278 C   0  0  0  0  0  0
  -21.4014   -6.5637   23.8211 C   0  0  0  0  0  0
  -21.3659   -5.6790   24.9174 C   0  0  0  0  0  0
  -21.6045   -4.3053   24.7225 C   0  0  0  0  0  0
  -21.8820   -3.8144   23.4346 C   0  0  0  0  0  0
  -21.9193   -4.6960   22.3401 C   0  0  0  0  0  0
  -22.7827  -13.5217   21.1873 C   0  0  0  0  0  0
  -22.1661   -4.2146   21.0979 F   0  0  0  0  0  0
  -21.5629   -3.4537   25.7738 F   0  0  0  0  0  0
  -29.9786  -13.5390   20.3983 N   0  0  0  0  0  0
  -26.2922  -12.9360   20.3254 N   0  0  0  0  0  0
  -25.9308  -11.6514   20.5741 N   0  0  0  0  0  0
  -22.0472  -12.8207   22.0428 N   0  0  0  0  0  0
  -25.4185  -15.1902   20.4080 N   0  0  0  0  0  0
  -31.7440  -14.9389   20.1831 O   0  0  0  0  0  0
  -21.6636   -6.8873   21.4240 O   0  0  0  0  0  0
  -22.3514  -14.5523   20.6719 O   0  0  0  0  0  0
  -24.6318  -31.8515   23.1921 C   0  0  0  0  0  0
  -25.9134  -32.4733   23.8286 C   0  0  1  0  0  0
  -27.2322  -27.2366   20.1546 C   0  0  0  0  0  0
  -25.5924  -33.8535   24.2216 N   0  0  0  0  0  0
  -23.4301  -30.4677   21.5359 C   0  0  2  0  0  0
  -24.8779  -28.8905   20.1241 C   0  0  0  0  0  0
  -22.7499  -29.4583   22.4916 C   0  0  0  0  0  0
  -18.0290  -28.1391   22.8487 C   0  0  0  0  0  0
  -24.1487  -36.7270   23.2639 C   0  0  0  0  0  0
  -25.9736  -30.7579   21.3706 C   0  0  0  0  0  0
  -26.0472  -29.3712   20.7260 C   0  0  0  0  0  0
  -27.2263  -28.5598   20.7177 C   0  0  0  0  0  0
  -26.0378  -26.8076   19.5436 C   0  0  0  0  0  0
  -24.8784  -27.6177   19.5229 C   0  0  0  0  0  0
  -23.6508  -29.7845   20.1583 C   0  0  0  0  0  0
  -25.4115  -36.3054   24.0324 C   0  0  1  0  0  0
  -20.5892  -28.3698   23.1274 C   0  0  2  0  0  0
  -20.6776  -26.9416   22.5413 C   0  0  0  0  0  0
  -19.5754  -26.6386   21.5214 C   0  0  0  0  0  0
  -18.1933  -26.7934   22.1625 C   0  0  0  0  0  0
  -19.1543  -28.8862   23.2874 C   0  0  0  0  0  0
  -18.9465  -30.1464   23.8891 C   0  0  0  0  0  0
  -17.6464  -30.6592   24.0564 C   0  0  0  0  0  0
  -25.9062  -34.9431   23.5078 C   0  0  0  0  0  0
  -16.5355  -29.9089   23.6334 C   0  0  0  0  0  0
  -16.7276  -28.6508   23.0353 C   0  0  0  0  0  0
  -26.4500  -31.6575   25.0690 C   0  0  0  0  0  0
  -25.3720  -31.3730   26.1410 C   0  0  0  0  0  0
  -27.0355  -30.2995   24.6184 C   0  0  0  0  0  0
  -27.6042  -32.4328   25.7471 C   0  0  0  0  0  0
  -27.5585  -37.1775   24.8454 C   0  0  0  0  0  0
  -21.4206  -29.3039   22.3658 N   0  0  0  0  0  0
  -26.4277  -37.3768   23.9427 N   0  0  0  0  0  0
  -24.6977  -31.0459   22.0896 N   0  0  0  0  0  0
  -23.4189  -28.8146   23.3041 O   0  0  0  0  0  0
  -28.3963  -26.4397   20.0887 O   0  0  0  0  0  0
  -26.5645  -34.8919   22.4654 O   0  0  0  0  0  0
  -23.5466  -32.1342   23.7214 O   0  0  0  0  0  0
  -30.6567  -18.1445   21.1561 C   0  0  0  0  0  0
  -30.4002  -19.5826   21.0218 C   0  0  0  0  0  0
  -29.2914  -19.9376   20.2629 C   0  0  0  0  0  0
  -29.7707  -17.2835   20.5308 C   0  0  0  0  0  0
  -28.5936  -23.7690   19.5314 C   0  0  0  0  0  0
  -28.7176  -21.2547   19.6156 C   0  0  0  0  0  0
  -28.0167  -24.3204   21.7634 C   0  0  0  0  0  0
  -28.5057  -22.8313   21.6237 C   0  0  0  0  0  0
  -28.5901  -24.9945   20.5209 C   0  0  2  0  0  0
  -28.6783  -22.5415   20.1865 N   0  0  0  0  0  0
  -31.3075  -20.4746   21.6184 N   0  0  0  0  0  0
  -29.6618  -15.8720   20.5485 N   0  0  0  0  0  0
  -28.5722  -23.9512   18.3082 O   0  0  0  0  0  0
  -28.2934  -21.1008   18.4638 O   0  0  0  0  0  0
  -28.5770  -18.3683   19.7400 S   0  0  0  0  0  0
  -31.4817  -12.6473   19.1612 H   0  0  0  0  0  0
  -30.4244  -11.5093   19.9540 H   0  0  0  0  0  0
  -29.8059  -11.7351   17.5256 H   0  0  0  0  0  0
  -29.6272  -13.4615   17.7102 H   0  0  0  0  0  0
  -27.9078  -11.2738   18.9199 H   0  0  0  0  0  0
  -27.3813  -12.5034   17.8013 H   0  0  0  0  0  0
  -27.6293  -14.2425   19.4606 H   0  0  0  0  0  0
  -28.7368  -12.1522   21.4048 H   0  0  0  0  0  0
  -28.4127  -13.8202   21.8030 H   0  0  0  0  0  0
  -25.2761   -9.5676   22.4760 H   0  0  0  0  0  0
  -24.0000   -7.4627   22.7473 H   0  0  0  0  0  0
  -21.0840   -8.8767   19.8951 H   0  0  0  0  0  0
  -22.3695  -10.9668   19.6165 H   0  0  0  0  0  0
  -21.2006   -7.6146   23.9713 H   0  0  0  0  0  0
  -21.1481   -6.0521   25.9076 H   0  0  0  0  0  0
  -22.0600   -2.7606   23.2845 H   0  0  0  0  0  0
  -22.4090  -11.9864   22.4807 H   0  0  0  0  0  0
  -21.1091  -13.1232   22.2642 H   0  0  0  0  0  0
  -24.6428  -15.8350   20.5139 H   0  0  0  0  0  0
  -26.2474  -15.6331   20.0351 H   0  0  0  0  0  0
  -26.7199  -32.5378   23.1024 H   0  0  0  0  0  0
  -25.0061  -33.9662   25.0356 H   0  0  0  0  0  0
  -22.7280  -31.2897   21.3808 H   0  0  0  0  0  0
  -23.3760  -35.9588   23.3272 H   0  0  0  0  0  0
  -24.3586  -36.8925   22.2060 H   0  0  0  0  0  0
  -23.7222  -37.6453   23.6686 H   0  0  0  0  0  0
  -26.1092  -31.5111   20.5932 H   0  0  0  0  0  0
  -26.8524  -30.8161   22.0014 H   0  0  0  0  0  0
  -28.1338  -28.9383   21.1669 H   0  0  0  0  0  0
  -26.0038  -25.8372   19.0687 H   0  0  0  0  0  0
  -23.9819  -27.2443   19.0470 H   0  0  0  0  0  0
  -23.7809  -30.5516   19.3941 H   0  0  0  0  0  0
  -22.7683  -29.2175   19.8563 H   0  0  0  0  0  0
  -25.1295  -36.1883   25.0814 H   0  0  0  0  0  0
  -20.9985  -28.3277   24.1394 H   0  0  0  0  0  0
  -20.5674  -26.2309   23.3617 H   0  0  0  0  0  0
  -21.6645  -26.7438   22.1210 H   0  0  0  0  0  0
  -19.6915  -25.6295   21.1247 H   0  0  0  0  0  0
  -19.6693  -27.3194   20.6742 H   0  0  0  0  0  0
  -17.4205  -26.6681   21.4027 H   0  0  0  0  0  0
  -18.0334  -26.0078   22.9025 H   0  0  0  0  0  0
  -19.7940  -30.7283   24.2255 H   0  0  0  0  0  0
  -17.5018  -31.6271   24.5167 H   0  0  0  0  0  0
  -15.5355  -30.2989   23.7661 H   0  0  0  0  0  0
  -15.8678  -28.0825   22.7068 H   0  0  0  0  0  0
  -24.5890  -30.7087   25.7735 H   0  0  0  0  0  0
  -24.8918  -32.2903   26.4827 H   0  0  0  0  0  0
  -25.8034  -30.8908   27.0191 H   0  0  0  0  0  0
  -26.2941  -29.6734   24.1206 H   0  0  0  0  0  0
  -27.4038  -29.7267   25.4706 H   0  0  0  0  0  0
  -27.8814  -30.4274   23.9426 H   0  0  0  0  0  0
  -27.2631  -33.3621   26.2047 H   0  0  0  0  0  0
  -28.3851  -32.6906   25.0305 H   0  0  0  0  0  0
  -28.0715  -31.8463   26.5391 H   0  0  0  0  0  0
  -28.2547  -38.0127   24.7582 H   0  0  0  0  0  0
  -28.1136  -36.2663   24.6169 H   0  0  0  0  0  0
  -27.2322  -37.1286   25.8857 H   0  0  0  0  0  0
  -20.9399  -29.8739   21.6837 H   0  0  0  0  0  0
  -26.0144  -38.2824   24.1485 H   0  0  0  0  0  0
  -31.4960  -17.7857   21.7350 H   0  0  0  0  0  0
  -28.3721  -24.7791   22.6866 H   0  0  0  0  0  0
  -26.9273  -24.3797   21.7556 H   0  0  0  0  0  0
  -27.8008  -22.1401   22.0887 H   0  0  0  0  0  0
  -29.4659  -22.7030   22.1251 H   0  0  0  0  0  0
  -29.6557  -25.0521   20.7480 H   0  0  0  0  0  0
  -31.9618  -20.1215   22.3111 H   0  0  0  0  0  0
  -31.0474  -21.4417   21.7755 H   0  0  0  0  0  0
  -28.7079  -15.5473   20.5706 H   0  0  0  0  0  0
  1 25  1  0  0  0
  1 30  2  0  0  0
  1 82  1  0  0  0
  2  3  1  0  0  0
  2 25  1  0  0  0
  2 86  1  0  0  0
  2 87  1  0  0  0
  3  4  1  0  0  0
  3 88  1  0  0  0
  3 89  1  0  0  0
  4  5  1  0  0  0
  4 90  1  0  0  0
  4 91  1  0  0  0
  5  6  1  0  0  0
  5 26  1  0  0  0
  5 92  1  0  0  0
  6 25  1  0  0  0
  6 93  1  0  0  0
  6 94  1  0  0  0
  7  8  2  0  0  0
  7 26  1  0  0  0
  7 29  1  0  0  0
  8  9  1  0  0  0
  8 22  1  0  0  0
  9 10  1  0  0  0
  9 27  2  0  0  0
 10 11  2  0  0  0
 10 15  1  0  0  0
 11 12  1  0  0  0
 11 95  1  0  0  0
 12 13  2  0  0  0
 12 96  1  0  0  0
 13 14  1  0  0  0
 13 31  1  0  0  0
 14 15  2  0  0  0
 14 97  1  0  0  0
 15 98  1  0  0  0
 16 17  2  0  0  0
 16 21  1  0  0  0
 16 31  1  0  0  0
 17 18  1  0  0  0
 17 99  1  0  0  0
 18 19  2  0  0  0
 18100  1  0  0  0
 19 20  1  0  0  0
 19 24  1  0  0  0
 20 21  2  0  0  0
 20101  1  0  0  0
 21 23  1  0  0  0
 22 28  1  0  0  0
 22 32  2  0  0  0
 26 27  1  0  0  0
 28102  1  0  0  0
 28103  1  0  0  0
 29104  1  0  0  0
 29105  1  0  0  0
 33 34  1  0  0  0
 33 66  1  0  0  0
 33 70  2  0  0  0
 34 36  1  0  0  0
 34 59  1  0  0  0
 34106  1  0  0  0
 35 44  2  0  0  0
 35 45  1  0  0  0
 35 68  1  0  0  0
 36 56  1  0  0  0
 36107  1  0  0  0
 37 39  1  0  0  0
 37 47  1  0  0  0
 37 66  1  0  0  0
 37108  1  0  0  0
 38 43  2  0  0  0
 38 46  1  0  0  0
 38 47  1  0  0  0
 39 64  1  0  0  0
 39 67  2  0  0  0
 40 52  1  0  0  0
 40 53  2  0  0  0
 40 58  1  0  0  0
 41109  1  0  0  0
 41110  1  0  0  0
 41111  1  0  0  0
 41 48  1  0  0  0
 42 43  1  0  0  0
 42 66  1  0  0  0
 42112  1  0  0  0
 42113  1  0  0  0
 43 44  1  0  0  0
 44114  1  0  0  0
 45 46  2  0  0  0
 45115  1  0  0  0
 46116  1  0  0  0
 47117  1  0  0  0
 47118  1  0  0  0
 48 56  1  0  0  0
 48 65  1  0  0  0
 48119  1  0  0  0
 49 50  1  0  0  0
 49 53  1  0  0  0
 49 64  1  0  0  0
 49120  1  0  0  0
 50 51  1  0  0  0
 50121  1  0  0  0
 50122  1  0  0  0
 51 52  1  0  0  0
 51123  1  0  0  0
 51124  1  0  0  0
 52125  1  0  0  0
 52126  1  0  0  0
 53 54  1  0  0  0
 54 55  2  0  0  0
 54127  1  0  0  0
 55 57  1  0  0  0
 55128  1  0  0  0
 56 69  2  0  0  0
 57 58  2  0  0  0
 57129  1  0  0  0
 58130  1  0  0  0
 59 60  1  0  0  0
 59 61  1  0  0  0
 59 62  1  0  0  0
 60131  1  0  0  0
 60132  1  0  0  0
 60133  1  0  0  0
 61134  1  0  0  0
 61135  1  0  0  0
 61136  1  0  0  0
 62137  1  0  0  0
 62138  1  0  0  0
 62139  1  0  0  0
 63 65  1  0  0  0
 63140  1  0  0  0
 63141  1  0  0  0
 63142  1  0  0  0
 64143  1  0  0  0
 65144  1  0  0  0
 68 79  1  0  0  0
 71 72  1  0  0  0
 71 74  2  0  0  0
 71145  1  0  0  0
 72 73  2  0  0  0
 72 81  1  0  0  0
 73 76  1  0  0  0
 73 85  1  0  0  0
 74 82  1  0  0  0
 74 85  1  0  0  0
 75 79  1  0  0  0
 75 80  1  0  0  0
 75 83  2  0  0  0
 76 80  1  0  0  0
 76 84  2  0  0  0
 77 78  1  0  0  0
 77 79  1  0  0  0
 77146  1  0  0  0
 77147  1  0  0  0
 78 80  1  0  0  0
 78148  1  0  0  0
 78149  1  0  0  0
 79150  1  0  0  0
 81151  1  0  0  0
 81152  1  0  0  0
 82153  1  0  0  0
M  ISO  4   1 100  68 101  79 101  82 100
M  END
> <chiral flag>
0

> <version>
0

> <s_m_source_file>
/data/baiqing/PycharmProjects/Reinvent-master-3.2/result/LINK_invent/BTK/process_docking_weight1_custom_product_contain_oxygen_bond_distance_aromatic_linkinvent_7_9_3/rearranged_h_0157.sdf

> <i_m_source_file_index>
95

> <r_mmod_Potential_Energy-OPLS-2005>
396.685668945312

> <r_mmod_Stretch_Energy-OPLS-2005>
130.430938720703

> <r_mmod_Bend_Energy-OPLS-2005>
287.467987060547

> <r_mmod_Torsional_Energy-OPLS-2005>
303.511169433594

> <r_mmod_Improper_Torsional_Energy-OPLS-2005>
10.6499624252319

> <r_mmod_Van_der_Waal_Energy-OPLS-2005>
104.379516601562

> <r_mmod_Electrostatic_Energy-OPLS-2005>
-278.901031494141

> <r_mmod_Solvation_Energy-OPLS-2005>
-258.345764160156

> <b_mmod_Minimization_Converged-OPLS-2005>
0

> <r_mmod_RMS_Derivative-OPLS-2005>
0.3596470952034

$$$$
95
                    3D
 Structure written by MMmdl.
157166  0  0  1  0            999 V2000
  -30.7411  -14.3973   20.6649 C   0  0  0  0  0  0
  -30.4277  -12.2951   19.3962 C   0  0  0  0  0  0
  -29.4909  -12.5495   18.1985 C   0  0  0  0  0  0
  -28.0184  -12.3896   18.6250 C   0  0  0  0  0  0
  -27.6751  -13.2107   19.8963 C   0  0  2  0  0  0
  -28.7183  -12.9301   21.0022 C   0  0  0  0  0  0
  -25.2618  -13.8140   20.5736 C   0  0  0  0  0  0
  -24.1877  -13.0416   20.9175 C   0  0  0  0  0  0
  -24.6448  -11.6873   20.8752 C   0  0  0  0  0  0
  -23.9111  -10.4268   21.0422 C   0  0  0  0  0  0
  -24.3633   -9.4163   21.9190 C   0  0  0  0  0  0
  -23.6289   -8.2206   22.0740 C   0  0  0  0  0  0
  -22.4264   -8.0257   21.3542 C   0  0  0  0  0  0
  -21.9936   -9.0251   20.4643 C   0  0  0  0  0  0
  -22.7286  -10.2115   20.3063 C   0  0  0  0  0  0
  -21.6834   -6.0710   22.5273 C   0  0  0  0  0  0
  -21.4005   -6.5620   23.8202 C   0  0  0  0  0  0
  -21.3678   -5.6780   24.9181 C   0  0  0  0  0  0
  -21.6054   -4.3046   24.7237 C   0  0  0  0  0  0
  -21.8817   -3.8119   23.4361 C   0  0  0  0  0  0
  -21.9197   -4.6932   22.3413 C   0  0  0  0  0  0
  -22.7876  -13.5156   21.1866 C   0  0  0  0  0  0
  -22.1650   -4.2114   21.0990 F   0  0  0  0  0  0
  -21.5668   -3.4539   25.7760 F   0  0  0  0  0  0
  -30.0585  -13.2388   20.4623 N   0  0  0  0  0  0
  -26.3120  -12.9351   20.3500 N   0  0  0  0  0  0
  -25.9392  -11.6499   20.5796 N   0  0  0  0  0  0
  -22.0515  -12.8157   22.0417 N   0  0  0  0  0  0
  -25.4305  -15.1865   20.4189 N   0  0  0  0  0  0
  -31.7879  -14.6918   20.0792 O   0  0  0  0  0  0
  -21.6612   -6.8857   21.4236 O   0  0  0  0  0  0
  -22.3567  -14.5484   20.6727 O   0  0  0  0  0  0
  -24.6151  -31.8685   23.2156 C   0  0  0  0  0  0
  -25.9048  -32.4824   23.8419 C   0  0  1  0  0  0
  -27.2184  -27.4200   20.0605 C   0  0  0  0  0  0
  -25.5910  -33.8626   24.2336 N   0  0  0  0  0  0
  -23.3982  -30.4960   21.5643 C   0  0  2  0  0  0
  -24.8332  -28.9583   20.1252 C   0  0  0  0  0  0
  -22.7417  -29.4602   22.5053 C   0  0  0  0  0  0
  -18.0258  -28.1363   22.8634 C   0  0  0  0  0  0
  -24.1488  -36.7320   23.2645 C   0  0  0  0  0  0
  -25.9320  -30.8179   21.3744 C   0  0  0  0  0  0
  -26.0014  -29.4558   20.7131 C   0  0  0  0  0  0
  -27.1949  -28.6954   20.6759 C   0  0  0  0  0  0
  -26.0116  -26.9232   19.5114 C   0  0  0  0  0  0
  -24.8316  -27.6887   19.5294 C   0  0  0  0  0  0
  -23.6073  -29.8433   20.1747 C   0  0  0  0  0  0
  -25.4105  -36.3098   24.0338 C   0  0  1  0  0  0
  -20.5893  -28.3566   23.1429 C   0  0  2  0  0  0
  -20.6701  -26.9259   22.5533 C   0  0  0  0  0  0
  -19.5559  -26.6216   21.5501 C   0  0  0  0  0  0
  -18.1844  -26.7789   22.2094 C   0  0  0  0  0  0
  -19.1544  -28.8806   23.2994 C   0  0  0  0  0  0
  -18.9479  -30.1442   23.8947 C   0  0  0  0  0  0
  -17.6462  -30.6573   24.0603 C   0  0  0  0  0  0
  -25.9036  -34.9473   23.5131 C   0  0  0  0  0  0
  -16.5335  -29.9050   23.6421 C   0  0  0  0  0  0
  -16.7247  -28.6465   23.0479 C   0  0  0  0  0  0
  -26.4474  -31.6610   25.0756 C   0  0  0  0  0  0
  -25.3744  -31.3713   26.1515 C   0  0  0  0  0  0
  -27.0301  -30.3053   24.6129 C   0  0  0  0  0  0
  -27.6039  -32.4338   25.7523 C   0  0  0  0  0  0
  -27.5577  -37.1829   24.8468 C   0  0  0  0  0  0
  -21.4154  -29.2873   22.3747 N   0  0  0  0  0  0
  -26.4290  -37.3776   23.9409 N   0  0  0  0  0  0
  -24.6673  -31.0742   22.1101 N   0  0  0  0  0  0
  -23.4194  -28.8191   23.3125 O   0  0  0  0  0  0
  -28.4078  -26.7104   20.0350 O   0  0  0  0  0  0
  -26.5576  -34.8911   22.4685 O   0  0  0  0  0  0
  -23.5349  -32.1487   23.7543 O   0  0  0  0  0  0
  -29.0465  -21.2158   20.7263 C   0  0  0  0  0  0
  -28.7804  -19.8053   20.8172 C   0  0  0  0  0  0
  -28.1622  -21.8923   19.9147 C   0  0  0  0  0  0
  -28.7980  -24.2673   19.9091 C   0  0  0  0  0  0
  -28.8309  -18.1293   22.7639 C   0  0  0  0  0  0
  -29.7530  -16.9853   23.2001 C   0  0  0  0  0  0
  -30.2577  -17.6501   20.8837 C   0  0  0  0  0  0
  -29.5988  -18.8246   21.6390 C   0  0  1  0  0  0
  -30.5650  -16.5671   21.9549 C   0  0  2  0  0  0
  -28.5763  -25.5894   19.1382 C   0  0  0  0  0  0
  -27.7295  -19.3991   20.1339 N   0  0  0  0  0  0
  -28.0790  -23.1958   19.5147 N   0  0  0  0  0  0
  -30.1594  -15.2196   21.5486 N   0  0  0  0  0  0
  -29.6160  -24.2314   20.8344 O   0  0  0  0  0  0
  -27.0283  -20.7088   19.3438 S   0  0  0  0  0  0
  -31.4719  -12.3917   19.0940 H   0  0  0  0  0  0
  -30.3149  -11.2684   19.7497 H   0  0  0  0  0  0
  -29.7265  -11.8705   17.3776 H   0  0  0  0  0  0
  -29.6563  -13.5574   17.8108 H   0  0  0  0  0  0
  -27.8544  -11.3297   18.8245 H   0  0  0  0  0  0
  -27.3524  -12.6649   17.8071 H   0  0  0  0  0  0
  -27.7320  -14.2674   19.6342 H   0  0  0  0  0  0
  -28.6851  -11.8755   21.2854 H   0  0  0  0  0  0
  -28.4732  -13.4711   21.9177 H   0  0  0  0  0  0
  -25.2774   -9.5597   22.4784 H   0  0  0  0  0  0
  -23.9982   -7.4579   22.7445 H   0  0  0  0  0  0
  -21.0874   -8.8784   19.8943 H   0  0  0  0  0  0
  -22.3760  -10.9661   19.6169 H   0  0  0  0  0  0
  -21.1948   -7.6114   23.9702 H   0  0  0  0  0  0
  -21.1523   -6.0508   25.9085 H   0  0  0  0  0  0
  -22.0584   -2.7579   23.2876 H   0  0  0  0  0  0
  -22.4140  -11.9826   22.4838 H   0  0  0  0  0  0
  -21.1111  -13.1164   22.2576 H   0  0  0  0  0  0
  -24.6652  -15.8391   20.5456 H   0  0  0  0  0  0
  -26.2908  -15.6396   20.1394 H   0  0  0  0  0  0
  -26.7096  -32.5501   23.1154 H   0  0  0  0  0  0
  -25.0068  -33.9811   25.0480 H   0  0  0  0  0  0
  -22.6887  -31.3170   21.4400 H   0  0  0  0  0  0
  -23.3719  -35.9684   23.3316 H   0  0  0  0  0  0
  -24.3591  -36.8935   22.2061 H   0  0  0  0  0  0
  -23.7288  -37.6553   23.6652 H   0  0  0  0  0  0
  -26.0515  -31.5840   20.6081 H   0  0  0  0  0  0
  -26.8189  -30.8624   21.9947 H   0  0  0  0  0  0
  -28.1023  -29.0870   21.1137 H   0  0  0  0  0  0
  -25.9371  -25.9373   19.0827 H   0  0  0  0  0  0
  -23.9240  -27.2902   19.0984 H   0  0  0  0  0  0
  -23.7490  -30.6342   19.4372 H   0  0  0  0  0  0
  -22.7182  -29.2993   19.8507 H   0  0  0  0  0  0
  -25.1287  -36.1969   25.0827 H   0  0  0  0  0  0
  -21.0065  -28.3127   24.1515 H   0  0  0  0  0  0
  -21.6434  -26.7266   22.1030 H   0  0  0  0  0  0
  -20.5764  -26.2159   23.3780 H   0  0  0  0  0  0
  -19.6407  -27.3020   20.7039 H   0  0  0  0  0  0
  -19.6589  -25.6100   21.1580 H   0  0  0  0  0  0
  -17.3921  -26.6208   21.4755 H   0  0  0  0  0  0
  -18.0520  -26.0254   22.9887 H   0  0  0  0  0  0
  -19.7958  -30.7256   24.2337 H   0  0  0  0  0  0
  -17.4984  -31.6248   24.5196 H   0  0  0  0  0  0
  -15.5312  -30.2866   23.7795 H   0  0  0  0  0  0
  -15.8624  -28.0746   22.7282 H   0  0  0  0  0  0
  -24.5878  -30.7107   25.7852 H   0  0  0  0  0  0
  -24.8966  -32.2863   26.5021 H   0  0  0  0  0  0
  -25.8102  -30.8830   27.0240 H   0  0  0  0  0  0
  -26.2829  -29.6847   24.1155 H   0  0  0  0  0  0
  -27.4056  -29.7276   25.4588 H   0  0  0  0  0  0
  -27.8682  -30.4393   23.9284 H   0  0  0  0  0  0
  -27.2630  -33.3606   26.2155 H   0  0  0  0  0  0
  -28.3814  -32.6972   25.0337 H   0  0  0  0  0  0
  -28.0736  -31.8436   26.5413 H   0  0  0  0  0  0
  -28.2599  -38.0112   24.7460 H   0  0  0  0  0  0
  -28.1070  -36.2650   24.6334 H   0  0  0  0  0  0
  -27.2304  -37.1522   25.8874 H   0  0  0  0  0  0
  -20.9337  -29.8408   21.6800 H   0  0  0  0  0  0
  -26.0178  -38.2863   24.1365 H   0  0  0  0  0  0
  -29.8841  -21.6596   21.2442 H   0  0  0  0  0  0
  -28.5728  -18.8023   23.5831 H   0  0  0  0  0  0
  -27.9001  -17.7088   22.3795 H   0  0  0  0  0  0
  -29.1891  -16.1627   23.6425 H   0  0  0  0  0  0
  -30.4320  -17.3449   23.9743 H   0  0  0  0  0  0
  -31.1445  -17.9633   20.3312 H   0  0  0  0  0  0
  -29.5535  -17.2493   20.1525 H   0  0  0  0  0  0
  -30.4092  -19.3800   22.1162 H   0  0  0  0  0  0
  -31.6293  -16.5577   22.2094 H   0  0  0  0  0  0
  -27.8046  -25.4789   18.3788 H   0  0  0  0  0  0
  -29.4841  -25.7781   18.5631 H   0  0  0  0  0  0
  -27.4023  -23.3836   18.7883 H   0  0  0  0  0  0
  -29.3366  -14.8426   21.9920 H   0  0  0  0  0  0
  1 25  1  0  0  0
  1 30  2  0  0  0
  1 83  1  0  0  0
  2  3  1  0  0  0
  2 25  1  0  0  0
  2 86  1  0  0  0
  2 87  1  0  0  0
  3  4  1  0  0  0
  3 88  1  0  0  0
  3 89  1  0  0  0
  4  5  1  0  0  0
  4 90  1  0  0  0
  4 91  1  0  0  0
  5  6  1  0  0  0
  5 26  1  0  0  0
  5 92  1  0  0  0
  6 25  1  0  0  0
  6 93  1  0  0  0
  6 94  1  0  0  0
  7  8  2  0  0  0
  7 26  1  0  0  0
  7 29  1  0  0  0
  8  9  1  0  0  0
  8 22  1  0  0  0
  9 10  1  0  0  0
  9 27  2  0  0  0
 10 11  2  0  0  0
 10 15  1  0  0  0
 11 12  1  0  0  0
 11 95  1  0  0  0
 12 13  2  0  0  0
 12 96  1  0  0  0
 13 14  1  0  0  0
 13 31  1  0  0  0
 14 15  2  0  0  0
 14 97  1  0  0  0
 15 98  1  0  0  0
 16 17  2  0  0  0
 16 21  1  0  0  0
 16 31  1  0  0  0
 17 18  1  0  0  0
 17 99  1  0  0  0
 18 19  2  0  0  0
 18100  1  0  0  0
 19 20  1  0  0  0
 19 24  1  0  0  0
 20 21  2  0  0  0
 20101  1  0  0  0
 21 23  1  0  0  0
 22 28  1  0  0  0
 22 32  2  0  0  0
 26 27  1  0  0  0
 28102  1  0  0  0
 28103  1  0  0  0
 29104  1  0  0  0
 29105  1  0  0  0
 33 34  1  0  0  0
 33 66  1  0  0  0
 33 70  2  0  0  0
 34 36  1  0  0  0
 34 59  1  0  0  0
 34106  1  0  0  0
 35 44  2  0  0  0
 35 45  1  0  0  0
 35 68  1  0  0  0
 36 56  1  0  0  0
 36107  1  0  0  0
 37 39  1  0  0  0
 37 47  1  0  0  0
 37 66  1  0  0  0
 37108  1  0  0  0
 38 43  2  0  0  0
 38 46  1  0  0  0
 38 47  1  0  0  0
 39 64  1  0  0  0
 39 67  2  0  0  0
 40 52  1  0  0  0
 40 53  2  0  0  0
 40 58  1  0  0  0
 41109  1  0  0  0
 41110  1  0  0  0
 41111  1  0  0  0
 41 48  1  0  0  0
 42 43  1  0  0  0
 42 66  1  0  0  0
 42112  1  0  0  0
 42113  1  0  0  0
 43 44  1  0  0  0
 44114  1  0  0  0
 45 46  2  0  0  0
 45115  1  0  0  0
 46116  1  0  0  0
 47117  1  0  0  0
 47118  1  0  0  0
 48 56  1  0  0  0
 48 65  1  0  0  0
 48119  1  0  0  0
 49 50  1  0  0  0
 49 53  1  0  0  0
 49 64  1  0  0  0
 49120  1  0  0  0
 50 51  1  0  0  0
 50121  1  0  0  0
 50122  1  0  0  0
 51 52  1  0  0  0
 51123  1  0  0  0
 51124  1  0  0  0
 52125  1  0  0  0
 52126  1  0  0  0
 53 54  1  0  0  0
 54 55  2  0  0  0
 54127  1  0  0  0
 55 57  1  0  0  0
 55128  1  0  0  0
 56 69  2  0  0  0
 57 58  2  0  0  0
 57129  1  0  0  0
 58130  1  0  0  0
 59 60  1  0  0  0
 59 61  1  0  0  0
 59 62  1  0  0  0
 60131  1  0  0  0
 60132  1  0  0  0
 60133  1  0  0  0
 61134  1  0  0  0
 61135  1  0  0  0
 61136  1  0  0  0
 62137  1  0  0  0
 62138  1  0  0  0
 62139  1  0  0  0
 63 65  1  0  0  0
 63140  1  0  0  0
 63141  1  0  0  0
 63142  1  0  0  0
 64143  1  0  0  0
 65144  1  0  0  0
 68 80  1  0  0  0
 71 72  1  0  0  0
 71 73  2  0  0  0
 71145  1  0  0  0
 72 81  2  0  0  0
 72 78  1  0  0  0
 73 82  1  0  0  0
 73 85  1  0  0  0
 74 80  1  0  0  0
 74 82  1  0  0  0
 74 84  2  0  0  0
 75 76  1  0  0  0
 75 78  1  0  0  0
 75146  1  0  0  0
 75147  1  0  0  0
 76 79  1  0  0  0
 76148  1  0  0  0
 76149  1  0  0  0
 77 78  1  0  0  0
 77 79  1  0  0  0
 77150  1  0  0  0
 77151  1  0  0  0
 78152  1  0  0  0
 79 83  1  0  0  0
 79153  1  0  0  0
 80154  1  0  0  0
 80155  1  0  0  0
 81 85  1  0  0  0
 82156  1  0  0  0
 83157  1  0  0  0
M  ISO  4   1 100  68 101  80 101  83 100
M  END
> <chiral flag>
0

> <version>
0

> <s_m_source_file>
/data/baiqing/PycharmProjects/Reinvent-master-3.2/result/LINK_invent/BTK/process_docking_weight1_custom_product_contain_oxygen_bond_distance_aromatic_linkinvent_7_9_3/rearranged_h_0157.sdf

> <i_m_source_file_index>
96

> <r_mmod_Potential_Energy-OPLS-2005>
-106.539726257324

> <r_mmod_Stretch_Energy-OPLS-2005>
37.6455688476562

> <r_mmod_Bend_Energy-OPLS-2005>
139.446990966797

> <r_mmod_Torsional_Energy-OPLS-2005>
221.860305786133

> <r_mmod_Improper_Torsional_Energy-OPLS-2005>
1.83019530773163

> <r_mmod_Van_der_Waal_Energy-OPLS-2005>
130.054183959961

> <r_mmod_Electrostatic_Energy-OPLS-2005>
-404.420104980469

> <r_mmod_Solvation_Energy-OPLS-2005>
-244.046463012695

> <b_mmod_Minimization_Converged-OPLS-2005>
0

> <r_mmod_RMS_Derivative-OPLS-2005>
5.04449939727783

$$$$
