0
                    3D
 Structure written by MMmdl.
152161  0  0  1  0            999 V2000
  -30.6130  -14.6499   20.5056 C   0  0  0  0  0  0
  -30.4430  -12.3996   19.4520 C   0  0  0  0  0  0
  -29.5094  -12.5124   18.2252 C   0  0  0  0  0  0
  -28.0314  -12.3486   18.6349 C   0  0  0  0  0  0
  -27.6545  -13.2158   19.8655 C   0  0  2  0  0  0
  -28.6994  -13.0623   20.9935 C   0  0  0  0  0  0
  -25.2560  -13.8173   20.5692 C   0  0  0  0  0  0
  -24.1822  -13.0441   20.9192 C   0  0  0  0  0  0
  -24.6388  -11.6913   20.8747 C   0  0  0  0  0  0
  -23.9059  -10.4293   21.0407 C   0  0  0  0  0  0
  -24.3613   -9.4208   21.9180 C   0  0  0  0  0  0
  -23.6294   -8.2245   22.0746 C   0  0  0  0  0  0
  -22.4275   -8.0281   21.3541 C   0  0  0  0  0  0
  -21.9908   -9.0253   20.4641 C   0  0  0  0  0  0
  -22.7235  -10.2134   20.3052 C   0  0  0  0  0  0
  -21.6851   -6.0742   22.5285 C   0  0  0  0  0  0
  -21.4012   -6.5643   23.8220 C   0  0  0  0  0  0
  -21.3659   -5.6792   24.9181 C   0  0  0  0  0  0
  -21.6044   -4.3055   24.7226 C   0  0  0  0  0  0
  -21.8817   -3.8151   23.4345 C   0  0  0  0  0  0
  -21.9189   -4.6971   22.3406 C   0  0  0  0  0  0
  -22.7843  -13.5239   21.1856 C   0  0  0  0  0  0
  -22.1658   -4.2160   21.0981 F   0  0  0  0  0  0
  -21.5627   -3.4535   25.7735 F   0  0  0  0  0  0
  -30.0156  -13.4158   20.4357 N   0  0  0  0  0  0
  -26.2993  -12.9352   20.3326 N   0  0  0  0  0  0
  -25.9315  -11.6509   20.5756 N   0  0  0  0  0  0
  -22.0474  -12.8239   22.0411 N   0  0  0  0  0  0
  -25.4279  -15.1896   20.4115 N   0  0  0  0  0  0
  -31.7676  -14.8244   20.1043 O   0  0  0  0  0  0
  -21.6637   -6.8882   21.4244 O   0  0  0  0  0  0
  -22.3534  -14.5552   20.6710 O   0  0  0  0  0  0
  -24.6299  -31.8600   23.2056 C   0  0  0  0  0  0
  -25.9146  -32.4778   23.8379 C   0  0  1  0  0  0
  -27.2169  -27.2994   20.1109 C   0  0  0  0  0  0
  -25.5966  -33.8578   24.2312 N   0  0  0  0  0  0
  -23.4252  -30.4906   21.5456 C   0  0  2  0  0  0
  -24.8710  -28.9531   20.1073 C   0  0  0  0  0  0
  -22.7501  -29.4653   22.4886 C   0  0  0  0  0  0
  -18.0307  -28.1400   22.8487 C   0  0  0  0  0  0
  -24.1493  -36.7275   23.2635 C   0  0  0  0  0  0
  -25.9716  -30.7843   21.3838 C   0  0  0  0  0  0
  -26.0433  -29.4129   20.7207 C   0  0  0  0  0  0
  -27.2191  -28.5977   20.7168 C   0  0  0  0  0  0
  -26.0185  -26.9159   19.4563 C   0  0  0  0  0  0
  -24.8621  -27.7106   19.4652 C   0  0  0  0  0  0
  -23.6434  -29.8375   20.1575 C   0  0  0  0  0  0
  -25.4111  -36.3077   24.0341 C   0  0  1  0  0  0
  -20.5913  -28.3725   23.1253 C   0  0  2  0  0  0
  -20.6803  -26.9442   22.5393 C   0  0  0  0  0  0
  -19.5776  -26.6394   21.5210 C   0  0  0  0  0  0
  -18.1956  -26.7946   22.1622 C   0  0  0  0  0  0
  -19.1558  -28.8874   23.2873 C   0  0  0  0  0  0
  -18.9480  -30.1468   23.8903 C   0  0  0  0  0  0
  -17.6479  -30.6598   24.0574 C   0  0  0  0  0  0
  -25.9054  -34.9449   23.5116 C   0  0  0  0  0  0
  -16.5370  -29.9101   23.6331 C   0  0  0  0  0  0
  -16.7292  -28.6518   23.0353 C   0  0  0  0  0  0
  -26.4522  -31.6571   25.0735 C   0  0  0  0  0  0
  -25.3753  -31.3714   26.1456 C   0  0  0  0  0  0
  -27.0354  -30.2991   24.6186 C   0  0  0  0  0  0
  -27.6108  -32.4273   25.7488 C   0  0  0  0  0  0
  -27.5590  -37.1785   24.8463 C   0  0  0  0  0  0
  -21.4209  -29.3078   22.3633 N   0  0  0  0  0  0
  -26.4282  -37.3780   23.9433 N   0  0  0  0  0  0
  -24.6945  -31.0610   22.1017 N   0  0  0  0  0  0
  -23.4217  -28.8171   23.2956 O   0  0  0  0  0  0
  -28.3037  -26.3973   20.1762 O   0  0  0  0  0  0
  -26.5598  -34.8920   22.4667 O   0  0  0  0  0  0
  -23.5451  -32.1401   23.7367 O   0  0  0  0  0  0
  -30.8040  -19.3318   20.0734 C   0  0  0  0  0  0
  -28.6562  -19.3138   21.1394 C   0  0  0  0  0  0
  -30.8774  -17.9043   20.1691 C   0  0  0  0  0  0
  -28.7304  -17.8927   21.2391 C   0  0  0  0  0  0
  -29.6951  -20.0937   20.5589 C   0  0  0  0  0  0
  -29.8379  -17.1388   20.7641 C   0  0  0  0  0  0
  -30.2284  -23.7745   20.6108 C   0  0  0  0  0  0
  -28.9380  -23.7751   20.2762 C   0  0  0  0  0  0
  -30.6865  -22.4012   20.7552 C   0  0  0  0  0  0
  -28.5469  -22.3545   20.2089 C   0  0  0  0  0  0
  -27.9677  -24.9628   19.9418 C   0  0  0  0  0  0
  -29.6382  -21.5789   20.4974 N   0  0  0  0  0  0
  -29.7994  -15.6782   20.9094 N   0  0  0  0  0  0
  -31.8284  -22.0433   21.0673 O   0  0  0  0  0  0
  -27.4252  -21.9192   19.9225 O   0  0  0  0  0  0
  -31.4822  -12.5350   19.1474 H   0  0  0  0  0  0
  -30.3891  -11.4014   19.8893 H   0  0  0  0  0  0
  -29.7753  -11.7617   17.4796 H   0  0  0  0  0  0
  -29.6485  -13.4822   17.7448 H   0  0  0  0  0  0
  -27.8665  -11.2947   18.8608 H   0  0  0  0  0  0
  -27.3787  -12.5830   17.7931 H   0  0  0  0  0  0
  -27.6733  -14.2527   19.5298 H   0  0  0  0  0  0
  -28.7115  -12.0355   21.3621 H   0  0  0  0  0  0
  -28.4402  -13.6796   21.8545 H   0  0  0  0  0  0
  -25.2757   -9.5691   22.4757 H   0  0  0  0  0  0
  -24.0006   -7.4632   22.7459 H   0  0  0  0  0  0
  -21.0843   -8.8774   19.8942 H   0  0  0  0  0  0
  -22.3695  -10.9677   19.6166 H   0  0  0  0  0  0
  -21.2005   -7.6150   23.9733 H   0  0  0  0  0  0
  -21.1482   -6.0516   25.9086 H   0  0  0  0  0  0
  -22.0596   -2.7615   23.2838 H   0  0  0  0  0  0
  -22.4080  -11.9901   22.4815 H   0  0  0  0  0  0
  -21.1093  -13.1270   22.2603 H   0  0  0  0  0  0
  -24.6589  -15.8430   20.5148 H   0  0  0  0  0  0
  -26.2767  -15.6301   20.0809 H   0  0  0  0  0  0
  -26.7212  -32.5449   23.1125 H   0  0  0  0  0  0
  -25.0184  -33.9726   25.0507 H   0  0  0  0  0  0
  -22.7216  -31.3136   21.4046 H   0  0  0  0  0  0
  -23.3779  -35.9580   23.3250 H   0  0  0  0  0  0
  -24.3615  -36.8922   22.2061 H   0  0  0  0  0  0
  -23.7201  -37.6452   23.6666 H   0  0  0  0  0  0
  -26.1093  -31.5509   20.6201 H   0  0  0  0  0  0
  -26.8501  -30.8279   22.0155 H   0  0  0  0  0  0
  -28.1127  -28.9422   21.2188 H   0  0  0  0  0  0
  -25.9243  -25.9789   18.9308 H   0  0  0  0  0  0
  -23.9681  -27.3581   18.9691 H   0  0  0  0  0  0
  -23.7744  -30.6211   19.4100 H   0  0  0  0  0  0
  -22.7618  -29.2758   19.8437 H   0  0  0  0  0  0
  -25.1278  -36.1923   25.0830 H   0  0  0  0  0  0
  -21.0020  -28.3312   24.1368 H   0  0  0  0  0  0
  -20.5731  -26.2340   23.3602 H   0  0  0  0  0  0
  -21.6670  -26.7488   22.1168 H   0  0  0  0  0  0
  -19.6949  -25.6301   21.1252 H   0  0  0  0  0  0
  -19.6716  -27.3196   20.6736 H   0  0  0  0  0  0
  -17.4229  -26.6701   21.4017 H   0  0  0  0  0  0
  -18.0356  -26.0081   22.9012 H   0  0  0  0  0  0
  -19.7955  -30.7281   24.2277 H   0  0  0  0  0  0
  -17.5039  -31.6280   24.5172 H   0  0  0  0  0  0
  -15.5375  -30.3015   23.7647 H   0  0  0  0  0  0
  -15.8693  -28.0841   22.7063 H   0  0  0  0  0  0
  -24.5963  -30.7019   25.7789 H   0  0  0  0  0  0
  -24.8907  -32.2876   26.4839 H   0  0  0  0  0  0
  -25.8079  -30.8936   27.0253 H   0  0  0  0  0  0
  -26.2926  -29.6729   24.1230 H   0  0  0  0  0  0
  -27.4076  -29.7247   25.4678 H   0  0  0  0  0  0
  -27.8791  -30.4267   23.9402 H   0  0  0  0  0  0
  -27.2779  -33.3604   26.2041 H   0  0  0  0  0  0
  -28.3942  -32.6756   25.0315 H   0  0  0  0  0  0
  -28.0746  -31.8389   26.5413 H   0  0  0  0  0  0
  -28.2557  -38.0132   24.7572 H   0  0  0  0  0  0
  -28.1130  -36.2664   24.6189 H   0  0  0  0  0  0
  -27.2328  -37.1311   25.8868 H   0  0  0  0  0  0
  -20.9380  -29.8822   21.6862 H   0  0  0  0  0  0
  -26.0155  -38.2838   24.1486 H   0  0  0  0  0  0
  -31.6365  -19.8435   19.6110 H   0  0  0  0  0  0
  -27.7791  -19.8035   21.5391 H   0  0  0  0  0  0
  -31.7534  -17.4080   19.7761 H   0  0  0  0  0  0
  -27.9011  -17.3765   21.7024 H   0  0  0  0  0  0
  -30.8483  -24.6484   20.7322 H   0  0  0  0  0  0
  -27.0538  -24.7343   20.4940 H   0  0  0  0  0  0
  -27.7419  -24.8423   18.8815 H   0  0  0  0  0  0
  -28.9289  -15.3308   21.2808 H   0  0  0  0  0  0
  1 25  1  0  0  0
  1 30  2  0  0  0
  1 83  1  0  0  0
  2  3  1  0  0  0
  2 25  1  0  0  0
  2 86  1  0  0  0
  2 87  1  0  0  0
  3  4  1  0  0  0
  3 88  1  0  0  0
  3 89  1  0  0  0
  4  5  1  0  0  0
  4 90  1  0  0  0
  4 91  1  0  0  0
  5  6  1  0  0  0
  5 26  1  0  0  0
  5 92  1  0  0  0
  6 25  1  0  0  0
  6 93  1  0  0  0
  6 94  1  0  0  0
  7  8  2  0  0  0
  7 26  1  0  0  0
  7 29  1  0  0  0
  8  9  1  0  0  0
  8 22  1  0  0  0
  9 10  1  0  0  0
  9 27  2  0  0  0
 10 11  2  0  0  0
 10 15  1  0  0  0
 11 12  1  0  0  0
 11 95  1  0  0  0
 12 13  2  0  0  0
 12 96  1  0  0  0
 13 14  1  0  0  0
 13 31  1  0  0  0
 14 15  2  0  0  0
 14 97  1  0  0  0
 15 98  1  0  0  0
 16 17  2  0  0  0
 16 21  1  0  0  0
 16 31  1  0  0  0
 17 18  1  0  0  0
 17 99  1  0  0  0
 18 19  2  0  0  0
 18100  1  0  0  0
 19 20  1  0  0  0
 19 24  1  0  0  0
 20 21  2  0  0  0
 20101  1  0  0  0
 21 23  1  0  0  0
 22 28  1  0  0  0
 22 32  2  0  0  0
 26 27  1  0  0  0
 28102  1  0  0  0
 28103  1  0  0  0
 29104  1  0  0  0
 29105  1  0  0  0
 33 34  1  0  0  0
 33 66  1  0  0  0
 33 70  2  0  0  0
 34 36  1  0  0  0
 34 59  1  0  0  0
 34106  1  0  0  0
 35 44  2  0  0  0
 35 45  1  0  0  0
 35 68  1  0  0  0
 36 56  1  0  0  0
 36107  1  0  0  0
 37 39  1  0  0  0
 37 47  1  0  0  0
 37 66  1  0  0  0
 37108  1  0  0  0
 38 43  2  0  0  0
 38 46  1  0  0  0
 38 47  1  0  0  0
 39 64  1  0  0  0
 39 67  2  0  0  0
 40 52  1  0  0  0
 40 53  2  0  0  0
 40 58  1  0  0  0
 41109  1  0  0  0
 41110  1  0  0  0
 41111  1  0  0  0
 41 48  1  0  0  0
 42 43  1  0  0  0
 42 66  1  0  0  0
 42112  1  0  0  0
 42113  1  0  0  0
 43 44  1  0  0  0
 44114  1  0  0  0
 45 46  2  0  0  0
 45115  1  0  0  0
 46116  1  0  0  0
 47117  1  0  0  0
 47118  1  0  0  0
 48 56  1  0  0  0
 48 65  1  0  0  0
 48119  1  0  0  0
 49 50  1  0  0  0
 49 53  1  0  0  0
 49 64  1  0  0  0
 49120  1  0  0  0
 50 51  1  0  0  0
 50121  1  0  0  0
 50122  1  0  0  0
 51 52  1  0  0  0
 51123  1  0  0  0
 51124  1  0  0  0
 52125  1  0  0  0
 52126  1  0  0  0
 53 54  1  0  0  0
 54 55  2  0  0  0
 54127  1  0  0  0
 55 57  1  0  0  0
 55128  1  0  0  0
 56 69  2  0  0  0
 57 58  2  0  0  0
 57129  1  0  0  0
 58130  1  0  0  0
 59 60  1  0  0  0
 59 61  1  0  0  0
 59 62  1  0  0  0
 60131  1  0  0  0
 60132  1  0  0  0
 60133  1  0  0  0
 61134  1  0  0  0
 61135  1  0  0  0
 61136  1  0  0  0
 62137  1  0  0  0
 62138  1  0  0  0
 62139  1  0  0  0
 63 65  1  0  0  0
 63140  1  0  0  0
 63141  1  0  0  0
 63142  1  0  0  0
 64143  1  0  0  0
 65144  1  0  0  0
 68 81  1  0  0  0
 71 73  2  0  0  0
 71 75  1  0  0  0
 71145  1  0  0  0
 72 74  1  0  0  0
 72 75  2  0  0  0
 72146  1  0  0  0
 73 76  1  0  0  0
 73147  1  0  0  0
 74 76  2  0  0  0
 74148  1  0  0  0
 75 82  1  0  0  0
 76 83  1  0  0  0
 77 78  2  0  0  0
 77 79  1  0  0  0
 77149  1  0  0  0
 78 80  1  0  0  0
 78 81  1  0  0  0
 79 82  1  0  0  0
 79 84  2  0  0  0
 80 82  1  0  0  0
 80 85  2  0  0  0
 81150  1  0  0  0
 81151  1  0  0  0
 83152  1  0  0  0
M  ISO  4   1 100  68 101  81 101  83 100
M  END
> <chiral flag>
0

> <version>
0

> <s_m_source_file>
/data/baiqing/PycharmProjects/Reinvent-master-3.2/result/LINK_invent/BTK/process_docking_weight1_custom_product_contain_oxygen_bond_distance_aromatic_linkinvent_7_9_3/rearranged_h_0088.sdf

> <i_m_source_file_index>
1

> <r_mmod_Potential_Energy-OPLS-2005>
82.7786254882812

> <r_mmod_Stretch_Energy-OPLS-2005>
87.6945190429688

> <r_mmod_Bend_Energy-OPLS-2005>
189.800857543945

> <r_mmod_Torsional_Energy-OPLS-2005>
235.467269897461

> <r_mmod_Improper_Torsional_Energy-OPLS-2005>
3.68464469909668

> <r_mmod_Van_der_Waal_Energy-OPLS-2005>
148.999633789062

> <r_mmod_Electrostatic_Energy-OPLS-2005>
-403.608795166016

> <r_mmod_Solvation_Energy-OPLS-2005>
-237.189315795898

> <b_mmod_Minimization_Converged-OPLS-2005>
0

> <r_mmod_RMS_Derivative-OPLS-2005>
1.06836152076721

$$$$
1
                    3D
 Structure written by MMmdl.
154163  0  0  1  0            999 V2000
  -30.6134  -14.6571   20.4908 C   0  0  0  0  0  0
  -30.4440  -12.4030   19.4494 C   0  0  0  0  0  0
  -29.5090  -12.5077   18.2236 C   0  0  0  0  0  0
  -28.0321  -12.3407   18.6375 C   0  0  0  0  0  0
  -27.6533  -13.2135   19.8634 C   0  0  2  0  0  0
  -28.7015  -13.0753   20.9905 C   0  0  0  0  0  0
  -25.2572  -13.8180   20.5706 C   0  0  0  0  0  0
  -24.1830  -13.0437   20.9175 C   0  0  0  0  0  0
  -24.6394  -11.6908   20.8730 C   0  0  0  0  0  0
  -23.9061  -10.4290   21.0399 C   0  0  0  0  0  0
  -24.3613   -9.4208   21.9179 C   0  0  0  0  0  0
  -23.6287   -8.2245   22.0756 C   0  0  0  0  0  0
  -22.4269   -8.0282   21.3547 C   0  0  0  0  0  0
  -21.9901   -9.0255   20.4651 C   0  0  0  0  0  0
  -22.7232  -10.2131   20.3054 C   0  0  0  0  0  0
  -21.6853   -6.0731   22.5277 C   0  0  0  0  0  0
  -21.4015   -6.5636   23.8209 C   0  0  0  0  0  0
  -21.3659   -5.6791   24.9173 C   0  0  0  0  0  0
  -21.6044   -4.3053   24.7226 C   0  0  0  0  0  0
  -21.8820   -3.8143   23.4348 C   0  0  0  0  0  0
  -21.9193   -4.6958   22.3402 C   0  0  0  0  0  0
  -22.7850  -13.5231   21.1839 C   0  0  0  0  0  0
  -22.1660   -4.2142   21.0979 F   0  0  0  0  0  0
  -21.5629   -3.4537   25.7740 F   0  0  0  0  0  0
  -30.0144  -13.4250   20.4227 N   0  0  0  0  0  0
  -26.2995  -12.9347   20.3334 N   0  0  0  0  0  0
  -25.9322  -11.6501   20.5758 N   0  0  0  0  0  0
  -22.0493  -12.8234   22.0406 N   0  0  0  0  0  0
  -25.4236  -15.1922   20.4197 N   0  0  0  0  0  0
  -31.7838  -14.8230   20.1361 O   0  0  0  0  0  0
  -21.6639   -6.8875   21.4240 O   0  0  0  0  0  0
  -22.3528  -14.5533   20.6687 O   0  0  0  0  0  0
  -24.6295  -31.8602   23.2043 C   0  0  0  0  0  0
  -25.9133  -32.4783   23.8372 C   0  0  1  0  0  0
  -27.2166  -27.3010   20.1032 C   0  0  0  0  0  0
  -25.5938  -33.8583   24.2290 N   0  0  0  0  0  0
  -23.4237  -30.4878   21.5489 C   0  0  2  0  0  0
  -24.8675  -28.9503   20.1109 C   0  0  0  0  0  0
  -22.7492  -29.4631   22.4933 C   0  0  0  0  0  0
  -18.0294  -28.1390   22.8492 C   0  0  0  0  0  0
  -24.1489  -36.7295   23.2636 C   0  0  0  0  0  0
  -25.9698  -30.7840   21.3812 C   0  0  0  0  0  0
  -26.0423  -29.4127   20.7181 C   0  0  0  0  0  0
  -27.2197  -28.6004   20.7070 C   0  0  0  0  0  0
  -26.0117  -26.9099   19.4654 C   0  0  0  0  0  0
  -24.8553  -27.7038   19.4777 C   0  0  0  0  0  0
  -23.6390  -29.8332   20.1623 C   0  0  0  0  0  0
  -25.4111  -36.3084   24.0328 C   0  0  1  0  0  0
  -20.5897  -28.3698   23.1277 C   0  0  2  0  0  0
  -20.6782  -26.9418   22.5407 C   0  0  0  0  0  0
  -19.5752  -26.6386   21.5215 C   0  0  0  0  0  0
  -18.1936  -26.7936   22.1631 C   0  0  0  0  0  0
  -19.1547  -28.8861   23.2882 C   0  0  0  0  0  0
  -18.9466  -30.1463   23.8899 C   0  0  0  0  0  0
  -17.6464  -30.6590   24.0568 C   0  0  0  0  0  0
  -25.9054  -34.9453   23.5109 C   0  0  0  0  0  0
  -16.5357  -29.9088   23.6331 C   0  0  0  0  0  0
  -16.7280  -28.6506   23.0352 C   0  0  0  0  0  0
  -26.4495  -31.6591   25.0749 C   0  0  0  0  0  0
  -25.3714  -31.3743   26.1470 C   0  0  0  0  0  0
  -27.0332  -30.3009   24.6218 C   0  0  0  0  0  0
  -27.6059  -32.4320   25.7515 C   0  0  0  0  0  0
  -27.5580  -37.1801   24.8461 C   0  0  0  0  0  0
  -21.4201  -29.3053   22.3672 N   0  0  0  0  0  0
  -26.4285  -37.3781   23.9414 N   0  0  0  0  0  0
  -24.6937  -31.0597   22.1014 N   0  0  0  0  0  0
  -23.4207  -28.8156   23.3008 O   0  0  0  0  0  0
  -28.3097  -26.4057   20.1526 O   0  0  0  0  0  0
  -26.5620  -34.8918   22.4675 O   0  0  0  0  0  0
  -23.5450  -32.1415   23.7348 O   0  0  0  0  0  0
  -28.7686  -19.2521   19.8537 C   0  0  0  0  0  0
  -30.8129  -19.3858   21.0976 C   0  0  0  0  0  0
  -29.7581  -20.0986   20.4393 C   0  0  0  0  0  0
  -28.8193  -17.8260   19.9308 C   0  0  0  0  0  0
  -29.8762  -17.1416   20.5892 C   0  0  0  0  0  0
  -30.8784  -17.9583   21.1749 C   0  0  0  0  0  0
  -30.3040  -23.7922   20.2766 C   0  0  0  0  0  0
  -28.9751  -23.7912   20.1880 C   0  0  0  0  0  0
  -30.7781  -22.4210   20.3785 C   0  0  0  0  0  0
  -28.5751  -22.3745   20.2578 C   0  0  0  0  0  0
  -27.9723  -24.9693   19.9358 C   0  0  0  0  0  0
  -29.6982  -21.5931   20.3650 N   0  0  0  0  0  0
  -27.8006  -17.0738   19.3380 N   0  0  0  0  0  0
  -29.7673  -15.6948   20.7630 N   0  0  0  0  0  0
  -31.9630  -22.0733   20.4312 O   0  0  0  0  0  0
  -27.4132  -21.9528   20.2376 O   0  0  0  0  0  0
  -31.8896  -17.3841   21.8715 F   0  0  0  0  0  0
  -31.4837  -12.5379   19.1451 H   0  0  0  0  0  0
  -30.3884  -11.4092   19.8957 H   0  0  0  0  0  0
  -29.7753  -11.7546   17.4807 H   0  0  0  0  0  0
  -29.6457  -13.4756   17.7387 H   0  0  0  0  0  0
  -27.8730  -11.2877   18.8724 H   0  0  0  0  0  0
  -27.3761  -12.5665   17.7960 H   0  0  0  0  0  0
  -27.6643  -14.2450   19.5162 H   0  0  0  0  0  0
  -28.7182  -12.0545   21.3744 H   0  0  0  0  0  0
  -28.4469  -13.7086   21.8419 H   0  0  0  0  0  0
  -25.2757   -9.5683   22.4752 H   0  0  0  0  0  0
  -23.9996   -7.4636   22.7475 H   0  0  0  0  0  0
  -21.0831   -8.8776   19.8957 H   0  0  0  0  0  0
  -22.3691  -10.9671   19.6164 H   0  0  0  0  0  0
  -21.2010   -7.6143   23.9711 H   0  0  0  0  0  0
  -21.1479   -6.0520   25.9074 H   0  0  0  0  0  0
  -22.0599   -2.7605   23.2852 H   0  0  0  0  0  0
  -22.4109  -11.9901   22.4804 H   0  0  0  0  0  0
  -21.1114  -13.1271   22.2611 H   0  0  0  0  0  0
  -24.6483  -15.8333   20.5441 H   0  0  0  0  0  0
  -26.2753  -15.6724   20.1350 H   0  0  0  0  0  0
  -26.7201  -32.5442   23.1119 H   0  0  0  0  0  0
  -25.0070  -33.9727   25.0426 H   0  0  0  0  0  0
  -22.7189  -31.3100   21.4096 H   0  0  0  0  0  0
  -23.3750  -35.9627   23.3292 H   0  0  0  0  0  0
  -24.3587  -36.8923   22.2053 H   0  0  0  0  0  0
  -23.7238  -37.6493   23.6661 H   0  0  0  0  0  0
  -26.1055  -31.5487   20.6153 H   0  0  0  0  0  0
  -26.8488  -30.8290   22.0124 H   0  0  0  0  0  0
  -28.1172  -28.9488   21.1991 H   0  0  0  0  0  0
  -25.9073  -25.9672   18.9521 H   0  0  0  0  0  0
  -23.9568  -27.3444   18.9949 H   0  0  0  0  0  0
  -23.7634  -30.6148   19.4118 H   0  0  0  0  0  0
  -22.7570  -29.2689   19.8543 H   0  0  0  0  0  0
  -25.1283  -36.1939   25.0819 H   0  0  0  0  0  0
  -20.9990  -28.3274   24.1395 H   0  0  0  0  0  0
  -20.5686  -26.2306   23.3607 H   0  0  0  0  0  0
  -21.6652  -26.7447   22.1197 H   0  0  0  0  0  0
  -19.6909  -25.6296   21.1245 H   0  0  0  0  0  0
  -19.6682  -27.3197   20.6744 H   0  0  0  0  0  0
  -17.4199  -26.6685   21.4038 H   0  0  0  0  0  0
  -18.0334  -26.0078   22.9025 H   0  0  0  0  0  0
  -19.7940  -30.7286   24.2262 H   0  0  0  0  0  0
  -17.5015  -31.6270   24.5172 H   0  0  0  0  0  0
  -15.5355  -30.2986   23.7656 H   0  0  0  0  0  0
  -15.8683  -28.0825   22.7057 H   0  0  0  0  0  0
  -24.5892  -30.7085   25.7805 H   0  0  0  0  0  0
  -24.8895  -32.2910   26.4880 H   0  0  0  0  0  0
  -25.8026  -30.8935   27.0259 H   0  0  0  0  0  0
  -26.2916  -29.6771   24.1215 H   0  0  0  0  0  0
  -27.3989  -29.7261   25.4737 H   0  0  0  0  0  0
  -27.8805  -30.4291   23.9478 H   0  0  0  0  0  0
  -27.2680  -33.3623   26.2094 H   0  0  0  0  0  0
  -28.3866  -32.6873   25.0336 H   0  0  0  0  0  0
  -28.0727  -31.8439   26.5428 H   0  0  0  0  0  0
  -28.2585  -38.0110   24.7525 H   0  0  0  0  0  0
  -28.1084  -36.2641   24.6255 H   0  0  0  0  0  0
  -27.2306  -37.1422   25.8866 H   0  0  0  0  0  0
  -20.9373  -29.8793   21.6902 H   0  0  0  0  0  0
  -26.0164  -38.2853   24.1427 H   0  0  0  0  0  0
  -27.9402  -19.6983   19.3229 H   0  0  0  0  0  0
  -31.6029  -19.9281   21.5941 H   0  0  0  0  0  0
  -30.9365  -24.6640   20.2211 H   0  0  0  0  0  0
  -27.0946  -24.7331   20.5409 H   0  0  0  0  0  0
  -27.6879  -24.8458   18.8906 H   0  0  0  0  0  0
  -27.1652  -17.5979   18.7454 H   0  0  0  0  0  0
  -28.1260  -16.2475   18.8510 H   0  0  0  0  0  0
  -28.8144  -15.3957   20.8943 H   0  0  0  0  0  0
  1 25  1  0  0  0
  1 30  2  0  0  0
  1 84  1  0  0  0
  2  3  1  0  0  0
  2 25  1  0  0  0
  2 88  1  0  0  0
  2 89  1  0  0  0
  3  4  1  0  0  0
  3 90  1  0  0  0
  3 91  1  0  0  0
  4  5  1  0  0  0
  4 92  1  0  0  0
  4 93  1  0  0  0
  5  6  1  0  0  0
  5 26  1  0  0  0
  5 94  1  0  0  0
  6 25  1  0  0  0
  6 95  1  0  0  0
  6 96  1  0  0  0
  7  8  2  0  0  0
  7 26  1  0  0  0
  7 29  1  0  0  0
  8  9  1  0  0  0
  8 22  1  0  0  0
  9 10  1  0  0  0
  9 27  2  0  0  0
 10 11  2  0  0  0
 10 15  1  0  0  0
 11 12  1  0  0  0
 11 97  1  0  0  0
 12 13  2  0  0  0
 12 98  1  0  0  0
 13 14  1  0  0  0
 13 31  1  0  0  0
 14 15  2  0  0  0
 14 99  1  0  0  0
 15100  1  0  0  0
 16 17  2  0  0  0
 16 21  1  0  0  0
 16 31  1  0  0  0
 17 18  1  0  0  0
 17101  1  0  0  0
 18 19  2  0  0  0
 18102  1  0  0  0
 19 20  1  0  0  0
 19 24  1  0  0  0
 20 21  2  0  0  0
 20103  1  0  0  0
 21 23  1  0  0  0
 22 28  1  0  0  0
 22 32  2  0  0  0
 26 27  1  0  0  0
 28104  1  0  0  0
 28105  1  0  0  0
 29106  1  0  0  0
 29107  1  0  0  0
 33 34  1  0  0  0
 33 66  1  0  0  0
 33 70  2  0  0  0
 34 36  1  0  0  0
 34 59  1  0  0  0
 34108  1  0  0  0
 35 44  2  0  0  0
 35 45  1  0  0  0
 35 68  1  0  0  0
 36 56  1  0  0  0
 36109  1  0  0  0
 37 39  1  0  0  0
 37 47  1  0  0  0
 37 66  1  0  0  0
 37110  1  0  0  0
 38 43  2  0  0  0
 38 46  1  0  0  0
 38 47  1  0  0  0
 39 64  1  0  0  0
 39 67  2  0  0  0
 40 52  1  0  0  0
 40 53  2  0  0  0
 40 58  1  0  0  0
 41111  1  0  0  0
 41112  1  0  0  0
 41113  1  0  0  0
 41 48  1  0  0  0
 42 43  1  0  0  0
 42 66  1  0  0  0
 42114  1  0  0  0
 42115  1  0  0  0
 43 44  1  0  0  0
 44116  1  0  0  0
 45 46  2  0  0  0
 45117  1  0  0  0
 46118  1  0  0  0
 47119  1  0  0  0
 47120  1  0  0  0
 48 56  1  0  0  0
 48 65  1  0  0  0
 48121  1  0  0  0
 49 50  1  0  0  0
 49 53  1  0  0  0
 49 64  1  0  0  0
 49122  1  0  0  0
 50 51  1  0  0  0
 50123  1  0  0  0
 50124  1  0  0  0
 51 52  1  0  0  0
 51125  1  0  0  0
 51126  1  0  0  0
 52127  1  0  0  0
 52128  1  0  0  0
 53 54  1  0  0  0
 54 55  2  0  0  0
 54129  1  0  0  0
 55 57  1  0  0  0
 55130  1  0  0  0
 56 69  2  0  0  0
 57 58  2  0  0  0
 57131  1  0  0  0
 58132  1  0  0  0
 59 60  1  0  0  0
 59 61  1  0  0  0
 59 62  1  0  0  0
 60133  1  0  0  0
 60134  1  0  0  0
 60135  1  0  0  0
 61136  1  0  0  0
 61137  1  0  0  0
 61138  1  0  0  0
 62139  1  0  0  0
 62140  1  0  0  0
 62141  1  0  0  0
 63 65  1  0  0  0
 63142  1  0  0  0
 63143  1  0  0  0
 63144  1  0  0  0
 64145  1  0  0  0
 65146  1  0  0  0
 68 81  1  0  0  0
 71 73  2  0  0  0
 71 74  1  0  0  0
 71147  1  0  0  0
 72 73  1  0  0  0
 72 76  2  0  0  0
 72148  1  0  0  0
 73 82  1  0  0  0
 74 75  2  0  0  0
 74 83  1  0  0  0
 75 76  1  0  0  0
 75 84  1  0  0  0
 76 87  1  0  0  0
 77 78  2  0  0  0
 77 79  1  0  0  0
 77149  1  0  0  0
 78 80  1  0  0  0
 78 81  1  0  0  0
 79 82  1  0  0  0
 79 85  2  0  0  0
 80 82  1  0  0  0
 80 86  2  0  0  0
 81150  1  0  0  0
 81151  1  0  0  0
 83152  1  0  0  0
 83153  1  0  0  0
 84154  1  0  0  0
M  ISO  4   1 100  68 101  81 101  84 100
M  END
> <chiral flag>
0

> <version>
0

> <s_m_source_file>
/data/baiqing/PycharmProjects/Reinvent-master-3.2/result/LINK_invent/BTK/process_docking_weight1_custom_product_contain_oxygen_bond_distance_aromatic_linkinvent_7_9_3/rearranged_h_0088.sdf

> <i_m_source_file_index>
2

> <r_mmod_Potential_Energy-OPLS-2005>
20.0699424743652

> <r_mmod_Stretch_Energy-OPLS-2005>
88.8897933959961

> <r_mmod_Bend_Energy-OPLS-2005>
186.997985839844

> <r_mmod_Torsional_Energy-OPLS-2005>
256.117340087891

> <r_mmod_Improper_Torsional_Energy-OPLS-2005>
11.6548099517822

> <r_mmod_Van_der_Waal_Energy-OPLS-2005>
154.465744018555

> <r_mmod_Electrostatic_Energy-OPLS-2005>
-498.013946533203

> <r_mmod_Solvation_Energy-OPLS-2005>
-238.517074584961

> <b_mmod_Minimization_Converged-OPLS-2005>
0

> <r_mmod_RMS_Derivative-OPLS-2005>
0.785273790359497

$$$$
2
                    3D
 Structure written by MMmdl.
153162  0  0  1  0            999 V2000
  -30.5657  -14.7674   20.4331 C   0  0  0  0  0  0
  -30.4473  -12.4628   19.4589 C   0  0  0  0  0  0
  -29.5128  -12.5096   18.2285 C   0  0  0  0  0  0
  -28.0373  -12.3287   18.6438 C   0  0  0  0  0  0
  -27.6429  -13.2187   19.8514 C   0  0  2  0  0  0
  -28.6954  -13.1429   20.9790 C   0  0  0  0  0  0
  -25.2531  -13.8146   20.5733 C   0  0  0  0  0  0
  -24.1800  -13.0413   20.9213 C   0  0  0  0  0  0
  -24.6382  -11.6891   20.8747 C   0  0  0  0  0  0
  -23.9059  -10.4280   21.0415 C   0  0  0  0  0  0
  -24.3615   -9.4206   21.9200 C   0  0  0  0  0  0
  -23.6293   -8.2241   22.0770 C   0  0  0  0  0  0
  -22.4279   -8.0274   21.3550 C   0  0  0  0  0  0
  -21.9909   -9.0247   20.4647 C   0  0  0  0  0  0
  -22.7235  -10.2128   20.3061 C   0  0  0  0  0  0
  -21.6857   -6.0723   22.5272 C   0  0  0  0  0  0
  -21.4010   -6.5632   23.8203 C   0  0  0  0  0  0
  -21.3657   -5.6784   24.9165 C   0  0  0  0  0  0
  -21.6042   -4.3046   24.7225 C   0  0  0  0  0  0
  -21.8823   -3.8135   23.4348 C   0  0  0  0  0  0
  -21.9194   -4.6947   22.3398 C   0  0  0  0  0  0
  -22.7826  -13.5221   21.1863 C   0  0  0  0  0  0
  -22.1669   -4.2138   21.0980 F   0  0  0  0  0  0
  -21.5626   -3.4530   25.7736 F   0  0  0  0  0  0
  -29.9938  -13.5132   20.3956 N   0  0  0  0  0  0
  -26.2948  -12.9332   20.3298 N   0  0  0  0  0  0
  -25.9307  -11.6489   20.5743 N   0  0  0  0  0  0
  -22.0445  -12.8219   22.0403 N   0  0  0  0  0  0
  -25.4241  -15.1867   20.4234 N   0  0  0  0  0  0
  -31.7590  -14.9193   20.1586 O   0  0  0  0  0  0
  -21.6647   -6.8870   21.4239 O   0  0  0  0  0  0
  -22.3531  -14.5535   20.6704 O   0  0  0  0  0  0
  -24.6309  -31.8540   23.1995 C   0  0  0  0  0  0
  -25.9127  -32.4746   23.8348 C   0  0  1  0  0  0
  -27.2277  -27.2709   20.1297 C   0  0  0  0  0  0
  -25.5918  -33.8551   24.2261 N   0  0  0  0  0  0
  -23.4303  -30.4759   21.5421 C   0  0  2  0  0  0
  -24.8825  -28.9261   20.1105 C   0  0  0  0  0  0
  -22.7508  -29.4575   22.4903 C   0  0  0  0  0  0
  -18.0290  -28.1391   22.8483 C   0  0  0  0  0  0
  -24.1483  -36.7283   23.2640 C   0  0  0  0  0  0
  -25.9765  -30.7704   21.3798 C   0  0  0  0  0  0
  -26.0537  -29.3932   20.7231 C   0  0  0  0  0  0
  -27.2320  -28.5774   20.7257 C   0  0  0  0  0  0
  -26.0377  -26.8735   19.4839 C   0  0  0  0  0  0
  -24.8777  -27.6729   19.4794 C   0  0  0  0  0  0
  -23.6516  -29.8125   20.1574 C   0  0  0  0  0  0
  -25.4103  -36.3062   24.0328 C   0  0  1  0  0  0
  -20.5895  -28.3694   23.1267 C   0  0  2  0  0  0
  -20.6782  -26.9411   22.5407 C   0  0  0  0  0  0
  -19.5757  -26.6382   21.5214 C   0  0  0  0  0  0
  -18.1937  -26.7934   22.1621 C   0  0  0  0  0  0
  -19.1546  -28.8864   23.2870 C   0  0  0  0  0  0
  -18.9466  -30.1466   23.8894 C   0  0  0  0  0  0
  -17.6463  -30.6589   24.0565 C   0  0  0  0  0  0
  -25.9047  -34.9432   23.5098 C   0  0  0  0  0  0
  -16.5353  -29.9090   23.6334 C   0  0  0  0  0  0
  -16.7273  -28.6509   23.0352 C   0  0  0  0  0  0
  -26.4494  -31.6569   25.0737 C   0  0  0  0  0  0
  -25.3716  -31.3732   26.1454 C   0  0  0  0  0  0
  -27.0331  -30.2982   24.6228 C   0  0  0  0  0  0
  -27.6045  -32.4312   25.7508 C   0  0  0  0  0  0
  -27.5571  -37.1795   24.8458 C   0  0  0  0  0  0
  -21.4215  -29.3033   22.3652 N   0  0  0  0  0  0
  -26.4279  -37.3760   23.9407 N   0  0  0  0  0  0
  -24.6982  -31.0507   22.0975 N   0  0  0  0  0  0
  -23.4203  -28.8105   23.3004 O   0  0  0  0  0  0
  -28.2855  -26.3329   20.1732 O   0  0  0  0  0  0
  -26.5629  -34.8910   22.4675 O   0  0  0  0  0  0
  -23.5448  -32.1354   23.7284 O   0  0  0  0  0  0
  -28.5737  -19.4490   19.7352 C   0  0  0  0  0  0
  -30.5958  -18.1766   21.1335 C   0  0  0  0  0  0
  -28.7277  -18.0223   19.6655 C   0  0  0  0  0  0
  -29.3824  -20.3293   20.5105 C   0  0  0  0  0  0
  -29.7242  -17.3129   20.4111 C   0  0  0  0  0  0
  -30.4321  -19.6094   21.1729 C   0  0  0  0  0  0
  -28.4900  -23.7593   20.5689 C   0  0  0  0  0  0
  -28.0075  -22.5293   21.1911 C   0  0  0  0  0  0
  -27.9705  -25.0474   20.7074 C   0  0  0  0  0  0
  -29.5763  -22.9110   19.8503 C   0  0  0  0  0  0
  -27.7649  -17.2861   18.7480 C   0  0  0  0  0  0
  -29.0935  -21.7799   20.6994 N   0  0  0  0  0  0
  -29.6749  -15.8268   20.5425 N   0  0  0  0  0  0
  -26.9875  -22.3000   21.8092 O   0  0  0  0  0  0
  -31.2940  -20.3194   21.9405 F   0  0  0  0  0  0
  -31.4841  -12.6113   19.1512 H   0  0  0  0  0  0
  -30.4090  -11.4826   19.9379 H   0  0  0  0  0  0
  -29.7944  -11.7391   17.5089 H   0  0  0  0  0  0
  -29.6315  -13.4661   17.7170 H   0  0  0  0  0  0
  -27.8927  -11.2773   18.8975 H   0  0  0  0  0  0
  -27.3804  -12.5308   17.7966 H   0  0  0  0  0  0
  -27.6298  -14.2391   19.4743 H   0  0  0  0  0  0
  -28.7394  -12.1377   21.4002 H   0  0  0  0  0  0
  -28.4322  -13.8075   21.8029 H   0  0  0  0  0  0
  -25.2772   -9.5687   22.4761 H   0  0  0  0  0  0
  -23.9993   -7.4642   22.7501 H   0  0  0  0  0  0
  -21.0839   -8.8772   19.8957 H   0  0  0  0  0  0
  -22.3711  -10.9664   19.6157 H   0  0  0  0  0  0
  -21.1996   -7.6140   23.9707 H   0  0  0  0  0  0
  -21.1478   -6.0514   25.9070 H   0  0  0  0  0  0
  -22.0604   -2.7597   23.2857 H   0  0  0  0  0  0
  -22.4036  -11.9872   22.4789 H   0  0  0  0  0  0
  -21.1055  -13.1252   22.2580 H   0  0  0  0  0  0
  -24.6618  -15.8431   20.5550 H   0  0  0  0  0  0
  -26.2736  -15.6304   20.1076 H   0  0  0  0  0  0
  -26.7197  -32.5403   23.1094 H   0  0  0  0  0  0
  -25.0041  -33.9685   25.0389 H   0  0  0  0  0  0
  -22.7263  -31.2977   21.3950 H   0  0  0  0  0  0
  -23.3734  -35.9626   23.3300 H   0  0  0  0  0  0
  -24.3573  -36.8911   22.2054 H   0  0  0  0  0  0
  -23.7244  -37.6488   23.6668 H   0  0  0  0  0  0
  -26.1127  -31.5315   20.6094 H   0  0  0  0  0  0
  -26.8542  -30.8219   22.0128 H   0  0  0  0  0  0
  -28.1266  -28.9228   21.2252 H   0  0  0  0  0  0
  -25.9941  -25.9072   19.0023 H   0  0  0  0  0  0
  -23.9832  -27.3084   18.9924 H   0  0  0  0  0  0
  -23.7794  -30.5910   19.4042 H   0  0  0  0  0  0
  -22.7702  -29.2487   19.8465 H   0  0  0  0  0  0
  -25.1283  -36.1917   25.0822 H   0  0  0  0  0  0
  -20.9987  -28.3279   24.1384 H   0  0  0  0  0  0
  -20.5685  -26.2304   23.3611 H   0  0  0  0  0  0
  -21.6651  -26.7439   22.1202 H   0  0  0  0  0  0
  -19.6918  -25.6294   21.1247 H   0  0  0  0  0  0
  -19.6698  -27.3192   20.6750 H   0  0  0  0  0  0
  -17.4205  -26.6679   21.4023 H   0  0  0  0  0  0
  -18.0329  -26.0081   22.9020 H   0  0  0  0  0  0
  -19.7940  -30.7286   24.2255 H   0  0  0  0  0  0
  -17.5014  -31.6267   24.5170 H   0  0  0  0  0  0
  -15.5353  -30.2990   23.7664 H   0  0  0  0  0  0
  -15.8673  -28.0826   22.7068 H   0  0  0  0  0  0
  -24.5878  -30.7095   25.7785 H   0  0  0  0  0  0
  -24.8921  -32.2908   26.4872 H   0  0  0  0  0  0
  -25.8019  -30.8904   27.0236 H   0  0  0  0  0  0
  -26.2914  -29.6733   24.1233 H   0  0  0  0  0  0
  -27.3980  -29.7242   25.4757 H   0  0  0  0  0  0
  -27.8813  -30.4249   23.9496 H   0  0  0  0  0  0
  -27.2647  -33.3615   26.2074 H   0  0  0  0  0  0
  -28.3858  -32.6863   25.0337 H   0  0  0  0  0  0
  -28.0707  -31.8445   26.5433 H   0  0  0  0  0  0
  -28.2586  -38.0098   24.7498 H   0  0  0  0  0  0
  -28.1073  -36.2621   24.6287 H   0  0  0  0  0  0
  -27.2293  -37.1454   25.8868 H   0  0  0  0  0  0
  -20.9400  -29.8751   21.6852 H   0  0  0  0  0  0
  -26.0153  -38.2836   24.1412 H   0  0  0  0  0  0
  -27.7577  -19.8915   19.1809 H   0  0  0  0  0  0
  -31.3809  -17.7398   21.7327 H   0  0  0  0  0  0
  -27.1281  -25.1469   21.3798 H   0  0  0  0  0  0
  -30.6226  -23.1422   20.0519 H   0  0  0  0  0  0
  -29.4285  -22.7100   18.7875 H   0  0  0  0  0  0
  -27.6817  -17.8135   17.7961 H   0  0  0  0  0  0
  -26.7694  -17.2473   19.1880 H   0  0  0  0  0  0
  -28.0938  -16.2758   18.5122 H   0  0  0  0  0  0
  -28.7348  -15.4746   20.6200 H   0  0  0  0  0  0
  1 25  1  0  0  0
  1 30  2  0  0  0
  1 83  1  0  0  0
  2  3  1  0  0  0
  2 25  1  0  0  0
  2 86  1  0  0  0
  2 87  1  0  0  0
  3  4  1  0  0  0
  3 88  1  0  0  0
  3 89  1  0  0  0
  4  5  1  0  0  0
  4 90  1  0  0  0
  4 91  1  0  0  0
  5  6  1  0  0  0
  5 26  1  0  0  0
  5 92  1  0  0  0
  6 25  1  0  0  0
  6 93  1  0  0  0
  6 94  1  0  0  0
  7  8  2  0  0  0
  7 26  1  0  0  0
  7 29  1  0  0  0
  8  9  1  0  0  0
  8 22  1  0  0  0
  9 10  1  0  0  0
  9 27  2  0  0  0
 10 11  2  0  0  0
 10 15  1  0  0  0
 11 12  1  0  0  0
 11 95  1  0  0  0
 12 13  2  0  0  0
 12 96  1  0  0  0
 13 14  1  0  0  0
 13 31  1  0  0  0
 14 15  2  0  0  0
 14 97  1  0  0  0
 15 98  1  0  0  0
 16 17  2  0  0  0
 16 21  1  0  0  0
 16 31  1  0  0  0
 17 18  1  0  0  0
 17 99  1  0  0  0
 18 19  2  0  0  0
 18100  1  0  0  0
 19 20  1  0  0  0
 19 24  1  0  0  0
 20 21  2  0  0  0
 20101  1  0  0  0
 21 23  1  0  0  0
 22 28  1  0  0  0
 22 32  2  0  0  0
 26 27  1  0  0  0
 28102  1  0  0  0
 28103  1  0  0  0
 29104  1  0  0  0
 29105  1  0  0  0
 33 34  1  0  0  0
 33 66  1  0  0  0
 33 70  2  0  0  0
 34 36  1  0  0  0
 34 59  1  0  0  0
 34106  1  0  0  0
 35 44  2  0  0  0
 35 45  1  0  0  0
 35 68  1  0  0  0
 36 56  1  0  0  0
 36107  1  0  0  0
 37 39  1  0  0  0
 37 47  1  0  0  0
 37 66  1  0  0  0
 37108  1  0  0  0
 38 43  2  0  0  0
 38 46  1  0  0  0
 38 47  1  0  0  0
 39 64  1  0  0  0
 39 67  2  0  0  0
 40 52  1  0  0  0
 40 53  2  0  0  0
 40 58  1  0  0  0
 41109  1  0  0  0
 41110  1  0  0  0
 41111  1  0  0  0
 41 48  1  0  0  0
 42 43  1  0  0  0
 42 66  1  0  0  0
 42112  1  0  0  0
 42113  1  0  0  0
 43 44  1  0  0  0
 44114  1  0  0  0
 45 46  2  0  0  0
 45115  1  0  0  0
 46116  1  0  0  0
 47117  1  0  0  0
 47118  1  0  0  0
 48 56  1  0  0  0
 48 65  1  0  0  0
 48119  1  0  0  0
 49 50  1  0  0  0
 49 53  1  0  0  0
 49 64  1  0  0  0
 49120  1  0  0  0
 50 51  1  0  0  0
 50121  1  0  0  0
 50122  1  0  0  0
 51 52  1  0  0  0
 51123  1  0  0  0
 51124  1  0  0  0
 52125  1  0  0  0
 52126  1  0  0  0
 53 54  1  0  0  0
 54 55  2  0  0  0
 54127  1  0  0  0
 55 57  1  0  0  0
 55128  1  0  0  0
 56 69  2  0  0  0
 57 58  2  0  0  0
 57129  1  0  0  0
 58130  1  0  0  0
 59 60  1  0  0  0
 59 61  1  0  0  0
 59 62  1  0  0  0
 60131  1  0  0  0
 60132  1  0  0  0
 60133  1  0  0  0
 61134  1  0  0  0
 61135  1  0  0  0
 61136  1  0  0  0
 62137  1  0  0  0
 62138  1  0  0  0
 62139  1  0  0  0
 63 65  1  0  0  0
 63140  1  0  0  0
 63141  1  0  0  0
 63142  1  0  0  0
 64143  1  0  0  0
 65144  1  0  0  0
 68 79  1  0  0  0
 71 73  2  0  0  0
 71 74  1  0  0  0
 71145  1  0  0  0
 72 75  2  0  0  0
 72 76  1  0  0  0
 72146  1  0  0  0
 73 75  1  0  0  0
 73 81  1  0  0  0
 74 76  2  0  0  0
 74 82  1  0  0  0
 75 83  1  0  0  0
 76 85  1  0  0  0
 77 78  1  0  0  0
 77 79  2  0  0  0
 77 80  1  0  0  0
 78 82  1  0  0  0
 78 84  2  0  0  0
 79147  1  0  0  0
 80 82  1  0  0  0
 80148  1  0  0  0
 80149  1  0  0  0
 81150  1  0  0  0
 81151  1  0  0  0
 81152  1  0  0  0
 83153  1  0  0  0
M  ISO  4   1 100  68 101  79 101  83 100
M  END
> <chiral flag>
0

> <version>
0

> <s_m_source_file>
/data/baiqing/PycharmProjects/Reinvent-master-3.2/result/LINK_invent/BTK/process_docking_weight1_custom_product_contain_oxygen_bond_distance_aromatic_linkinvent_7_9_3/rearranged_h_0088.sdf

> <i_m_source_file_index>
3

> <r_mmod_Potential_Energy-OPLS-2005>
257.252105712891

> <r_mmod_Stretch_Energy-OPLS-2005>
106.64875793457

> <r_mmod_Bend_Energy-OPLS-2005>
248.239685058594

> <r_mmod_Torsional_Energy-OPLS-2005>
274.949462890625

> <r_mmod_Improper_Torsional_Energy-OPLS-2005>
9.50683116912842

> <r_mmod_Van_der_Waal_Energy-OPLS-2005>
129.046447753906

> <r_mmod_Electrostatic_Energy-OPLS-2005>
-387.606414794922

> <r_mmod_Solvation_Energy-OPLS-2005>
-217.974380493164

> <b_mmod_Minimization_Converged-OPLS-2005>
0

> <r_mmod_RMS_Derivative-OPLS-2005>
1.94699287414551

$$$$
3
                    3D
 Structure written by MMmdl.
152160  0  0  1  0            999 V2000
  -30.7142  -14.6511   20.5016 C   0  0  0  0  0  0
  -30.4116  -12.4109   19.4561 C   0  0  0  0  0  0
  -29.4946  -12.4959   18.2213 C   0  0  0  0  0  0
  -28.0237  -12.3316   18.6436 C   0  0  0  0  0  0
  -27.6410  -13.2339   19.8481 C   0  0  2  0  0  0
  -28.6911  -13.1735   20.9797 C   0  0  0  0  0  0
  -25.2514  -13.8205   20.5706 C   0  0  0  0  0  0
  -24.1809  -13.0447   20.9218 C   0  0  0  0  0  0
  -24.6401  -11.6925   20.8757 C   0  0  0  0  0  0
  -23.9081  -10.4298   21.0414 C   0  0  0  0  0  0
  -24.3627   -9.4210   21.9190 C   0  0  0  0  0  0
  -23.6296   -8.2246   22.0757 C   0  0  0  0  0  0
  -22.4281   -8.0287   21.3544 C   0  0  0  0  0  0
  -21.9923   -9.0264   20.4647 C   0  0  0  0  0  0
  -22.7256  -10.2140   20.3060 C   0  0  0  0  0  0
  -21.6853   -6.0741   22.5277 C   0  0  0  0  0  0
  -21.4014   -6.5643   23.8212 C   0  0  0  0  0  0
  -21.3658   -5.6796   24.9173 C   0  0  0  0  0  0
  -21.6044   -4.3057   24.7223 C   0  0  0  0  0  0
  -21.8819   -3.8152   23.4343 C   0  0  0  0  0  0
  -21.9193   -4.6970   22.3399 C   0  0  0  0  0  0
  -22.7829  -13.5227   21.1869 C   0  0  0  0  0  0
  -22.1662   -4.2154   21.0977 F   0  0  0  0  0  0
  -21.5628   -3.4542   25.7736 F   0  0  0  0  0  0
  -29.9945  -13.4868   20.3835 N   0  0  0  0  0  0
  -26.2946  -12.9422   20.3304 N   0  0  0  0  0  0
  -25.9334  -11.6560   20.5775 N   0  0  0  0  0  0
  -22.0469  -12.8211   22.0412 N   0  0  0  0  0  0
  -25.4198  -15.1928   20.4099 N   0  0  0  0  0  0
  -31.9045  -14.6400   20.1776 O   0  0  0  0  0  0
  -21.6642   -6.8888   21.4241 O   0  0  0  0  0  0
  -22.3516  -14.5532   20.6714 O   0  0  0  0  0  0
  -24.6283  -31.8604   23.2053 C   0  0  0  0  0  0
  -25.9131  -32.4781   23.8367 C   0  0  1  0  0  0
  -27.2084  -27.3028   20.1118 C   0  0  0  0  0  0
  -25.5947  -33.8581   24.2291 N   0  0  0  0  0  0
  -23.4202  -30.4882   21.5497 C   0  0  2  0  0  0
  -24.8641  -28.9526   20.1082 C   0  0  0  0  0  0
  -22.7478  -29.4633   22.4947 C   0  0  0  0  0  0
  -18.0282  -28.1388   22.8488 C   0  0  0  0  0  0
  -24.1488  -36.7288   23.2635 C   0  0  0  0  0  0
  -25.9652  -30.7871   21.3793 C   0  0  0  0  0  0
  -26.0370  -29.4154   20.7184 C   0  0  0  0  0  0
  -27.2129  -28.6018   20.7148 C   0  0  0  0  0  0
  -26.0123  -26.9165   19.4568 C   0  0  0  0  0  0
  -24.8554  -27.7094   19.4677 C   0  0  0  0  0  0
  -23.6332  -29.8318   20.1624 C   0  0  0  0  0  0
  -25.4112  -36.3081   24.0327 C   0  0  1  0  0  0
  -20.5884  -28.3692   23.1285 C   0  0  2  0  0  0
  -20.6776  -26.9416   22.5405 C   0  0  0  0  0  0
  -19.5748  -26.6387   21.5210 C   0  0  0  0  0  0
  -18.1927  -26.7933   22.1621 C   0  0  0  0  0  0
  -19.1535  -28.8857   23.2880 C   0  0  0  0  0  0
  -18.9458  -30.1461   23.8895 C   0  0  0  0  0  0
  -17.6459  -30.6591   24.0561 C   0  0  0  0  0  0
  -25.9054  -34.9452   23.5104 C   0  0  0  0  0  0
  -16.5350  -29.9087   23.6338 C   0  0  0  0  0  0
  -16.7269  -28.6504   23.0360 C   0  0  0  0  0  0
  -26.4515  -31.6587   25.0734 C   0  0  0  0  0  0
  -25.3743  -31.3709   26.1452 C   0  0  0  0  0  0
  -27.0367  -30.3017   24.6185 C   0  0  0  0  0  0
  -27.6072  -32.4321   25.7506 C   0  0  0  0  0  0
  -27.5580  -37.1795   24.8460 C   0  0  0  0  0  0
  -21.4189  -29.3049   22.3687 N   0  0  0  0  0  0
  -26.4284  -37.3781   23.9416 N   0  0  0  0  0  0
  -24.6905  -31.0612   22.1015 N   0  0  0  0  0  0
  -23.4199  -28.8156   23.3013 O   0  0  0  0  0  0
  -28.2907  -26.4001   20.1841 O   0  0  0  0  0  0
  -26.5611  -34.8918   22.4663 O   0  0  0  0  0  0
  -23.5447  -32.1407   23.7380 O   0  0  0  0  0  0
  -30.9119  -19.5777   20.6341 C   0  0  0  0  0  0
  -30.4384  -20.9156   20.5055 C   0  0  0  0  0  0
  -28.6667  -18.7416   20.8252 C   0  0  0  0  0  0
  -30.0539  -18.4467   20.7953 C   0  0  0  0  0  0
  -29.0547  -21.2072   20.5316 C   0  0  0  0  0  0
  -28.1858  -20.0856   20.6992 C   0  0  0  0  0  0
  -30.6802  -17.0480   21.0287 C   0  0  0  0  0  0
  -28.9592  -23.8224   20.3598 C   0  0  0  0  0  0
  -27.9494  -24.9671   19.9492 C   0  0  0  0  0  0
  -26.8108  -20.3108   20.7607 N   0  0  0  0  0  0
  -28.4730  -22.5365   20.3312 N   0  0  0  0  0  0
  -30.0624  -15.8482   20.7382 N   0  0  0  0  0  0
  -31.8309  -17.0718   21.4844 O   0  0  0  0  0  0
  -30.1178  -24.0989   20.6824 O   0  0  0  0  0  0
  -31.4556  -12.4883   19.1473 H   0  0  0  0  0  0
  -30.3200  -11.4362   19.9386 H   0  0  0  0  0  0
  -29.7637  -11.7279   17.4946 H   0  0  0  0  0  0
  -29.6328  -13.4553   17.7204 H   0  0  0  0  0  0
  -27.8764  -11.2837   18.9075 H   0  0  0  0  0  0
  -27.3626  -12.5269   17.7986 H   0  0  0  0  0  0
  -27.6355  -14.2551   19.4666 H   0  0  0  0  0  0
  -28.7114  -12.1848   21.4402 H   0  0  0  0  0  0
  -28.4441  -13.8788   21.7747 H   0  0  0  0  0  0
  -25.2769   -9.5681   22.4772 H   0  0  0  0  0  0
  -24.0002   -7.4638   22.7480 H   0  0  0  0  0  0
  -21.0856   -8.8789   19.8950 H   0  0  0  0  0  0
  -22.3722  -10.9683   19.6171 H   0  0  0  0  0  0
  -21.2005   -7.6151   23.9715 H   0  0  0  0  0  0
  -21.1481   -6.0526   25.9075 H   0  0  0  0  0  0
  -22.0599   -2.7615   23.2841 H   0  0  0  0  0  0
  -22.4082  -11.9866   22.4790 H   0  0  0  0  0  0
  -21.1083  -13.1233   22.2608 H   0  0  0  0  0  0
  -24.6484  -15.8437   20.5107 H   0  0  0  0  0  0
  -26.2586  -15.6284   20.0494 H   0  0  0  0  0  0
  -26.7196  -32.5447   23.1111 H   0  0  0  0  0  0
  -25.0109  -33.9727   25.0449 H   0  0  0  0  0  0
  -22.7141  -31.3097   21.4114 H   0  0  0  0  0  0
  -23.3757  -35.9611   23.3279 H   0  0  0  0  0  0
  -24.3584  -36.8930   22.2053 H   0  0  0  0  0  0
  -23.7233  -37.6481   23.6670 H   0  0  0  0  0  0
  -26.0972  -31.5512   20.6117 H   0  0  0  0  0  0
  -26.8462  -30.8354   22.0074 H   0  0  0  0  0  0
  -28.1074  -28.9480   21.2138 H   0  0  0  0  0  0
  -25.9197  -25.9770   18.9347 H   0  0  0  0  0  0
  -23.9602  -27.3534   18.9768 H   0  0  0  0  0  0
  -23.7496  -30.6116   19.4091 H   0  0  0  0  0  0
  -22.7527  -29.2619   19.8596 H   0  0  0  0  0  0
  -25.1292  -36.1924   25.0818 H   0  0  0  0  0  0
  -20.9969  -28.3258   24.1409 H   0  0  0  0  0  0
  -20.5690  -26.2293   23.3599 H   0  0  0  0  0  0
  -21.6646  -26.7457   22.1190 H   0  0  0  0  0  0
  -19.6912  -25.6297   21.1240 H   0  0  0  0  0  0
  -19.6689  -27.3197   20.6740 H   0  0  0  0  0  0
  -17.4198  -26.6684   21.4021 H   0  0  0  0  0  0
  -18.0327  -26.0070   22.9014 H   0  0  0  0  0  0
  -19.7932  -30.7280   24.2263 H   0  0  0  0  0  0
  -17.5011  -31.6276   24.5156 H   0  0  0  0  0  0
  -15.5352  -30.2988   23.7670 H   0  0  0  0  0  0
  -15.8664  -28.0821   22.7090 H   0  0  0  0  0  0
  -24.5939  -30.7035   25.7774 H   0  0  0  0  0  0
  -24.8906  -32.2862   26.4870 H   0  0  0  0  0  0
  -25.8071  -30.8896   27.0229 H   0  0  0  0  0  0
  -26.2948  -29.6753   24.1217 H   0  0  0  0  0  0
  -27.4087  -29.7285   25.4687 H   0  0  0  0  0  0
  -27.8805  -30.4315   23.9401 H   0  0  0  0  0  0
  -27.2699  -33.3638   26.2055 H   0  0  0  0  0  0
  -28.3904  -32.6845   25.0345 H   0  0  0  0  0  0
  -28.0709  -31.8452   26.5445 H   0  0  0  0  0  0
  -28.2573  -38.0118   24.7552 H   0  0  0  0  0  0
  -28.1106  -36.2654   24.6233 H   0  0  0  0  0  0
  -27.2301  -37.1377   25.8861 H   0  0  0  0  0  0
  -20.9363  -29.8782   21.6910 H   0  0  0  0  0  0
  -26.0159  -38.2846   24.1444 H   0  0  0  0  0  0
  -31.9827  -19.4263   20.6157 H   0  0  0  0  0  0
  -31.1562  -21.7129   20.3747 H   0  0  0  0  0  0
  -27.9677  -17.9303   20.9697 H   0  0  0  0  0  0
  -27.0230  -24.7285   20.4750 H   0  0  0  0  0  0
  -27.7672  -24.8304   18.8825 H   0  0  0  0  0  0
  -26.2478  -19.5366   21.0966 H   0  0  0  0  0  0
  -26.5211  -21.1767   21.2007 H   0  0  0  0  0  0
  -27.4907  -22.4852   20.0995 H   0  0  0  0  0  0
  -29.0631  -15.8588   20.6316 H   0  0  0  0  0  0
  1 25  1  0  0  0
  1 30  2  0  0  0
  1 82  1  0  0  0
  2  3  1  0  0  0
  2 25  1  0  0  0
  2 85  1  0  0  0
  2 86  1  0  0  0
  3  4  1  0  0  0
  3 87  1  0  0  0
  3 88  1  0  0  0
  4  5  1  0  0  0
  4 89  1  0  0  0
  4 90  1  0  0  0
  5  6  1  0  0  0
  5 26  1  0  0  0
  5 91  1  0  0  0
  6 25  1  0  0  0
  6 92  1  0  0  0
  6 93  1  0  0  0
  7  8  2  0  0  0
  7 26  1  0  0  0
  7 29  1  0  0  0
  8  9  1  0  0  0
  8 22  1  0  0  0
  9 10  1  0  0  0
  9 27  2  0  0  0
 10 11  2  0  0  0
 10 15  1  0  0  0
 11 12  1  0  0  0
 11 94  1  0  0  0
 12 13  2  0  0  0
 12 95  1  0  0  0
 13 14  1  0  0  0
 13 31  1  0  0  0
 14 15  2  0  0  0
 14 96  1  0  0  0
 15 97  1  0  0  0
 16 17  2  0  0  0
 16 21  1  0  0  0
 16 31  1  0  0  0
 17 18  1  0  0  0
 17 98  1  0  0  0
 18 19  2  0  0  0
 18 99  1  0  0  0
 19 20  1  0  0  0
 19 24  1  0  0  0
 20 21  2  0  0  0
 20100  1  0  0  0
 21 23  1  0  0  0
 22 28  1  0  0  0
 22 32  2  0  0  0
 26 27  1  0  0  0
 28101  1  0  0  0
 28102  1  0  0  0
 29103  1  0  0  0
 29104  1  0  0  0
 33 34  1  0  0  0
 33 66  1  0  0  0
 33 70  2  0  0  0
 34 36  1  0  0  0
 34 59  1  0  0  0
 34105  1  0  0  0
 35 44  2  0  0  0
 35 45  1  0  0  0
 35 68  1  0  0  0
 36 56  1  0  0  0
 36106  1  0  0  0
 37 39  1  0  0  0
 37 47  1  0  0  0
 37 66  1  0  0  0
 37107  1  0  0  0
 38 43  2  0  0  0
 38 46  1  0  0  0
 38 47  1  0  0  0
 39 64  1  0  0  0
 39 67  2  0  0  0
 40 52  1  0  0  0
 40 53  2  0  0  0
 40 58  1  0  0  0
 41108  1  0  0  0
 41109  1  0  0  0
 41110  1  0  0  0
 41 48  1  0  0  0
 42 43  1  0  0  0
 42 66  1  0  0  0
 42111  1  0  0  0
 42112  1  0  0  0
 43 44  1  0  0  0
 44113  1  0  0  0
 45 46  2  0  0  0
 45114  1  0  0  0
 46115  1  0  0  0
 47116  1  0  0  0
 47117  1  0  0  0
 48 56  1  0  0  0
 48 65  1  0  0  0
 48118  1  0  0  0
 49 50  1  0  0  0
 49 53  1  0  0  0
 49 64  1  0  0  0
 49119  1  0  0  0
 50 51  1  0  0  0
 50120  1  0  0  0
 50121  1  0  0  0
 51 52  1  0  0  0
 51122  1  0  0  0
 51123  1  0  0  0
 52124  1  0  0  0
 52125  1  0  0  0
 53 54  1  0  0  0
 54 55  2  0  0  0
 54126  1  0  0  0
 55 57  1  0  0  0
 55127  1  0  0  0
 56 69  2  0  0  0
 57 58  2  0  0  0
 57128  1  0  0  0
 58129  1  0  0  0
 59 60  1  0  0  0
 59 61  1  0  0  0
 59 62  1  0  0  0
 60130  1  0  0  0
 60131  1  0  0  0
 60132  1  0  0  0
 61133  1  0  0  0
 61134  1  0  0  0
 61135  1  0  0  0
 62136  1  0  0  0
 62137  1  0  0  0
 62138  1  0  0  0
 63 65  1  0  0  0
 63139  1  0  0  0
 63140  1  0  0  0
 63141  1  0  0  0
 64142  1  0  0  0
 65143  1  0  0  0
 68 79  1  0  0  0
 71 72  2  0  0  0
 71 74  1  0  0  0
 71144  1  0  0  0
 72 75  1  0  0  0
 72145  1  0  0  0
 73 74  2  0  0  0
 73 76  1  0  0  0
 73146  1  0  0  0
 74 77  1  0  0  0
 75 76  2  0  0  0
 75 81  1  0  0  0
 76 80  1  0  0  0
 77 82  1  0  0  0
 77 83  2  0  0  0
 78 79  1  0  0  0
 78 81  1  0  0  0
 78 84  2  0  0  0
 79147  1  0  0  0
 79148  1  0  0  0
 80149  1  0  0  0
 80150  1  0  0  0
 81151  1  0  0  0
 82152  1  0  0  0
M  ISO  4   1 100  68 101  79 101  82 100
M  END
> <chiral flag>
0

> <version>
0

> <s_m_source_file>
/data/baiqing/PycharmProjects/Reinvent-master-3.2/result/LINK_invent/BTK/process_docking_weight1_custom_product_contain_oxygen_bond_distance_aromatic_linkinvent_7_9_3/rearranged_h_0088.sdf

> <i_m_source_file_index>
4

> <r_mmod_Potential_Energy-OPLS-2005>
-94.3634033203125

> <r_mmod_Stretch_Energy-OPLS-2005>
85.0827026367188

> <r_mmod_Bend_Energy-OPLS-2005>
160.320205688477

> <r_mmod_Torsional_Energy-OPLS-2005>
240.028686523438

> <r_mmod_Improper_Torsional_Energy-OPLS-2005>
10.4859418869019

> <r_mmod_Van_der_Waal_Energy-OPLS-2005>
165.871932983398

> <r_mmod_Electrostatic_Energy-OPLS-2005>
-550.525451660156

> <r_mmod_Solvation_Energy-OPLS-2005>
-270.326599121094

> <b_mmod_Minimization_Converged-OPLS-2005>
0

> <r_mmod_RMS_Derivative-OPLS-2005>
0.7093545794487

$$$$
4
                    3D
 Structure written by MMmdl.
152160  0  0  1  0            999 V2000
  -30.7156  -14.5183   20.5484 C   0  0  0  0  0  0
  -30.4152  -12.3307   19.4372 C   0  0  0  0  0  0
  -29.4932  -12.4970   18.2130 C   0  0  0  0  0  0
  -28.0167  -12.3532   18.6279 C   0  0  0  0  0  0
  -27.6547  -13.2163   19.8667 C   0  0  2  0  0  0
  -28.6990  -13.0535   20.9947 C   0  0  0  0  0  0
  -25.2559  -13.8183   20.5687 C   0  0  0  0  0  0
  -24.1825  -13.0448   20.9192 C   0  0  0  0  0  0
  -24.6393  -11.6919   20.8745 C   0  0  0  0  0  0
  -23.9065  -10.4301   21.0407 C   0  0  0  0  0  0
  -24.3616   -9.4213   21.9183 C   0  0  0  0  0  0
  -23.6292   -8.2246   22.0753 C   0  0  0  0  0  0
  -22.4273   -8.0284   21.3545 C   0  0  0  0  0  0
  -21.9909   -9.0258   20.4646 C   0  0  0  0  0  0
  -22.7238  -10.2139   20.3056 C   0  0  0  0  0  0
  -21.6853   -6.0736   22.5279 C   0  0  0  0  0  0
  -21.4013   -6.5639   23.8213 C   0  0  0  0  0  0
  -21.3659   -5.6793   24.9175 C   0  0  0  0  0  0
  -21.6044   -4.3056   24.7227 C   0  0  0  0  0  0
  -21.8819   -3.8147   23.4347 C   0  0  0  0  0  0
  -21.9192   -4.6964   22.3401 C   0  0  0  0  0  0
  -22.7846  -13.5237   21.1853 C   0  0  0  0  0  0
  -22.1661   -4.2150   21.0979 F   0  0  0  0  0  0
  -21.5629   -3.4539   25.7738 F   0  0  0  0  0  0
  -30.0226  -13.3497   20.4269 N   0  0  0  0  0  0
  -26.2994  -12.9368   20.3348 N   0  0  0  0  0  0
  -25.9323  -11.6520   20.5778 N   0  0  0  0  0  0
  -22.0486  -12.8229   22.0407 N   0  0  0  0  0  0
  -25.4267  -15.1901   20.4078 N   0  0  0  0  0  0
  -31.8625  -14.6345   20.1082 O   0  0  0  0  0  0
  -21.6639   -6.8880   21.4241 O   0  0  0  0  0  0
  -22.3532  -14.5545   20.6703 O   0  0  0  0  0  0
  -24.6187  -31.8657   23.2087 C   0  0  0  0  0  0
  -25.9067  -32.4809   23.8389 C   0  0  1  0  0  0
  -27.2239  -27.3965   20.1059 C   0  0  0  0  0  0
  -25.5911  -33.8610   24.2317 N   0  0  0  0  0  0
  -23.4087  -30.4899   21.5498 C   0  0  2  0  0  0
  -24.8558  -28.9571   20.1097 C   0  0  0  0  0  0
  -22.7434  -29.4646   22.4973 C   0  0  0  0  0  0
  -18.0273  -28.1376   22.8483 C   0  0  0  0  0  0
  -24.1489  -36.7308   23.2639 C   0  0  0  0  0  0
  -25.9425  -30.8206   21.3686 C   0  0  0  0  0  0
  -26.0199  -29.4543   20.7109 C   0  0  0  0  0  0
  -27.2112  -28.6832   20.7035 C   0  0  0  0  0  0
  -26.0475  -26.9363   19.4754 C   0  0  0  0  0  0
  -24.8666  -27.6995   19.4850 C   0  0  0  0  0  0
  -23.6194  -29.8270   20.1627 C   0  0  0  0  0  0
  -25.4110  -36.3104   24.0334 C   0  0  1  0  0  0
  -20.5868  -28.3669   23.1303 C   0  0  2  0  0  0
  -20.6767  -26.9403   22.5413 C   0  0  0  0  0  0
  -19.5746  -26.6383   21.5206 C   0  0  0  0  0  0
  -18.1922  -26.7917   22.1620 C   0  0  0  0  0  0
  -19.1523  -28.8839   23.2888 C   0  0  0  0  0  0
  -18.9454  -30.1446   23.8903 C   0  0  0  0  0  0
  -17.6458  -30.6585   24.0563 C   0  0  0  0  0  0
  -25.9039  -34.9469   23.5121 C   0  0  0  0  0  0
  -16.5348  -29.9087   23.6331 C   0  0  0  0  0  0
  -16.7264  -28.6502   23.0349 C   0  0  0  0  0  0
  -26.4481  -31.6596   25.0728 C   0  0  0  0  0  0
  -25.3738  -31.3713   26.1473 C   0  0  0  0  0  0
  -27.0311  -30.3033   24.6122 C   0  0  0  0  0  0
  -27.6055  -32.4318   25.7489 C   0  0  0  0  0  0
  -27.5581  -37.1808   24.8465 C   0  0  0  0  0  0
  -21.4158  -29.3034   22.3715 N   0  0  0  0  0  0
  -26.4294  -37.3791   23.9409 N   0  0  0  0  0  0
  -24.6751  -31.0730   22.1004 N   0  0  0  0  0  0
  -23.4191  -28.8183   23.3024 O   0  0  0  0  0  0
  -28.3367  -26.5716   20.1475 O   0  0  0  0  0  0
  -26.5606  -34.8927   22.4685 O   0  0  0  0  0  0
  -23.5372  -32.1427   23.7460 O   0  0  0  0  0  0
  -32.3678  -18.3905   21.9799 C   0  0  0  0  0  0
  -31.6099  -19.5334   21.6736 C   0  0  0  0  0  0
  -31.8456  -17.1063   21.7531 C   0  0  0  0  0  0
  -29.7795  -18.1055   20.9275 C   0  0  0  0  0  0
  -30.3067  -19.4204   21.1314 C   0  0  0  0  0  0
  -30.5508  -16.9339   21.2097 C   0  0  0  0  0  0
  -28.8785  -22.8832   20.6996 C   0  0  0  0  0  0
  -29.1425  -24.2192   20.6644 C   0  0  0  0  0  0
  -29.9359  -21.8697   20.6081 C   0  0  0  0  0  0
  -28.0903  -25.3219   20.8467 C   0  0  0  0  0  0
  -29.5131  -20.6023   20.8693 N   0  0  0  0  0  0
  -30.0296  -15.6021   20.9977 N   0  0  0  0  0  0
  -31.1017  -22.1349   20.3022 O   0  0  0  0  0  0
  -31.4606  -12.4139   19.1350 H   0  0  0  0  0  0
  -30.3107  -11.3325   19.8650 H   0  0  0  0  0  0
  -29.7403  -11.7569   17.4508 H   0  0  0  0  0  0
  -29.6555  -13.4743   17.7556 H   0  0  0  0  0  0
  -27.8384  -11.3000   18.8468 H   0  0  0  0  0  0
  -27.3637  -12.6032   17.7910 H   0  0  0  0  0  0
  -27.6822  -14.2556   19.5385 H   0  0  0  0  0  0
  -28.6846  -12.0355   21.3866 H   0  0  0  0  0  0
  -28.4625  -13.7005   21.8407 H   0  0  0  0  0  0
  -25.2761   -9.5688   22.4763 H   0  0  0  0  0  0
  -24.0003   -7.4635   22.7473 H   0  0  0  0  0  0
  -21.0842   -8.8777   19.8950 H   0  0  0  0  0  0
  -22.3695  -10.9678   19.6167 H   0  0  0  0  0  0
  -21.2007   -7.6150   23.9717 H   0  0  0  0  0  0
  -21.1481   -6.0523   25.9078 H   0  0  0  0  0  0
  -22.0598   -2.7610   23.2846 H   0  0  0  0  0  0
  -22.4098  -11.9889   22.4796 H   0  0  0  0  0  0
  -21.1104  -13.1256   22.2613 H   0  0  0  0  0  0
  -24.6583  -15.8443   20.5102 H   0  0  0  0  0  0
  -26.2743  -15.6272   20.0691 H   0  0  0  0  0  0
  -26.7139  -32.5514   23.1154 H   0  0  0  0  0  0
  -25.0072  -33.9769   25.0468 H   0  0  0  0  0  0
  -22.6986  -31.3077   21.4110 H   0  0  0  0  0  0
  -23.3750  -35.9644   23.3309 H   0  0  0  0  0  0
  -24.3583  -36.8916   22.2052 H   0  0  0  0  0  0
  -23.7240  -37.6514   23.6648 H   0  0  0  0  0  0
  -26.0612  -31.5879   20.6022 H   0  0  0  0  0  0
  -26.8274  -30.8708   21.9911 H   0  0  0  0  0  0
  -28.1057  -29.0548   21.1843 H   0  0  0  0  0  0
  -26.0344  -25.9741   18.9829 H   0  0  0  0  0  0
  -23.9751  -27.3140   19.0099 H   0  0  0  0  0  0
  -23.7298  -30.6047   19.4058 H   0  0  0  0  0  0
  -22.7420  -29.2499   19.8652 H   0  0  0  0  0  0
  -25.1284  -36.1973   25.0827 H   0  0  0  0  0  0
  -20.9954  -28.3239   24.1427 H   0  0  0  0  0  0
  -20.5669  -26.2279   23.3602 H   0  0  0  0  0  0
  -21.6638  -26.7448   22.1204 H   0  0  0  0  0  0
  -19.6915  -25.6297   21.1232 H   0  0  0  0  0  0
  -19.6688  -27.3201   20.6739 H   0  0  0  0  0  0
  -17.4191  -26.6663   21.4023 H   0  0  0  0  0  0
  -18.0329  -26.0058   22.9015 H   0  0  0  0  0  0
  -19.7935  -30.7250   24.2282 H   0  0  0  0  0  0
  -17.5018  -31.6267   24.5159 H   0  0  0  0  0  0
  -15.5348  -30.2994   23.7653 H   0  0  0  0  0  0
  -15.8658  -28.0829   22.7063 H   0  0  0  0  0  0
  -24.5904  -30.7070   25.7807 H   0  0  0  0  0  0
  -24.8942  -32.2875   26.4932 H   0  0  0  0  0  0
  -25.8086  -30.8871   27.0226 H   0  0  0  0  0  0
  -26.2860  -29.6797   24.1170 H   0  0  0  0  0  0
  -27.4063  -29.7273   25.4590 H   0  0  0  0  0  0
  -27.8707  -30.4340   23.9290 H   0  0  0  0  0  0
  -27.2673  -33.3616   26.2081 H   0  0  0  0  0  0
  -28.3858  -32.6884   25.0307 H   0  0  0  0  0  0
  -28.0730  -31.8430   26.5395 H   0  0  0  0  0  0
  -28.2602  -38.0105   24.7513 H   0  0  0  0  0  0
  -28.1072  -36.2633   24.6286 H   0  0  0  0  0  0
  -27.2299  -37.1455   25.8870 H   0  0  0  0  0  0
  -20.9326  -29.8766   21.6942 H   0  0  0  0  0  0
  -26.0186  -38.2870   24.1412 H   0  0  0  0  0  0
  -33.3578  -18.4998   22.4001 H   0  0  0  0  0  0
  -32.0478  -20.4976   21.8872 H   0  0  0  0  0  0
  -32.4576  -16.2530   22.0109 H   0  0  0  0  0  0
  -28.7797  -17.9948   20.5322 H   0  0  0  0  0  0
  -27.8540  -22.5611   20.8227 H   0  0  0  0  0  0
  -30.1605  -24.5629   20.5431 H   0  0  0  0  0  0
  -28.0527  -25.5552   21.9119 H   0  0  0  0  0  0
  -27.1213  -24.8860   20.6036 H   0  0  0  0  0  0
  -28.5116  -20.4856   20.9369 H   0  0  0  0  0  0
  -29.0422  -15.4649   21.1519 H   0  0  0  0  0  0
  1 25  1  0  0  0
  1 30  2  0  0  0
  1 82  1  0  0  0
  2  3  1  0  0  0
  2 25  1  0  0  0
  2 84  1  0  0  0
  2 85  1  0  0  0
  3  4  1  0  0  0
  3 86  1  0  0  0
  3 87  1  0  0  0
  4  5  1  0  0  0
  4 88  1  0  0  0
  4 89  1  0  0  0
  5  6  1  0  0  0
  5 26  1  0  0  0
  5 90  1  0  0  0
  6 25  1  0  0  0
  6 91  1  0  0  0
  6 92  1  0  0  0
  7  8  2  0  0  0
  7 26  1  0  0  0
  7 29  1  0  0  0
  8  9  1  0  0  0
  8 22  1  0  0  0
  9 10  1  0  0  0
  9 27  2  0  0  0
 10 11  2  0  0  0
 10 15  1  0  0  0
 11 12  1  0  0  0
 11 93  1  0  0  0
 12 13  2  0  0  0
 12 94  1  0  0  0
 13 14  1  0  0  0
 13 31  1  0  0  0
 14 15  2  0  0  0
 14 95  1  0  0  0
 15 96  1  0  0  0
 16 17  2  0  0  0
 16 21  1  0  0  0
 16 31  1  0  0  0
 17 18  1  0  0  0
 17 97  1  0  0  0
 18 19  2  0  0  0
 18 98  1  0  0  0
 19 20  1  0  0  0
 19 24  1  0  0  0
 20 21  2  0  0  0
 20 99  1  0  0  0
 21 23  1  0  0  0
 22 28  1  0  0  0
 22 32  2  0  0  0
 26 27  1  0  0  0
 28100  1  0  0  0
 28101  1  0  0  0
 29102  1  0  0  0
 29103  1  0  0  0
 33 34  1  0  0  0
 33 66  1  0  0  0
 33 70  2  0  0  0
 34 36  1  0  0  0
 34 59  1  0  0  0
 34104  1  0  0  0
 35 44  2  0  0  0
 35 45  1  0  0  0
 35 68  1  0  0  0
 36 56  1  0  0  0
 36105  1  0  0  0
 37 39  1  0  0  0
 37 47  1  0  0  0
 37 66  1  0  0  0
 37106  1  0  0  0
 38 43  2  0  0  0
 38 46  1  0  0  0
 38 47  1  0  0  0
 39 64  1  0  0  0
 39 67  2  0  0  0
 40 52  1  0  0  0
 40 53  2  0  0  0
 40 58  1  0  0  0
 41107  1  0  0  0
 41108  1  0  0  0
 41109  1  0  0  0
 41 48  1  0  0  0
 42 43  1  0  0  0
 42 66  1  0  0  0
 42110  1  0  0  0
 42111  1  0  0  0
 43 44  1  0  0  0
 44112  1  0  0  0
 45 46  2  0  0  0
 45113  1  0  0  0
 46114  1  0  0  0
 47115  1  0  0  0
 47116  1  0  0  0
 48 56  1  0  0  0
 48 65  1  0  0  0
 48117  1  0  0  0
 49 50  1  0  0  0
 49 53  1  0  0  0
 49 64  1  0  0  0
 49118  1  0  0  0
 50 51  1  0  0  0
 50119  1  0  0  0
 50120  1  0  0  0
 51 52  1  0  0  0
 51121  1  0  0  0
 51122  1  0  0  0
 52123  1  0  0  0
 52124  1  0  0  0
 53 54  1  0  0  0
 54 55  2  0  0  0
 54125  1  0  0  0
 55 57  1  0  0  0
 55126  1  0  0  0
 56 69  2  0  0  0
 57 58  2  0  0  0
 57127  1  0  0  0
 58128  1  0  0  0
 59 60  1  0  0  0
 59 61  1  0  0  0
 59 62  1  0  0  0
 60129  1  0  0  0
 60130  1  0  0  0
 60131  1  0  0  0
 61132  1  0  0  0
 61133  1  0  0  0
 61134  1  0  0  0
 62135  1  0  0  0
 62136  1  0  0  0
 62137  1  0  0  0
 63 65  1  0  0  0
 63138  1  0  0  0
 63139  1  0  0  0
 63140  1  0  0  0
 64141  1  0  0  0
 65142  1  0  0  0
 68 80  1  0  0  0
 71 72  2  0  0  0
 71 73  1  0  0  0
 71143  1  0  0  0
 72 75  1  0  0  0
 72144  1  0  0  0
 73 76  2  0  0  0
 73145  1  0  0  0
 74 75  2  0  0  0
 74 76  1  0  0  0
 74146  1  0  0  0
 75 81  1  0  0  0
 76 82  1  0  0  0
 77 78  2  0  0  0
 77 79  1  0  0  0
 77147  1  0  0  0
 78 80  1  0  0  0
 78148  1  0  0  0
 79 81  1  0  0  0
 79 83  2  0  0  0
 80149  1  0  0  0
 80150  1  0  0  0
 81151  1  0  0  0
 82152  1  0  0  0
M  ISO  4   1 100  68 101  80 101  82 100
M  END
> <chiral flag>
0

> <version>
0

> <s_m_source_file>
/data/baiqing/PycharmProjects/Reinvent-master-3.2/result/LINK_invent/BTK/process_docking_weight1_custom_product_contain_oxygen_bond_distance_aromatic_linkinvent_7_9_3/rearranged_h_0088.sdf

> <i_m_source_file_index>
5

> <r_mmod_Potential_Energy-OPLS-2005>
-49.5611343383789

> <r_mmod_Stretch_Energy-OPLS-2005>
49.6872673034668

> <r_mmod_Bend_Energy-OPLS-2005>
97.8554916381836

> <r_mmod_Torsional_Energy-OPLS-2005>
250.232345581055

> <r_mmod_Improper_Torsional_Energy-OPLS-2005>
4.59473848342896

> <r_mmod_Van_der_Waal_Energy-OPLS-2005>
160.846084594727

> <r_mmod_Electrostatic_Energy-OPLS-2005>
-399.101959228516

> <r_mmod_Solvation_Energy-OPLS-2005>
-237.277526855469

> <b_mmod_Minimization_Converged-OPLS-2005>
0

> <r_mmod_RMS_Derivative-OPLS-2005>
0.667279124259949

$$$$
5
                    3D
 Structure written by MMmdl.
152160  0  0  1  0            999 V2000
  -30.6987  -14.5258   20.5427 C   0  0  0  0  0  0
  -30.4203  -12.3319   19.4384 C   0  0  0  0  0  0
  -29.4965  -12.4991   18.2142 C   0  0  0  0  0  0
  -28.0192  -12.3548   18.6273 C   0  0  0  0  0  0
  -27.6563  -13.2143   19.8680 C   0  0  2  0  0  0
  -28.7000  -13.0423   20.9956 C   0  0  0  0  0  0
  -25.2568  -13.8173   20.5685 C   0  0  0  0  0  0
  -24.1830  -13.0441   20.9189 C   0  0  0  0  0  0
  -24.6393  -11.6911   20.8737 C   0  0  0  0  0  0
  -23.9059  -10.4293   21.0403 C   0  0  0  0  0  0
  -24.3612   -9.4210   21.9181 C   0  0  0  0  0  0
  -23.6293   -8.2242   22.0751 C   0  0  0  0  0  0
  -22.4275   -8.0278   21.3542 C   0  0  0  0  0  0
  -21.9907   -9.0250   20.4642 C   0  0  0  0  0  0
  -22.7231  -10.2133   20.3053 C   0  0  0  0  0  0
  -21.6853   -6.0734   22.5279 C   0  0  0  0  0  0
  -21.4012   -6.5639   23.8211 C   0  0  0  0  0  0
  -21.3659   -5.6792   24.9174 C   0  0  0  0  0  0
  -21.6045   -4.3054   24.7224 C   0  0  0  0  0  0
  -21.8821   -3.8146   23.4345 C   0  0  0  0  0  0
  -21.9193   -4.6963   22.3402 C   0  0  0  0  0  0
  -22.7851  -13.5232   21.1853 C   0  0  0  0  0  0
  -22.1663   -4.2147   21.0979 F   0  0  0  0  0  0
  -21.5630   -3.4538   25.7738 F   0  0  0  0  0  0
  -30.0249  -13.3445   20.4338 N   0  0  0  0  0  0
  -26.3001  -12.9356   20.3344 N   0  0  0  0  0  0
  -25.9323  -11.6509   20.5765 N   0  0  0  0  0  0
  -22.0492  -12.8221   22.0408 N   0  0  0  0  0  0
  -25.4283  -15.1891   20.4084 N   0  0  0  0  0  0
  -31.8450  -14.6535   20.1063 O   0  0  0  0  0  0
  -21.6639   -6.8876   21.4240 O   0  0  0  0  0  0
  -22.3535  -14.5537   20.6701 O   0  0  0  0  0  0
  -24.6188  -31.8662   23.2084 C   0  0  0  0  0  0
  -25.9066  -32.4813   23.8390 C   0  0  1  0  0  0
  -27.2243  -27.3990   20.1040 C   0  0  0  0  0  0
  -25.5912  -33.8613   24.2320 N   0  0  0  0  0  0
  -23.4086  -30.4910   21.5491 C   0  0  2  0  0  0
  -24.8562  -28.9594   20.1082 C   0  0  0  0  0  0
  -22.7438  -29.4652   22.4965 C   0  0  0  0  0  0
  -18.0283  -28.1379   22.8496 C   0  0  0  0  0  0
  -24.1487  -36.7303   23.2638 C   0  0  0  0  0  0
  -25.9427  -30.8215   21.3683 C   0  0  0  0  0  0
  -26.0202  -29.4551   20.7116 C   0  0  0  0  0  0
  -27.2113  -28.6826   20.7074 C   0  0  0  0  0  0
  -26.0467  -26.9396   19.4731 C   0  0  0  0  0  0
  -24.8665  -27.7029   19.4824 C   0  0  0  0  0  0
  -23.6192  -29.8285   20.1621 C   0  0  0  0  0  0
  -25.4111  -36.3102   24.0335 C   0  0  1  0  0  0
  -20.5876  -28.3672   23.1305 C   0  0  2  0  0  0
  -20.6769  -26.9404   22.5409 C   0  0  0  0  0  0
  -19.5746  -26.6385   21.5208 C   0  0  0  0  0  0
  -18.1929  -26.7927   22.1624 C   0  0  0  0  0  0
  -19.1534  -28.8844   23.2896 C   0  0  0  0  0  0
  -18.9459  -30.1452   23.8902 C   0  0  0  0  0  0
  -17.6460  -30.6582   24.0569 C   0  0  0  0  0  0
  -25.9041  -34.9470   23.5121 C   0  0  0  0  0  0
  -16.5349  -29.9084   23.6333 C   0  0  0  0  0  0
  -16.7270  -28.6502   23.0351 C   0  0  0  0  0  0
  -26.4479  -31.6595   25.0728 C   0  0  0  0  0  0
  -25.3742  -31.3707   26.1474 C   0  0  0  0  0  0
  -27.0312  -30.3038   24.6113 C   0  0  0  0  0  0
  -27.6059  -32.4313   25.7489 C   0  0  0  0  0  0
  -27.5580  -37.1808   24.8471 C   0  0  0  0  0  0
  -21.4160  -29.3036   22.3709 N   0  0  0  0  0  0
  -26.4293  -37.3791   23.9416 N   0  0  0  0  0  0
  -24.6748  -31.0744   22.0994 N   0  0  0  0  0  0
  -23.4199  -28.8194   23.3017 O   0  0  0  0  0  0
  -28.3223  -26.5542   20.1578 O   0  0  0  0  0  0
  -26.5599  -34.8924   22.4680 O   0  0  0  0  0  0
  -23.5373  -32.1423   23.7462 O   0  0  0  0  0  0
  -29.3573  -18.0062   20.9743 C   0  0  0  0  0  0
  -31.0368  -19.7640   21.1674 C   0  0  0  0  0  0
  -31.7031  -17.4102   21.1672 C   0  0  0  0  0  0
  -29.6783  -19.3996   21.0380 C   0  0  0  0  0  0
  -30.3570  -16.9916   21.0271 C   0  0  0  0  0  0
  -32.0367  -18.7770   21.2282 C   0  0  0  0  0  0
  -28.0465  -25.2878   20.6653 C   0  0  0  0  0  0
  -28.5842  -20.4566   21.0731 C   0  0  0  0  0  0
  -28.6532  -24.1131   20.3388 C   0  0  0  0  0  0
  -28.1220  -22.8547   20.9149 C   0  0  0  0  0  0
  -29.9804  -15.5926   20.9853 N   0  0  0  0  0  0
  -28.9058  -21.7475   20.7675 N   0  0  0  0  0  0
  -27.4409  -20.0784   21.3549 O   0  0  0  0  0  0
  -27.0289  -22.8218   21.4923 O   0  0  0  0  0  0
  -29.6751  -24.0894   19.4683 O   0  0  0  0  0  0
  -33.3323  -19.1459   21.3648 F   0  0  0  0  0  0
  -31.4653  -12.4218   19.1373 H   0  0  0  0  0  0
  -30.3205  -11.3311   19.8613 H   0  0  0  0  0  0
  -29.7442  -11.7609   17.4504 H   0  0  0  0  0  0
  -29.6595  -13.4771   17.7588 H   0  0  0  0  0  0
  -27.8405  -11.3008   18.8441 H   0  0  0  0  0  0
  -27.3667  -12.6062   17.7903 H   0  0  0  0  0  0
  -27.6856  -14.2544   19.5430 H   0  0  0  0  0  0
  -28.6863  -12.0198   21.3759 H   0  0  0  0  0  0
  -28.4610  -13.6780   21.8489 H   0  0  0  0  0  0
  -25.2758   -9.5689   22.4753 H   0  0  0  0  0  0
  -24.0003   -7.4634   22.7471 H   0  0  0  0  0  0
  -21.0835   -8.8764   19.8948 H   0  0  0  0  0  0
  -22.3686  -10.9668   19.6159 H   0  0  0  0  0  0
  -21.2003   -7.6147   23.9713 H   0  0  0  0  0  0
  -21.1480   -6.0522   25.9075 H   0  0  0  0  0  0
  -22.0600   -2.7609   23.2845 H   0  0  0  0  0  0
  -22.4103  -11.9881   22.4795 H   0  0  0  0  0  0
  -21.1109  -13.1245   22.2612 H   0  0  0  0  0  0
  -24.6600  -15.8434   20.5094 H   0  0  0  0  0  0
  -26.2748  -15.6246   20.0656 H   0  0  0  0  0  0
  -26.7141  -32.5511   23.1154 H   0  0  0  0  0  0
  -25.0095  -33.9780   25.0488 H   0  0  0  0  0  0
  -22.6984  -31.3089   21.4107 H   0  0  0  0  0  0
  -23.3746  -35.9641   23.3316 H   0  0  0  0  0  0
  -24.3579  -36.8898   22.2049 H   0  0  0  0  0  0
  -23.7241  -37.6515   23.6637 H   0  0  0  0  0  0
  -26.0627  -31.5876   20.6011 H   0  0  0  0  0  0
  -26.8284  -30.8719   21.9898 H   0  0  0  0  0  0
  -28.1043  -29.0518   21.1922 H   0  0  0  0  0  0
  -26.0339  -25.9704   18.9942 H   0  0  0  0  0  0
  -23.9742  -27.3164   19.0088 H   0  0  0  0  0  0
  -23.7292  -30.6055   19.4049 H   0  0  0  0  0  0
  -22.7422  -29.2511   19.8639 H   0  0  0  0  0  0
  -25.1287  -36.1965   25.0828 H   0  0  0  0  0  0
  -20.9976  -28.3231   24.1424 H   0  0  0  0  0  0
  -20.5673  -26.2277   23.3598 H   0  0  0  0  0  0
  -21.6641  -26.7439   22.1202 H   0  0  0  0  0  0
  -19.6903  -25.6300   21.1231 H   0  0  0  0  0  0
  -19.6686  -27.3203   20.6746 H   0  0  0  0  0  0
  -17.4197  -26.6686   21.4022 H   0  0  0  0  0  0
  -18.0326  -26.0062   22.9013 H   0  0  0  0  0  0
  -19.7933  -30.7270   24.2269 H   0  0  0  0  0  0
  -17.5013  -31.6265   24.5164 H   0  0  0  0  0  0
  -15.5350  -30.2988   23.7652 H   0  0  0  0  0  0
  -15.8669  -28.0821   22.7064 H   0  0  0  0  0  0
  -24.5921  -30.7042   25.7815 H   0  0  0  0  0  0
  -24.8923  -32.2862   26.4916 H   0  0  0  0  0  0
  -25.8096  -30.8886   27.0234 H   0  0  0  0  0  0
  -26.2857  -29.6802   24.1163 H   0  0  0  0  0  0
  -27.4079  -29.7272   25.4569 H   0  0  0  0  0  0
  -27.8692  -30.4362   23.9269 H   0  0  0  0  0  0
  -27.2686  -33.3613   26.2075 H   0  0  0  0  0  0
  -28.3860  -32.6866   25.0304 H   0  0  0  0  0  0
  -28.0728  -31.8424   26.5394 H   0  0  0  0  0  0
  -28.2610  -38.0093   24.7508 H   0  0  0  0  0  0
  -28.1058  -36.2624   24.6304 H   0  0  0  0  0  0
  -27.2297  -37.1471   25.8874 H   0  0  0  0  0  0
  -20.9322  -29.8760   21.6932 H   0  0  0  0  0  0
  -26.0176  -38.2870   24.1410 H   0  0  0  0  0  0
  -28.3189  -17.7144   20.8947 H   0  0  0  0  0  0
  -31.3338  -20.7989   21.2514 H   0  0  0  0  0  0
  -32.5086  -16.6962   21.2473 H   0  0  0  0  0  0
  -27.2282  -25.3197   21.3757 H   0  0  0  0  0  0
  -29.0206  -15.3822   21.2129 H   0  0  0  0  0  0
  -29.8473  -21.8960   20.4497 H   0  0  0  0  0  0
  -29.7246  -23.2133   19.1114 H   0  0  0  0  0  0
  1 25  1  0  0  0
  1 30  2  0  0  0
  1 81  1  0  0  0
  2  3  1  0  0  0
  2 25  1  0  0  0
  2 87  1  0  0  0
  2 88  1  0  0  0
  3  4  1  0  0  0
  3 89  1  0  0  0
  3 90  1  0  0  0
  4  5  1  0  0  0
  4 91  1  0  0  0
  4 92  1  0  0  0
  5  6  1  0  0  0
  5 26  1  0  0  0
  5 93  1  0  0  0
  6 25  1  0  0  0
  6 94  1  0  0  0
  6 95  1  0  0  0
  7  8  2  0  0  0
  7 26  1  0  0  0
  7 29  1  0  0  0
  8  9  1  0  0  0
  8 22  1  0  0  0
  9 10  1  0  0  0
  9 27  2  0  0  0
 10 11  2  0  0  0
 10 15  1  0  0  0
 11 12  1  0  0  0
 11 96  1  0  0  0
 12 13  2  0  0  0
 12 97  1  0  0  0
 13 14  1  0  0  0
 13 31  1  0  0  0
 14 15  2  0  0  0
 14 98  1  0  0  0
 15 99  1  0  0  0
 16 17  2  0  0  0
 16 21  1  0  0  0
 16 31  1  0  0  0
 17 18  1  0  0  0
 17100  1  0  0  0
 18 19  2  0  0  0
 18101  1  0  0  0
 19 20  1  0  0  0
 19 24  1  0  0  0
 20 21  2  0  0  0
 20102  1  0  0  0
 21 23  1  0  0  0
 22 28  1  0  0  0
 22 32  2  0  0  0
 26 27  1  0  0  0
 28103  1  0  0  0
 28104  1  0  0  0
 29105  1  0  0  0
 29106  1  0  0  0
 33 34  1  0  0  0
 33 66  1  0  0  0
 33 70  2  0  0  0
 34 36  1  0  0  0
 34 59  1  0  0  0
 34107  1  0  0  0
 35 44  2  0  0  0
 35 45  1  0  0  0
 35 68  1  0  0  0
 36 56  1  0  0  0
 36108  1  0  0  0
 37 39  1  0  0  0
 37 47  1  0  0  0
 37 66  1  0  0  0
 37109  1  0  0  0
 38 43  2  0  0  0
 38 46  1  0  0  0
 38 47  1  0  0  0
 39 64  1  0  0  0
 39 67  2  0  0  0
 40 52  1  0  0  0
 40 53  2  0  0  0
 40 58  1  0  0  0
 41110  1  0  0  0
 41111  1  0  0  0
 41112  1  0  0  0
 41 48  1  0  0  0
 42 43  1  0  0  0
 42 66  1  0  0  0
 42113  1  0  0  0
 42114  1  0  0  0
 43 44  1  0  0  0
 44115  1  0  0  0
 45 46  2  0  0  0
 45116  1  0  0  0
 46117  1  0  0  0
 47118  1  0  0  0
 47119  1  0  0  0
 48 56  1  0  0  0
 48 65  1  0  0  0
 48120  1  0  0  0
 49 50  1  0  0  0
 49 53  1  0  0  0
 49 64  1  0  0  0
 49121  1  0  0  0
 50 51  1  0  0  0
 50122  1  0  0  0
 50123  1  0  0  0
 51 52  1  0  0  0
 51124  1  0  0  0
 51125  1  0  0  0
 52126  1  0  0  0
 52127  1  0  0  0
 53 54  1  0  0  0
 54 55  2  0  0  0
 54128  1  0  0  0
 55 57  1  0  0  0
 55129  1  0  0  0
 56 69  2  0  0  0
 57 58  2  0  0  0
 57130  1  0  0  0
 58131  1  0  0  0
 59 60  1  0  0  0
 59 61  1  0  0  0
 59 62  1  0  0  0
 60132  1  0  0  0
 60133  1  0  0  0
 60134  1  0  0  0
 61135  1  0  0  0
 61136  1  0  0  0
 61137  1  0  0  0
 62138  1  0  0  0
 62139  1  0  0  0
 62140  1  0  0  0
 63 65  1  0  0  0
 63141  1  0  0  0
 63142  1  0  0  0
 63143  1  0  0  0
 64144  1  0  0  0
 65145  1  0  0  0
 68 77  1  0  0  0
 71 74  2  0  0  0
 71 75  1  0  0  0
 71146  1  0  0  0
 72 74  1  0  0  0
 72 76  2  0  0  0
 72147  1  0  0  0
 73 75  2  0  0  0
 73 76  1  0  0  0
 73148  1  0  0  0
 74 78  1  0  0  0
 75 81  1  0  0  0
 76 86  1  0  0  0
 77 79  2  0  0  0
 77149  1  0  0  0
 78 82  1  0  0  0
 78 83  2  0  0  0
 79 80  1  0  0  0
 79 85  1  0  0  0
 80 82  1  0  0  0
 80 84  2  0  0  0
 81150  1  0  0  0
 82151  1  0  0  0
 85152  1  0  0  0
M  ISO  4   1 100  68 101  77 101  81 100
M  END
> <chiral flag>
0

> <version>
0

> <s_m_source_file>
/data/baiqing/PycharmProjects/Reinvent-master-3.2/result/LINK_invent/BTK/process_docking_weight1_custom_product_contain_oxygen_bond_distance_aromatic_linkinvent_7_9_3/rearranged_h_0088.sdf

> <i_m_source_file_index>
6

> <r_mmod_Potential_Energy-OPLS-2005>
-203.452926635742

> <r_mmod_Stretch_Energy-OPLS-2005>
51.3111572265625

> <r_mmod_Bend_Energy-OPLS-2005>
105.264526367188

> <r_mmod_Torsional_Energy-OPLS-2005>
230.393646240234

> <r_mmod_Improper_Torsional_Energy-OPLS-2005>
4.95799541473389

> <r_mmod_Van_der_Waal_Energy-OPLS-2005>
171.173248291016

> <r_mmod_Electrostatic_Energy-OPLS-2005>
-517.972351074219

> <r_mmod_Solvation_Energy-OPLS-2005>
-273.051574707031

> <b_mmod_Minimization_Converged-OPLS-2005>
0

> <r_mmod_RMS_Derivative-OPLS-2005>
0.806921243667603

$$$$
6
                    3D
 Structure written by MMmdl.
157166  0  0  1  0            999 V2000
  -30.5811  -14.7947   20.4371 C   0  0  0  0  0  0
  -30.4388  -12.4748   19.5003 C   0  0  0  0  0  0
  -29.5246  -12.4908   18.2537 C   0  0  0  0  0  0
  -28.0436  -12.3365   18.6532 C   0  0  0  0  0  0
  -27.6426  -13.2367   19.8525 C   0  0  2  0  0  0
  -28.6826  -13.1835   20.9924 C   0  0  0  0  0  0
  -25.2502  -13.8199   20.5672 C   0  0  0  0  0  0
  -24.1794  -13.0439   20.9178 C   0  0  0  0  0  0
  -24.6388  -11.6917   20.8711 C   0  0  0  0  0  0
  -23.9067  -10.4286   21.0378 C   0  0  0  0  0  0
  -24.3616   -9.4207   21.9160 C   0  0  0  0  0  0
  -23.6289   -8.2247   22.0743 C   0  0  0  0  0  0
  -22.4270   -8.0278   21.3538 C   0  0  0  0  0  0
  -21.9897   -9.0247   20.4641 C   0  0  0  0  0  0
  -22.7229  -10.2127   20.3037 C   0  0  0  0  0  0
  -21.6857   -6.0724   22.5266 C   0  0  0  0  0  0
  -21.4027   -6.5626   23.8202 C   0  0  0  0  0  0
  -21.3658   -5.6780   24.9156 C   0  0  0  0  0  0
  -21.6052   -4.3044   24.7213 C   0  0  0  0  0  0
  -21.8817   -3.8138   23.4329 C   0  0  0  0  0  0
  -21.9198   -4.6952   22.3387 C   0  0  0  0  0  0
  -22.7816  -13.5215   21.1856 C   0  0  0  0  0  0
  -22.1660   -4.2141   21.0964 F   0  0  0  0  0  0
  -21.5632   -3.4526   25.7723 F   0  0  0  0  0  0
  -29.9848  -13.5486   20.4190 N   0  0  0  0  0  0
  -26.2932  -12.9419   20.3265 N   0  0  0  0  0  0
  -25.9325  -11.6559   20.5727 N   0  0  0  0  0  0
  -22.0468  -12.8203   22.0422 N   0  0  0  0  0  0
  -25.4213  -15.1920   20.4082 N   0  0  0  0  0  0
  -31.7612  -14.9001   20.0839 O   0  0  0  0  0  0
  -21.6646   -6.8863   21.4227 O   0  0  0  0  0  0
  -22.3494  -14.5522   20.6719 O   0  0  0  0  0  0
  -24.6372  -31.8525   23.1978 C   0  0  0  0  0  0
  -25.9176  -32.4744   23.8330 C   0  0  1  0  0  0
  -27.2098  -27.2079   20.1346 C   0  0  0  0  0  0
  -25.5959  -33.8548   24.2249 N   0  0  0  0  0  0
  -23.4355  -30.4762   21.5429 C   0  0  2  0  0  0
  -24.8811  -28.9216   20.1092 C   0  0  0  0  0  0
  -22.7531  -29.4584   22.4907 C   0  0  0  0  0  0
  -18.0298  -28.1387   22.8473 C   0  0  0  0  0  0
  -24.1490  -36.7281   23.2635 C   0  0  0  0  0  0
  -25.9863  -30.7456   21.3886 C   0  0  0  0  0  0
  -26.0542  -29.3635   20.7336 C   0  0  0  0  0  0
  -27.2168  -28.5166   20.7430 C   0  0  0  0  0  0
  -26.0209  -26.8713   19.4433 C   0  0  0  0  0  0
  -24.8735  -27.6849   19.4523 C   0  0  0  0  0  0
  -23.6557  -29.8149   20.1583 C   0  0  0  0  0  0
  -25.4114  -36.3067   24.0324 C   0  0  1  0  0  0
  -20.5904  -28.3706   23.1262 C   0  0  2  0  0  0
  -20.6787  -26.9420   22.5413 C   0  0  0  0  0  0
  -19.5766  -26.6374   21.5214 C   0  0  0  0  0  0
  -18.1941  -26.7928   22.1613 C   0  0  0  0  0  0
  -19.1553  -28.8866   23.2861 C   0  0  0  0  0  0
  -18.9464  -30.1463   23.8889 C   0  0  0  0  0  0
  -17.6458  -30.6588   24.0556 C   0  0  0  0  0  0
  -25.9060  -34.9436   23.5086 C   0  0  0  0  0  0
  -16.5352  -29.9079   23.6330 C   0  0  0  0  0  0
  -16.7278  -28.6498   23.0347 C   0  0  0  0  0  0
  -26.4514  -31.6580   25.0739 C   0  0  0  0  0  0
  -25.3702  -31.3760   26.1440 C   0  0  0  0  0  0
  -27.0355  -30.2983   24.6253 C   0  0  0  0  0  0
  -27.6066  -32.4318   25.7516 C   0  0  0  0  0  0
  -27.5583  -37.1792   24.8454 C   0  0  0  0  0  0
  -21.4232  -29.3049   22.3653 N   0  0  0  0  0  0
  -26.4287  -37.3770   23.9410 N   0  0  0  0  0  0
  -24.7059  -31.0445   22.0988 N   0  0  0  0  0  0
  -23.4209  -28.8111   23.3014 O   0  0  0  0  0  0
  -28.2828  -26.2667   20.2047 O   0  0  0  0  0  0
  -26.5626  -34.8922   22.4654 O   0  0  0  0  0  0
  -23.5510  -32.1373   23.7237 O   0  0  0  0  0  0
  -29.2434  -19.7105   18.5756 C   0  0  0  0  0  0
  -29.3114  -18.4642   17.9294 C   0  0  0  0  0  0
  -29.6045  -18.5726   20.6889 C   0  0  0  0  0  0
  -29.3650  -19.8422   19.9767 C   0  0  0  0  0  0
  -29.5099  -17.2617   18.6338 C   0  0  0  0  0  0
  -29.6968  -17.2534   20.0429 C   0  0  0  0  0  0
  -28.9270  -23.7607   20.3790 C   0  0  0  0  0  0
  -28.5335  -22.3182   20.0541 C   0  0  0  0  0  0
  -30.9447  -22.8030   21.6331 C   0  0  0  0  0  0
  -28.0721  -24.8361   20.1116 C   0  0  0  0  0  0
  -30.3369  -24.0112   20.9064 C   0  0  0  0  0  0
  -30.1095  -21.5178   21.7461 C   0  0  0  0  0  0
  -29.3198  -21.2486   20.5364 N   0  0  0  0  0  0
  -29.4552  -16.0850   17.8900 N   0  0  0  0  0  0
  -29.8042  -15.9198   20.7270 N   0  0  0  0  0  0
  -27.5402  -22.0784   19.3597 O   0  0  0  0  0  0
  -32.0706  -22.8747   22.1312 O   0  0  0  0  0  0
  -31.4823  -12.5974   19.2045 H   0  0  0  0  0  0
  -30.3867  -11.5071   20.0004 H   0  0  0  0  0  0
  -29.8081  -11.6892   17.5700 H   0  0  0  0  0  0
  -29.6687  -13.4164   17.6981 H   0  0  0  0  0  0
  -27.8825  -11.2886   18.9092 H   0  0  0  0  0  0
  -27.4010  -12.5405   17.7959 H   0  0  0  0  0  0
  -27.6322  -14.2563   19.4691 H   0  0  0  0  0  0
  -28.7215  -12.1882   21.4371 H   0  0  0  0  0  0
  -28.4055  -13.8633   21.7993 H   0  0  0  0  0  0
  -25.2754   -9.5700   22.4739 H   0  0  0  0  0  0
  -23.9999   -7.4639   22.7459 H   0  0  0  0  0  0
  -21.0835   -8.8768   19.8941 H   0  0  0  0  0  0
  -22.3674  -10.9666   19.6157 H   0  0  0  0  0  0
  -21.2029   -7.6141   23.9694 H   0  0  0  0  0  0
  -21.1483   -6.0512   25.9061 H   0  0  0  0  0  0
  -22.0605   -2.7603   23.2826 H   0  0  0  0  0  0
  -22.4094  -11.9878   22.4835 H   0  0  0  0  0  0
  -21.1081  -13.1230   22.2622 H   0  0  0  0  0  0
  -24.6541  -15.8467   20.5156 H   0  0  0  0  0  0
  -26.2714  -15.6286   20.0751 H   0  0  0  0  0  0
  -26.7237  -32.5373   23.1066 H   0  0  0  0  0  0
  -25.0113  -33.9678   25.0398 H   0  0  0  0  0  0
  -22.7344  -31.3007   21.3985 H   0  0  0  0  0  0
  -23.3762  -35.9603   23.3273 H   0  0  0  0  0  0
  -24.3588  -36.8928   22.2055 H   0  0  0  0  0  0
  -23.7238  -37.6470   23.6678 H   0  0  0  0  0  0
  -26.1290  -31.4994   20.6137 H   0  0  0  0  0  0
  -26.8637  -30.7989   22.0207 H   0  0  0  0  0  0
  -28.1089  -28.8439   21.2572 H   0  0  0  0  0  0
  -25.9310  -25.9542   18.8842 H   0  0  0  0  0  0
  -23.9829  -27.3492   18.9390 H   0  0  0  0  0  0
  -23.7867  -30.5930   19.4061 H   0  0  0  0  0  0
  -22.7709  -29.2552   19.8500 H   0  0  0  0  0  0
  -25.1293  -36.1904   25.0815 H   0  0  0  0  0  0
  -20.9984  -28.3291   24.1385 H   0  0  0  0  0  0
  -20.5682  -26.2320   23.3625 H   0  0  0  0  0  0
  -21.6658  -26.7443   22.1218 H   0  0  0  0  0  0
  -19.6932  -25.6276   21.1271 H   0  0  0  0  0  0
  -19.6709  -27.3164   20.6728 H   0  0  0  0  0  0
  -17.4215  -26.6678   21.4008 H   0  0  0  0  0  0
  -18.0331  -26.0079   22.9016 H   0  0  0  0  0  0
  -19.7934  -30.7280   24.2265 H   0  0  0  0  0  0
  -17.5009  -31.6265   24.5153 H   0  0  0  0  0  0
  -15.5355  -30.2968   23.7662 H   0  0  0  0  0  0
  -15.8680  -28.0813   22.7066 H   0  0  0  0  0  0
  -24.5891  -30.7099   25.7765 H   0  0  0  0  0  0
  -24.8881  -32.2939   26.4805 H   0  0  0  0  0  0
  -25.7990  -30.8977   27.0251 H   0  0  0  0  0  0
  -26.2946  -29.6732   24.1257 H   0  0  0  0  0  0
  -27.3990  -29.7258   25.4793 H   0  0  0  0  0  0
  -27.8851  -30.4239   23.9540 H   0  0  0  0  0  0
  -27.2679  -33.3624   26.2079 H   0  0  0  0  0  0
  -28.3889  -32.6856   25.0352 H   0  0  0  0  0  0
  -28.0718  -31.8445   26.5442 H   0  0  0  0  0  0
  -28.2575  -38.0112   24.7528 H   0  0  0  0  0  0
  -28.1104  -36.2645   24.6233 H   0  0  0  0  0  0
  -27.2316  -37.1393   25.8860 H   0  0  0  0  0  0
  -20.9436  -29.8774   21.6850 H   0  0  0  0  0  0
  -26.0159  -38.2843   24.1411 H   0  0  0  0  0  0
  -29.0978  -20.5808   17.9513 H   0  0  0  0  0  0
  -29.1833  -18.4433   16.8564 H   0  0  0  0  0  0
  -29.7018  -18.6058   21.7638 H   0  0  0  0  0  0
  -27.0933  -24.5898   19.7383 H   0  0  0  0  0  0
  -30.3315  -24.8699   21.5778 H   0  0  0  0  0  0
  -30.9812  -24.2639   20.0644 H   0  0  0  0  0  0
  -29.4410  -21.6049   22.6031 H   0  0  0  0  0  0
  -30.7874  -20.6911   21.9577 H   0  0  0  0  0  0
  -29.0983  -16.1253   16.9407 H   0  0  0  0  0  0
  -29.2399  -15.2171   18.3614 H   0  0  0  0  0  0
  -28.9787  -15.6875   21.2576 H   0  0  0  0  0  0
  1 25  1  0  0  0
  1 30  2  0  0  0
  1 85  1  0  0  0
  2  3  1  0  0  0
  2 25  1  0  0  0
  2 88  1  0  0  0
  2 89  1  0  0  0
  3  4  1  0  0  0
  3 90  1  0  0  0
  3 91  1  0  0  0
  4  5  1  0  0  0
  4 92  1  0  0  0
  4 93  1  0  0  0
  5  6  1  0  0  0
  5 26  1  0  0  0
  5 94  1  0  0  0
  6 25  1  0  0  0
  6 95  1  0  0  0
  6 96  1  0  0  0
  7  8  2  0  0  0
  7 26  1  0  0  0
  7 29  1  0  0  0
  8  9  1  0  0  0
  8 22  1  0  0  0
  9 10  1  0  0  0
  9 27  2  0  0  0
 10 11  2  0  0  0
 10 15  1  0  0  0
 11 12  1  0  0  0
 11 97  1  0  0  0
 12 13  2  0  0  0
 12 98  1  0  0  0
 13 14  1  0  0  0
 13 31  1  0  0  0
 14 15  2  0  0  0
 14 99  1  0  0  0
 15100  1  0  0  0
 16 17  2  0  0  0
 16 21  1  0  0  0
 16 31  1  0  0  0
 17 18  1  0  0  0
 17101  1  0  0  0
 18 19  2  0  0  0
 18102  1  0  0  0
 19 20  1  0  0  0
 19 24  1  0  0  0
 20 21  2  0  0  0
 20103  1  0  0  0
 21 23  1  0  0  0
 22 28  1  0  0  0
 22 32  2  0  0  0
 26 27  1  0  0  0
 28104  1  0  0  0
 28105  1  0  0  0
 29106  1  0  0  0
 29107  1  0  0  0
 33 34  1  0  0  0
 33 66  1  0  0  0
 33 70  2  0  0  0
 34 36  1  0  0  0
 34 59  1  0  0  0
 34108  1  0  0  0
 35 44  2  0  0  0
 35 45  1  0  0  0
 35 68  1  0  0  0
 36 56  1  0  0  0
 36109  1  0  0  0
 37 39  1  0  0  0
 37 47  1  0  0  0
 37 66  1  0  0  0
 37110  1  0  0  0
 38 43  2  0  0  0
 38 46  1  0  0  0
 38 47  1  0  0  0
 39 64  1  0  0  0
 39 67  2  0  0  0
 40 52  1  0  0  0
 40 53  2  0  0  0
 40 58  1  0  0  0
 41111  1  0  0  0
 41112  1  0  0  0
 41113  1  0  0  0
 41 48  1  0  0  0
 42 43  1  0  0  0
 42 66  1  0  0  0
 42114  1  0  0  0
 42115  1  0  0  0
 43 44  1  0  0  0
 44116  1  0  0  0
 45 46  2  0  0  0
 45117  1  0  0  0
 46118  1  0  0  0
 47119  1  0  0  0
 47120  1  0  0  0
 48 56  1  0  0  0
 48 65  1  0  0  0
 48121  1  0  0  0
 49 50  1  0  0  0
 49 53  1  0  0  0
 49 64  1  0  0  0
 49122  1  0  0  0
 50 51  1  0  0  0
 50123  1  0  0  0
 50124  1  0  0  0
 51 52  1  0  0  0
 51125  1  0  0  0
 51126  1  0  0  0
 52127  1  0  0  0
 52128  1  0  0  0
 53 54  1  0  0  0
 54 55  2  0  0  0
 54129  1  0  0  0
 55 57  1  0  0  0
 55130  1  0  0  0
 56 69  2  0  0  0
 57 58  2  0  0  0
 57131  1  0  0  0
 58132  1  0  0  0
 59 60  1  0  0  0
 59 61  1  0  0  0
 59 62  1  0  0  0
 60133  1  0  0  0
 60134  1  0  0  0
 60135  1  0  0  0
 61136  1  0  0  0
 61137  1  0  0  0
 61138  1  0  0  0
 62139  1  0  0  0
 62140  1  0  0  0
 62141  1  0  0  0
 63 65  1  0  0  0
 63142  1  0  0  0
 63143  1  0  0  0
 63144  1  0  0  0
 64145  1  0  0  0
 65146  1  0  0  0
 68 80  1  0  0  0
 71 72  2  0  0  0
 71 74  1  0  0  0
 71147  1  0  0  0
 72 75  1  0  0  0
 72148  1  0  0  0
 73 74  2  0  0  0
 73 76  1  0  0  0
 73149  1  0  0  0
 74 83  1  0  0  0
 75 76  2  0  0  0
 75 84  1  0  0  0
 76 85  1  0  0  0
 77 78  1  0  0  0
 77 80  2  0  0  0
 77 81  1  0  0  0
 78 83  1  0  0  0
 78 86  2  0  0  0
 79 81  1  0  0  0
 79 82  1  0  0  0
 79 87  2  0  0  0
 80150  1  0  0  0
 81151  1  0  0  0
 81152  1  0  0  0
 82 83  1  0  0  0
 82153  1  0  0  0
 82154  1  0  0  0
 84155  1  0  0  0
 84156  1  0  0  0
 85157  1  0  0  0
M  ISO  4   1 100  68 101  80 101  85 100
M  END
> <chiral flag>
0

> <version>
0

> <s_m_source_file>
/data/baiqing/PycharmProjects/Reinvent-master-3.2/result/LINK_invent/BTK/process_docking_weight1_custom_product_contain_oxygen_bond_distance_aromatic_linkinvent_7_9_3/rearranged_h_0088.sdf

> <i_m_source_file_index>
7

> <r_mmod_Potential_Energy-OPLS-2005>
196.263717651367

> <r_mmod_Stretch_Energy-OPLS-2005>
162.681137084961

> <r_mmod_Bend_Energy-OPLS-2005>
174.186141967773

> <r_mmod_Torsional_Energy-OPLS-2005>
316.113098144531

> <r_mmod_Improper_Torsional_Energy-OPLS-2005>
8.15633869171143

> <r_mmod_Van_der_Waal_Energy-OPLS-2005>
166.468292236328

> <r_mmod_Electrostatic_Energy-OPLS-2005>
-499.111083984375

> <r_mmod_Solvation_Energy-OPLS-2005>
-247.990951538086

> <b_mmod_Minimization_Converged-OPLS-2005>
0

> <r_mmod_RMS_Derivative-OPLS-2005>
1.82713723182678

$$$$
7
                    3D
 Structure written by MMmdl.
147155  0  0  1  0            999 V2000
  -30.4116  -15.2451   20.3775 C   0  0  0  0  0  0
  -30.4491  -12.7912   19.5254 C   0  0  0  0  0  0
  -29.5402  -12.5785   18.2869 C   0  0  0  0  0  0
  -28.0856  -12.3047   18.7105 C   0  0  0  0  0  0
  -27.6177  -13.2692   19.8282 C   0  0  2  0  0  0
  -28.6527  -13.4120   20.9649 C   0  0  0  0  0  0
  -25.2414  -13.8236   20.5729 C   0  0  0  0  0  0
  -24.1760  -13.0436   20.9258 C   0  0  0  0  0  0
  -24.6405  -11.6930   20.8761 C   0  0  0  0  0  0
  -23.9094  -10.4292   21.0407 C   0  0  0  0  0  0
  -24.3637   -9.4205   21.9186 C   0  0  0  0  0  0
  -23.6303   -8.2244   22.0755 C   0  0  0  0  0  0
  -22.4285   -8.0285   21.3545 C   0  0  0  0  0  0
  -21.9927   -9.0260   20.4646 C   0  0  0  0  0  0
  -22.7264  -10.2136   20.3056 C   0  0  0  0  0  0
  -21.6856   -6.0739   22.5279 C   0  0  0  0  0  0
  -21.4017   -6.5641   23.8213 C   0  0  0  0  0  0
  -21.3660   -5.6793   24.9174 C   0  0  0  0  0  0
  -21.6044   -4.3056   24.7224 C   0  0  0  0  0  0
  -21.8818   -3.8149   23.4345 C   0  0  0  0  0  0
  -21.9194   -4.6966   22.3402 C   0  0  0  0  0  0
  -22.7777  -13.5194   21.1902 C   0  0  0  0  0  0
  -22.1662   -4.2151   21.0979 F   0  0  0  0  0  0
  -21.5627   -3.4539   25.7737 F   0  0  0  0  0  0
  -29.8902  -13.9216   20.3507 N   0  0  0  0  0  0
  -26.2841  -12.9499   20.3215 N   0  0  0  0  0  0
  -25.9341  -11.6611   20.5719 N   0  0  0  0  0  0
  -22.0430  -12.8177   22.0453 N   0  0  0  0  0  0
  -25.4041  -15.1969   20.4129 N   0  0  0  0  0  0
  -31.6261  -15.3001   20.1328 O   0  0  0  0  0  0
  -21.6644   -6.8884   21.4242 O   0  0  0  0  0  0
  -22.3458  -14.5495   20.6739 O   0  0  0  0  0  0
  -24.6616  -31.8249   23.1724 C   0  0  0  0  0  0
  -25.9304  -32.4595   23.8183 C   0  0  1  0  0  0
  -27.2199  -26.9363   20.1865 C   0  0  0  0  0  0
  -25.5976  -33.8410   24.2085 N   0  0  0  0  0  0
  -23.4765  -30.4366   21.5212 C   0  0  2  0  0  0
  -24.9313  -28.8254   20.1146 C   0  0  0  0  0  0
  -22.7663  -29.4444   22.4789 C   0  0  0  0  0  0
  -18.0322  -28.1408   22.8467 C   0  0  0  0  0  0
  -24.1494  -36.7210   23.2646 C   0  0  0  0  0  0
  -26.0452  -30.6323   21.4047 C   0  0  0  0  0  0
  -26.1133  -29.2216   20.7533 C   0  0  0  0  0  0
  -27.2513  -28.2963   20.7699 C   0  0  0  0  0  0
  -26.0139  -26.6985   19.4880 C   0  0  0  0  0  0
  -24.9057  -27.5829   19.4627 C   0  0  0  0  0  0
  -23.7172  -29.7525   20.1475 C   0  0  0  0  0  0
  -25.4134  -36.2972   24.0300 C   0  0  1  0  0  0
  -20.5946  -28.3751   23.1190 C   0  0  2  0  0  0
  -20.6798  -26.9434   22.5401 C   0  0  0  0  0  0
  -19.5770  -26.6377   21.5214 C   0  0  0  0  0  0
  -18.1954  -26.7940   22.1625 C   0  0  0  0  0  0
  -19.1583  -28.8901   23.2815 C   0  0  0  0  0  0
  -18.9493  -30.1492   23.8849 C   0  0  0  0  0  0
  -17.6486  -30.6597   24.0555 C   0  0  0  0  0  0
  -25.9098  -34.9353   23.5013 C   0  0  0  0  0  0
  -16.5377  -29.9084   23.6344 C   0  0  0  0  0  0
  -16.7304  -28.6505   23.0361 C   0  0  0  0  0  0
  -26.4558  -31.6537   25.0708 C   0  0  0  0  0  0
  -25.3686  -31.3786   26.1365 C   0  0  0  0  0  0
  -27.0458  -30.2905   24.6442 C   0  0  0  0  0  0
  -27.6048  -32.4349   25.7511 C   0  0  0  0  0  0
  -27.5571  -37.1761   24.8465 C   0  0  0  0  0  0
  -21.4334  -29.3042   22.3539 N   0  0  0  0  0  0
  -26.4279  -37.3707   23.9409 N   0  0  0  0  0  0
  -24.7488  -30.9916   22.0862 N   0  0  0  0  0  0
  -23.4213  -28.8013   23.3029 O   0  0  0  0  0  0
  -28.2216  -25.8297   20.2269 O   0  0  0  0  0  0
  -26.5708  -34.8885   22.4609 O   0  0  0  0  0  0
  -23.5688  -32.1220   23.6817 O   0  0  0  0  0  0
  -30.4331  -19.1261   20.1584 C   0  0  0  0  0  0
  -28.2243  -18.8052   20.6428 C   0  0  0  0  0  0
  -28.9304  -21.3415   20.3267 C   0  0  0  0  0  0
  -29.4648  -18.0646   20.4294 C   0  0  0  0  0  0
  -30.1910  -20.6079   20.1138 C   0  0  0  0  0  0
  -27.9698  -20.2697   20.6006 C   0  0  0  0  0  0
  -28.6773  -23.0441   20.2725 C   0  0  0  0  0  0
  -27.9251  -24.3286   20.3126 C   0  0  0  0  0  0
  -31.3037  -21.4019   19.8285 N   0  0  0  0  0  0
  -29.5505  -16.4413   20.5065 N   0  0  0  0  0  0
  -26.6909  -20.6464   20.8487 F   0  0  0  0  0  0
  -31.4665  -13.0067   19.1958 H   0  0  0  0  0  0
  -30.5202  -11.8769   20.1166 H   0  0  0  0  0  0
  -29.9153  -11.7568   17.6753 H   0  0  0  0  0  0
  -29.5735  -13.4691   17.6576 H   0  0  0  0  0  0
  -28.0347  -11.2765   19.0708 H   0  0  0  0  0  0
  -27.4186  -12.3609   17.8493 H   0  0  0  0  0  0
  -27.5422  -14.2437   19.3444 H   0  0  0  0  0  0
  -28.8137  -12.4634   21.4792 H   0  0  0  0  0  0
  -28.2958  -14.1151   21.7192 H   0  0  0  0  0  0
  -25.2779   -9.5679   22.4766 H   0  0  0  0  0  0
  -24.0008   -7.4635   22.7476 H   0  0  0  0  0  0
  -21.0858   -8.8785   19.8952 H   0  0  0  0  0  0
  -22.3724  -10.9677   19.6167 H   0  0  0  0  0  0
  -21.2011   -7.6150   23.9717 H   0  0  0  0  0  0
  -21.1481   -6.0523   25.9077 H   0  0  0  0  0  0
  -22.0597   -2.7611   23.2844 H   0  0  0  0  0  0
  -22.4060  -11.9848   22.4848 H   0  0  0  0  0  0
  -21.1041  -13.1186   22.2652 H   0  0  0  0  0  0
  -24.6234  -15.8375   20.5077 H   0  0  0  0  0  0
  -26.2214  -15.6299   20.0047 H   0  0  0  0  0  0
  -26.7372  -32.5137   23.0898 H   0  0  0  0  0  0
  -25.0070  -33.9491   25.0199 H   0  0  0  0  0  0
  -22.7893  -31.2679   21.3506 H   0  0  0  0  0  0
  -23.3769  -35.9526   23.3271 H   0  0  0  0  0  0
  -24.3573  -36.8893   22.2068 H   0  0  0  0  0  0
  -23.7236  -37.6382   23.6725 H   0  0  0  0  0  0
  -26.2246  -31.3718   20.6232 H   0  0  0  0  0  0
  -26.9058  -30.6911   22.0591 H   0  0  0  0  0  0
  -28.1463  -28.5971   21.2959 H   0  0  0  0  0  0
  -25.8978  -25.7550   18.9747 H   0  0  0  0  0  0
  -24.0108  -27.2761   18.9387 H   0  0  0  0  0  0
  -23.8729  -30.5210   19.3895 H   0  0  0  0  0  0
  -22.8274  -29.2063   19.8294 H   0  0  0  0  0  0
  -25.1331  -36.1768   25.0790 H   0  0  0  0  0  0
  -21.0034  -28.3356   24.1313 H   0  0  0  0  0  0
  -20.5681  -26.2370   23.3640 H   0  0  0  0  0  0
  -21.6661  -26.7412   22.1205 H   0  0  0  0  0  0
  -19.6928  -25.6276   21.1274 H   0  0  0  0  0  0
  -19.6706  -27.3162   20.6723 H   0  0  0  0  0  0
  -17.4221  -26.6681   21.4031 H   0  0  0  0  0  0
  -18.0352  -26.0095   22.9035 H   0  0  0  0  0  0
  -19.7968  -30.7322   24.2196 H   0  0  0  0  0  0
  -17.5036  -31.6272   24.5166 H   0  0  0  0  0  0
  -15.5374  -30.2969   23.7694 H   0  0  0  0  0  0
  -15.8705  -28.0807   22.7103 H   0  0  0  0  0  0
  -24.5877  -30.7127   25.7672 H   0  0  0  0  0  0
  -24.8865  -32.2987   26.4676 H   0  0  0  0  0  0
  -25.7917  -30.9025   27.0219 H   0  0  0  0  0  0
  -26.3128  -29.6577   24.1427 H   0  0  0  0  0  0
  -27.3966  -29.7273   25.5101 H   0  0  0  0  0  0
  -27.9079  -30.4086   23.9875 H   0  0  0  0  0  0
  -27.2614  -33.3692   26.1964 H   0  0  0  0  0  0
  -28.3924  -32.6843   25.0387 H   0  0  0  0  0  0
  -28.0645  -31.8560   26.5531 H   0  0  0  0  0  0
  -28.2564  -38.0080   24.7522 H   0  0  0  0  0  0
  -28.1092  -36.2607   24.6281 H   0  0  0  0  0  0
  -27.2288  -37.1389   25.8867 H   0  0  0  0  0  0
  -20.9588  -29.8731   21.6666 H   0  0  0  0  0  0
  -26.0127  -38.2764   24.1421 H   0  0  0  0  0  0
  -31.4419  -18.7888   19.9654 H   0  0  0  0  0  0
  -27.3541  -18.2055   20.8654 H   0  0  0  0  0  0
  -27.6770  -22.6656   20.3736 H   0  0  0  0  0  0
  -26.8474  -24.2822   20.4516 H   0  0  0  0  0  0
  -32.2345  -21.0234   19.9752 H   0  0  0  0  0  0
  -31.2420  -22.3974   20.0223 H   0  0  0  0  0  0
  -28.6305  -16.0748   20.6987 H   0  0  0  0  0  0
  1 25  1  0  0  0
  1 30  2  0  0  0
  1 80  1  0  0  0
  2  3  1  0  0  0
  2 25  1  0  0  0
  2 82  1  0  0  0
  2 83  1  0  0  0
  3  4  1  0  0  0
  3 84  1  0  0  0
  3 85  1  0  0  0
  4  5  1  0  0  0
  4 86  1  0  0  0
  4 87  1  0  0  0
  5  6  1  0  0  0
  5 26  1  0  0  0
  5 88  1  0  0  0
  6 25  1  0  0  0
  6 89  1  0  0  0
  6 90  1  0  0  0
  7  8  2  0  0  0
  7 26  1  0  0  0
  7 29  1  0  0  0
  8  9  1  0  0  0
  8 22  1  0  0  0
  9 10  1  0  0  0
  9 27  2  0  0  0
 10 11  2  0  0  0
 10 15  1  0  0  0
 11 12  1  0  0  0
 11 91  1  0  0  0
 12 13  2  0  0  0
 12 92  1  0  0  0
 13 14  1  0  0  0
 13 31  1  0  0  0
 14 15  2  0  0  0
 14 93  1  0  0  0
 15 94  1  0  0  0
 16 17  2  0  0  0
 16 21  1  0  0  0
 16 31  1  0  0  0
 17 18  1  0  0  0
 17 95  1  0  0  0
 18 19  2  0  0  0
 18 96  1  0  0  0
 19 20  1  0  0  0
 19 24  1  0  0  0
 20 21  2  0  0  0
 20 97  1  0  0  0
 21 23  1  0  0  0
 22 28  1  0  0  0
 22 32  2  0  0  0
 26 27  1  0  0  0
 28 98  1  0  0  0
 28 99  1  0  0  0
 29100  1  0  0  0
 29101  1  0  0  0
 33 34  1  0  0  0
 33 66  1  0  0  0
 33 70  2  0  0  0
 34 36  1  0  0  0
 34 59  1  0  0  0
 34102  1  0  0  0
 35 44  2  0  0  0
 35 45  1  0  0  0
 35 68  1  0  0  0
 36 56  1  0  0  0
 36103  1  0  0  0
 37 39  1  0  0  0
 37 47  1  0  0  0
 37 66  1  0  0  0
 37104  1  0  0  0
 38 43  2  0  0  0
 38 46  1  0  0  0
 38 47  1  0  0  0
 39 64  1  0  0  0
 39 67  2  0  0  0
 40 52  1  0  0  0
 40 53  2  0  0  0
 40 58  1  0  0  0
 41105  1  0  0  0
 41106  1  0  0  0
 41107  1  0  0  0
 41 48  1  0  0  0
 42 43  1  0  0  0
 42 66  1  0  0  0
 42108  1  0  0  0
 42109  1  0  0  0
 43 44  1  0  0  0
 44110  1  0  0  0
 45 46  2  0  0  0
 45111  1  0  0  0
 46112  1  0  0  0
 47113  1  0  0  0
 47114  1  0  0  0
 48 56  1  0  0  0
 48 65  1  0  0  0
 48115  1  0  0  0
 49 50  1  0  0  0
 49 53  1  0  0  0
 49 64  1  0  0  0
 49116  1  0  0  0
 50 51  1  0  0  0
 50117  1  0  0  0
 50118  1  0  0  0
 51 52  1  0  0  0
 51119  1  0  0  0
 51120  1  0  0  0
 52121  1  0  0  0
 52122  1  0  0  0
 53 54  1  0  0  0
 54 55  2  0  0  0
 54123  1  0  0  0
 55 57  1  0  0  0
 55124  1  0  0  0
 56 69  2  0  0  0
 57 58  2  0  0  0
 57125  1  0  0  0
 58126  1  0  0  0
 59 60  1  0  0  0
 59 61  1  0  0  0
 59 62  1  0  0  0
 60127  1  0  0  0
 60128  1  0  0  0
 60129  1  0  0  0
 61130  1  0  0  0
 61131  1  0  0  0
 61132  1  0  0  0
 62133  1  0  0  0
 62134  1  0  0  0
 62135  1  0  0  0
 63 65  1  0  0  0
 63136  1  0  0  0
 63137  1  0  0  0
 63138  1  0  0  0
 64139  1  0  0  0
 65140  1  0  0  0
 68 78  1  0  0  0
 71 74  2  0  0  0
 71 75  1  0  0  0
 71141  1  0  0  0
 72 74  1  0  0  0
 72 76  2  0  0  0
 72142  1  0  0  0
 73 75  2  0  0  0
 73 76  1  0  0  0
 73 77  1  0  0  0
 74 80  1  0  0  0
 75 79  1  0  0  0
 76 81  1  0  0  0
 77 78  2  0  0  0
 77143  1  0  0  0
 78144  1  0  0  0
 79145  1  0  0  0
 79146  1  0  0  0
 80147  1  0  0  0
M  ISO  4   1 100  68 101  78 101  80 100
M  END
> <chiral flag>
0

> <version>
0

> <s_m_source_file>
/data/baiqing/PycharmProjects/Reinvent-master-3.2/result/LINK_invent/BTK/process_docking_weight1_custom_product_contain_oxygen_bond_distance_aromatic_linkinvent_7_9_3/rearranged_h_0088.sdf

> <i_m_source_file_index>
8

> <r_mmod_Potential_Energy-OPLS-2005>
1377.18615722656

> <r_mmod_Stretch_Energy-OPLS-2005>
494.554565429688

> <r_mmod_Bend_Energy-OPLS-2005>
610.001403808594

> <r_mmod_Torsional_Energy-OPLS-2005>
212.875366210938

> <r_mmod_Improper_Torsional_Energy-OPLS-2005>
6.69506692886353

> <r_mmod_Van_der_Waal_Energy-OPLS-2005>
139.964904785156

> <r_mmod_Electrostatic_Energy-OPLS-2005>
-311.560211181641

> <r_mmod_Solvation_Energy-OPLS-2005>
-218.087493896484

> <b_mmod_Minimization_Converged-OPLS-2005>
0

> <r_mmod_RMS_Derivative-OPLS-2005>
0.0958813428878784

$$$$
8
                    3D
 Structure written by MMmdl.
155164  0  0  1  0            999 V2000
  -30.6178  -14.6512   20.4999 C   0  0  0  0  0  0
  -30.4420  -12.3991   19.4545 C   0  0  0  0  0  0
  -29.5102  -12.5094   18.2262 C   0  0  0  0  0  0
  -28.0329  -12.3440   18.6371 C   0  0  0  0  0  0
  -27.6537  -13.2164   19.8640 C   0  0  2  0  0  0
  -28.6992  -13.0715   20.9932 C   0  0  0  0  0  0
  -25.2555  -13.8163   20.5679 C   0  0  0  0  0  0
  -24.1817  -13.0426   20.9158 C   0  0  0  0  0  0
  -24.6390  -11.6901   20.8723 C   0  0  0  0  0  0
  -23.9060  -10.4286   21.0398 C   0  0  0  0  0  0
  -24.3613   -9.4207   21.9179 C   0  0  0  0  0  0
  -23.6291   -8.2242   22.0753 C   0  0  0  0  0  0
  -22.4272   -8.0279   21.3545 C   0  0  0  0  0  0
  -21.9904   -9.0248   20.4643 C   0  0  0  0  0  0
  -22.7231  -10.2128   20.3049 C   0  0  0  0  0  0
  -21.6854   -6.0738   22.5284 C   0  0  0  0  0  0
  -21.4013   -6.5641   23.8218 C   0  0  0  0  0  0
  -21.3659   -5.6793   24.9179 C   0  0  0  0  0  0
  -21.6043   -4.3057   24.7227 C   0  0  0  0  0  0
  -21.8818   -3.8149   23.4348 C   0  0  0  0  0  0
  -21.9191   -4.6966   22.3405 C   0  0  0  0  0  0
  -22.7842  -13.5229   21.1834 C   0  0  0  0  0  0
  -22.1660   -4.2153   21.0982 F   0  0  0  0  0  0
  -21.5627   -3.4540   25.7740 F   0  0  0  0  0  0
  -30.0155  -13.4203   20.4322 N   0  0  0  0  0  0
  -26.2993  -12.9347   20.3333 N   0  0  0  0  0  0
  -25.9324  -11.6499   20.5756 N   0  0  0  0  0  0
  -22.0486  -12.8231   22.0399 N   0  0  0  0  0  0
  -25.4250  -15.1885   20.4146 N   0  0  0  0  0  0
  -31.7768  -14.8196   20.1093 O   0  0  0  0  0  0
  -21.6639   -6.8878   21.4244 O   0  0  0  0  0  0
  -22.3521  -14.5539   20.6691 O   0  0  0  0  0  0
  -24.6296  -31.8600   23.2039 C   0  0  0  0  0  0
  -25.9142  -32.4779   23.8361 C   0  0  1  0  0  0
  -27.2151  -27.2998   20.1119 C   0  0  0  0  0  0
  -25.5959  -33.8578   24.2290 N   0  0  0  0  0  0
  -23.4228  -30.4894   21.5461 C   0  0  2  0  0  0
  -24.8669  -28.9496   20.1082 C   0  0  0  0  0  0
  -22.7483  -29.4652   22.4905 C   0  0  0  0  0  0
  -18.0295  -28.1399   22.8485 C   0  0  0  0  0  0
  -24.1494  -36.7290   23.2633 C   0  0  0  0  0  0
  -25.9683  -30.7849   21.3795 C   0  0  0  0  0  0
  -26.0399  -29.4129   20.7176 C   0  0  0  0  0  0
  -27.2172  -28.6006   20.7119 C   0  0  0  0  0  0
  -26.0157  -26.9074   19.4668 C   0  0  0  0  0  0
  -24.8585  -27.7021   19.4739 C   0  0  0  0  0  0
  -23.6384  -29.8337   20.1589 C   0  0  0  0  0  0
  -25.4113  -36.3078   24.0330 C   0  0  1  0  0  0
  -20.5899  -28.3719   23.1260 C   0  0  2  0  0  0
  -20.6796  -26.9443   22.5396 C   0  0  0  0  0  0
  -19.5765  -26.6394   21.5212 C   0  0  0  0  0  0
  -18.1941  -26.7940   22.1622 C   0  0  0  0  0  0
  -19.1549  -28.8870   23.2875 C   0  0  0  0  0  0
  -18.9475  -30.1466   23.8904 C   0  0  0  0  0  0
  -17.6478  -30.6604   24.0568 C   0  0  0  0  0  0
  -25.9058  -34.9452   23.5104 C   0  0  0  0  0  0
  -16.5368  -29.9107   23.6332 C   0  0  0  0  0  0
  -16.7281  -28.6521   23.0355 C   0  0  0  0  0  0
  -26.4518  -31.6580   25.0730 C   0  0  0  0  0  0
  -25.3744  -31.3729   26.1452 C   0  0  0  0  0  0
  -27.0361  -30.2997   24.6195 C   0  0  0  0  0  0
  -27.6078  -32.4303   25.7507 C   0  0  0  0  0  0
  -27.5588  -37.1788   24.8455 C   0  0  0  0  0  0
  -21.4193  -29.3080   22.3652 N   0  0  0  0  0  0
  -26.4283  -37.3779   23.9428 N   0  0  0  0  0  0
  -24.6925  -31.0606   22.0997 N   0  0  0  0  0  0
  -23.4201  -28.8173   23.2973 O   0  0  0  0  0  0
  -28.3078  -26.4064   20.1754 O   0  0  0  0  0  0
  -26.5609  -34.8925   22.4660 O   0  0  0  0  0  0
  -23.5458  -32.1405   23.7360 O   0  0  0  0  0  0
  -30.8684  -19.3410   20.1254 C   0  0  0  0  0  0
  -30.9387  -17.9127   20.2114 C   0  0  0  0  0  0
  -28.6637  -19.3077   21.0688 C   0  0  0  0  0  0
  -29.7322  -20.0970   20.5570 C   0  0  0  0  0  0
  -29.8653  -17.1445   20.7366 C   0  0  0  0  0  0
  -28.7296  -17.8853   21.1547 C   0  0  0  0  0  0
  -30.2682  -23.7832   20.6512 C   0  0  0  0  0  0
  -28.9807  -23.7881   20.2869 C   0  0  0  0  0  0
  -30.7175  -22.4025   20.8025 C   0  0  0  0  0  0
  -28.5949  -22.3654   20.1978 C   0  0  0  0  0  0
  -31.1954  -24.9674   20.8664 C   0  0  0  0  0  0
  -27.9932  -24.9656   19.9496 C   0  0  0  0  0  0
  -29.6766  -21.5848   20.5083 N   0  0  0  0  0  0
  -29.8054  -15.6866   20.8768 N   0  0  0  0  0  0
  -31.8467  -22.0373   21.1533 O   0  0  0  0  0  0
  -27.4814  -21.9319   19.8776 O   0  0  0  0  0  0
  -27.6684  -17.2081   21.6558 F   0  0  0  0  0  0
  -31.4828  -12.5299   19.1525 H   0  0  0  0  0  0
  -30.3825  -11.4036   19.8974 H   0  0  0  0  0  0
  -29.7779  -11.7578   17.4823 H   0  0  0  0  0  0
  -29.6486  -13.4786   17.7439 H   0  0  0  0  0  0
  -27.8728  -11.2909   18.8709 H   0  0  0  0  0  0
  -27.3783  -12.5696   17.7943 H   0  0  0  0  0  0
  -27.6697  -14.2511   19.5211 H   0  0  0  0  0  0
  -28.7123  -12.0485   21.3723 H   0  0  0  0  0  0
  -28.4409  -13.6991   21.8476 H   0  0  0  0  0  0
  -25.2758   -9.5692   22.4751 H   0  0  0  0  0  0
  -24.0005   -7.4638   22.7475 H   0  0  0  0  0  0
  -21.0835   -8.8759   19.8951 H   0  0  0  0  0  0
  -22.3686  -10.9662   19.6155 H   0  0  0  0  0  0
  -21.2006   -7.6150   23.9726 H   0  0  0  0  0  0
  -21.1482   -6.0522   25.9084 H   0  0  0  0  0  0
  -22.0597   -2.7611   23.2849 H   0  0  0  0  0  0
  -22.4096  -11.9891   22.4793 H   0  0  0  0  0  0
  -21.1110  -13.1271   22.2611 H   0  0  0  0  0  0
  -24.6634  -15.8428   20.5557 H   0  0  0  0  0  0
  -26.3019  -15.6480   20.2047 H   0  0  0  0  0  0
  -26.7210  -32.5440   23.1105 H   0  0  0  0  0  0
  -25.0135  -33.9717   25.0458 H   0  0  0  0  0  0
  -22.7188  -31.3125   21.4064 H   0  0  0  0  0  0
  -23.3769  -35.9606   23.3254 H   0  0  0  0  0  0
  -24.3603  -36.8945   22.2057 H   0  0  0  0  0  0
  -23.7225  -37.6475   23.6673 H   0  0  0  0  0  0
  -26.1038  -31.5502   20.6138 H   0  0  0  0  0  0
  -26.8478  -30.8291   22.0104 H   0  0  0  0  0  0
  -28.1128  -28.9504   21.2060 H   0  0  0  0  0  0
  -25.9226  -25.9628   18.9541 H   0  0  0  0  0  0
  -23.9625  -27.3419   18.9866 H   0  0  0  0  0  0
  -23.7648  -30.6168   19.4101 H   0  0  0  0  0  0
  -22.7558  -29.2718   19.8472 H   0  0  0  0  0  0
  -25.1284  -36.1920   25.0817 H   0  0  0  0  0  0
  -20.9999  -28.3309   24.1378 H   0  0  0  0  0  0
  -20.5721  -26.2336   23.3604 H   0  0  0  0  0  0
  -21.6660  -26.7481   22.1178 H   0  0  0  0  0  0
  -19.6937  -25.6300   21.1257 H   0  0  0  0  0  0
  -19.6705  -27.3192   20.6733 H   0  0  0  0  0  0
  -17.4212  -26.6690   21.4025 H   0  0  0  0  0  0
  -18.0343  -26.0080   22.9016 H   0  0  0  0  0  0
  -19.7955  -30.7276   24.2280 H   0  0  0  0  0  0
  -17.5042  -31.6287   24.5165 H   0  0  0  0  0  0
  -15.5374  -30.3025   23.7651 H   0  0  0  0  0  0
  -15.8675  -28.0848   22.7073 H   0  0  0  0  0  0
  -24.5930  -30.7059   25.7787 H   0  0  0  0  0  0
  -24.8931  -32.2904   26.4851 H   0  0  0  0  0  0
  -25.8070  -30.8933   27.0241 H   0  0  0  0  0  0
  -26.2942  -29.6740   24.1219 H   0  0  0  0  0  0
  -27.4055  -29.7256   25.4704 H   0  0  0  0  0  0
  -27.8814  -30.4276   23.9426 H   0  0  0  0  0  0
  -27.2696  -33.3607   26.2079 H   0  0  0  0  0  0
  -28.3906  -32.6846   25.0347 H   0  0  0  0  0  0
  -28.0724  -31.8422   26.5432 H   0  0  0  0  0  0
  -28.2549  -38.0140   24.7571 H   0  0  0  0  0  0
  -28.1139  -36.2675   24.6179 H   0  0  0  0  0  0
  -27.2321  -37.1306   25.8857 H   0  0  0  0  0  0
  -20.9361  -29.8832   21.6892 H   0  0  0  0  0  0
  -26.0158  -38.2839   24.1475 H   0  0  0  0  0  0
  -31.7247  -19.8575   19.7142 H   0  0  0  0  0  0
  -31.8346  -17.4164   19.8667 H   0  0  0  0  0  0
  -27.7645  -19.7893   21.4242 H   0  0  0  0  0  0
  -30.6841  -25.9188   20.7350 H   0  0  0  0  0  0
  -32.0248  -24.9275   20.1598 H   0  0  0  0  0  0
  -31.6082  -24.9415   21.8752 H   0  0  0  0  0  0
  -27.0859  -24.7288   20.5088 H   0  0  0  0  0  0
  -27.7584  -24.8365   18.8928 H   0  0  0  0  0  0
  -28.9125  -15.3695   21.2238 H   0  0  0  0  0  0
  1 25  1  0  0  0
  1 30  2  0  0  0
  1 84  1  0  0  0
  2  3  1  0  0  0
  2 25  1  0  0  0
  2 88  1  0  0  0
  2 89  1  0  0  0
  3  4  1  0  0  0
  3 90  1  0  0  0
  3 91  1  0  0  0
  4  5  1  0  0  0
  4 92  1  0  0  0
  4 93  1  0  0  0
  5  6  1  0  0  0
  5 26  1  0  0  0
  5 94  1  0  0  0
  6 25  1  0  0  0
  6 95  1  0  0  0
  6 96  1  0  0  0
  7  8  2  0  0  0
  7 26  1  0  0  0
  7 29  1  0  0  0
  8  9  1  0  0  0
  8 22  1  0  0  0
  9 10  1  0  0  0
  9 27  2  0  0  0
 10 11  2  0  0  0
 10 15  1  0  0  0
 11 12  1  0  0  0
 11 97  1  0  0  0
 12 13  2  0  0  0
 12 98  1  0  0  0
 13 14  1  0  0  0
 13 31  1  0  0  0
 14 15  2  0  0  0
 14 99  1  0  0  0
 15100  1  0  0  0
 16 17  2  0  0  0
 16 21  1  0  0  0
 16 31  1  0  0  0
 17 18  1  0  0  0
 17101  1  0  0  0
 18 19  2  0  0  0
 18102  1  0  0  0
 19 20  1  0  0  0
 19 24  1  0  0  0
 20 21  2  0  0  0
 20103  1  0  0  0
 21 23  1  0  0  0
 22 28  1  0  0  0
 22 32  2  0  0  0
 26 27  1  0  0  0
 28104  1  0  0  0
 28105  1  0  0  0
 29106  1  0  0  0
 29107  1  0  0  0
 33 34  1  0  0  0
 33 66  1  0  0  0
 33 70  2  0  0  0
 34 36  1  0  0  0
 34 59  1  0  0  0
 34108  1  0  0  0
 35 44  2  0  0  0
 35 45  1  0  0  0
 35 68  1  0  0  0
 36 56  1  0  0  0
 36109  1  0  0  0
 37 39  1  0  0  0
 37 47  1  0  0  0
 37 66  1  0  0  0
 37110  1  0  0  0
 38 43  2  0  0  0
 38 46  1  0  0  0
 38 47  1  0  0  0
 39 64  1  0  0  0
 39 67  2  0  0  0
 40 52  1  0  0  0
 40 53  2  0  0  0
 40 58  1  0  0  0
 41111  1  0  0  0
 41112  1  0  0  0
 41113  1  0  0  0
 41 48  1  0  0  0
 42 43  1  0  0  0
 42 66  1  0  0  0
 42114  1  0  0  0
 42115  1  0  0  0
 43 44  1  0  0  0
 44116  1  0  0  0
 45 46  2  0  0  0
 45117  1  0  0  0
 46118  1  0  0  0
 47119  1  0  0  0
 47120  1  0  0  0
 48 56  1  0  0  0
 48 65  1  0  0  0
 48121  1  0  0  0
 49 50  1  0  0  0
 49 53  1  0  0  0
 49 64  1  0  0  0
 49122  1  0  0  0
 50 51  1  0  0  0
 50123  1  0  0  0
 50124  1  0  0  0
 51 52  1  0  0  0
 51125  1  0  0  0
 51126  1  0  0  0
 52127  1  0  0  0
 52128  1  0  0  0
 53 54  1  0  0  0
 54 55  2  0  0  0
 54129  1  0  0  0
 55 57  1  0  0  0
 55130  1  0  0  0
 56 69  2  0  0  0
 57 58  2  0  0  0
 57131  1  0  0  0
 58132  1  0  0  0
 59 60  1  0  0  0
 59 61  1  0  0  0
 59 62  1  0  0  0
 60133  1  0  0  0
 60134  1  0  0  0
 60135  1  0  0  0
 61136  1  0  0  0
 61137  1  0  0  0
 61138  1  0  0  0
 62139  1  0  0  0
 62140  1  0  0  0
 62141  1  0  0  0
 63 65  1  0  0  0
 63142  1  0  0  0
 63143  1  0  0  0
 63144  1  0  0  0
 64145  1  0  0  0
 65146  1  0  0  0
 68 82  1  0  0  0
 71 72  2  0  0  0
 71 74  1  0  0  0
 71147  1  0  0  0
 72 75  1  0  0  0
 72148  1  0  0  0
 73 74  2  0  0  0
 73 76  1  0  0  0
 73149  1  0  0  0
 74 83  1  0  0  0
 75 76  2  0  0  0
 75 84  1  0  0  0
 76 87  1  0  0  0
 77 78  2  0  0  0
 77 79  1  0  0  0
 77 81  1  0  0  0
 78 80  1  0  0  0
 78 82  1  0  0  0
 79 83  1  0  0  0
 79 85  2  0  0  0
 80 83  1  0  0  0
 80 86  2  0  0  0
 81150  1  0  0  0
 81151  1  0  0  0
 81152  1  0  0  0
 82153  1  0  0  0
 82154  1  0  0  0
 84155  1  0  0  0
M  ISO  4   1 100  68 101  82 101  84 100
M  END
> <chiral flag>
0

> <version>
0

> <s_m_source_file>
/data/baiqing/PycharmProjects/Reinvent-master-3.2/result/LINK_invent/BTK/process_docking_weight1_custom_product_contain_oxygen_bond_distance_aromatic_linkinvent_7_9_3/rearranged_h_0088.sdf

> <i_m_source_file_index>
9

> <r_mmod_Potential_Energy-OPLS-2005>
104.064010620117

> <r_mmod_Stretch_Energy-OPLS-2005>
87.6731643676758

> <r_mmod_Bend_Energy-OPLS-2005>
192.943130493164

> <r_mmod_Torsional_Energy-OPLS-2005>
228.612899780273

> <r_mmod_Improper_Torsional_Energy-OPLS-2005>
3.68430614471436

> <r_mmod_Van_der_Waal_Energy-OPLS-2005>
147.561187744141

> <r_mmod_Electrostatic_Energy-OPLS-2005>
-395.079437255859

> <r_mmod_Solvation_Energy-OPLS-2005>
-218.664962768555

> <b_mmod_Minimization_Converged-OPLS-2005>
0

> <r_mmod_RMS_Derivative-OPLS-2005>
0.874181032180786

$$$$
9
                    3D
 Structure written by MMmdl.
155164  0  0  1  0            999 V2000
  -30.6658  -14.6586   20.5803 C   0  0  0  0  0  0
  -30.4334  -12.4298   19.4600 C   0  0  0  0  0  0
  -29.5081  -12.5289   18.2281 C   0  0  0  0  0  0
  -28.0335  -12.3519   18.6362 C   0  0  0  0  0  0
  -27.6509  -13.2243   19.8590 C   0  0  2  0  0  0
  -28.6887  -13.0894   20.9905 C   0  0  0  0  0  0
  -25.2546  -13.8186   20.5674 C   0  0  0  0  0  0
  -24.1820  -13.0442   20.9174 C   0  0  0  0  0  0
  -24.6400  -11.6916   20.8723 C   0  0  0  0  0  0
  -23.9073  -10.4295   21.0396 C   0  0  0  0  0  0
  -24.3623   -9.4213   21.9178 C   0  0  0  0  0  0
  -23.6295   -8.2250   22.0754 C   0  0  0  0  0  0
  -22.4276   -8.0285   21.3544 C   0  0  0  0  0  0
  -21.9911   -9.0258   20.4645 C   0  0  0  0  0  0
  -22.7242  -10.2137   20.3050 C   0  0  0  0  0  0
  -21.6857   -6.0739   22.5279 C   0  0  0  0  0  0
  -21.4015   -6.5642   23.8213 C   0  0  0  0  0  0
  -21.3659   -5.6791   24.9175 C   0  0  0  0  0  0
  -21.6040   -4.3055   24.7221 C   0  0  0  0  0  0
  -21.8821   -3.8149   23.4343 C   0  0  0  0  0  0
  -21.9193   -4.6967   22.3400 C   0  0  0  0  0  0
  -22.7843  -13.5231   21.1849 C   0  0  0  0  0  0
  -22.1661   -4.2155   21.0976 F   0  0  0  0  0  0
  -21.5627   -3.4535   25.7732 F   0  0  0  0  0  0
  -30.0083  -13.4524   20.4456 N   0  0  0  0  0  0
  -26.2974  -12.9380   20.3283 N   0  0  0  0  0  0
  -25.9328  -11.6526   20.5722 N   0  0  0  0  0  0
  -22.0491  -12.8223   22.0410 N   0  0  0  0  0  0
  -25.4263  -15.1907   20.4118 N   0  0  0  0  0  0
  -31.7596  -14.8291   20.0324 O   0  0  0  0  0  0
  -21.6641   -6.8882   21.4240 O   0  0  0  0  0  0
  -22.3520  -14.5534   20.6697 O   0  0  0  0  0  0
  -24.6287  -31.8579   23.2027 C   0  0  0  0  0  0
  -25.9125  -32.4770   23.8361 C   0  0  1  0  0  0
  -27.2172  -27.2974   20.1235 C   0  0  0  0  0  0
  -25.5938  -33.8572   24.2285 N   0  0  0  0  0  0
  -23.4242  -30.4820   21.5448 C   0  0  2  0  0  0
  -24.8717  -28.9380   20.1090 C   0  0  0  0  0  0
  -22.7488  -29.4617   22.4924 C   0  0  0  0  0  0
  -18.0289  -28.1382   22.8483 C   0  0  0  0  0  0
  -24.1489  -36.7289   23.2640 C   0  0  0  0  0  0
  -25.9684  -30.7813   21.3791 C   0  0  0  0  0  0
  -26.0423  -29.4079   20.7199 C   0  0  0  0  0  0
  -27.2215  -28.5996   20.7177 C   0  0  0  0  0  0
  -26.0332  -26.8980   19.4667 C   0  0  0  0  0  0
  -24.8705  -27.6891   19.4708 C   0  0  0  0  0  0
  -23.6406  -29.8200   20.1592 C   0  0  0  0  0  0
  -25.4111  -36.3077   24.0332 C   0  0  1  0  0  0
  -20.5892  -28.3690   23.1272 C   0  0  2  0  0  0
  -20.6778  -26.9408   22.5410 C   0  0  0  0  0  0
  -19.5757  -26.6380   21.5210 C   0  0  0  0  0  0
  -18.1934  -26.7928   22.1618 C   0  0  0  0  0  0
  -19.1542  -28.8851   23.2875 C   0  0  0  0  0  0
  -18.9466  -30.1454   23.8891 C   0  0  0  0  0  0
  -17.6466  -30.6585   24.0558 C   0  0  0  0  0  0
  -25.9051  -34.9445   23.5106 C   0  0  0  0  0  0
  -16.5356  -29.9082   23.6330 C   0  0  0  0  0  0
  -16.7275  -28.6500   23.0352 C   0  0  0  0  0  0
  -26.4504  -31.6582   25.0737 C   0  0  0  0  0  0
  -25.3739  -31.3723   26.1466 C   0  0  0  0  0  0
  -27.0345  -30.3003   24.6204 C   0  0  0  0  0  0
  -27.6065  -32.4316   25.7504 C   0  0  0  0  0  0
  -27.5576  -37.1796   24.8461 C   0  0  0  0  0  0
  -21.4199  -29.3044   22.3665 N   0  0  0  0  0  0
  -26.4287  -37.3773   23.9409 N   0  0  0  0  0  0
  -24.6926  -31.0574   22.0986 N   0  0  0  0  0  0
  -23.4198  -28.8152   23.3012 O   0  0  0  0  0  0
  -28.2951  -26.3935   20.1674 O   0  0  0  0  0  0
  -26.5619  -34.8914   22.4672 O   0  0  0  0  0  0
  -23.5442  -32.1388   23.7332 O   0  0  0  0  0  0
  -30.2071  -19.1374   19.5780 C   0  0  0  0  0  0
  -30.3640  -17.7318   19.8268 C   0  0  0  0  0  0
  -28.9954  -19.3767   21.6123 C   0  0  0  0  0  0
  -29.5423  -20.0350   20.4754 C   0  0  0  0  0  0
  -29.8700  -17.0921   21.0017 C   0  0  0  0  0  0
  -29.1399  -17.9771   21.8632 C   0  0  0  0  0  0
  -29.9629  -23.6614   19.6655 C   0  0  0  0  0  0
  -28.8154  -23.7609   20.3355 C   0  0  0  0  0  0
  -30.3821  -22.2692   19.6205 C   0  0  0  0  0  0
  -28.4722  -22.3749   20.7200 C   0  0  0  0  0  0
  -30.1830  -15.3546   22.8011 C   0  0  0  0  0  0
  -27.9688  -25.0384   20.7073 C   0  0  0  0  0  0
  -29.4497  -21.5194   20.2671 N   0  0  0  0  0  0
  -30.1045  -15.6575   21.3592 N   0  0  0  0  0  0
  -31.4235  -21.8496   19.1023 O   0  0  0  0  0  0
  -27.4562  -22.0277   21.3331 O   0  0  0  0  0  0
  -28.5404  -17.5033   22.9814 F   0  0  0  0  0  0
  -31.4743  -12.5520   19.1566 H   0  0  0  0  0  0
  -30.3744  -11.4350   19.9039 H   0  0  0  0  0  0
  -29.7834  -11.7766   17.4880 H   0  0  0  0  0  0
  -29.6422  -13.4978   17.7446 H   0  0  0  0  0  0
  -27.8800  -11.2983   18.8728 H   0  0  0  0  0  0
  -27.3778  -12.5734   17.7932 H   0  0  0  0  0  0
  -27.6683  -14.2605   19.5203 H   0  0  0  0  0  0
  -28.7095  -12.0688   21.3755 H   0  0  0  0  0  0
  -28.3881  -13.7126   21.8286 H   0  0  0  0  0  0
  -25.2775   -9.5689   22.4746 H   0  0  0  0  0  0
  -24.0006   -7.4641   22.7477 H   0  0  0  0  0  0
  -21.0844   -8.8776   19.8951 H   0  0  0  0  0  0
  -22.3705  -10.9671   19.6155 H   0  0  0  0  0  0
  -21.2010   -7.6152   23.9722 H   0  0  0  0  0  0
  -21.1474   -6.0518   25.9077 H   0  0  0  0  0  0
  -22.0598   -2.7611   23.2837 H   0  0  0  0  0  0
  -22.4111  -11.9888   22.4799 H   0  0  0  0  0  0
  -21.1107  -13.1243   22.2616 H   0  0  0  0  0  0
  -24.6669  -15.8510   20.5368 H   0  0  0  0  0  0
  -26.2919  -15.6311   20.1259 H   0  0  0  0  0  0
  -26.7194  -32.5432   23.1107 H   0  0  0  0  0  0
  -25.0087  -33.9722   25.0433 H   0  0  0  0  0  0
  -22.7197  -31.3035   21.4008 H   0  0  0  0  0  0
  -23.3758  -35.9615   23.3293 H   0  0  0  0  0  0
  -24.3587  -36.8921   22.2058 H   0  0  0  0  0  0
  -23.7235  -37.6487   23.6668 H   0  0  0  0  0  0
  -26.1054  -31.5443   20.6114 H   0  0  0  0  0  0
  -26.8473  -30.8281   22.0106 H   0  0  0  0  0  0
  -28.1171  -28.9517   21.2105 H   0  0  0  0  0  0
  -25.9906  -25.9483   18.9528 H   0  0  0  0  0  0
  -23.9783  -27.3283   18.9774 H   0  0  0  0  0  0
  -23.7616  -30.5988   19.4052 H   0  0  0  0  0  0
  -22.7603  -29.2516   19.8536 H   0  0  0  0  0  0
  -25.1289  -36.1927   25.0825 H   0  0  0  0  0  0
  -20.9981  -28.3264   24.1394 H   0  0  0  0  0  0
  -20.5673  -26.2302   23.3614 H   0  0  0  0  0  0
  -21.6645  -26.7428   22.1199 H   0  0  0  0  0  0
  -19.6921  -25.6292   21.1236 H   0  0  0  0  0  0
  -19.6700  -27.3188   20.6738 H   0  0  0  0  0  0
  -17.4205  -26.6678   21.4018 H   0  0  0  0  0  0
  -18.0329  -26.0066   22.9010 H   0  0  0  0  0  0
  -19.7946  -30.7268   24.2257 H   0  0  0  0  0  0
  -17.5023  -31.6265   24.5163 H   0  0  0  0  0  0
  -15.5357  -30.2983   23.7670 H   0  0  0  0  0  0
  -15.8674  -28.0820   22.7072 H   0  0  0  0  0  0
  -24.5925  -30.7051   25.7805 H   0  0  0  0  0  0
  -24.8918  -32.2888   26.4880 H   0  0  0  0  0  0
  -25.8073  -30.8920   27.0250 H   0  0  0  0  0  0
  -26.2919  -29.6752   24.1232 H   0  0  0  0  0  0
  -27.4042  -29.7258   25.4710 H   0  0  0  0  0  0
  -27.8793  -30.4284   23.9431 H   0  0  0  0  0  0
  -27.2681  -33.3629   26.2057 H   0  0  0  0  0  0
  -28.3888  -32.6852   25.0338 H   0  0  0  0  0  0
  -28.0718  -31.8455   26.5440 H   0  0  0  0  0  0
  -28.2583  -38.0102   24.7513 H   0  0  0  0  0  0
  -28.1083  -36.2635   24.6273 H   0  0  0  0  0  0
  -27.2302  -37.1417   25.8866 H   0  0  0  0  0  0
  -20.9377  -29.8774   21.6879 H   0  0  0  0  0  0
  -26.0169  -38.2847   24.1421 H   0  0  0  0  0  0
  -30.6369  -19.5203   18.6632 H   0  0  0  0  0  0
  -30.9134  -17.1533   19.0985 H   0  0  0  0  0  0
  -28.4544  -19.9484   22.3513 H   0  0  0  0  0  0
  -30.5142  -24.4863   19.2424 H   0  0  0  0  0  0
  -30.6848  -16.1612   23.3370 H   0  0  0  0  0  0
  -30.7450  -14.4463   23.0334 H   0  0  0  0  0  0
  -29.1908  -15.2308   23.2338 H   0  0  0  0  0  0
  -28.0106  -25.1285   21.7934 H   0  0  0  0  0  0
  -26.9362  -24.7621   20.5004 H   0  0  0  0  0  0
  1 25  1  0  0  0
  1 30  2  0  0  0
  1 84  1  0  0  0
  2  3  1  0  0  0
  2 25  1  0  0  0
  2 88  1  0  0  0
  2 89  1  0  0  0
  3  4  1  0  0  0
  3 90  1  0  0  0
  3 91  1  0  0  0
  4  5  1  0  0  0
  4 92  1  0  0  0
  4 93  1  0  0  0
  5  6  1  0  0  0
  5 26  1  0  0  0
  5 94  1  0  0  0
  6 25  1  0  0  0
  6 95  1  0  0  0
  6 96  1  0  0  0
  7  8  2  0  0  0
  7 26  1  0  0  0
  7 29  1  0  0  0
  8  9  1  0  0  0
  8 22  1  0  0  0
  9 10  1  0  0  0
  9 27  2  0  0  0
 10 11  2  0  0  0
 10 15  1  0  0  0
 11 12  1  0  0  0
 11 97  1  0  0  0
 12 13  2  0  0  0
 12 98  1  0  0  0
 13 14  1  0  0  0
 13 31  1  0  0  0
 14 15  2  0  0  0
 14 99  1  0  0  0
 15100  1  0  0  0
 16 17  2  0  0  0
 16 21  1  0  0  0
 16 31  1  0  0  0
 17 18  1  0  0  0
 17101  1  0  0  0
 18 19  2  0  0  0
 18102  1  0  0  0
 19 20  1  0  0  0
 19 24  1  0  0  0
 20 21  2  0  0  0
 20103  1  0  0  0
 21 23  1  0  0  0
 22 28  1  0  0  0
 22 32  2  0  0  0
 26 27  1  0  0  0
 28104  1  0  0  0
 28105  1  0  0  0
 29106  1  0  0  0
 29107  1  0  0  0
 33 34  1  0  0  0
 33 66  1  0  0  0
 33 70  2  0  0  0
 34 36  1  0  0  0
 34 59  1  0  0  0
 34108  1  0  0  0
 35 44  2  0  0  0
 35 45  1  0  0  0
 35 68  1  0  0  0
 36 56  1  0  0  0
 36109  1  0  0  0
 37 39  1  0  0  0
 37 47  1  0  0  0
 37 66  1  0  0  0
 37110  1  0  0  0
 38 43  2  0  0  0
 38 46  1  0  0  0
 38 47  1  0  0  0
 39 64  1  0  0  0
 39 67  2  0  0  0
 40 52  1  0  0  0
 40 53  2  0  0  0
 40 58  1  0  0  0
 41111  1  0  0  0
 41112  1  0  0  0
 41113  1  0  0  0
 41 48  1  0  0  0
 42 43  1  0  0  0
 42 66  1  0  0  0
 42114  1  0  0  0
 42115  1  0  0  0
 43 44  1  0  0  0
 44116  1  0  0  0
 45 46  2  0  0  0
 45117  1  0  0  0
 46118  1  0  0  0
 47119  1  0  0  0
 47120  1  0  0  0
 48 56  1  0  0  0
 48 65  1  0  0  0
 48121  1  0  0  0
 49 50  1  0  0  0
 49 53  1  0  0  0
 49 64  1  0  0  0
 49122  1  0  0  0
 50 51  1  0  0  0
 50123  1  0  0  0
 50124  1  0  0  0
 51 52  1  0  0  0
 51125  1  0  0  0
 51126  1  0  0  0
 52127  1  0  0  0
 52128  1  0  0  0
 53 54  1  0  0  0
 54 55  2  0  0  0
 54129  1  0  0  0
 55 57  1  0  0  0
 55130  1  0  0  0
 56 69  2  0  0  0
 57 58  2  0  0  0
 57131  1  0  0  0
 58132  1  0  0  0
 59 60  1  0  0  0
 59 61  1  0  0  0
 59 62  1  0  0  0
 60133  1  0  0  0
 60134  1  0  0  0
 60135  1  0  0  0
 61136  1  0  0  0
 61137  1  0  0  0
 61138  1  0  0  0
 62139  1  0  0  0
 62140  1  0  0  0
 62141  1  0  0  0
 63 65  1  0  0  0
 63142  1  0  0  0
 63143  1  0  0  0
 63144  1  0  0  0
 64145  1  0  0  0
 65146  1  0  0  0
 68 82  1  0  0  0
 71 72  2  0  0  0
 71 74  1  0  0  0
 71147  1  0  0  0
 72 75  1  0  0  0
 72148  1  0  0  0
 73 74  2  0  0  0
 73 76  1  0  0  0
 73149  1  0  0  0
 74 83  1  0  0  0
 75 76  2  0  0  0
 75 84  1  0  0  0
 76 87  1  0  0  0
 77 78  2  0  0  0
 77 79  1  0  0  0
 77150  1  0  0  0
 78 80  1  0  0  0
 78 82  1  0  0  0
 79 83  1  0  0  0
 79 85  2  0  0  0
 80 83  1  0  0  0
 80 86  2  0  0  0
 81 84  1  0  0  0
 81151  1  0  0  0
 81152  1  0  0  0
 81153  1  0  0  0
 82154  1  0  0  0
 82155  1  0  0  0
M  ISO  4   1 100  68 101  82 101  84 100
M  END
> <chiral flag>
0

> <version>
0

> <s_m_source_file>
/data/baiqing/PycharmProjects/Reinvent-master-3.2/result/LINK_invent/BTK/process_docking_weight1_custom_product_contain_oxygen_bond_distance_aromatic_linkinvent_7_9_3/rearranged_h_0088.sdf

> <i_m_source_file_index>
10

> <r_mmod_Potential_Energy-OPLS-2005>
289.711364746094

> <r_mmod_Stretch_Energy-OPLS-2005>
108.231735229492

> <r_mmod_Bend_Energy-OPLS-2005>
196.532073974609

> <r_mmod_Torsional_Energy-OPLS-2005>
315.948181152344

> <r_mmod_Improper_Torsional_Energy-OPLS-2005>
2.98988699913025

> <r_mmod_Van_der_Waal_Energy-OPLS-2005>
157.513137817383

> <r_mmod_Electrostatic_Energy-OPLS-2005>
-338.707061767578

> <r_mmod_Solvation_Energy-OPLS-2005>
-211.442840576172

> <b_mmod_Minimization_Converged-OPLS-2005>
0

> <r_mmod_RMS_Derivative-OPLS-2005>
0.716034591197968

$$$$
10
                    3D
 Structure written by MMmdl.
151159  0  0  1  0            999 V2000
  -30.5783  -14.7925   20.4433 C   0  0  0  0  0  0
  -30.4337  -12.4910   19.4561 C   0  0  0  0  0  0
  -29.5017  -12.5087   18.2235 C   0  0  0  0  0  0
  -28.0331  -12.3119   18.6476 C   0  0  0  0  0  0
  -27.6334  -13.2234   19.8375 C   0  0  2  0  0  0
  -28.6820  -13.1876   20.9694 C   0  0  0  0  0  0
  -25.2498  -13.8168   20.5665 C   0  0  0  0  0  0
  -24.1789  -13.0425   20.9211 C   0  0  0  0  0  0
  -24.6365  -11.6905   20.8748 C   0  0  0  0  0  0
  -23.9050  -10.4283   21.0403 C   0  0  0  0  0  0
  -24.3612   -9.4206   21.9175 C   0  0  0  0  0  0
  -23.6291   -8.2243   22.0747 C   0  0  0  0  0  0
  -22.4272   -8.0271   21.3535 C   0  0  0  0  0  0
  -21.9906   -9.0243   20.4641 C   0  0  0  0  0  0
  -22.7227  -10.2122   20.3048 C   0  0  0  0  0  0
  -21.6864   -6.0717   22.5271 C   0  0  0  0  0  0
  -21.4014   -6.5629   23.8201 C   0  0  0  0  0  0
  -21.3664   -5.6790   24.9172 C   0  0  0  0  0  0
  -21.6057   -4.3055   24.7231 C   0  0  0  0  0  0
  -21.8821   -3.8135   23.4358 C   0  0  0  0  0  0
  -21.9194   -4.6940   22.3406 C   0  0  0  0  0  0
  -22.7822  -13.5226   21.1899 C   0  0  0  0  0  0
  -22.1663   -4.2109   21.0989 F   0  0  0  0  0  0
  -21.5635   -3.4550   25.7758 F   0  0  0  0  0  0
  -29.9720  -13.5557   20.3718 N   0  0  0  0  0  0
  -26.2894  -12.9345   20.3222 N   0  0  0  0  0  0
  -25.9293  -11.6499   20.5736 N   0  0  0  0  0  0
  -22.0482  -12.8178   22.0445 N   0  0  0  0  0  0
  -25.4157  -15.1897   20.4033 N   0  0  0  0  0  0
  -31.7896  -14.8932   20.2284 O   0  0  0  0  0  0
  -21.6654   -6.8853   21.4228 O   0  0  0  0  0  0
  -22.3503  -14.5539   20.6777 O   0  0  0  0  0  0
  -24.6357  -31.8520   23.1951 C   0  0  0  0  0  0
  -25.9166  -32.4736   23.8317 C   0  0  1  0  0  0
  -27.2231  -27.2224   20.1218 C   0  0  0  0  0  0
  -25.5933  -33.8537   24.2228 N   0  0  0  0  0  0
  -23.4346  -30.4744   21.5385 C   0  0  2  0  0  0
  -24.8816  -28.9172   20.1065 C   0  0  0  0  0  0
  -22.7525  -29.4593   22.4885 C   0  0  0  0  0  0
  -18.0307  -28.1371   22.8471 C   0  0  0  0  0  0
  -24.1489  -36.7282   23.2639 C   0  0  0  0  0  0
  -25.9835  -30.7526   21.3804 C   0  0  0  0  0  0
  -26.0551  -29.3716   20.7187 C   0  0  0  0  0  0
  -27.2241  -28.5379   20.7156 C   0  0  0  0  0  0
  -26.0138  -26.8414   19.4947 C   0  0  0  0  0  0
  -24.8680  -27.6610   19.4862 C   0  0  0  0  0  0
  -23.6556  -29.8097   20.1540 C   0  0  0  0  0  0
  -25.4116  -36.3053   24.0317 C   0  0  1  0  0  0
  -20.5902  -28.3719   23.1262 C   0  0  2  0  0  0
  -20.6795  -26.9422   22.5406 C   0  0  0  0  0  0
  -19.5771  -26.6365   21.5198 C   0  0  0  0  0  0
  -18.1960  -26.7897   22.1628 C   0  0  0  0  0  0
  -19.1544  -28.8868   23.2857 C   0  0  0  0  0  0
  -18.9466  -30.1477   23.8867 C   0  0  0  0  0  0
  -17.6466  -30.6592   24.0551 C   0  0  0  0  0  0
  -25.9063  -34.9431   23.5079 C   0  0  0  0  0  0
  -16.5359  -29.9088   23.6321 C   0  0  0  0  0  0
  -16.7294  -28.6494   23.0344 C   0  0  0  0  0  0
  -26.4520  -31.6580   25.0737 C   0  0  0  0  0  0
  -25.3732  -31.3758   26.1453 C   0  0  0  0  0  0
  -27.0372  -30.2981   24.6273 C   0  0  0  0  0  0
  -27.6047  -32.4344   25.7534 C   0  0  0  0  0  0
  -27.5571  -37.1799   24.8459 C   0  0  0  0  0  0
  -21.4221  -29.3082   22.3647 N   0  0  0  0  0  0
  -26.4282  -37.3756   23.9406 N   0  0  0  0  0  0
  -24.7036  -31.0442   22.0946 N   0  0  0  0  0  0
  -23.4207  -28.8113   23.2986 O   0  0  0  0  0  0
  -28.3167  -26.3136   20.2241 O   0  0  0  0  0  0
  -26.5633  -34.8904   22.4656 O   0  0  0  0  0  0
  -23.5493  -32.1352   23.7226 O   0  0  0  0  0  0
  -30.8975  -19.1465   22.1430 C   0  0  0  0  0  0
  -30.2835  -20.1874   21.4012 C   0  0  0  0  0  0
  -30.7676  -17.7799   21.7863 C   0  0  0  0  0  0
  -29.3429  -18.4747   19.9584 C   0  0  0  0  0  0
  -29.5015  -19.9032   20.2661 C   0  0  0  0  0  0
  -29.9769  -17.3773   20.6866 C   0  0  0  0  0  0
  -28.7038  -23.5348   20.1130 C   0  0  0  0  0  0
  -28.9843  -21.0653   19.3439 C   0  0  0  0  0  0
  -28.4169  -25.0050   19.4636 C   0  0  0  0  0  0
  -28.7244  -22.4639   19.3330 N   0  0  0  0  0  0
  -29.7486  -15.9151   20.4407 N   0  0  0  0  0  0
  -28.7661  -20.6403   18.1437 N   0  3  0  0  0  0
  -31.4691  -12.6414   19.1495 H   0  0  0  0  0  0
  -30.3989  -11.5204   19.9534 H   0  0  0  0  0  0
  -29.7967  -11.7284   17.5209 H   0  0  0  0  0  0
  -29.6014  -13.4546   17.6876 H   0  0  0  0  0  0
  -27.9123  -11.2629   18.9247 H   0  0  0  0  0  0
  -27.3670  -12.4765   17.7987 H   0  0  0  0  0  0
  -27.6149  -14.2347   19.4348 H   0  0  0  0  0  0
  -28.7328  -12.1995   21.4291 H   0  0  0  0  0  0
  -28.4097  -13.8836   21.7643 H   0  0  0  0  0  0
  -25.2746   -9.5697   22.4756 H   0  0  0  0  0  0
  -24.0001   -7.4642   22.7473 H   0  0  0  0  0  0
  -21.0833   -8.8758   19.8955 H   0  0  0  0  0  0
  -22.3668  -10.9659   19.6169 H   0  0  0  0  0  0
  -21.2000   -7.6134   23.9684 H   0  0  0  0  0  0
  -21.1490   -6.0532   25.9068 H   0  0  0  0  0  0
  -22.0595   -2.7587   23.2886 H   0  0  0  0  0  0
  -22.4116  -11.9829   22.4788 H   0  0  0  0  0  0
  -21.1095  -13.1165   22.2687 H   0  0  0  0  0  0
  -24.6383  -15.8338   20.4985 H   0  0  0  0  0  0
  -26.2495  -15.6320   20.0406 H   0  0  0  0  0  0
  -26.7239  -32.5369   23.1059 H   0  0  0  0  0  0
  -25.0065  -33.9676   25.0359 H   0  0  0  0  0  0
  -22.7341  -31.2984   21.3909 H   0  0  0  0  0  0
  -23.3744  -35.9619   23.3297 H   0  0  0  0  0  0
  -24.3576  -36.8931   22.2055 H   0  0  0  0  0  0
  -23.7257  -37.6483   23.6682 H   0  0  0  0  0  0
  -26.1257  -31.5155   20.6123 H   0  0  0  0  0  0
  -26.8576  -30.7986   22.0187 H   0  0  0  0  0  0
  -28.1187  -28.8861   21.2104 H   0  0  0  0  0  0
  -25.8880  -25.8726   19.0421 H   0  0  0  0  0  0
  -23.9621  -27.3039   19.0163 H   0  0  0  0  0  0
  -23.7878  -30.5867   19.3999 H   0  0  0  0  0  0
  -22.7724  -29.2475   19.8444 H   0  0  0  0  0  0
  -25.1306  -36.1889   25.0804 H   0  0  0  0  0  0
  -21.0002  -28.3310   24.1390 H   0  0  0  0  0  0
  -20.5654  -26.2331   23.3616 H   0  0  0  0  0  0
  -21.6662  -26.7420   22.1208 H   0  0  0  0  0  0
  -19.6957  -25.6284   21.1215 H   0  0  0  0  0  0
  -19.6682  -27.3199   20.6744 H   0  0  0  0  0  0
  -17.4199  -26.6609   21.4065 H   0  0  0  0  0  0
  -18.0390  -26.0053   22.9053 H   0  0  0  0  0  0
  -19.7949  -30.7294   24.2215 H   0  0  0  0  0  0
  -17.5013  -31.6273   24.5146 H   0  0  0  0  0  0
  -15.5341  -30.2973   23.7643 H   0  0  0  0  0  0
  -15.8713  -28.0782   22.7079 H   0  0  0  0  0  0
  -24.5906  -30.7105   25.7790 H   0  0  0  0  0  0
  -24.8926  -32.2937   26.4839 H   0  0  0  0  0  0
  -25.8046  -30.8968   27.0251 H   0  0  0  0  0  0
  -26.2970  -29.6730   24.1261 H   0  0  0  0  0  0
  -27.3983  -29.7257   25.4828 H   0  0  0  0  0  0
  -27.8881  -30.4230   23.9576 H   0  0  0  0  0  0
  -27.2622  -33.3638   26.2093 H   0  0  0  0  0  0
  -28.3878  -32.6928   25.0396 H   0  0  0  0  0  0
  -28.0686  -31.8494   26.5484 H   0  0  0  0  0  0
  -28.2579  -38.0099   24.7491 H   0  0  0  0  0  0
  -28.1074  -36.2632   24.6296 H   0  0  0  0  0  0
  -27.2288  -37.1457   25.8859 H   0  0  0  0  0  0
  -20.9432  -29.8849   21.6872 H   0  0  0  0  0  0
  -26.0157  -38.2828   24.1405 H   0  0  0  0  0  0
  -31.4931  -19.4047   23.0065 H   0  0  0  0  0  0
  -30.4471  -21.2156   21.6834 H   0  0  0  0  0  0
  -31.2551  -17.0356   22.4018 H   0  0  0  0  0  0
  -28.7216  -18.2063   19.1199 H   0  0  0  0  0  0
  -28.8662  -23.5011   21.1932 H   0  0  0  0  0  0
  -27.6116  -24.8793   18.7483 H   0  0  0  0  0  0
  -29.2720  -25.1792   18.8103 H   0  0  0  0  0  0
  -28.7839  -15.6648   20.2922 H   0  0  0  0  0  0
  -28.9645  -19.6890   17.8471 H   0  0  0  0  0  0
  -28.4914  -21.2739   17.4002 H   0  0  0  0  0  0
  1 25  1  0  0  0
  1 30  2  0  0  0
  1 81  1  0  0  0
  2  3  1  0  0  0
  2 25  1  0  0  0
  2 83  1  0  0  0
  2 84  1  0  0  0
  3  4  1  0  0  0
  3 85  1  0  0  0
  3 86  1  0  0  0
  4  5  1  0  0  0
  4 87  1  0  0  0
  4 88  1  0  0  0
  5  6  1  0  0  0
  5 26  1  0  0  0
  5 89  1  0  0  0
  6 25  1  0  0  0
  6 90  1  0  0  0
  6 91  1  0  0  0
  7  8  2  0  0  0
  7 26  1  0  0  0
  7 29  1  0  0  0
  8  9  1  0  0  0
  8 22  1  0  0  0
  9 10  1  0  0  0
  9 27  2  0  0  0
 10 11  2  0  0  0
 10 15  1  0  0  0
 11 12  1  0  0  0
 11 92  1  0  0  0
 12 13  2  0  0  0
 12 93  1  0  0  0
 13 14  1  0  0  0
 13 31  1  0  0  0
 14 15  2  0  0  0
 14 94  1  0  0  0
 15 95  1  0  0  0
 16 17  2  0  0  0
 16 21  1  0  0  0
 16 31  1  0  0  0
 17 18  1  0  0  0
 17 96  1  0  0  0
 18 19  2  0  0  0
 18 97  1  0  0  0
 19 20  1  0  0  0
 19 24  1  0  0  0
 20 21  2  0  0  0
 20 98  1  0  0  0
 21 23  1  0  0  0
 22 28  1  0  0  0
 22 32  2  0  0  0
 26 27  1  0  0  0
 28 99  1  0  0  0
 28100  1  0  0  0
 29101  1  0  0  0
 29102  1  0  0  0
 33 34  1  0  0  0
 33 66  1  0  0  0
 33 70  2  0  0  0
 34 36  1  0  0  0
 34 59  1  0  0  0
 34103  1  0  0  0
 35 44  2  0  0  0
 35 45  1  0  0  0
 35 68  1  0  0  0
 36 56  1  0  0  0
 36104  1  0  0  0
 37 39  1  0  0  0
 37 47  1  0  0  0
 37 66  1  0  0  0
 37105  1  0  0  0
 38 43  2  0  0  0
 38 46  1  0  0  0
 38 47  1  0  0  0
 39 64  1  0  0  0
 39 67  2  0  0  0
 40 52  1  0  0  0
 40 53  2  0  0  0
 40 58  1  0  0  0
 41106  1  0  0  0
 41107  1  0  0  0
 41108  1  0  0  0
 41 48  1  0  0  0
 42 43  1  0  0  0
 42 66  1  0  0  0
 42109  1  0  0  0
 42110  1  0  0  0
 43 44  1  0  0  0
 44111  1  0  0  0
 45 46  2  0  0  0
 45112  1  0  0  0
 46113  1  0  0  0
 47114  1  0  0  0
 47115  1  0  0  0
 48 56  1  0  0  0
 48 65  1  0  0  0
 48116  1  0  0  0
 49 50  1  0  0  0
 49 53  1  0  0  0
 49 64  1  0  0  0
 49117  1  0  0  0
 50 51  1  0  0  0
 50118  1  0  0  0
 50119  1  0  0  0
 51 52  1  0  0  0
 51120  1  0  0  0
 51121  1  0  0  0
 52122  1  0  0  0
 52123  1  0  0  0
 53 54  1  0  0  0
 54 55  2  0  0  0
 54124  1  0  0  0
 55 57  1  0  0  0
 55125  1  0  0  0
 56 69  2  0  0  0
 57 58  2  0  0  0
 57126  1  0  0  0
 58127  1  0  0  0
 59 60  1  0  0  0
 59 61  1  0  0  0
 59 62  1  0  0  0
 60128  1  0  0  0
 60129  1  0  0  0
 60130  1  0  0  0
 61131  1  0  0  0
 61132  1  0  0  0
 61133  1  0  0  0
 62134  1  0  0  0
 62135  1  0  0  0
 62136  1  0  0  0
 63 65  1  0  0  0
 63137  1  0  0  0
 63138  1  0  0  0
 63139  1  0  0  0
 64140  1  0  0  0
 65141  1  0  0  0
 68 79  1  0  0  0
 71 72  2  0  0  0
 71 73  1  0  0  0
 71142  1  0  0  0
 72 75  1  0  0  0
 72143  1  0  0  0
 73 76  2  0  0  0
 73144  1  0  0  0
 74 75  2  0  0  0
 74 76  1  0  0  0
 74145  1  0  0  0
 75 78  1  0  0  0
 76 81  1  0  0  0
 77 79  1  0  0  0
 77 80  2  0  0  0
 77146  1  0  0  0
 78 80  1  0  0  0
 78 82  2  0  0  0
 79147  1  0  0  0
 79148  1  0  0  0
 81149  1  0  0  0
 82150  1  0  0  0
 82151  1  0  0  0
M  CHG  1  82   1
M  ISO  4   1 100  68 101  79 101  81 100
M  END
> <chiral flag>
0

> <version>
0

> <s_m_source_file>
/data/baiqing/PycharmProjects/Reinvent-master-3.2/result/LINK_invent/BTK/process_docking_weight1_custom_product_contain_oxygen_bond_distance_aromatic_linkinvent_7_9_3/rearranged_h_0088.sdf

> <i_m_source_file_index>
11

> <r_mmod_Potential_Energy-OPLS-2005>
367.610473632812

> <r_mmod_Stretch_Energy-OPLS-2005>
162.459564208984

> <r_mmod_Bend_Energy-OPLS-2005>
284.572265625

> <r_mmod_Torsional_Energy-OPLS-2005>
234.091201782227

> <r_mmod_Improper_Torsional_Energy-OPLS-2005>
9.6101770401001

> <r_mmod_Van_der_Waal_Energy-OPLS-2005>
136.492462158203

> <r_mmod_Electrostatic_Energy-OPLS-2005>
-90.492057800293

> <r_mmod_Solvation_Energy-OPLS-2005>
-482.077239990234

> <b_mmod_Minimization_Converged-OPLS-2005>
0

> <r_mmod_RMS_Derivative-OPLS-2005>
2.96497678756714

$$$$
11
                    3D
 Structure written by MMmdl.
155163  0  0  1  0            999 V2000
  -30.5732  -14.7059   20.4875 C   0  0  0  0  0  0
  -30.4478  -12.4348   19.4518 C   0  0  0  0  0  0
  -29.5099  -12.5158   18.2252 C   0  0  0  0  0  0
  -28.0336  -12.3421   18.6376 C   0  0  0  0  0  0
  -27.6492  -13.2158   19.8600 C   0  0  2  0  0  0
  -28.6969  -13.0906   20.9899 C   0  0  0  0  0  0
  -25.2545  -13.8149   20.5685 C   0  0  0  0  0  0
  -24.1824  -13.0423   20.9220 C   0  0  0  0  0  0
  -24.6381  -11.6895   20.8746 C   0  0  0  0  0  0
  -23.9045  -10.4283   21.0399 C   0  0  0  0  0  0
  -24.3601   -9.4208   21.9180 C   0  0  0  0  0  0
  -23.6288   -8.2237   22.0746 C   0  0  0  0  0  0
  -22.4271   -8.0265   21.3532 C   0  0  0  0  0  0
  -21.9900   -9.0241   20.4644 C   0  0  0  0  0  0
  -22.7215  -10.2130   20.3057 C   0  0  0  0  0  0
  -21.6859   -6.0724   22.5271 C   0  0  0  0  0  0
  -21.4016   -6.5635   23.8200 C   0  0  0  0  0  0
  -21.3658   -5.6794   24.9165 C   0  0  0  0  0  0
  -21.6049   -4.3055   24.7223 C   0  0  0  0  0  0
  -21.8819   -3.8141   23.4344 C   0  0  0  0  0  0
  -21.9195   -4.6954   22.3398 C   0  0  0  0  0  0
  -22.7845  -13.5223   21.1869 C   0  0  0  0  0  0
  -22.1668   -4.2134   21.0977 F   0  0  0  0  0  0
  -21.5625   -3.4544   25.7738 F   0  0  0  0  0  0
  -30.0019  -13.4577   20.4196 N   0  0  0  0  0  0
  -26.2966  -12.9326   20.3308 N   0  0  0  0  0  0
  -25.9307  -11.6489   20.5764 N   0  0  0  0  0  0
  -22.0487  -12.8220   22.0430 N   0  0  0  0  0  0
  -25.4257  -15.1863   20.4046 N   0  0  0  0  0  0
  -31.7545  -14.8836   20.1724 O   0  0  0  0  0  0
  -21.6641   -6.8864   21.4225 O   0  0  0  0  0  0
  -22.3536  -14.5526   20.6708 O   0  0  0  0  0  0
  -24.6277  -31.8563   23.2010 C   0  0  0  0  0  0
  -25.9102  -32.4752   23.8363 C   0  0  1  0  0  0
  -27.2298  -27.2878   20.1268 C   0  0  0  0  0  0
  -25.5889  -33.8557   24.2278 N   0  0  0  0  0  0
  -23.4227  -30.4778   21.5440 C   0  0  2  0  0  0
  -24.8690  -28.9264   20.1125 C   0  0  0  0  0  0
  -22.7476  -29.4591   22.4932 C   0  0  0  0  0  0
  -18.0265  -28.1369   22.8491 C   0  0  0  0  0  0
  -24.1475  -36.7296   23.2645 C   0  0  0  0  0  0
  -25.9640  -30.7813   21.3716 C   0  0  0  0  0  0
  -26.0382  -29.4035   20.7171 C   0  0  0  0  0  0
  -27.2169  -28.5963   20.7126 C   0  0  0  0  0  0
  -26.0283  -26.8603   19.5166 C   0  0  0  0  0  0
  -24.8680  -27.6614   19.5028 C   0  0  0  0  0  0
  -23.6391  -29.8121   20.1591 C   0  0  0  0  0  0
  -25.4097  -36.3076   24.0341 C   0  0  1  0  0  0
  -20.5870  -28.3674   23.1283 C   0  0  2  0  0  0
  -20.6735  -26.9391   22.5417 C   0  0  0  0  0  0
  -19.5715  -26.6376   21.5208 C   0  0  0  0  0  0
  -18.1898  -26.7907   22.1632 C   0  0  0  0  0  0
  -19.1519  -28.8843   23.2873 C   0  0  0  0  0  0
  -18.9447  -30.1441   23.8897 C   0  0  0  0  0  0
  -17.6449  -30.6574   24.0567 C   0  0  0  0  0  0
  -25.9041  -34.9443   23.5118 C   0  0  0  0  0  0
  -16.5340  -29.9079   23.6322 C   0  0  0  0  0  0
  -16.7253  -28.6490   23.0352 C   0  0  0  0  0  0
  -26.4487  -31.6562   25.0743 C   0  0  0  0  0  0
  -25.3733  -31.3705   26.1488 C   0  0  0  0  0  0
  -27.0314  -30.2979   24.6186 C   0  0  0  0  0  0
  -27.6040  -32.4298   25.7515 C   0  0  0  0  0  0
  -27.5565  -37.1804   24.8467 C   0  0  0  0  0  0
  -21.4179  -29.3031   22.3686 N   0  0  0  0  0  0
  -26.4270  -37.3777   23.9420 N   0  0  0  0  0  0
  -24.6908  -31.0559   22.0961 N   0  0  0  0  0  0
  -23.4193  -28.8125   23.3012 O   0  0  0  0  0  0
  -28.3697  -26.4552   20.1868 O   0  0  0  0  0  0
  -26.5630  -34.8919   22.4700 O   0  0  0  0  0  0
  -23.5435  -32.1370   23.7327 O   0  0  0  0  0  0
  -30.7049  -19.4305   21.2780 C   0  0  0  0  0  0
  -30.8122  -18.0050   21.1569 C   0  0  0  0  0  0
  -28.5957  -17.9670   20.2504 C   0  0  0  0  0  0
  -29.5452  -20.1806   20.9001 C   0  0  0  0  0  0
  -29.7390  -17.2163   20.6648 C   0  0  0  0  0  0
  -28.4937  -19.3963   20.3530 C   0  0  0  0  0  0
  -29.4008  -21.6743   21.3273 C   0  0  0  0  0  0
  -28.4101  -25.0762   19.8170 C   0  0  0  0  0  0
  -28.3243  -24.7863   18.4899 C   0  0  0  0  0  0
  -28.6399  -24.0212   20.8793 C   0  0  0  0  0  0
  -28.3463  -23.4357   17.7818 C   0  0  0  0  0  0
  -29.6815  -15.7397   20.6909 N   0  0  0  0  0  0
  -28.8909  -22.6917   20.5318 N   0  0  0  0  0  0
  -29.8334  -21.9156   22.4608 O   0  0  0  0  0  0
  -28.6172  -24.3697   22.0656 O   0  0  0  0  0  0
  -28.2165  -25.7561   17.5666 O   0  0  0  0  0  0
  -27.3361  -19.9966   19.9839 F   0  0  0  0  0  0
  -31.4827  -12.5929   19.1421 H   0  0  0  0  0  0
  -30.4140  -11.4416   19.9020 H   0  0  0  0  0  0
  -29.7807  -11.7560   17.4906 H   0  0  0  0  0  0
  -29.6403  -13.4785   17.7293 H   0  0  0  0  0  0
  -27.8776  -11.2885   18.8734 H   0  0  0  0  0  0
  -27.3782  -12.5645   17.7944 H   0  0  0  0  0  0
  -27.6571  -14.2465   19.5060 H   0  0  0  0  0  0
  -28.7264  -12.0735   21.3833 H   0  0  0  0  0  0
  -28.4376  -13.7296   21.8366 H   0  0  0  0  0  0
  -25.2739   -9.5689   22.4766 H   0  0  0  0  0  0
  -23.9994   -7.4629   22.7467 H   0  0  0  0  0  0
  -21.0831   -8.8751   19.8957 H   0  0  0  0  0  0
  -22.3652  -10.9666   19.6179 H   0  0  0  0  0  0
  -21.2014   -7.6146   23.9695 H   0  0  0  0  0  0
  -21.1480   -6.0529   25.9065 H   0  0  0  0  0  0
  -22.0602   -2.7599   23.2850 H   0  0  0  0  0  0
  -22.4109  -11.9887   22.4821 H   0  0  0  0  0  0
  -21.1097  -13.1226   22.2627 H   0  0  0  0  0  0
  -24.6503  -15.8339   20.4963 H   0  0  0  0  0  0
  -26.2502  -15.6119   20.0041 H   0  0  0  0  0  0
  -26.7165  -32.5422   23.1113 H   0  0  0  0  0  0
  -24.9978  -33.9692   25.0385 H   0  0  0  0  0  0
  -22.7181  -31.2994   21.4008 H   0  0  0  0  0  0
  -23.3725  -35.9636   23.3300 H   0  0  0  0  0  0
  -24.3565  -36.8921   22.2055 H   0  0  0  0  0  0
  -23.7237  -37.6506   23.6672 H   0  0  0  0  0  0
  -26.0911  -31.5421   20.5996 H   0  0  0  0  0  0
  -26.8456  -30.8363   21.9994 H   0  0  0  0  0  0
  -28.1153  -28.9604   21.1914 H   0  0  0  0  0  0
  -25.9630  -25.8848   19.0598 H   0  0  0  0  0  0
  -23.9695  -27.2873   19.0305 H   0  0  0  0  0  0
  -23.7639  -30.5912   19.4060 H   0  0  0  0  0  0
  -22.7564  -29.2478   19.8531 H   0  0  0  0  0  0
  -25.1268  -36.1934   25.0832 H   0  0  0  0  0  0
  -20.9956  -28.3242   24.1409 H   0  0  0  0  0  0
  -20.5584  -26.2296   23.3623 H   0  0  0  0  0  0
  -21.6604  -26.7372   22.1247 H   0  0  0  0  0  0
  -19.6872  -25.6295   21.1211 H   0  0  0  0  0  0
  -19.6636  -27.3203   20.6747 H   0  0  0  0  0  0
  -17.4158  -26.6644   21.4040 H   0  0  0  0  0  0
  -18.0308  -26.0043   22.9026 H   0  0  0  0  0  0
  -19.7927  -30.7235   24.2280 H   0  0  0  0  0  0
  -17.5010  -31.6255   24.5161 H   0  0  0  0  0  0
  -15.5342  -30.2991   23.7635 H   0  0  0  0  0  0
  -15.8646  -28.0808   22.7084 H   0  0  0  0  0  0
  -24.5926  -30.7006   25.7870 H   0  0  0  0  0  0
  -24.8910  -32.2866   26.4901 H   0  0  0  0  0  0
  -25.8091  -30.8940   27.0276 H   0  0  0  0  0  0
  -26.2888  -29.6746   24.1181 H   0  0  0  0  0  0
  -27.3970  -29.7212   25.4691 H   0  0  0  0  0  0
  -27.8777  -30.4251   23.9430 H   0  0  0  0  0  0
  -27.2627  -33.3593   26.2080 H   0  0  0  0  0  0
  -28.3856  -32.6842   25.0349 H   0  0  0  0  0  0
  -28.0689  -31.8429   26.5446 H   0  0  0  0  0  0
  -28.2590  -38.0093   24.7488 H   0  0  0  0  0  0
  -28.1046  -36.2620   24.6304 H   0  0  0  0  0  0
  -27.2289  -37.1470   25.8874 H   0  0  0  0  0  0
  -20.9354  -29.8811   21.6945 H   0  0  0  0  0  0
  -26.0146  -38.2850   24.1425 H   0  0  0  0  0  0
  -31.5282  -19.9578   21.7393 H   0  0  0  0  0  0
  -31.7086  -17.5169   21.5138 H   0  0  0  0  0  0
  -27.7345  -17.4373   19.8715 H   0  0  0  0  0  0
  -27.5663  -22.7804   18.1728 H   0  0  0  0  0  0
  -29.3168  -22.9504   17.8972 H   0  0  0  0  0  0
  -28.1670  -23.5266   16.7092 H   0  0  0  0  0  0
  -28.7474  -15.3767   20.8007 H   0  0  0  0  0  0
  -28.7213  -22.4536   19.5675 H   0  0  0  0  0  0
  -28.2096  -25.3490   16.7102 H   0  0  0  0  0  0
  1 25  1  0  0  0
  1 30  2  0  0  0
  1 82  1  0  0  0
  2  3  1  0  0  0
  2 25  1  0  0  0
  2 88  1  0  0  0
  2 89  1  0  0  0
  3  4  1  0  0  0
  3 90  1  0  0  0
  3 91  1  0  0  0
  4  5  1  0  0  0
  4 92  1  0  0  0
  4 93  1  0  0  0
  5  6  1  0  0  0
  5 26  1  0  0  0
  5 94  1  0  0  0
  6 25  1  0  0  0
  6 95  1  0  0  0
  6 96  1  0  0  0
  7  8  2  0  0  0
  7 26  1  0  0  0
  7 29  1  0  0  0
  8  9  1  0  0  0
  8 22  1  0  0  0
  9 10  1  0  0  0
  9 27  2  0  0  0
 10 11  2  0  0  0
 10 15  1  0  0  0
 11 12  1  0  0  0
 11 97  1  0  0  0
 12 13  2  0  0  0
 12 98  1  0  0  0
 13 14  1  0  0  0
 13 31  1  0  0  0
 14 15  2  0  0  0
 14 99  1  0  0  0
 15100  1  0  0  0
 16 17  2  0  0  0
 16 21  1  0  0  0
 16 31  1  0  0  0
 17 18  1  0  0  0
 17101  1  0  0  0
 18 19  2  0  0  0
 18102  1  0  0  0
 19 20  1  0  0  0
 19 24  1  0  0  0
 20 21  2  0  0  0
 20103  1  0  0  0
 21 23  1  0  0  0
 22 28  1  0  0  0
 22 32  2  0  0  0
 26 27  1  0  0  0
 28104  1  0  0  0
 28105  1  0  0  0
 29106  1  0  0  0
 29107  1  0  0  0
 33 34  1  0  0  0
 33 66  1  0  0  0
 33 70  2  0  0  0
 34 36  1  0  0  0
 34 59  1  0  0  0
 34108  1  0  0  0
 35 44  2  0  0  0
 35 45  1  0  0  0
 35 68  1  0  0  0
 36 56  1  0  0  0
 36109  1  0  0  0
 37 39  1  0  0  0
 37 47  1  0  0  0
 37 66  1  0  0  0
 37110  1  0  0  0
 38 43  2  0  0  0
 38 46  1  0  0  0
 38 47  1  0  0  0
 39 64  1  0  0  0
 39 67  2  0  0  0
 40 52  1  0  0  0
 40 53  2  0  0  0
 40 58  1  0  0  0
 41111  1  0  0  0
 41112  1  0  0  0
 41113  1  0  0  0
 41 48  1  0  0  0
 42 43  1  0  0  0
 42 66  1  0  0  0
 42114  1  0  0  0
 42115  1  0  0  0
 43 44  1  0  0  0
 44116  1  0  0  0
 45 46  2  0  0  0
 45117  1  0  0  0
 46118  1  0  0  0
 47119  1  0  0  0
 47120  1  0  0  0
 48 56  1  0  0  0
 48 65  1  0  0  0
 48121  1  0  0  0
 49 50  1  0  0  0
 49 53  1  0  0  0
 49 64  1  0  0  0
 49122  1  0  0  0
 50 51  1  0  0  0
 50123  1  0  0  0
 50124  1  0  0  0
 51 52  1  0  0  0
 51125  1  0  0  0
 51126  1  0  0  0
 52127  1  0  0  0
 52128  1  0  0  0
 53 54  1  0  0  0
 54 55  2  0  0  0
 54129  1  0  0  0
 55 57  1  0  0  0
 55130  1  0  0  0
 56 69  2  0  0  0
 57 58  2  0  0  0
 57131  1  0  0  0
 58132  1  0  0  0
 59 60  1  0  0  0
 59 61  1  0  0  0
 59 62  1  0  0  0
 60133  1  0  0  0
 60134  1  0  0  0
 60135  1  0  0  0
 61136  1  0  0  0
 61137  1  0  0  0
 61138  1  0  0  0
 62139  1  0  0  0
 62140  1  0  0  0
 62141  1  0  0  0
 63 65  1  0  0  0
 63142  1  0  0  0
 63143  1  0  0  0
 63144  1  0  0  0
 64145  1  0  0  0
 65146  1  0  0  0
 68 78  1  0  0  0
 71 72  2  0  0  0
 71 74  1  0  0  0
 71147  1  0  0  0
 72 75  1  0  0  0
 72148  1  0  0  0
 73 75  2  0  0  0
 73 76  1  0  0  0
 73149  1  0  0  0
 74 76  2  0  0  0
 74 77  1  0  0  0
 75 82  1  0  0  0
 76 87  1  0  0  0
 77 83  1  0  0  0
 77 84  2  0  0  0
 78 79  2  0  0  0
 78 80  1  0  0  0
 79 81  1  0  0  0
 79 86  1  0  0  0
 80 83  1  0  0  0
 80 85  2  0  0  0
 81150  1  0  0  0
 81151  1  0  0  0
 81152  1  0  0  0
 82153  1  0  0  0
 83154  1  0  0  0
 86155  1  0  0  0
M  ISO  4   1 100  68 101  78 101  82 100
M  END
> <chiral flag>
0

> <version>
0

> <s_m_source_file>
/data/baiqing/PycharmProjects/Reinvent-master-3.2/result/LINK_invent/BTK/process_docking_weight1_custom_product_contain_oxygen_bond_distance_aromatic_linkinvent_7_9_3/rearranged_h_0088.sdf

> <i_m_source_file_index>
12

> <r_mmod_Potential_Energy-OPLS-2005>
130.079452514648

> <r_mmod_Stretch_Energy-OPLS-2005>
104.536331176758

> <r_mmod_Bend_Energy-OPLS-2005>
174.060913085938

> <r_mmod_Torsional_Energy-OPLS-2005>
257.969390869141

> <r_mmod_Improper_Torsional_Energy-OPLS-2005>
9.12509346008301

> <r_mmod_Van_der_Waal_Energy-OPLS-2005>
153.964752197266

> <r_mmod_Electrostatic_Energy-OPLS-2005>
-362.549560546875

> <r_mmod_Solvation_Energy-OPLS-2005>
-274.462799072266

> <b_mmod_Minimization_Converged-OPLS-2005>
0

> <r_mmod_RMS_Derivative-OPLS-2005>
1.75349366664886

$$$$
12
                    3D
 Structure written by MMmdl.
147155  0  0  1  0            999 V2000
  -30.5753  -14.7267   20.4829 C   0  0  0  0  0  0
  -30.4494  -12.4419   19.4713 C   0  0  0  0  0  0
  -29.5162  -12.4990   18.2392 C   0  0  0  0  0  0
  -28.0415  -12.3170   18.6528 C   0  0  0  0  0  0
  -27.6482  -13.2153   19.8542 C   0  0  2  0  0  0
  -28.6905  -13.1111   20.9903 C   0  0  0  0  0  0
  -25.2554  -13.8158   20.5666 C   0  0  0  0  0  0
  -24.1821  -13.0437   20.9198 C   0  0  0  0  0  0
  -24.6384  -11.6910   20.8757 C   0  0  0  0  0  0
  -23.9057  -10.4300   21.0422 C   0  0  0  0  0  0
  -24.3618   -9.4214   21.9186 C   0  0  0  0  0  0
  -23.6298   -8.2250   22.0754 C   0  0  0  0  0  0
  -22.4281   -8.0286   21.3547 C   0  0  0  0  0  0
  -21.9909   -9.0264   20.4658 C   0  0  0  0  0  0
  -22.7232  -10.2143   20.3071 C   0  0  0  0  0  0
  -21.6854   -6.0734   22.5278 C   0  0  0  0  0  0
  -21.4021   -6.5642   23.8210 C   0  0  0  0  0  0
  -21.3658   -5.6793   24.9172 C   0  0  0  0  0  0
  -21.6040   -4.3057   24.7222 C   0  0  0  0  0  0
  -21.8818   -3.8150   23.4347 C   0  0  0  0  0  0
  -21.9192   -4.6963   22.3403 C   0  0  0  0  0  0
  -22.7849  -13.5241   21.1860 C   0  0  0  0  0  0
  -22.1650   -4.2148   21.0982 F   0  0  0  0  0  0
  -21.5633   -3.4540   25.7736 F   0  0  0  0  0  0
  -29.9985  -13.4783   20.4253 N   0  0  0  0  0  0
  -26.2966  -12.9332   20.3273 N   0  0  0  0  0  0
  -25.9303  -11.6502   20.5745 N   0  0  0  0  0  0
  -22.0500  -12.8244   22.0428 N   0  0  0  0  0  0
  -25.4282  -15.1879   20.4052 N   0  0  0  0  0  0
  -31.7477  -14.8935   20.1314 O   0  0  0  0  0  0
  -21.6650   -6.8875   21.4240 O   0  0  0  0  0  0
  -22.3534  -14.5543   20.6700 O   0  0  0  0  0  0
  -24.6273  -31.8586   23.1995 C   0  0  0  0  0  0
  -25.9097  -32.4784   23.8348 C   0  0  1  0  0  0
  -27.2301  -27.2940   20.1369 C   0  0  0  0  0  0
  -25.5890  -33.8586   24.2268 N   0  0  0  0  0  0
  -23.4264  -30.4776   21.5423 C   0  0  2  0  0  0
  -24.8786  -28.9279   20.1115 C   0  0  0  0  0  0
  -22.7502  -29.4596   22.4927 C   0  0  0  0  0  0
  -18.0294  -28.1369   22.8494 C   0  0  0  0  0  0
  -24.1484  -36.7316   23.2630 C   0  0  0  0  0  0
  -25.9684  -30.7818   21.3747 C   0  0  0  0  0  0
  -26.0468  -29.4038   20.7233 C   0  0  0  0  0  0
  -27.2281  -28.5981   20.7279 C   0  0  0  0  0  0
  -26.0451  -26.8786   19.4934 C   0  0  0  0  0  0
  -24.8803  -27.6711   19.4861 C   0  0  0  0  0  0
  -23.6464  -29.8110   20.1585 C   0  0  0  0  0  0
  -25.4105  -36.3106   24.0334 C   0  0  1  0  0  0
  -20.5895  -28.3688   23.1288 C   0  0  2  0  0  0
  -20.6772  -26.9400   22.5437 C   0  0  0  0  0  0
  -19.5759  -26.6376   21.5230 C   0  0  0  0  0  0
  -18.1940  -26.7913   22.1634 C   0  0  0  0  0  0
  -19.1544  -28.8845   23.2884 C   0  0  0  0  0  0
  -18.9461  -30.1443   23.8909 C   0  0  0  0  0  0
  -17.6459  -30.6576   24.0560 C   0  0  0  0  0  0
  -25.9045  -34.9467   23.5115 C   0  0  0  0  0  0
  -16.5353  -29.9088   23.6299 C   0  0  0  0  0  0
  -16.7280  -28.6495   23.0341 C   0  0  0  0  0  0
  -26.4455  -31.6594   25.0724 C   0  0  0  0  0  0
  -25.3676  -31.3802   26.1463 C   0  0  0  0  0  0
  -27.0231  -30.2991   24.6171 C   0  0  0  0  0  0
  -27.6052  -32.4286   25.7459 C   0  0  0  0  0  0
  -27.5597  -37.1794   24.8448 C   0  0  0  0  0  0
  -21.4206  -29.3042   22.3687 N   0  0  0  0  0  0
  -26.4294  -37.3798   23.9416 N   0  0  0  0  0  0
  -24.6929  -31.0568   22.0958 N   0  0  0  0  0  0
  -23.4218  -28.8134   23.3011 O   0  0  0  0  0  0
  -28.3105  -26.3910   20.1724 O   0  0  0  0  0  0
  -26.5642  -34.8934   22.4698 O   0  0  0  0  0  0
  -23.5423  -32.1388   23.7299 O   0  0  0  0  0  0
  -28.5346  -23.8451   20.3861 C   0  0  0  0  0  0
  -28.4954  -19.4159   21.0222 C   0  0  0  0  0  0
  -28.5684  -17.9839   21.0271 C   0  0  0  0  0  0
  -30.8506  -18.0704   20.3163 C   0  0  0  0  0  0
  -29.6059  -20.2343   20.6795 C   0  0  0  0  0  0
  -29.7474  -17.2521   20.6946 C   0  0  0  0  0  0
  -30.7833  -19.5077   20.3112 C   0  0  0  0  0  0
  -28.0518  -25.0771   20.6486 C   0  0  0  0  0  0
  -29.6043  -21.7832   20.8679 C   0  0  0  0  0  0
  -28.6759  -22.6196   20.1865 N   0  0  0  0  0  0
  -29.7135  -15.7697   20.7749 N   0  0  0  0  0  0
  -30.4773  -22.2268   21.6191 O   0  0  0  0  0  0
  -31.9010  -20.1953   19.9709 F   0  0  0  0  0  0
  -31.4864  -12.5911   19.1664 H   0  0  0  0  0  0
  -30.4137  -11.4570   19.9386 H   0  0  0  0  0  0
  -29.8001  -11.7314   17.5178 H   0  0  0  0  0  0
  -29.6368  -13.4562   17.7292 H   0  0  0  0  0  0
  -27.9078  -11.2681   18.9206 H   0  0  0  0  0  0
  -27.3801  -12.4982   17.8051 H   0  0  0  0  0  0
  -27.6530  -14.2399   19.4813 H   0  0  0  0  0  0
  -28.7207  -12.0975   21.3936 H   0  0  0  0  0  0
  -28.4177  -13.7566   21.8268 H   0  0  0  0  0  0
  -25.2767   -9.5689   22.4749 H   0  0  0  0  0  0
  -24.0013   -7.4635   22.7468 H   0  0  0  0  0  0
  -21.0841   -8.8780   19.8966 H   0  0  0  0  0  0
  -22.3688  -10.9682   19.6195 H   0  0  0  0  0  0
  -21.2017   -7.6153   23.9712 H   0  0  0  0  0  0
  -21.1480   -6.0530   25.9075 H   0  0  0  0  0  0
  -22.0599   -2.7616   23.2845 H   0  0  0  0  0  0
  -22.4125  -11.9932   22.4853 H   0  0  0  0  0  0
  -21.1120  -13.1272   22.2642 H   0  0  0  0  0  0
  -24.6593  -15.8411   20.5091 H   0  0  0  0  0  0
  -26.2651  -15.6220   20.0371 H   0  0  0  0  0  0
  -26.7170  -32.5448   23.1102 H   0  0  0  0  0  0
  -24.9970  -33.9729   25.0368 H   0  0  0  0  0  0
  -22.7206  -31.2968   21.3952 H   0  0  0  0  0  0
  -23.3753  -35.9643   23.3284 H   0  0  0  0  0  0
  -24.3586  -36.8940   22.2049 H   0  0  0  0  0  0
  -23.7226  -37.6517   23.6644 H   0  0  0  0  0  0
  -26.0950  -31.5380   20.5995 H   0  0  0  0  0  0
  -26.8497  -30.8416   22.0012 H   0  0  0  0  0  0
  -28.1219  -28.9552   21.2195 H   0  0  0  0  0  0
  -26.0112  -25.9095   19.0142 H   0  0  0  0  0  0
  -23.9883  -27.3008   19.0004 H   0  0  0  0  0  0
  -23.7697  -30.5869   19.4028 H   0  0  0  0  0  0
  -22.7665  -29.2423   19.8515 H   0  0  0  0  0  0
  -25.1277  -36.1972   25.0830 H   0  0  0  0  0  0
  -20.9981  -28.3260   24.1411 H   0  0  0  0  0  0
  -20.5657  -26.2298   23.3651 H   0  0  0  0  0  0
  -21.6644  -26.7408   22.1243 H   0  0  0  0  0  0
  -19.6922  -25.6288   21.1261 H   0  0  0  0  0  0
  -19.6697  -27.3184   20.6764 H   0  0  0  0  0  0
  -17.4208  -26.6655   21.4036 H   0  0  0  0  0  0
  -18.0336  -26.0054   22.9033 H   0  0  0  0  0  0
  -19.7937  -30.7251   24.2298 H   0  0  0  0  0  0
  -17.5012  -31.6255   24.5167 H   0  0  0  0  0  0
  -15.5353  -30.2996   23.7606 H   0  0  0  0  0  0
  -15.8680  -28.0817   22.7047 H   0  0  0  0  0  0
  -24.5834  -30.7147   25.7830 H   0  0  0  0  0  0
  -24.8874  -32.2996   26.4821 H   0  0  0  0  0  0
  -25.7985  -30.9042   27.0279 H   0  0  0  0  0  0
  -26.2786  -29.6813   24.1132 H   0  0  0  0  0  0
  -27.3828  -29.7186   25.4678 H   0  0  0  0  0  0
  -27.8714  -30.4240   23.9439 H   0  0  0  0  0  0
  -27.2694  -33.3561   26.2098 H   0  0  0  0  0  0
  -28.3812  -32.6875   25.0247 H   0  0  0  0  0  0
  -28.0764  -31.8362   26.5309 H   0  0  0  0  0  0
  -28.2606  -38.0101   24.7523 H   0  0  0  0  0  0
  -28.1104  -36.2645   24.6217 H   0  0  0  0  0  0
  -27.2337  -37.1379   25.8855 H   0  0  0  0  0  0
  -20.9395  -29.8799   21.6917 H   0  0  0  0  0  0
  -26.0193  -38.2876   24.1443 H   0  0  0  0  0  0
  -27.5723  -19.8908   21.3262 H   0  0  0  0  0  0
  -27.6806  -17.4393   21.3174 H   0  0  0  0  0  0
  -31.7843  -17.6053   20.0382 H   0  0  0  0  0  0
  -27.2729  -25.1460   21.3968 H   0  0  0  0  0  0
  -28.8114  -15.4082   21.0414 H   0  0  0  0  0  0
  1 25  1  0  0  0
  1 30  2  0  0  0
  1 81  1  0  0  0
  2  3  1  0  0  0
  2 25  1  0  0  0
  2 84  1  0  0  0
  2 85  1  0  0  0
  3  4  1  0  0  0
  3 86  1  0  0  0
  3 87  1  0  0  0
  4  5  1  0  0  0
  4 88  1  0  0  0
  4 89  1  0  0  0
  5  6  1  0  0  0
  5 26  1  0  0  0
  5 90  1  0  0  0
  6 25  1  0  0  0
  6 91  1  0  0  0
  6 92  1  0  0  0
  7  8  2  0  0  0
  7 26  1  0  0  0
  7 29  1  0  0  0
  8  9  1  0  0  0
  8 22  1  0  0  0
  9 10  1  0  0  0
  9 27  2  0  0  0
 10 11  2  0  0  0
 10 15  1  0  0  0
 11 12  1  0  0  0
 11 93  1  0  0  0
 12 13  2  0  0  0
 12 94  1  0  0  0
 13 14  1  0  0  0
 13 31  1  0  0  0
 14 15  2  0  0  0
 14 95  1  0  0  0
 15 96  1  0  0  0
 16 17  2  0  0  0
 16 21  1  0  0  0
 16 31  1  0  0  0
 17 18  1  0  0  0
 17 97  1  0  0  0
 18 19  2  0  0  0
 18 98  1  0  0  0
 19 20  1  0  0  0
 19 24  1  0  0  0
 20 21  2  0  0  0
 20 99  1  0  0  0
 21 23  1  0  0  0
 22 28  1  0  0  0
 22 32  2  0  0  0
 26 27  1  0  0  0
 28100  1  0  0  0
 28101  1  0  0  0
 29102  1  0  0  0
 29103  1  0  0  0
 33 34  1  0  0  0
 33 66  1  0  0  0
 33 70  2  0  0  0
 34 36  1  0  0  0
 34 59  1  0  0  0
 34104  1  0  0  0
 35 44  2  0  0  0
 35 45  1  0  0  0
 35 68  1  0  0  0
 36 56  1  0  0  0
 36105  1  0  0  0
 37 39  1  0  0  0
 37 47  1  0  0  0
 37 66  1  0  0  0
 37106  1  0  0  0
 38 43  2  0  0  0
 38 46  1  0  0  0
 38 47  1  0  0  0
 39 64  1  0  0  0
 39 67  2  0  0  0
 40 52  1  0  0  0
 40 53  2  0  0  0
 40 58  1  0  0  0
 41107  1  0  0  0
 41108  1  0  0  0
 41109  1  0  0  0
 41 48  1  0  0  0
 42 43  1  0  0  0
 42 66  1  0  0  0
 42110  1  0  0  0
 42111  1  0  0  0
 43 44  1  0  0  0
 44112  1  0  0  0
 45 46  2  0  0  0
 45113  1  0  0  0
 46114  1  0  0  0
 47115  1  0  0  0
 47116  1  0  0  0
 48 56  1  0  0  0
 48 65  1  0  0  0
 48117  1  0  0  0
 49 50  1  0  0  0
 49 53  1  0  0  0
 49 64  1  0  0  0
 49118  1  0  0  0
 50 51  1  0  0  0
 50119  1  0  0  0
 50120  1  0  0  0
 51 52  1  0  0  0
 51121  1  0  0  0
 51122  1  0  0  0
 52123  1  0  0  0
 52124  1  0  0  0
 53 54  1  0  0  0
 54 55  2  0  0  0
 54125  1  0  0  0
 55 57  1  0  0  0
 55126  1  0  0  0
 56 69  2  0  0  0
 57 58  2  0  0  0
 57127  1  0  0  0
 58128  1  0  0  0
 59 60  1  0  0  0
 59 61  1  0  0  0
 59 62  1  0  0  0
 60129  1  0  0  0
 60130  1  0  0  0
 60131  1  0  0  0
 61132  1  0  0  0
 61133  1  0  0  0
 61134  1  0  0  0
 62135  1  0  0  0
 62136  1  0  0  0
 62137  1  0  0  0
 63 65  1  0  0  0
 63138  1  0  0  0
 63139  1  0  0  0
 63140  1  0  0  0
 64141  1  0  0  0
 65142  1  0  0  0
 68 78  1  0  0  0
 71 78  2  0  0  0
 71 80  2  0  0  0
 72 73  2  0  0  0
 72 75  1  0  0  0
 72143  1  0  0  0
 73 76  1  0  0  0
 73144  1  0  0  0
 74 76  2  0  0  0
 74 77  1  0  0  0
 74145  1  0  0  0
 75 77  2  0  0  0
 75 79  1  0  0  0
 76 81  1  0  0  0
 77 83  1  0  0  0
 78146  1  0  0  0
 79 80  1  0  0  0
 79 82  2  0  0  0
 81147  1  0  0  0
M  ISO  4   1 100  68 101  78 101  81 100
M  END
> <chiral flag>
0

> <version>
0

> <s_m_source_file>
/data/baiqing/PycharmProjects/Reinvent-master-3.2/result/LINK_invent/BTK/process_docking_weight1_custom_product_contain_oxygen_bond_distance_aromatic_linkinvent_7_9_3/rearranged_h_0088.sdf

> <i_m_source_file_index>
13

> <r_mmod_Potential_Energy-OPLS-2005>
97.0610122680664

> <r_mmod_Stretch_Energy-OPLS-2005>
93.8885345458984

> <r_mmod_Bend_Energy-OPLS-2005>
154.494064331055

> <r_mmod_Torsional_Energy-OPLS-2005>
175.175521850586

> <r_mmod_Improper_Torsional_Energy-OPLS-2005>
5.05797052383423

> <r_mmod_Van_der_Waal_Energy-OPLS-2005>
140.044418334961

> <r_mmod_Electrostatic_Energy-OPLS-2005>
-344.949249267578

> <r_mmod_Solvation_Energy-OPLS-2005>
-202.269989013672

> <b_mmod_Minimization_Converged-OPLS-2005>
0

> <r_mmod_RMS_Derivative-OPLS-2005>
2.00100302696228

$$$$
13
                    3D
 Structure written by MMmdl.
157166  0  0  1  0            999 V2000
  -30.6266  -14.5657   20.5444 C   0  0  0  0  0  0
  -30.4446  -12.3559   19.4288 C   0  0  0  0  0  0
  -29.5048  -12.5126   18.2125 C   0  0  0  0  0  0
  -28.0253  -12.3607   18.6241 C   0  0  0  0  0  0
  -27.6629  -13.2034   19.8753 C   0  0  2  0  0  0
  -28.7076  -12.9872   20.9937 C   0  0  0  0  0  0
  -25.2606  -13.8144   20.5687 C   0  0  0  0  0  0
  -24.1848  -13.0428   20.9170 C   0  0  0  0  0  0
  -24.6395  -11.6893   20.8732 C   0  0  0  0  0  0
  -23.9054  -10.4288   21.0398 C   0  0  0  0  0  0
  -24.3607   -9.4205   21.9179 C   0  0  0  0  0  0
  -23.6285   -8.2243   22.0754 C   0  0  0  0  0  0
  -22.4269   -8.0277   21.3543 C   0  0  0  0  0  0
  -21.9894   -9.0247   20.4647 C   0  0  0  0  0  0
  -22.7222  -10.2126   20.3052 C   0  0  0  0  0  0
  -21.6850   -6.0727   22.5276 C   0  0  0  0  0  0
  -21.4009   -6.5633   23.8209 C   0  0  0  0  0  0
  -21.3660   -5.6786   24.9170 C   0  0  0  0  0  0
  -21.6050   -4.3053   24.7222 C   0  0  0  0  0  0
  -21.8819   -3.8139   23.4346 C   0  0  0  0  0  0
  -21.9194   -4.6955   22.3401 C   0  0  0  0  0  0
  -22.7876  -13.5237   21.1837 C   0  0  0  0  0  0
  -22.1668   -4.2144   21.0979 F   0  0  0  0  0  0
  -21.5629   -3.4539   25.7739 F   0  0  0  0  0  0
  -30.0308  -13.3386   20.4453 N   0  0  0  0  0  0
  -26.3034  -12.9303   20.3359 N   0  0  0  0  0  0
  -25.9318  -11.6470   20.5746 N   0  0  0  0  0  0
  -22.0509  -12.8238   22.0394 N   0  0  0  0  0  0
  -25.4324  -15.1865   20.4123 N   0  0  0  0  0  0
  -31.7567  -14.7871   20.0968 O   0  0  0  0  0  0
  -21.6636   -6.8870   21.4243 O   0  0  0  0  0  0
  -22.3577  -14.5552   20.6692 O   0  0  0  0  0  0
  -24.6197  -31.8644   23.2044 C   0  0  0  0  0  0
  -25.9060  -32.4805   23.8379 C   0  0  1  0  0  0
  -27.2345  -27.3835   20.1072 C   0  0  0  0  0  0
  -25.5886  -33.8599   24.2307 N   0  0  0  0  0  0
  -23.4138  -30.4852   21.5462 C   0  0  2  0  0  0
  -24.8633  -28.9465   20.1129 C   0  0  0  0  0  0
  -22.7459  -29.4635   22.4954 C   0  0  0  0  0  0
  -18.0286  -28.1391   22.8504 C   0  0  0  0  0  0
  -24.1478  -36.7299   23.2640 C   0  0  0  0  0  0
  -25.9480  -30.8153   21.3669 C   0  0  0  0  0  0
  -26.0278  -29.4456   20.7129 C   0  0  0  0  0  0
  -27.2205  -28.6725   20.7051 C   0  0  0  0  0  0
  -26.0541  -26.9143   19.4977 C   0  0  0  0  0  0
  -24.8742  -27.6819   19.5002 C   0  0  0  0  0  0
  -23.6261  -29.8180   20.1619 C   0  0  0  0  0  0
  -25.4099  -36.3097   24.0339 C   0  0  1  0  0  0
  -20.5886  -28.3682   23.1305 C   0  0  2  0  0  0
  -20.6761  -26.9408   22.5417 C   0  0  0  0  0  0
  -19.5730  -26.6394   21.5218 C   0  0  0  0  0  0
  -18.1917  -26.7939   22.1640 C   0  0  0  0  0  0
  -19.1540  -28.8855   23.2899 C   0  0  0  0  0  0
  -18.9462  -30.1464   23.8907 C   0  0  0  0  0  0
  -17.6457  -30.6589   24.0573 C   0  0  0  0  0  0
  -25.9041  -34.9464   23.5127 C   0  0  0  0  0  0
  -16.5348  -29.9091   23.6334 C   0  0  0  0  0  0
  -16.7271  -28.6510   23.0354 C   0  0  0  0  0  0
  -26.4459  -31.6597   25.0733 C   0  0  0  0  0  0
  -25.3714  -31.3740   26.1488 C   0  0  0  0  0  0
  -27.0276  -30.3019   24.6153 C   0  0  0  0  0  0
  -27.6062  -32.4303   25.7474 C   0  0  0  0  0  0
  -27.5576  -37.1800   24.8464 C   0  0  0  0  0  0
  -21.4175  -29.3031   22.3696 N   0  0  0  0  0  0
  -26.4278  -37.3790   23.9424 N   0  0  0  0  0  0
  -24.6788  -31.0703   22.0971 N   0  0  0  0  0  0
  -23.4207  -28.8176   23.3017 O   0  0  0  0  0  0
  -28.3366  -26.5412   20.1223 O   0  0  0  0  0  0
  -26.5615  -34.8918   22.4699 O   0  0  0  0  0  0
  -23.5368  -32.1413   23.7393 O   0  0  0  0  0  0
  -30.5567  -19.2192   20.2621 C   0  0  0  0  0  0
  -28.5035  -19.0226   21.5032 C   0  0  0  0  0  0
  -30.7232  -17.8020   20.3046 C   0  0  0  0  0  0
  -28.6635  -17.6163   21.5437 C   0  0  0  0  0  0
  -29.4521  -19.8722   20.8760 C   0  0  0  0  0  0
  -29.7768  -16.9707   20.9592 C   0  0  0  0  0  0
  -28.8149  -24.2601   21.0036 C   0  0  0  0  0  0
  -28.2846  -25.5190   21.0618 C   0  0  0  0  0  0
  -29.5902  -23.6228   19.8447 C   0  0  0  0  0  0
  -28.7662  -23.3539   22.2289 C   0  0  0  0  0  0
  -29.3748  -22.0743   19.6549 C   0  0  0  0  0  0
  -28.4282  -21.8805   21.9152 C   0  0  0  0  0  0
  -29.3261  -21.3020   20.9106 N   0  0  0  0  0  0
  -29.8272  -15.5277   21.0759 N   0  0  0  0  0  0
  -31.4835  -12.4899   19.1225 H   0  0  0  0  0  0
  -30.3822  -11.3455   19.8356 H   0  0  0  0  0  0
  -29.7549  -11.7777   17.4460 H   0  0  0  0  0  0
  -29.6577  -13.4925   17.7576 H   0  0  0  0  0  0
  -27.8430  -11.3043   18.8248 H   0  0  0  0  0  0
  -27.3747  -12.6274   17.7905 H   0  0  0  0  0  0
  -27.7020  -14.2498   19.5726 H   0  0  0  0  0  0
  -28.7070  -11.9431   21.3122 H   0  0  0  0  0  0
  -28.4550  -13.5586   21.8879 H   0  0  0  0  0  0
  -25.2749   -9.5688   22.4753 H   0  0  0  0  0  0
  -23.9996   -7.4635   22.7474 H   0  0  0  0  0  0
  -21.0820   -8.8766   19.8952 H   0  0  0  0  0  0
  -22.3680  -10.9665   19.6167 H   0  0  0  0  0  0
  -21.1998   -7.6139   23.9709 H   0  0  0  0  0  0
  -21.1486   -6.0516   25.9072 H   0  0  0  0  0  0
  -22.0600   -2.7600   23.2848 H   0  0  0  0  0  0
  -22.4115  -11.9895   22.4779 H   0  0  0  0  0  0
  -21.1132  -13.1282   22.2598 H   0  0  0  0  0  0
  -24.6620  -15.8368   20.5198 H   0  0  0  0  0  0
  -26.2766  -15.6277   20.0703 H   0  0  0  0  0  0
  -26.7141  -32.5505   23.1153 H   0  0  0  0  0  0
  -24.9993  -33.9751   25.0420 H   0  0  0  0  0  0
  -22.7052  -31.3031   21.4038 H   0  0  0  0  0  0
  -23.3748  -35.9625   23.3283 H   0  0  0  0  0  0
  -24.3573  -36.8932   22.2058 H   0  0  0  0  0  0
  -23.7216  -37.6487   23.6673 H   0  0  0  0  0  0
  -26.0684  -31.5806   20.5986 H   0  0  0  0  0  0
  -26.8317  -30.8687   21.9915 H   0  0  0  0  0  0
  -28.1184  -29.0465   21.1763 H   0  0  0  0  0  0
  -26.0470  -25.9367   19.0365 H   0  0  0  0  0  0
  -23.9797  -27.2909   19.0350 H   0  0  0  0  0  0
  -23.7390  -30.5933   19.4031 H   0  0  0  0  0  0
  -22.7491  -29.2407   19.8634 H   0  0  0  0  0  0
  -25.1268  -36.1961   25.0830 H   0  0  0  0  0  0
  -20.9989  -28.3250   24.1423 H   0  0  0  0  0  0
  -20.5661  -26.2281   23.3603 H   0  0  0  0  0  0
  -21.6625  -26.7435   22.1207 H   0  0  0  0  0  0
  -19.6873  -25.6311   21.1227 H   0  0  0  0  0  0
  -19.6649  -27.3217   20.6755 H   0  0  0  0  0  0
  -17.4173  -26.6693   21.4050 H   0  0  0  0  0  0
  -18.0313  -26.0086   22.9038 H   0  0  0  0  0  0
  -19.7933  -30.7290   24.2262 H   0  0  0  0  0  0
  -17.5004  -31.6266   24.5177 H   0  0  0  0  0  0
  -15.5346  -30.2983   23.7656 H   0  0  0  0  0  0
  -15.8675  -28.0822   22.7067 H   0  0  0  0  0  0
  -24.5823  -30.7171   25.7809 H   0  0  0  0  0  0
  -24.8984  -32.2913   26.5007 H   0  0  0  0  0  0
  -25.8031  -30.8819   27.0213 H   0  0  0  0  0  0
  -26.2823  -29.6792   24.1191 H   0  0  0  0  0  0
  -27.3987  -29.7261   25.4641 H   0  0  0  0  0  0
  -27.8690  -30.4293   23.9342 H   0  0  0  0  0  0
  -27.2738  -33.3640   26.2021 H   0  0  0  0  0  0
  -28.3885  -32.6789   25.0289 H   0  0  0  0  0  0
  -28.0708  -31.8433   26.5406 H   0  0  0  0  0  0
  -28.2601  -38.0094   24.7534 H   0  0  0  0  0  0
  -28.1065  -36.2631   24.6260 H   0  0  0  0  0  0
  -27.2302  -37.1432   25.8869 H   0  0  0  0  0  0
  -20.9349  -29.8745   21.6897 H   0  0  0  0  0  0
  -26.0161  -38.2862   24.1442 H   0  0  0  0  0  0
  -31.3199  -19.8089   19.7738 H   0  0  0  0  0  0
  -27.6213  -19.4287   21.9757 H   0  0  0  0  0  0
  -31.5952  -17.3687   19.8357 H   0  0  0  0  0  0
  -27.9029  -17.0332   22.0441 H   0  0  0  0  0  0
  -27.7855  -25.8579   21.9610 H   0  0  0  0  0  0
  -30.6473  -23.8011   20.0458 H   0  0  0  0  0  0
  -29.3687  -24.1531   18.9177 H   0  0  0  0  0  0
  -28.0561  -23.7467   22.9581 H   0  0  0  0  0  0
  -29.7448  -23.3966   22.7087 H   0  0  0  0  0  0
  -30.1516  -21.6822   18.9972 H   0  0  0  0  0  0
  -28.4311  -21.9098   19.1322 H   0  0  0  0  0  0
  -27.3982  -21.8057   21.5605 H   0  0  0  0  0  0
  -28.4866  -21.3149   22.8463 H   0  0  0  0  0  0
  -29.0030  -15.1249   21.4946 H   0  0  0  0  0  0
  1 25  1  0  0  0
  1 30  2  0  0  0
  1 84  1  0  0  0
  2  3  1  0  0  0
  2 25  1  0  0  0
  2 85  1  0  0  0
  2 86  1  0  0  0
  3  4  1  0  0  0
  3 87  1  0  0  0
  3 88  1  0  0  0
  4  5  1  0  0  0
  4 89  1  0  0  0
  4 90  1  0  0  0
  5  6  1  0  0  0
  5 26  1  0  0  0
  5 91  1  0  0  0
  6 25  1  0  0  0
  6 92  1  0  0  0
  6 93  1  0  0  0
  7  8  2  0  0  0
  7 26  1  0  0  0
  7 29  1  0  0  0
  8  9  1  0  0  0
  8 22  1  0  0  0
  9 10  1  0  0  0
  9 27  2  0  0  0
 10 11  2  0  0  0
 10 15  1  0  0  0
 11 12  1  0  0  0
 11 94  1  0  0  0
 12 13  2  0  0  0
 12 95  1  0  0  0
 13 14  1  0  0  0
 13 31  1  0  0  0
 14 15  2  0  0  0
 14 96  1  0  0  0
 15 97  1  0  0  0
 16 17  2  0  0  0
 16 21  1  0  0  0
 16 31  1  0  0  0
 17 18  1  0  0  0
 17 98  1  0  0  0
 18 19  2  0  0  0
 18 99  1  0  0  0
 19 20  1  0  0  0
 19 24  1  0  0  0
 20 21  2  0  0  0
 20100  1  0  0  0
 21 23  1  0  0  0
 22 28  1  0  0  0
 22 32  2  0  0  0
 26 27  1  0  0  0
 28101  1  0  0  0
 28102  1  0  0  0
 29103  1  0  0  0
 29104  1  0  0  0
 33 34  1  0  0  0
 33 66  1  0  0  0
 33 70  2  0  0  0
 34 36  1  0  0  0
 34 59  1  0  0  0
 34105  1  0  0  0
 35 44  2  0  0  0
 35 45  1  0  0  0
 35 68  1  0  0  0
 36 56  1  0  0  0
 36106  1  0  0  0
 37 39  1  0  0  0
 37 47  1  0  0  0
 37 66  1  0  0  0
 37107  1  0  0  0
 38 43  2  0  0  0
 38 46  1  0  0  0
 38 47  1  0  0  0
 39 64  1  0  0  0
 39 67  2  0  0  0
 40 52  1  0  0  0
 40 53  2  0  0  0
 40 58  1  0  0  0
 41108  1  0  0  0
 41109  1  0  0  0
 41110  1  0  0  0
 41 48  1  0  0  0
 42 43  1  0  0  0
 42 66  1  0  0  0
 42111  1  0  0  0
 42112  1  0  0  0
 43 44  1  0  0  0
 44113  1  0  0  0
 45 46  2  0  0  0
 45114  1  0  0  0
 46115  1  0  0  0
 47116  1  0  0  0
 47117  1  0  0  0
 48 56  1  0  0  0
 48 65  1  0  0  0
 48118  1  0  0  0
 49 50  1  0  0  0
 49 53  1  0  0  0
 49 64  1  0  0  0
 49119  1  0  0  0
 50 51  1  0  0  0
 50120  1  0  0  0
 50121  1  0  0  0
 51 52  1  0  0  0
 51122  1  0  0  0
 51123  1  0  0  0
 52124  1  0  0  0
 52125  1  0  0  0
 53 54  1  0  0  0
 54 55  2  0  0  0
 54126  1  0  0  0
 55 57  1  0  0  0
 55127  1  0  0  0
 56 69  2  0  0  0
 57 58  2  0  0  0
 57128  1  0  0  0
 58129  1  0  0  0
 59 60  1  0  0  0
 59 61  1  0  0  0
 59 62  1  0  0  0
 60130  1  0  0  0
 60131  1  0  0  0
 60132  1  0  0  0
 61133  1  0  0  0
 61134  1  0  0  0
 61135  1  0  0  0
 62136  1  0  0  0
 62137  1  0  0  0
 62138  1  0  0  0
 63 65  1  0  0  0
 63139  1  0  0  0
 63140  1  0  0  0
 63141  1  0  0  0
 64142  1  0  0  0
 65143  1  0  0  0
 68 78  1  0  0  0
 71 73  2  0  0  0
 71 75  1  0  0  0
 71144  1  0  0  0
 72 74  1  0  0  0
 72 75  2  0  0  0
 72145  1  0  0  0
 73 76  1  0  0  0
 73146  1  0  0  0
 74 76  2  0  0  0
 74147  1  0  0  0
 75 83  1  0  0  0
 76 84  1  0  0  0
 77 78  2  0  0  0
 77 79  1  0  0  0
 77 80  1  0  0  0
 78148  1  0  0  0
 79 81  1  0  0  0
 79149  1  0  0  0
 79150  1  0  0  0
 80 82  1  0  0  0
 80151  1  0  0  0
 80152  1  0  0  0
 81 83  1  0  0  0
 81153  1  0  0  0
 81154  1  0  0  0
 82 83  1  0  0  0
 82155  1  0  0  0
 82156  1  0  0  0
 84157  1  0  0  0
M  ISO  4   1 100  68 101  78 101  84 100
M  END
> <chiral flag>
0

> <version>
0

> <s_m_source_file>
/data/baiqing/PycharmProjects/Reinvent-master-3.2/result/LINK_invent/BTK/process_docking_weight1_custom_product_contain_oxygen_bond_distance_aromatic_linkinvent_7_9_3/rearranged_h_0088.sdf

> <i_m_source_file_index>
14

> <r_mmod_Potential_Energy-OPLS-2005>
-1.35496270656586

> <r_mmod_Stretch_Energy-OPLS-2005>
54.1251182556152

> <r_mmod_Bend_Energy-OPLS-2005>
133.856704711914

> <r_mmod_Torsional_Energy-OPLS-2005>
242.532241821289

> <r_mmod_Improper_Torsional_Energy-OPLS-2005>
6.33226442337036

> <r_mmod_Van_der_Waal_Energy-OPLS-2005>
151.81364440918

> <r_mmod_Electrostatic_Energy-OPLS-2005>
-401.022735595703

> <r_mmod_Solvation_Energy-OPLS-2005>
-217.049652099609

> <b_mmod_Minimization_Converged-OPLS-2005>
0

> <r_mmod_RMS_Derivative-OPLS-2005>
1.33720195293427

$$$$
14
                    3D
 Structure written by MMmdl.
152160  0  0  1  0            999 V2000
  -30.6156  -14.6536   20.4952 C   0  0  0  0  0  0
  -30.4398  -12.3994   19.4542 C   0  0  0  0  0  0
  -29.5082  -12.5043   18.2255 C   0  0  0  0  0  0
  -28.0311  -12.3415   18.6375 C   0  0  0  0  0  0
  -27.6524  -13.2158   19.8622 C   0  0  2  0  0  0
  -28.6975  -13.0776   20.9924 C   0  0  0  0  0  0
  -25.2560  -13.8167   20.5682 C   0  0  0  0  0  0
  -24.1830  -13.0436   20.9200 C   0  0  0  0  0  0
  -24.6394  -11.6905   20.8746 C   0  0  0  0  0  0
  -23.9061  -10.4290   21.0411 C   0  0  0  0  0  0
  -24.3614   -9.4205   21.9186 C   0  0  0  0  0  0
  -23.6291   -8.2240   22.0755 C   0  0  0  0  0  0
  -22.4274   -8.0278   21.3544 C   0  0  0  0  0  0
  -21.9908   -9.0251   20.4645 C   0  0  0  0  0  0
  -22.7236  -10.2131   20.3057 C   0  0  0  0  0  0
  -21.6850   -6.0735   22.5279 C   0  0  0  0  0  0
  -21.4014   -6.5639   23.8213 C   0  0  0  0  0  0
  -21.3659   -5.6792   24.9175 C   0  0  0  0  0  0
  -21.6045   -4.3055   24.7226 C   0  0  0  0  0  0
  -21.8819   -3.8146   23.4347 C   0  0  0  0  0  0
  -21.9194   -4.6963   22.3404 C   0  0  0  0  0  0
  -22.7852  -13.5231   21.1861 C   0  0  0  0  0  0
  -22.1661   -4.2148   21.0981 F   0  0  0  0  0  0
  -21.5629   -3.4538   25.7739 F   0  0  0  0  0  0
  -30.0113  -13.4240   20.4276 N   0  0  0  0  0  0
  -26.2983  -12.9343   20.3312 N   0  0  0  0  0  0
  -25.9322  -11.6500   20.5758 N   0  0  0  0  0  0
  -22.0492  -12.8221   22.0412 N   0  0  0  0  0  0
  -25.4275  -15.1886   20.4074 N   0  0  0  0  0  0
  -31.7839  -14.8080   20.1265 O   0  0  0  0  0  0
  -21.6639   -6.8876   21.4239 O   0  0  0  0  0  0
  -22.3541  -14.5541   20.6713 O   0  0  0  0  0  0
  -24.6265  -31.8599   23.2029 C   0  0  0  0  0  0
  -25.9109  -32.4782   23.8359 C   0  0  1  0  0  0
  -27.2225  -27.3158   20.1135 C   0  0  0  0  0  0
  -25.5929  -33.8582   24.2286 N   0  0  0  0  0  0
  -23.4203  -30.4849   21.5455 C   0  0  2  0  0  0
  -24.8659  -28.9416   20.1105 C   0  0  0  0  0  0
  -22.7478  -29.4629   22.4932 C   0  0  0  0  0  0
  -18.0290  -28.1384   22.8486 C   0  0  0  0  0  0
  -24.1490  -36.7288   23.2639 C   0  0  0  0  0  0
  -25.9627  -30.7894   21.3751 C   0  0  0  0  0  0
  -26.0361  -29.4174   20.7158 C   0  0  0  0  0  0
  -27.2172  -28.6164   20.7080 C   0  0  0  0  0  0
  -26.0272  -26.8969   19.4824 C   0  0  0  0  0  0
  -24.8638  -27.6868   19.4857 C   0  0  0  0  0  0
  -23.6350  -29.8228   20.1599 C   0  0  0  0  0  0
  -25.4115  -36.3085   24.0333 C   0  0  1  0  0  0
  -20.5891  -28.3685   23.1281 C   0  0  2  0  0  0
  -20.6782  -26.9410   22.5407 C   0  0  0  0  0  0
  -19.5758  -26.6385   21.5210 C   0  0  0  0  0  0
  -18.1937  -26.7927   22.1618 C   0  0  0  0  0  0
  -19.1543  -28.8851   23.2881 C   0  0  0  0  0  0
  -18.9467  -30.1454   23.8895 C   0  0  0  0  0  0
  -17.6468  -30.6589   24.0564 C   0  0  0  0  0  0
  -25.9049  -34.9454   23.5108 C   0  0  0  0  0  0
  -16.5359  -29.9088   23.6330 C   0  0  0  0  0  0
  -16.7277  -28.6504   23.0353 C   0  0  0  0  0  0
  -26.4493  -31.6591   25.0726 C   0  0  0  0  0  0
  -25.3731  -31.3731   26.1455 C   0  0  0  0  0  0
  -27.0338  -30.3019   24.6170 C   0  0  0  0  0  0
  -27.6055  -32.4325   25.7496 C   0  0  0  0  0  0
  -27.5579  -37.1805   24.8467 C   0  0  0  0  0  0
  -21.4190  -29.3043   22.3676 N   0  0  0  0  0  0
  -26.4292  -37.3781   23.9408 N   0  0  0  0  0  0
  -24.6886  -31.0612   22.0980 N   0  0  0  0  0  0
  -23.4204  -28.8163   23.3008 O   0  0  0  0  0  0
  -28.3368  -26.4590   20.1675 O   0  0  0  0  0  0
  -26.5616  -34.8920   22.4672 O   0  0  0  0  0  0
  -23.5426  -32.1394   23.7356 O   0  0  0  0  0  0
  -31.1414  -19.2958   20.3626 C   0  0  0  0  0  0
  -28.7974  -19.4122   20.8658 C   0  0  0  0  0  0
  -31.1064  -17.8692   20.4103 C   0  0  0  0  0  0
  -28.7623  -17.9814   20.9183 C   0  0  0  0  0  0
  -29.9985  -20.1192   20.5921 C   0  0  0  0  0  0
  -29.9111  -17.1637   20.7035 C   0  0  0  0  0  0
  -30.1614  -21.6605   20.6838 C   0  0  0  0  0  0
  -29.2454  -24.0396   20.4005 C   0  0  0  0  0  0
  -28.1005  -24.9989   19.9998 C   0  0  0  0  0  0
  -29.7914  -15.7045   20.8177 N   0  0  0  0  0  0
  -29.1217  -22.6518   20.3428 N   0  0  0  0  0  0
  -30.3576  -24.6811   20.8024 N   0  3  0  0  0  0
  -31.2697  -22.0904   21.0322 O   0  0  0  0  0  0
  -31.4797  -12.5300   19.1497 H   0  0  0  0  0  0
  -30.3818  -11.4054   19.9003 H   0  0  0  0  0  0
  -29.7738  -11.7481   17.4853 H   0  0  0  0  0  0
  -29.6489  -13.4705   17.7383 H   0  0  0  0  0  0
  -27.8693  -11.2888   18.8730 H   0  0  0  0  0  0
  -27.3764  -12.5670   17.7946 H   0  0  0  0  0  0
  -27.6679  -14.2495   19.5164 H   0  0  0  0  0  0
  -28.7121  -12.0572   21.3784 H   0  0  0  0  0  0
  -28.4418  -13.7123   21.8425 H   0  0  0  0  0  0
  -25.2758   -9.5681   22.4762 H   0  0  0  0  0  0
  -24.0001   -7.4630   22.7472 H   0  0  0  0  0  0
  -21.0841   -8.8768   19.8950 H   0  0  0  0  0  0
  -22.3693  -10.9671   19.6166 H   0  0  0  0  0  0
  -21.2004   -7.6147   23.9715 H   0  0  0  0  0  0
  -21.1482   -6.0523   25.9078 H   0  0  0  0  0  0
  -22.0599   -2.7608   23.2848 H   0  0  0  0  0  0
  -22.4104  -11.9875   22.4792 H   0  0  0  0  0  0
  -21.1109  -13.1245   22.2619 H   0  0  0  0  0  0
  -24.6557  -15.8394   20.5055 H   0  0  0  0  0  0
  -26.2618  -15.6196   20.0303 H   0  0  0  0  0  0
  -26.7170  -32.5445   23.1101 H   0  0  0  0  0  0
  -25.0095  -33.9736   25.0444 H   0  0  0  0  0  0
  -22.7145  -31.3060   21.4036 H   0  0  0  0  0  0
  -23.3757  -35.9613   23.3305 H   0  0  0  0  0  0
  -24.3579  -36.8899   22.2051 H   0  0  0  0  0  0
  -23.7239  -37.6491   23.6653 H   0  0  0  0  0  0
  -26.0974  -31.5540   20.6089 H   0  0  0  0  0  0
  -26.8421  -30.8350   22.0058 H   0  0  0  0  0  0
  -28.1137  -28.9767   21.1928 H   0  0  0  0  0  0
  -25.9568  -25.9416   18.9857 H   0  0  0  0  0  0
  -23.9673  -27.3174   19.0067 H   0  0  0  0  0  0
  -23.7564  -30.6009   19.4050 H   0  0  0  0  0  0
  -22.7541  -29.2546   19.8553 H   0  0  0  0  0  0
  -25.1302  -36.1936   25.0827 H   0  0  0  0  0  0
  -20.9984  -28.3250   24.1401 H   0  0  0  0  0  0
  -20.5684  -26.2293   23.3603 H   0  0  0  0  0  0
  -21.6651  -26.7446   22.1201 H   0  0  0  0  0  0
  -19.6921  -25.6297   21.1236 H   0  0  0  0  0  0
  -19.6695  -27.3197   20.6741 H   0  0  0  0  0  0
  -17.4209  -26.6673   21.4018 H   0  0  0  0  0  0
  -18.0335  -26.0076   22.9019 H   0  0  0  0  0  0
  -19.7946  -30.7271   24.2262 H   0  0  0  0  0  0
  -17.5027  -31.6269   24.5164 H   0  0  0  0  0  0
  -15.5360  -30.2995   23.7662 H   0  0  0  0  0  0
  -15.8673  -28.0827   22.7071 H   0  0  0  0  0  0
  -24.5912  -30.7068   25.7792 H   0  0  0  0  0  0
  -24.8916  -32.2900   26.4868 H   0  0  0  0  0  0
  -25.8066  -30.8927   27.0235 H   0  0  0  0  0  0
  -26.2909  -29.6772   24.1198 H   0  0  0  0  0  0
  -27.4053  -29.7272   25.4663 H   0  0  0  0  0  0
  -27.8770  -30.4321   23.9383 H   0  0  0  0  0  0
  -27.2668  -33.3628   26.2070 H   0  0  0  0  0  0
  -28.3871  -32.6877   25.0328 H   0  0  0  0  0  0
  -28.0712  -31.8449   26.5419 H   0  0  0  0  0  0
  -28.2609  -38.0092   24.7519 H   0  0  0  0  0  0
  -28.1072  -36.2630   24.6301 H   0  0  0  0  0  0
  -27.2299  -37.1458   25.8872 H   0  0  0  0  0  0
  -20.9360  -29.8773   21.6895 H   0  0  0  0  0  0
  -26.0174  -38.2856   24.1413 H   0  0  0  0  0  0
  -32.0950  -19.7692   20.1717 H   0  0  0  0  0  0
  -27.8898  -19.9597   21.0782 H   0  0  0  0  0  0
  -32.0272  -17.3295   20.2413 H   0  0  0  0  0  0
  -27.8178  -17.5086   21.1497 H   0  0  0  0  0  0
  -27.2244  -24.7097   20.5828 H   0  0  0  0  0  0
  -27.8697  -24.8013   18.9526 H   0  0  0  0  0  0
  -28.8755  -15.3880   21.0956 H   0  0  0  0  0  0
  -28.2181  -22.3455   20.0248 H   0  0  0  0  0  0
  -30.3599  -25.6912   20.8106 H   0  0  0  0  0  0
  -31.1829  -24.1675   21.0821 H   0  0  0  0  0  0
  1 25  1  0  0  0
  1 30  2  0  0  0
  1 80  1  0  0  0
  2  3  1  0  0  0
  2 25  1  0  0  0
  2 84  1  0  0  0
  2 85  1  0  0  0
  3  4  1  0  0  0
  3 86  1  0  0  0
  3 87  1  0  0  0
  4  5  1  0  0  0
  4 88  1  0  0  0
  4 89  1  0  0  0
  5  6  1  0  0  0
  5 26  1  0  0  0
  5 90  1  0  0  0
  6 25  1  0  0  0
  6 91  1  0  0  0
  6 92  1  0  0  0
  7  8  2  0  0  0
  7 26  1  0  0  0
  7 29  1  0  0  0
  8  9  1  0  0  0
  8 22  1  0  0  0
  9 10  1  0  0  0
  9 27  2  0  0  0
 10 11  2  0  0  0
 10 15  1  0  0  0
 11 12  1  0  0  0
 11 93  1  0  0  0
 12 13  2  0  0  0
 12 94  1  0  0  0
 13 14  1  0  0  0
 13 31  1  0  0  0
 14 15  2  0  0  0
 14 95  1  0  0  0
 15 96  1  0  0  0
 16 17  2  0  0  0
 16 21  1  0  0  0
 16 31  1  0  0  0
 17 18  1  0  0  0
 17 97  1  0  0  0
 18 19  2  0  0  0
 18 98  1  0  0  0
 19 20  1  0  0  0
 19 24  1  0  0  0
 20 21  2  0  0  0
 20 99  1  0  0  0
 21 23  1  0  0  0
 22 28  1  0  0  0
 22 32  2  0  0  0
 26 27  1  0  0  0
 28100  1  0  0  0
 28101  1  0  0  0
 29102  1  0  0  0
 29103  1  0  0  0
 33 34  1  0  0  0
 33 66  1  0  0  0
 33 70  2  0  0  0
 34 36  1  0  0  0
 34 59  1  0  0  0
 34104  1  0  0  0
 35 44  2  0  0  0
 35 45  1  0  0  0
 35 68  1  0  0  0
 36 56  1  0  0  0
 36105  1  0  0  0
 37 39  1  0  0  0
 37 47  1  0  0  0
 37 66  1  0  0  0
 37106  1  0  0  0
 38 43  2  0  0  0
 38 46  1  0  0  0
 38 47  1  0  0  0
 39 64  1  0  0  0
 39 67  2  0  0  0
 40 52  1  0  0  0
 40 53  2  0  0  0
 40 58  1  0  0  0
 41107  1  0  0  0
 41108  1  0  0  0
 41109  1  0  0  0
 41 48  1  0  0  0
 42 43  1  0  0  0
 42 66  1  0  0  0
 42110  1  0  0  0
 42111  1  0  0  0
 43 44  1  0  0  0
 44112  1  0  0  0
 45 46  2  0  0  0
 45113  1  0  0  0
 46114  1  0  0  0
 47115  1  0  0  0
 47116  1  0  0  0
 48 56  1  0  0  0
 48 65  1  0  0  0
 48117  1  0  0  0
 49 50  1  0  0  0
 49 53  1  0  0  0
 49 64  1  0  0  0
 49118  1  0  0  0
 50 51  1  0  0  0
 50119  1  0  0  0
 50120  1  0  0  0
 51 52  1  0  0  0
 51121  1  0  0  0
 51122  1  0  0  0
 52123  1  0  0  0
 52124  1  0  0  0
 53 54  1  0  0  0
 54 55  2  0  0  0
 54125  1  0  0  0
 55 57  1  0  0  0
 55126  1  0  0  0
 56 69  2  0  0  0
 57 58  2  0  0  0
 57127  1  0  0  0
 58128  1  0  0  0
 59 60  1  0  0  0
 59 61  1  0  0  0
 59 62  1  0  0  0
 60129  1  0  0  0
 60130  1  0  0  0
 60131  1  0  0  0
 61132  1  0  0  0
 61133  1  0  0  0
 61134  1  0  0  0
 62135  1  0  0  0
 62136  1  0  0  0
 62137  1  0  0  0
 63 65  1  0  0  0
 63138  1  0  0  0
 63139  1  0  0  0
 63140  1  0  0  0
 64141  1  0  0  0
 65142  1  0  0  0
 68 79  1  0  0  0
 71 73  2  0  0  0
 71 75  1  0  0  0
 71143  1  0  0  0
 72 74  1  0  0  0
 72 75  2  0  0  0
 72144  1  0  0  0
 73 76  1  0  0  0
 73145  1  0  0  0
 74 76  2  0  0  0
 74146  1  0  0  0
 75 77  1  0  0  0
 76 80  1  0  0  0
 77 81  1  0  0  0
 77 83  2  0  0  0
 78 79  1  0  0  0
 78 81  1  0  0  0
 78 82  2  0  0  0
 79147  1  0  0  0
 79148  1  0  0  0
 80149  1  0  0  0
 81150  1  0  0  0
 82151  1  0  0  0
 82152  1  0  0  0
M  CHG  1  82   1
M  ISO  4   1 100  68 101  79 101  80 100
M  END
> <chiral flag>
0

> <version>
0

> <s_m_source_file>
/data/baiqing/PycharmProjects/Reinvent-master-3.2/result/LINK_invent/BTK/process_docking_weight1_custom_product_contain_oxygen_bond_distance_aromatic_linkinvent_7_9_3/rearranged_h_0088.sdf

> <i_m_source_file_index>
15

> <r_mmod_Potential_Energy-OPLS-2005>
-182.17204284668

> <r_mmod_Stretch_Energy-OPLS-2005>
84.9363632202148

> <r_mmod_Bend_Energy-OPLS-2005>
144.954391479492

> <r_mmod_Torsional_Energy-OPLS-2005>
217.55891418457

> <r_mmod_Improper_Torsional_Energy-OPLS-2005>
5.11100387573242

> <r_mmod_Van_der_Waal_Energy-OPLS-2005>
156.665588378906

> <r_mmod_Electrostatic_Energy-OPLS-2005>
-353.999114990234

> <r_mmod_Solvation_Energy-OPLS-2005>
-489.502716064453

> <b_mmod_Minimization_Converged-OPLS-2005>
0

> <r_mmod_RMS_Derivative-OPLS-2005>
0.672048687934875

$$$$
15
                    3D
 Structure written by MMmdl.
155163  0  0  1  0            999 V2000
  -30.7093  -14.5120   20.5475 C   0  0  0  0  0  0
  -30.4169  -12.3252   19.4370 C   0  0  0  0  0  0
  -29.4955  -12.5004   18.2128 C   0  0  0  0  0  0
  -28.0178  -12.3577   18.6256 C   0  0  0  0  0  0
  -27.6568  -13.2149   19.8686 C   0  0  2  0  0  0
  -28.7004  -13.0395   20.9961 C   0  0  0  0  0  0
  -25.2567  -13.8177   20.5685 C   0  0  0  0  0  0
  -24.1830  -13.0442   20.9189 C   0  0  0  0  0  0
  -24.6393  -11.6912   20.8736 C   0  0  0  0  0  0
  -23.9061  -10.4293   21.0402 C   0  0  0  0  0  0
  -24.3613   -9.4208   21.9179 C   0  0  0  0  0  0
  -23.6291   -8.2242   22.0754 C   0  0  0  0  0  0
  -22.4271   -8.0279   21.3546 C   0  0  0  0  0  0
  -21.9905   -9.0252   20.4647 C   0  0  0  0  0  0
  -22.7234  -10.2132   20.3051 C   0  0  0  0  0  0
  -21.6853   -6.0730   22.5277 C   0  0  0  0  0  0
  -21.4012   -6.5633   23.8210 C   0  0  0  0  0  0
  -21.3656   -5.6789   24.9173 C   0  0  0  0  0  0
  -21.6047   -4.3052   24.7227 C   0  0  0  0  0  0
  -21.8820   -3.8144   23.4347 C   0  0  0  0  0  0
  -21.9194   -4.6959   22.3401 C   0  0  0  0  0  0
  -22.7852  -13.5234   21.1851 C   0  0  0  0  0  0
  -22.1666   -4.2144   21.0979 F   0  0  0  0  0  0
  -21.5625   -3.4536   25.7738 F   0  0  0  0  0  0
  -30.0265  -13.3372   20.4343 N   0  0  0  0  0  0
  -26.3001  -12.9360   20.3345 N   0  0  0  0  0  0
  -25.9323  -11.6512   20.5766 N   0  0  0  0  0  0
  -22.0492  -12.8224   22.0404 N   0  0  0  0  0  0
  -25.4290  -15.1894   20.4083 N   0  0  0  0  0  0
  -31.8477  -14.6393   20.0904 O   0  0  0  0  0  0
  -21.6641   -6.8873   21.4239 O   0  0  0  0  0  0
  -22.3540  -14.5541   20.6699 O   0  0  0  0  0  0
  -24.6179  -31.8661   23.2092 C   0  0  0  0  0  0
  -25.9061  -32.4812   23.8392 C   0  0  1  0  0  0
  -27.2253  -27.4086   20.1003 C   0  0  0  0  0  0
  -25.5906  -33.8610   24.2323 N   0  0  0  0  0  0
  -23.4075  -30.4920   21.5494 C   0  0  2  0  0  0
  -24.8549  -28.9611   20.1078 C   0  0  0  0  0  0
  -22.7429  -29.4655   22.4961 C   0  0  0  0  0  0
  -18.0275  -28.1378   22.8489 C   0  0  0  0  0  0
  -24.1485  -36.7306   23.2640 C   0  0  0  0  0  0
  -25.9408  -30.8253   21.3671 C   0  0  0  0  0  0
  -26.0186  -29.4602   20.7090 C   0  0  0  0  0  0
  -27.2111  -28.6918   20.7020 C   0  0  0  0  0  0
  -26.0484  -26.9413   19.4753 C   0  0  0  0  0  0
  -24.8664  -27.7025   19.4846 C   0  0  0  0  0  0
  -23.6172  -29.8290   20.1622 C   0  0  0  0  0  0
  -25.4107  -36.3106   24.0341 C   0  0  1  0  0  0
  -20.5870  -28.3671   23.1304 C   0  0  2  0  0  0
  -20.6763  -26.9403   22.5412 C   0  0  0  0  0  0
  -19.5741  -26.6385   21.5206 C   0  0  0  0  0  0
  -18.1921  -26.7926   22.1618 C   0  0  0  0  0  0
  -19.1526  -28.8840   23.2892 C   0  0  0  0  0  0
  -18.9454  -30.1445   23.8906 C   0  0  0  0  0  0
  -17.6456  -30.6586   24.0562 C   0  0  0  0  0  0
  -25.9035  -34.9471   23.5129 C   0  0  0  0  0  0
  -16.5345  -29.9087   23.6330 C   0  0  0  0  0  0
  -16.7265  -28.6502   23.0354 C   0  0  0  0  0  0
  -26.4476  -31.6596   25.0728 C   0  0  0  0  0  0
  -25.3739  -31.3708   26.1475 C   0  0  0  0  0  0
  -27.0302  -30.3032   24.6121 C   0  0  0  0  0  0
  -27.6055  -32.4311   25.7489 C   0  0  0  0  0  0
  -27.5581  -37.1806   24.8467 C   0  0  0  0  0  0
  -21.4150  -29.3038   22.3707 N   0  0  0  0  0  0
  -26.4291  -37.3793   23.9414 N   0  0  0  0  0  0
  -24.6738  -31.0750   22.1000 N   0  0  0  0  0  0
  -23.4192  -28.8188   23.3003 O   0  0  0  0  0  0
  -28.3278  -26.5725   20.1508 O   0  0  0  0  0  0
  -26.5591  -34.8926   22.4687 O   0  0  0  0  0  0
  -23.5364  -32.1417   23.7474 O   0  0  0  0  0  0
  -31.2096  -19.6981   21.3676 C   0  0  0  0  0  0
  -29.4631  -18.0055   21.1222 C   0  0  0  0  0  0
  -31.7974  -17.3296   21.2464 C   0  0  0  0  0  0
  -29.8407  -19.3778   21.2534 C   0  0  0  0  0  0
  -32.1823  -18.6826   21.3622 C   0  0  0  0  0  0
  -30.4328  -16.9603   21.1152 C   0  0  0  0  0  0
  -28.7126  -24.1583   20.4299 C   0  0  0  0  0  0
  -28.0734  -25.3249   20.7059 C   0  0  0  0  0  0
  -28.8408  -20.4686   21.3741 C   0  0  0  0  0  0
  -28.2480  -22.9206   21.0765 C   0  0  0  0  0  0
  -33.5294  -19.0256   21.4902 N   0  0  0  0  0  0
  -30.0137  -15.5759   21.0253 N   0  0  0  0  0  0
  -29.0604  -21.7269   20.8794 N   0  0  0  0  0  0
  -27.7216  -20.1750   22.0467 N   0  3  0  0  0  0
  -27.2207  -22.8542   21.7652 O   0  0  0  0  0  0
  -31.4630  -12.4074   19.1363 H   0  0  0  0  0  0
  -30.3093  -11.3245   19.8575 H   0  0  0  0  0  0
  -29.7426  -11.7639   17.4468 H   0  0  0  0  0  0
  -29.6615  -13.4795   17.7606 H   0  0  0  0  0  0
  -27.8353  -11.3039   18.8391 H   0  0  0  0  0  0
  -27.3662  -12.6142   17.7894 H   0  0  0  0  0  0
  -27.6882  -14.2561   19.5472 H   0  0  0  0  0  0
  -28.6826  -12.0173   21.3762 H   0  0  0  0  0  0
  -28.4624  -13.6755   21.8499 H   0  0  0  0  0  0
  -25.2756   -9.5686   22.4750 H   0  0  0  0  0  0
  -24.0004   -7.4631   22.7471 H   0  0  0  0  0  0
  -21.0838   -8.8767   19.8955 H   0  0  0  0  0  0
  -22.3689  -10.9665   19.6157 H   0  0  0  0  0  0
  -21.2003   -7.6141   23.9710 H   0  0  0  0  0  0
  -21.1476   -6.0519   25.9076 H   0  0  0  0  0  0
  -22.0601   -2.7607   23.2848 H   0  0  0  0  0  0
  -22.4098  -11.9878   22.4787 H   0  0  0  0  0  0
  -21.1109  -13.1257   22.2608 H   0  0  0  0  0  0
  -24.6593  -15.8430   20.5040 H   0  0  0  0  0  0
  -26.2712  -15.6212   20.0509 H   0  0  0  0  0  0
  -26.7136  -32.5518   23.1155 H   0  0  0  0  0  0
  -25.0067  -33.9766   25.0473 H   0  0  0  0  0  0
  -22.6980  -31.3107   21.4116 H   0  0  0  0  0  0
  -23.3747  -35.9639   23.3318 H   0  0  0  0  0  0
  -24.3577  -36.8902   22.2052 H   0  0  0  0  0  0
  -23.7239  -37.6519   23.6637 H   0  0  0  0  0  0
  -26.0602  -31.5938   20.6019 H   0  0  0  0  0  0
  -26.8261  -30.8741   21.9892 H   0  0  0  0  0  0
  -28.1053  -29.0631   21.1827 H   0  0  0  0  0  0
  -26.0396  -25.9700   19.0009 H   0  0  0  0  0  0
  -23.9737  -27.3140   19.0140 H   0  0  0  0  0  0
  -23.7241  -30.6058   19.4039 H   0  0  0  0  0  0
  -22.7403  -29.2501   19.8662 H   0  0  0  0  0  0
  -25.1279  -36.1972   25.0834 H   0  0  0  0  0  0
  -20.9966  -28.3238   24.1421 H   0  0  0  0  0  0
  -20.5659  -26.2278   23.3601 H   0  0  0  0  0  0
  -21.6635  -26.7440   22.1214 H   0  0  0  0  0  0
  -19.6904  -25.6297   21.1234 H   0  0  0  0  0  0
  -19.6683  -27.3196   20.6737 H   0  0  0  0  0  0
  -17.4192  -26.6679   21.4017 H   0  0  0  0  0  0
  -18.0319  -26.0062   22.9010 H   0  0  0  0  0  0
  -19.7930  -30.7251   24.2283 H   0  0  0  0  0  0
  -17.5017  -31.6269   24.5157 H   0  0  0  0  0  0
  -15.5349  -30.2994   23.7649 H   0  0  0  0  0  0
  -15.8662  -28.0824   22.7071 H   0  0  0  0  0  0
  -24.5910  -30.7055   25.7813 H   0  0  0  0  0  0
  -24.8927  -32.2864   26.4926 H   0  0  0  0  0  0
  -25.8091  -30.8875   27.0232 H   0  0  0  0  0  0
  -26.2846  -29.6800   24.1172 H   0  0  0  0  0  0
  -27.4055  -29.7267   25.4586 H   0  0  0  0  0  0
  -27.8693  -30.4336   23.9284 H   0  0  0  0  0  0
  -27.2682  -33.3606   26.2086 H   0  0  0  0  0  0
  -28.3855  -32.6879   25.0307 H   0  0  0  0  0  0
  -28.0736  -31.8422   26.5387 H   0  0  0  0  0  0
  -28.2606  -38.0097   24.7515 H   0  0  0  0  0  0
  -28.1064  -36.2629   24.6283 H   0  0  0  0  0  0
  -27.2301  -37.1459   25.8872 H   0  0  0  0  0  0
  -20.9309  -29.8767   21.6937 H   0  0  0  0  0  0
  -26.0180  -38.2872   24.1412 H   0  0  0  0  0  0
  -31.5172  -20.7268   21.4963 H   0  0  0  0  0  0
  -28.4153  -17.7512   21.0397 H   0  0  0  0  0  0
  -32.5720  -16.5796   21.2789 H   0  0  0  0  0  0
  -29.5355  -24.1401   19.7311 H   0  0  0  0  0  0
  -27.2549  -25.3667   21.4160 H   0  0  0  0  0  0
  -33.7702  -19.9379   21.8654 H   0  0  0  0  0  0
  -34.1955  -18.3043   21.7504 H   0  0  0  0  0  0
  -29.0549  -15.3783   21.2660 H   0  0  0  0  0  0
  -29.8947  -21.7654   20.3162 H   0  0  0  0  0  0
  -27.6041  -19.2808   22.4951 H   0  0  0  0  0  0
  -27.0519  -20.9162   22.2134 H   0  0  0  0  0  0
  1 25  1  0  0  0
  1 30  2  0  0  0
  1 82  1  0  0  0
  2  3  1  0  0  0
  2 25  1  0  0  0
  2 86  1  0  0  0
  2 87  1  0  0  0
  3  4  1  0  0  0
  3 88  1  0  0  0
  3 89  1  0  0  0
  4  5  1  0  0  0
  4 90  1  0  0  0
  4 91  1  0  0  0
  5  6  1  0  0  0
  5 26  1  0  0  0
  5 92  1  0  0  0
  6 25  1  0  0  0
  6 93  1  0  0  0
  6 94  1  0  0  0
  7  8  2  0  0  0
  7 26  1  0  0  0
  7 29  1  0  0  0
  8  9  1  0  0  0
  8 22  1  0  0  0
  9 10  1  0  0  0
  9 27  2  0  0  0
 10 11  2  0  0  0
 10 15  1  0  0  0
 11 12  1  0  0  0
 11 95  1  0  0  0
 12 13  2  0  0  0
 12 96  1  0  0  0
 13 14  1  0  0  0
 13 31  1  0  0  0
 14 15  2  0  0  0
 14 97  1  0  0  0
 15 98  1  0  0  0
 16 17  2  0  0  0
 16 21  1  0  0  0
 16 31  1  0  0  0
 17 18  1  0  0  0
 17 99  1  0  0  0
 18 19  2  0  0  0
 18100  1  0  0  0
 19 20  1  0  0  0
 19 24  1  0  0  0
 20 21  2  0  0  0
 20101  1  0  0  0
 21 23  1  0  0  0
 22 28  1  0  0  0
 22 32  2  0  0  0
 26 27  1  0  0  0
 28102  1  0  0  0
 28103  1  0  0  0
 29104  1  0  0  0
 29105  1  0  0  0
 33 34  1  0  0  0
 33 66  1  0  0  0
 33 70  2  0  0  0
 34 36  1  0  0  0
 34 59  1  0  0  0
 34106  1  0  0  0
 35 44  2  0  0  0
 35 45  1  0  0  0
 35 68  1  0  0  0
 36 56  1  0  0  0
 36107  1  0  0  0
 37 39  1  0  0  0
 37 47  1  0  0  0
 37 66  1  0  0  0
 37108  1  0  0  0
 38 43  2  0  0  0
 38 46  1  0  0  0
 38 47  1  0  0  0
 39 64  1  0  0  0
 39 67  2  0  0  0
 40 52  1  0  0  0
 40 53  2  0  0  0
 40 58  1  0  0  0
 41109  1  0  0  0
 41110  1  0  0  0
 41111  1  0  0  0
 41 48  1  0  0  0
 42 43  1  0  0  0
 42 66  1  0  0  0
 42112  1  0  0  0
 42113  1  0  0  0
 43 44  1  0  0  0
 44114  1  0  0  0
 45 46  2  0  0  0
 45115  1  0  0  0
 46116  1  0  0  0
 47117  1  0  0  0
 47118  1  0  0  0
 48 56  1  0  0  0
 48 65  1  0  0  0
 48119  1  0  0  0
 49 50  1  0  0  0
 49 53  1  0  0  0
 49 64  1  0  0  0
 49120  1  0  0  0
 50 51  1  0  0  0
 50121  1  0  0  0
 50122  1  0  0  0
 51 52  1  0  0  0
 51123  1  0  0  0
 51124  1  0  0  0
 52125  1  0  0  0
 52126  1  0  0  0
 53 54  1  0  0  0
 54 55  2  0  0  0
 54127  1  0  0  0
 55 57  1  0  0  0
 55128  1  0  0  0
 56 69  2  0  0  0
 57 58  2  0  0  0
 57129  1  0  0  0
 58130  1  0  0  0
 59 60  1  0  0  0
 59 61  1  0  0  0
 59 62  1  0  0  0
 60131  1  0  0  0
 60132  1  0  0  0
 60133  1  0  0  0
 61134  1  0  0  0
 61135  1  0  0  0
 61136  1  0  0  0
 62137  1  0  0  0
 62138  1  0  0  0
 62139  1  0  0  0
 63 65  1  0  0  0
 63140  1  0  0  0
 63141  1  0  0  0
 63142  1  0  0  0
 64143  1  0  0  0
 65144  1  0  0  0
 68 78  1  0  0  0
 71 74  2  0  0  0
 71 75  1  0  0  0
 71145  1  0  0  0
 72 74  1  0  0  0
 72 76  2  0  0  0
 72146  1  0  0  0
 73 75  2  0  0  0
 73 76  1  0  0  0
 73147  1  0  0  0
 74 79  1  0  0  0
 75 81  1  0  0  0
 76 82  1  0  0  0
 77 78  2  0  0  0
 77 80  1  0  0  0
 77148  1  0  0  0
 78149  1  0  0  0
 79 83  1  0  0  0
 79 84  2  0  0  0
 80 83  1  0  0  0
 80 85  2  0  0  0
 81150  1  0  0  0
 81151  1  0  0  0
 82152  1  0  0  0
 83153  1  0  0  0
 84154  1  0  0  0
 84155  1  0  0  0
M  CHG  1  84   1
M  ISO  4   1 100  68 101  78 101  82 100
M  END
> <chiral flag>
0

> <version>
0

> <s_m_source_file>
/data/baiqing/PycharmProjects/Reinvent-master-3.2/result/LINK_invent/BTK/process_docking_weight1_custom_product_contain_oxygen_bond_distance_aromatic_linkinvent_7_9_3/rearranged_h_0088.sdf

> <i_m_source_file_index>
16

> <r_mmod_Potential_Energy-OPLS-2005>
-339.555053710938

> <r_mmod_Stretch_Energy-OPLS-2005>
48.6058235168457

> <r_mmod_Bend_Energy-OPLS-2005>
111.173072814941

> <r_mmod_Torsional_Energy-OPLS-2005>
215.362045288086

> <r_mmod_Improper_Torsional_Energy-OPLS-2005>
7.65128421783447

> <r_mmod_Van_der_Waal_Energy-OPLS-2005>
175.167541503906

> <r_mmod_Electrostatic_Energy-OPLS-2005>
-458.52294921875

> <r_mmod_Solvation_Energy-OPLS-2005>
-460.893402099609

> <b_mmod_Minimization_Converged-OPLS-2005>
0

> <r_mmod_RMS_Derivative-OPLS-2005>
0.741513729095459

$$$$
16
                    3D
 Structure written by MMmdl.
154162  0  0  1  0            999 V2000
  -30.6855  -14.6438   20.4970 C   0  0  0  0  0  0
  -30.4203  -12.4086   19.4507 C   0  0  0  0  0  0
  -29.5008  -12.4970   18.2161 C   0  0  0  0  0  0
  -28.0267  -12.3335   18.6346 C   0  0  0  0  0  0
  -27.6410  -13.2279   19.8436 C   0  0  2  0  0  0
  -28.6881  -13.1520   20.9766 C   0  0  0  0  0  0
  -25.2497  -13.8183   20.5659 C   0  0  0  0  0  0
  -24.1801  -13.0435   20.9219 C   0  0  0  0  0  0
  -24.6391  -11.6913   20.8757 C   0  0  0  0  0  0
  -23.9061  -10.4295   21.0419 C   0  0  0  0  0  0
  -24.3615   -9.4210   21.9191 C   0  0  0  0  0  0
  -23.6297   -8.2240   22.0753 C   0  0  0  0  0  0
  -22.4272   -8.0279   21.3552 C   0  0  0  0  0  0
  -21.9909   -9.0252   20.4649 C   0  0  0  0  0  0
  -22.7237  -10.2135   20.3064 C   0  0  0  0  0  0
  -21.6856   -6.0733   22.5279 C   0  0  0  0  0  0
  -21.4014   -6.5637   23.8212 C   0  0  0  0  0  0
  -21.3662   -5.6788   24.9172 C   0  0  0  0  0  0
  -21.6044   -4.3050   24.7224 C   0  0  0  0  0  0
  -21.8814   -3.8143   23.4342 C   0  0  0  0  0  0
  -21.9193   -4.6961   22.3400 C   0  0  0  0  0  0
  -22.7823  -13.5226   21.1860 C   0  0  0  0  0  0
  -22.1659   -4.2149   21.0977 F   0  0  0  0  0  0
  -21.5634   -3.4540   25.7739 F   0  0  0  0  0  0
  -29.9929  -13.4682   20.3868 N   0  0  0  0  0  0
  -26.2927  -12.9389   20.3225 N   0  0  0  0  0  0
  -25.9315  -11.6537   20.5728 N   0  0  0  0  0  0
  -22.0453  -12.8240   22.0426 N   0  0  0  0  0  0
  -25.4140  -15.1903   20.4014 N   0  0  0  0  0  0
  -31.8905  -14.6937   20.2260 O   0  0  0  0  0  0
  -21.6637   -6.8877   21.4241 O   0  0  0  0  0  0
  -22.3529  -14.5536   20.6695 O   0  0  0  0  0  0
  -24.6261  -31.8597   23.2033 C   0  0  0  0  0  0
  -25.9114  -32.4774   23.8358 C   0  0  1  0  0  0
  -27.2229  -27.3168   20.1104 C   0  0  0  0  0  0
  -25.5933  -33.8574   24.2288 N   0  0  0  0  0  0
  -23.4180  -30.4840   21.5467 C   0  0  2  0  0  0
  -24.8617  -28.9398   20.1122 C   0  0  0  0  0  0
  -22.7475  -29.4619   22.4948 C   0  0  0  0  0  0
  -18.0284  -28.1382   22.8480 C   0  0  0  0  0  0
  -24.1486  -36.7293   23.2636 C   0  0  0  0  0  0
  -25.9586  -30.7906   21.3736 C   0  0  0  0  0  0
  -26.0304  -29.4176   20.7155 C   0  0  0  0  0  0
  -27.2085  -28.6159   20.7081 C   0  0  0  0  0  0
  -26.0208  -26.8855   19.4997 C   0  0  0  0  0  0
  -24.8587  -27.6789   19.4992 C   0  0  0  0  0  0
  -23.6313  -29.8207   20.1612 C   0  0  0  0  0  0
  -25.4109  -36.3080   24.0330 C   0  0  1  0  0  0
  -20.5883  -28.3687   23.1285 C   0  0  2  0  0  0
  -20.6771  -26.9411   22.5420 C   0  0  0  0  0  0
  -19.5753  -26.6381   21.5214 C   0  0  0  0  0  0
  -18.1929  -26.7924   22.1616 C   0  0  0  0  0  0
  -19.1540  -28.8850   23.2873 C   0  0  0  0  0  0
  -18.9461  -30.1454   23.8889 C   0  0  0  0  0  0
  -17.6464  -30.6578   24.0568 C   0  0  0  0  0  0
  -25.9052  -34.9449   23.5109 C   0  0  0  0  0  0
  -16.5353  -29.9083   23.6330 C   0  0  0  0  0  0
  -16.7273  -28.6503   23.0338 C   0  0  0  0  0  0
  -26.4500  -31.6578   25.0726 C   0  0  0  0  0  0
  -25.3736  -31.3719   26.1461 C   0  0  0  0  0  0
  -27.0337  -30.3001   24.6170 C   0  0  0  0  0  0
  -27.6058  -32.4308   25.7494 C   0  0  0  0  0  0
  -27.5583  -37.1788   24.8452 C   0  0  0  0  0  0
  -21.4192  -29.3039   22.3691 N   0  0  0  0  0  0
  -26.4280  -37.3783   23.9422 N   0  0  0  0  0  0
  -24.6865  -31.0613   22.0985 N   0  0  0  0  0  0
  -23.4205  -28.8163   23.3030 O   0  0  0  0  0  0
  -28.3666  -26.5046   20.1797 O   0  0  0  0  0  0
  -26.5623  -34.8918   22.4677 O   0  0  0  0  0  0
  -23.5431  -32.1397   23.7370 O   0  0  0  0  0  0
  -29.9285  -19.5477   21.7083 C   0  0  0  0  0  0
  -29.5465  -20.9069   21.4698 C   0  0  0  0  0  0
  -29.8417  -18.5343   20.7059 C   0  0  0  0  0  0
  -29.0724  -21.3278   20.1978 C   0  0  0  0  0  0
  -28.9516  -20.3099   19.2102 C   0  0  0  0  0  0
  -29.3045  -18.9465   19.4605 C   0  0  0  0  0  0
  -30.5067  -17.1818   20.8846 C   0  0  0  0  0  0
  -28.7404  -23.9175   20.4115 C   0  0  0  0  0  0
  -28.4669  -25.1884   19.5057 C   0  0  0  0  0  0
  -28.5315  -20.6555   17.9209 N   0  0  0  0  0  0
  -28.7320  -22.6943   19.7968 N   0  0  0  0  0  0
  -29.9588  -15.9266   20.6644 N   0  0  0  0  0  0
  -31.7840  -17.2660   21.2866 N   0  3  0  0  0  0
  -28.9587  -24.0526   21.6186 O   0  0  0  0  0  0
  -29.2060  -18.0537   18.4430 F   0  0  0  0  0  0
  -31.4633  -12.5119   19.1483 H   0  0  0  0  0  0
  -30.3423  -11.4277   19.9212 H   0  0  0  0  0  0
  -29.7731  -11.7322   17.4872 H   0  0  0  0  0  0
  -29.6394  -13.4572   17.7167 H   0  0  0  0  0  0
  -27.8733  -11.2847   18.8886 H   0  0  0  0  0  0
  -27.3700  -12.5385   17.7899 H   0  0  0  0  0  0
  -27.6389  -14.2504   19.4673 H   0  0  0  0  0  0
  -28.7053  -12.1590   21.4268 H   0  0  0  0  0  0
  -28.4391  -13.8477   21.7789 H   0  0  0  0  0  0
  -25.2762   -9.5704   22.4761 H   0  0  0  0  0  0
  -24.0017   -7.4639   22.7478 H   0  0  0  0  0  0
  -21.0837   -8.8772   19.8961 H   0  0  0  0  0  0
  -22.3691  -10.9672   19.6169 H   0  0  0  0  0  0
  -21.2010   -7.6143   23.9714 H   0  0  0  0  0  0
  -21.1487   -6.0516   25.9075 H   0  0  0  0  0  0
  -22.0597   -2.7607   23.2832 H   0  0  0  0  0  0
  -22.4047  -11.9910   22.4843 H   0  0  0  0  0  0
  -21.1067  -13.1278   22.2602 H   0  0  0  0  0  0
  -24.6212  -15.8190   20.4761 H   0  0  0  0  0  0
  -26.2152  -15.6198   19.9588 H   0  0  0  0  0  0
  -26.7180  -32.5443   23.1103 H   0  0  0  0  0  0
  -25.0079  -33.9719   25.0432 H   0  0  0  0  0  0
  -22.7106  -31.3040   21.4057 H   0  0  0  0  0  0
  -23.3754  -35.9614   23.3265 H   0  0  0  0  0  0
  -24.3584  -36.8956   22.2057 H   0  0  0  0  0  0
  -23.7228  -37.6480   23.6682 H   0  0  0  0  0  0
  -26.0875  -31.5540   20.6054 H   0  0  0  0  0  0
  -26.8402  -30.8383   22.0010 H   0  0  0  0  0  0
  -28.1052  -28.9795   21.1897 H   0  0  0  0  0  0
  -25.9162  -25.9184   19.0386 H   0  0  0  0  0  0
  -23.9588  -27.2999   19.0348 H   0  0  0  0  0  0
  -23.7557  -30.5971   19.4059 H   0  0  0  0  0  0
  -22.7499  -29.2537   19.8562 H   0  0  0  0  0  0
  -25.1282  -36.1920   25.0821 H   0  0  0  0  0  0
  -20.9960  -28.3266   24.1411 H   0  0  0  0  0  0
  -20.5667  -26.2306   23.3626 H   0  0  0  0  0  0
  -21.6645  -26.7445   22.1227 H   0  0  0  0  0  0
  -19.6924  -25.6293   21.1246 H   0  0  0  0  0  0
  -19.6689  -27.3190   20.6738 H   0  0  0  0  0  0
  -17.4212  -26.6681   21.4004 H   0  0  0  0  0  0
  -18.0317  -26.0057   22.9002 H   0  0  0  0  0  0
  -19.7942  -30.7272   24.2249 H   0  0  0  0  0  0
  -17.5019  -31.6248   24.5192 H   0  0  0  0  0  0
  -15.5352  -30.2983   23.7647 H   0  0  0  0  0  0
  -15.8672  -28.0823   22.7043 H   0  0  0  0  0  0
  -24.5894  -30.7087   25.7798 H   0  0  0  0  0  0
  -24.8954  -32.2894   26.4897 H   0  0  0  0  0  0
  -25.8071  -30.8888   27.0229 H   0  0  0  0  0  0
  -26.2909  -29.6744   24.1218 H   0  0  0  0  0  0
  -27.4060  -29.7259   25.4663 H   0  0  0  0  0  0
  -27.8766  -30.4280   23.9376 H   0  0  0  0  0  0
  -27.2666  -33.3597   26.2086 H   0  0  0  0  0  0
  -28.3861  -32.6888   25.0322 H   0  0  0  0  0  0
  -28.0735  -31.8429   26.5401 H   0  0  0  0  0  0
  -28.2565  -38.0121   24.7556 H   0  0  0  0  0  0
  -28.1115  -36.2658   24.6192 H   0  0  0  0  0  0
  -27.2319  -37.1344   25.8858 H   0  0  0  0  0  0
  -20.9377  -29.8767   21.6902 H   0  0  0  0  0  0
  -26.0153  -38.2847   24.1460 H   0  0  0  0  0  0
  -30.3378  -19.2942   22.6779 H   0  0  0  0  0  0
  -29.6609  -21.6288   22.2654 H   0  0  0  0  0  0
  -27.6627  -24.9611   18.8141 H   0  0  0  0  0  0
  -29.3393  -25.2747   18.8581 H   0  0  0  0  0  0
  -29.1628  -21.3028   17.4620 H   0  0  0  0  0  0
  -28.4637  -19.8284   17.3361 H   0  0  0  0  0  0
  -28.4482  -22.7267   18.8268 H   0  0  0  0  0  0
  -28.9537  -15.9536   20.6614 H   0  0  0  0  0  0
  -32.2152  -18.1652   21.4398 H   0  0  0  0  0  0
  -32.3731  -16.4465   21.1998 H   0  0  0  0  0  0
  1 25  1  0  0  0
  1 30  2  0  0  0
  1 82  1  0  0  0
  2  3  1  0  0  0
  2 25  1  0  0  0
  2 86  1  0  0  0
  2 87  1  0  0  0
  3  4  1  0  0  0
  3 88  1  0  0  0
  3 89  1  0  0  0
  4  5  1  0  0  0
  4 90  1  0  0  0
  4 91  1  0  0  0
  5  6  1  0  0  0
  5 26  1  0  0  0
  5 92  1  0  0  0
  6 25  1  0  0  0
  6 93  1  0  0  0
  6 94  1  0  0  0
  7  8  2  0  0  0
  7 26  1  0  0  0
  7 29  1  0  0  0
  8  9  1  0  0  0
  8 22  1  0  0  0
  9 10  1  0  0  0
  9 27  2  0  0  0
 10 11  2  0  0  0
 10 15  1  0  0  0
 11 12  1  0  0  0
 11 95  1  0  0  0
 12 13  2  0  0  0
 12 96  1  0  0  0
 13 14  1  0  0  0
 13 31  1  0  0  0
 14 15  2  0  0  0
 14 97  1  0  0  0
 15 98  1  0  0  0
 16 17  2  0  0  0
 16 21  1  0  0  0
 16 31  1  0  0  0
 17 18  1  0  0  0
 17 99  1  0  0  0
 18 19  2  0  0  0
 18100  1  0  0  0
 19 20  1  0  0  0
 19 24  1  0  0  0
 20 21  2  0  0  0
 20101  1  0  0  0
 21 23  1  0  0  0
 22 28  1  0  0  0
 22 32  2  0  0  0
 26 27  1  0  0  0
 28102  1  0  0  0
 28103  1  0  0  0
 29104  1  0  0  0
 29105  1  0  0  0
 33 34  1  0  0  0
 33 66  1  0  0  0
 33 70  2  0  0  0
 34 36  1  0  0  0
 34 59  1  0  0  0
 34106  1  0  0  0
 35 44  2  0  0  0
 35 45  1  0  0  0
 35 68  1  0  0  0
 36 56  1  0  0  0
 36107  1  0  0  0
 37 39  1  0  0  0
 37 47  1  0  0  0
 37 66  1  0  0  0
 37108  1  0  0  0
 38 43  2  0  0  0
 38 46  1  0  0  0
 38 47  1  0  0  0
 39 64  1  0  0  0
 39 67  2  0  0  0
 40 52  1  0  0  0
 40 53  2  0  0  0
 40 58  1  0  0  0
 41109  1  0  0  0
 41110  1  0  0  0
 41111  1  0  0  0
 41 48  1  0  0  0
 42 43  1  0  0  0
 42 66  1  0  0  0
 42112  1  0  0  0
 42113  1  0  0  0
 43 44  1  0  0  0
 44114  1  0  0  0
 45 46  2  0  0  0
 45115  1  0  0  0
 46116  1  0  0  0
 47117  1  0  0  0
 47118  1  0  0  0
 48 56  1  0  0  0
 48 65  1  0  0  0
 48119  1  0  0  0
 49 50  1  0  0  0
 49 53  1  0  0  0
 49 64  1  0  0  0
 49120  1  0  0  0
 50 51  1  0  0  0
 50121  1  0  0  0
 50122  1  0  0  0
 51 52  1  0  0  0
 51123  1  0  0  0
 51124  1  0  0  0
 52125  1  0  0  0
 52126  1  0  0  0
 53 54  1  0  0  0
 54 55  2  0  0  0
 54127  1  0  0  0
 55 57  1  0  0  0
 55128  1  0  0  0
 56 69  2  0  0  0
 57 58  2  0  0  0
 57129  1  0  0  0
 58130  1  0  0  0
 59 60  1  0  0  0
 59 61  1  0  0  0
 59 62  1  0  0  0
 60131  1  0  0  0
 60132  1  0  0  0
 60133  1  0  0  0
 61134  1  0  0  0
 61135  1  0  0  0
 61136  1  0  0  0
 62137  1  0  0  0
 62138  1  0  0  0
 62139  1  0  0  0
 63 65  1  0  0  0
 63140  1  0  0  0
 63141  1  0  0  0
 63142  1  0  0  0
 64143  1  0  0  0
 65144  1  0  0  0
 68 79  1  0  0  0
 71 72  2  0  0  0
 71 73  1  0  0  0
 71145  1  0  0  0
 72 74  1  0  0  0
 72146  1  0  0  0
 73 76  2  0  0  0
 73 77  1  0  0  0
 74 75  2  0  0  0
 74 81  1  0  0  0
 75 76  1  0  0  0
 75 80  1  0  0  0
 76 85  1  0  0  0
 77 82  1  0  0  0
 77 83  2  0  0  0
 78 79  1  0  0  0
 78 81  1  0  0  0
 78 84  2  0  0  0
 79147  1  0  0  0
 79148  1  0  0  0
 80149  1  0  0  0
 80150  1  0  0  0
 81151  1  0  0  0
 82152  1  0  0  0
 83153  1  0  0  0
 83154  1  0  0  0
M  CHG  1  83   1
M  ISO  4   1 100  68 101  79 101  82 100
M  END
> <chiral flag>
0

> <version>
0

> <s_m_source_file>
/data/baiqing/PycharmProjects/Reinvent-master-3.2/result/LINK_invent/BTK/process_docking_weight1_custom_product_contain_oxygen_bond_distance_aromatic_linkinvent_7_9_3/rearranged_h_0088.sdf

> <i_m_source_file_index>
17

> <r_mmod_Potential_Energy-OPLS-2005>
-213.081466674805

> <r_mmod_Stretch_Energy-OPLS-2005>
80.9612197875977

> <r_mmod_Bend_Energy-OPLS-2005>
165.051177978516

> <r_mmod_Torsional_Energy-OPLS-2005>
240.675964355469

> <r_mmod_Improper_Torsional_Energy-OPLS-2005>
14.9005432128906

> <r_mmod_Van_der_Waal_Energy-OPLS-2005>
158.356964111328

> <r_mmod_Electrostatic_Energy-OPLS-2005>
-454.869781494141

> <r_mmod_Solvation_Energy-OPLS-2005>
-473.101287841797

> <b_mmod_Minimization_Converged-OPLS-2005>
0

> <r_mmod_RMS_Derivative-OPLS-2005>
1.86767375469208

$$$$
17
                    3D
 Structure written by MMmdl.
155164  0  0  1  0            999 V2000
  -30.6015  -14.7000   20.4639 C   0  0  0  0  0  0
  -30.4449  -12.4253   19.4544 C   0  0  0  0  0  0
  -29.5097  -12.5071   18.2265 C   0  0  0  0  0  0
  -28.0339  -12.3376   18.6429 C   0  0  0  0  0  0
  -27.6487  -13.2213   19.8595 C   0  0  2  0  0  0
  -28.7001  -13.1092   20.9868 C   0  0  0  0  0  0
  -25.2520  -13.8151   20.5748 C   0  0  0  0  0  0
  -24.1796  -13.0392   20.9182 C   0  0  0  0  0  0
  -24.6395  -11.6881   20.8726 C   0  0  0  0  0  0
  -23.9069  -10.4268   21.0392 C   0  0  0  0  0  0
  -24.3617   -9.4191   21.9178 C   0  0  0  0  0  0
  -23.6288   -8.2231   22.0753 C   0  0  0  0  0  0
  -22.4270   -8.0272   21.3543 C   0  0  0  0  0  0
  -21.9906   -9.0244   20.4643 C   0  0  0  0  0  0
  -22.7239  -10.2117   20.3046 C   0  0  0  0  0  0
  -21.6850   -6.0731   22.5281 C   0  0  0  0  0  0
  -21.4012   -6.5636   23.8213 C   0  0  0  0  0  0
  -21.3659   -5.6789   24.9176 C   0  0  0  0  0  0
  -21.6045   -4.3052   24.7227 C   0  0  0  0  0  0
  -21.8820   -3.8143   23.4348 C   0  0  0  0  0  0
  -21.9192   -4.6959   22.3404 C   0  0  0  0  0  0
  -22.7818  -13.5185   21.1853 C   0  0  0  0  0  0
  -22.1661   -4.2145   21.0982 F   0  0  0  0  0  0
  -21.5630   -3.4536   25.7740 F   0  0  0  0  0  0
  -30.0080  -13.4618   20.4111 N   0  0  0  0  0  0
  -26.2977  -12.9367   20.3349 N   0  0  0  0  0  0
  -25.9331  -11.6507   20.5758 N   0  0  0  0  0  0
  -22.0469  -12.8184   22.0420 N   0  0  0  0  0  0
  -25.4063  -15.1895   20.4341 N   0  0  0  0  0  0
  -31.7857  -14.8537   20.1509 O   0  0  0  0  0  0
  -21.6632   -6.8872   21.4242 O   0  0  0  0  0  0
  -22.3499  -14.5496   20.6713 O   0  0  0  0  0  0
  -24.6283  -31.8577   23.2012 C   0  0  0  0  0  0
  -25.9121  -32.4768   23.8349 C   0  0  1  0  0  0
  -27.2262  -27.2944   20.1237 C   0  0  0  0  0  0
  -25.5927  -33.8570   24.2272 N   0  0  0  0  0  0
  -23.4244  -30.4804   21.5435 C   0  0  2  0  0  0
  -24.8740  -28.9327   20.1101 C   0  0  0  0  0  0
  -22.7490  -29.4610   22.4922 C   0  0  0  0  0  0
  -18.0289  -28.1385   22.8484 C   0  0  0  0  0  0
  -24.1490  -36.7290   23.2640 C   0  0  0  0  0  0
  -25.9680  -30.7787   21.3795 C   0  0  0  0  0  0
  -26.0427  -29.4032   20.7236 C   0  0  0  0  0  0
  -27.2214  -28.5937   20.7259 C   0  0  0  0  0  0
  -26.0405  -26.8925   19.4682 C   0  0  0  0  0  0
  -24.8755  -27.6826   19.4732 C   0  0  0  0  0  0
  -23.6423  -29.8152   20.1591 C   0  0  0  0  0  0
  -25.4116  -36.3078   24.0328 C   0  0  1  0  0  0
  -20.5891  -28.3693   23.1274 C   0  0  2  0  0  0
  -20.6777  -26.9414   22.5408 C   0  0  0  0  0  0
  -19.5753  -26.6383   21.5211 C   0  0  0  0  0  0
  -18.1933  -26.7927   22.1624 C   0  0  0  0  0  0
  -19.1542  -28.8856   23.2874 C   0  0  0  0  0  0
  -18.9464  -30.1457   23.8893 C   0  0  0  0  0  0
  -17.6463  -30.6587   24.0561 C   0  0  0  0  0  0
  -25.9053  -34.9447   23.5102 C   0  0  0  0  0  0
  -16.5354  -29.9085   23.6330 C   0  0  0  0  0  0
  -16.7275  -28.6502   23.0352 C   0  0  0  0  0  0
  -26.4498  -31.6585   25.0728 C   0  0  0  0  0  0
  -25.3725  -31.3727   26.1450 C   0  0  0  0  0  0
  -27.0346  -30.3004   24.6204 C   0  0  0  0  0  0
  -27.6053  -32.4325   25.7500 C   0  0  0  0  0  0
  -27.5578  -37.1803   24.8466 C   0  0  0  0  0  0
  -21.4200  -29.3042   22.3665 N   0  0  0  0  0  0
  -26.4293  -37.3773   23.9405 N   0  0  0  0  0  0
  -24.6922  -31.0563   22.0979 N   0  0  0  0  0  0
  -23.4200  -28.8151   23.3013 O   0  0  0  0  0  0
  -28.3189  -26.4040   20.1586 O   0  0  0  0  0  0
  -26.5624  -34.8916   22.4670 O   0  0  0  0  0  0
  -23.5439  -32.1389   23.7320 O   0  0  0  0  0  0
  -28.5806  -19.3511   20.0991 C   0  0  0  0  0  0
  -30.9495  -18.0446   20.8167 C   0  0  0  0  0  0
  -29.6858  -20.1939   20.4120 C   0  0  0  0  0  0
  -28.6591  -17.9232   20.1311 C   0  0  0  0  0  0
  -29.8336  -17.2210   20.5149 C   0  0  0  0  0  0
  -30.8808  -19.4778   20.7590 C   0  0  0  0  0  0
  -28.9186  -23.9393   20.2466 C   0  0  0  0  0  0
  -28.5329  -22.5230   20.4874 C   0  0  0  0  0  0
  -28.0675  -25.0210   20.3773 C   0  0  0  0  0  0
  -30.3651  -23.9628   19.8562 C   0  0  0  0  0  0
  -30.8181  -22.5008   20.0733 C   0  0  0  0  0  0
  -29.6175  -21.6852   20.3284 N   0  0  0  0  0  0
  -27.5533  -17.1764   19.7306 N   0  0  0  0  0  0
  -29.7448  -15.7568   20.6585 N   0  0  0  0  0  0
  -27.3998  -22.1388   20.7936 O   0  0  0  0  0  0
  -32.0060  -20.1604   21.0761 F   0  0  0  0  0  0
  -31.4833  -12.5633   19.1479 H   0  0  0  0  0  0
  -30.3953  -11.4375   19.9151 H   0  0  0  0  0  0
  -29.7809  -11.7450   17.4947 H   0  0  0  0  0  0
  -29.6407  -13.4690   17.7279 H   0  0  0  0  0  0
  -27.8817  -11.2862   18.8894 H   0  0  0  0  0  0
  -27.3760  -12.5489   17.7990 H   0  0  0  0  0  0
  -27.6490  -14.2492   19.4992 H   0  0  0  0  0  0
  -28.7257  -12.0965   21.3917 H   0  0  0  0  0  0
  -28.4445  -13.7609   21.8241 H   0  0  0  0  0  0
  -25.2762   -9.5669   22.4752 H   0  0  0  0  0  0
  -23.9995   -7.4624   22.7475 H   0  0  0  0  0  0
  -21.0835   -8.8764   19.8952 H   0  0  0  0  0  0
  -22.3700  -10.9656   19.6153 H   0  0  0  0  0  0
  -21.2002   -7.6144   23.9716 H   0  0  0  0  0  0
  -21.1481   -6.0519   25.9079 H   0  0  0  0  0  0
  -22.0600   -2.7606   23.2849 H   0  0  0  0  0  0
  -22.4086  -11.9846   22.4808 H   0  0  0  0  0  0
  -21.1092  -13.1216   22.2637 H   0  0  0  0  0  0
  -24.6258  -15.8180   20.5846 H   0  0  0  0  0  0
  -26.2687  -15.6984   20.2421 H   0  0  0  0  0  0
  -26.7188  -32.5433   23.1095 H   0  0  0  0  0  0
  -25.0069  -33.9712   25.0413 H   0  0  0  0  0  0
  -22.7195  -31.3016   21.3987 H   0  0  0  0  0  0
  -23.3748  -35.9627   23.3311 H   0  0  0  0  0  0
  -24.3578  -36.8902   22.2052 H   0  0  0  0  0  0
  -23.7250  -37.6498   23.6656 H   0  0  0  0  0  0
  -26.1044  -31.5399   20.6101 H   0  0  0  0  0  0
  -26.8465  -30.8279   22.0112 H   0  0  0  0  0  0
  -28.1157  -28.9458   21.2205 H   0  0  0  0  0  0
  -26.0002  -25.9381   18.9626 H   0  0  0  0  0  0
  -23.9834  -27.3195   18.9817 H   0  0  0  0  0  0
  -23.7634  -30.5919   19.4032 H   0  0  0  0  0  0
  -22.7621  -29.2457   19.8552 H   0  0  0  0  0  0
  -25.1298  -36.1930   25.0821 H   0  0  0  0  0  0
  -20.9983  -28.3270   24.1395 H   0  0  0  0  0  0
  -20.5677  -26.2304   23.3611 H   0  0  0  0  0  0
  -21.6645  -26.7439   22.1203 H   0  0  0  0  0  0
  -19.6915  -25.6293   21.1244 H   0  0  0  0  0  0
  -19.6690  -27.3191   20.6739 H   0  0  0  0  0  0
  -17.4202  -26.6671   21.4027 H   0  0  0  0  0  0
  -18.0336  -26.0070   22.9022 H   0  0  0  0  0  0
  -19.7940  -30.7272   24.2263 H   0  0  0  0  0  0
  -17.5018  -31.6267   24.5162 H   0  0  0  0  0  0
  -15.5354  -30.2986   23.7657 H   0  0  0  0  0  0
  -15.8675  -28.0819   22.7071 H   0  0  0  0  0  0
  -24.5904  -30.7071   25.7777 H   0  0  0  0  0  0
  -24.8910  -32.2893   26.4867 H   0  0  0  0  0  0
  -25.8045  -30.8911   27.0231 H   0  0  0  0  0  0
  -26.2929  -29.6750   24.1222 H   0  0  0  0  0  0
  -27.4025  -29.7266   25.4721 H   0  0  0  0  0  0
  -27.8808  -30.4281   23.9449 H   0  0  0  0  0  0
  -27.2659  -33.3625   26.2074 H   0  0  0  0  0  0
  -28.3865  -32.6887   25.0331 H   0  0  0  0  0  0
  -28.0721  -31.8454   26.5420 H   0  0  0  0  0  0
  -28.2602  -38.0093   24.7503 H   0  0  0  0  0  0
  -28.1068  -36.2624   24.6306 H   0  0  0  0  0  0
  -27.2294  -37.1469   25.8869 H   0  0  0  0  0  0
  -20.9383  -29.8764   21.6871 H   0  0  0  0  0  0
  -26.0174  -38.2850   24.1396 H   0  0  0  0  0  0
  -27.6514  -19.8078   19.7918 H   0  0  0  0  0  0
  -31.8773  -17.5847   21.1223 H   0  0  0  0  0  0
  -27.0491  -24.8501   20.7003 H   0  0  0  0  0  0
  -30.9302  -24.6674   20.4675 H   0  0  0  0  0  0
  -30.4563  -24.2557   18.8096 H   0  0  0  0  0  0
  -31.4750  -22.4597   20.9425 H   0  0  0  0  0  0
  -31.3724  -22.1227   19.2134 H   0  0  0  0  0  0
  -26.7927  -17.7334   19.3552 H   0  0  0  0  0  0
  -27.7964  -16.4569   19.0591 H   0  0  0  0  0  0
  -28.7895  -15.4567   20.7809 H   0  0  0  0  0  0
  1 25  1  0  0  0
  1 30  2  0  0  0
  1 84  1  0  0  0
  2  3  1  0  0  0
  2 25  1  0  0  0
  2 87  1  0  0  0
  2 88  1  0  0  0
  3  4  1  0  0  0
  3 89  1  0  0  0
  3 90  1  0  0  0
  4  5  1  0  0  0
  4 91  1  0  0  0
  4 92  1  0  0  0
  5  6  1  0  0  0
  5 26  1  0  0  0
  5 93  1  0  0  0
  6 25  1  0  0  0
  6 94  1  0  0  0
  6 95  1  0  0  0
  7  8  2  0  0  0
  7 26  1  0  0  0
  7 29  1  0  0  0
  8  9  1  0  0  0
  8 22  1  0  0  0
  9 10  1  0  0  0
  9 27  2  0  0  0
 10 11  2  0  0  0
 10 15  1  0  0  0
 11 12  1  0  0  0
 11 96  1  0  0  0
 12 13  2  0  0  0
 12 97  1  0  0  0
 13 14  1  0  0  0
 13 31  1  0  0  0
 14 15  2  0  0  0
 14 98  1  0  0  0
 15 99  1  0  0  0
 16 17  2  0  0  0
 16 21  1  0  0  0
 16 31  1  0  0  0
 17 18  1  0  0  0
 17100  1  0  0  0
 18 19  2  0  0  0
 18101  1  0  0  0
 19 20  1  0  0  0
 19 24  1  0  0  0
 20 21  2  0  0  0
 20102  1  0  0  0
 21 23  1  0  0  0
 22 28  1  0  0  0
 22 32  2  0  0  0
 26 27  1  0  0  0
 28103  1  0  0  0
 28104  1  0  0  0
 29105  1  0  0  0
 29106  1  0  0  0
 33 34  1  0  0  0
 33 66  1  0  0  0
 33 70  2  0  0  0
 34 36  1  0  0  0
 34 59  1  0  0  0
 34107  1  0  0  0
 35 44  2  0  0  0
 35 45  1  0  0  0
 35 68  1  0  0  0
 36 56  1  0  0  0
 36108  1  0  0  0
 37 39  1  0  0  0
 37 47  1  0  0  0
 37 66  1  0  0  0
 37109  1  0  0  0
 38 43  2  0  0  0
 38 46  1  0  0  0
 38 47  1  0  0  0
 39 64  1  0  0  0
 39 67  2  0  0  0
 40 52  1  0  0  0
 40 53  2  0  0  0
 40 58  1  0  0  0
 41110  1  0  0  0
 41111  1  0  0  0
 41112  1  0  0  0
 41 48  1  0  0  0
 42 43  1  0  0  0
 42 66  1  0  0  0
 42113  1  0  0  0
 42114  1  0  0  0
 43 44  1  0  0  0
 44115  1  0  0  0
 45 46  2  0  0  0
 45116  1  0  0  0
 46117  1  0  0  0
 47118  1  0  0  0
 47119  1  0  0  0
 48 56  1  0  0  0
 48 65  1  0  0  0
 48120  1  0  0  0
 49 50  1  0  0  0
 49 53  1  0  0  0
 49 64  1  0  0  0
 49121  1  0  0  0
 50 51  1  0  0  0
 50122  1  0  0  0
 50123  1  0  0  0
 51 52  1  0  0  0
 51124  1  0  0  0
 51125  1  0  0  0
 52126  1  0  0  0
 52127  1  0  0  0
 53 54  1  0  0  0
 54 55  2  0  0  0
 54128  1  0  0  0
 55 57  1  0  0  0
 55129  1  0  0  0
 56 69  2  0  0  0
 57 58  2  0  0  0
 57130  1  0  0  0
 58131  1  0  0  0
 59 60  1  0  0  0
 59 61  1  0  0  0
 59 62  1  0  0  0
 60132  1  0  0  0
 60133  1  0  0  0
 60134  1  0  0  0
 61135  1  0  0  0
 61136  1  0  0  0
 61137  1  0  0  0
 62138  1  0  0  0
 62139  1  0  0  0
 62140  1  0  0  0
 63 65  1  0  0  0
 63141  1  0  0  0
 63142  1  0  0  0
 63143  1  0  0  0
 64144  1  0  0  0
 65145  1  0  0  0
 68 79  1  0  0  0
 71 73  2  0  0  0
 71 74  1  0  0  0
 71146  1  0  0  0
 72 75  1  0  0  0
 72 76  2  0  0  0
 72147  1  0  0  0
 73 76  1  0  0  0
 73 82  1  0  0  0
 74 75  2  0  0  0
 74 83  1  0  0  0
 75 84  1  0  0  0
 76 86  1  0  0  0
 77 78  1  0  0  0
 77 79  2  0  0  0
 77 80  1  0  0  0
 78 82  1  0  0  0
 78 85  2  0  0  0
 79148  1  0  0  0
 80 81  1  0  0  0
 80149  1  0  0  0
 80150  1  0  0  0
 81 82  1  0  0  0
 81151  1  0  0  0
 81152  1  0  0  0
 83153  1  0  0  0
 83154  1  0  0  0
 84155  1  0  0  0
M  ISO  4   1 100  68 101  79 101  84 100
M  END
> <chiral flag>
0

> <version>
0

> <s_m_source_file>
/data/baiqing/PycharmProjects/Reinvent-master-3.2/result/LINK_invent/BTK/process_docking_weight1_custom_product_contain_oxygen_bond_distance_aromatic_linkinvent_7_9_3/rearranged_h_0088.sdf

> <i_m_source_file_index>
18

> <r_mmod_Potential_Energy-OPLS-2005>
68.2719650268555

> <r_mmod_Stretch_Energy-OPLS-2005>
92.9431762695312

> <r_mmod_Bend_Energy-OPLS-2005>
172.03483581543

> <r_mmod_Torsional_Energy-OPLS-2005>
275.526794433594

> <r_mmod_Improper_Torsional_Energy-OPLS-2005>
11.4093322753906

> <r_mmod_Van_der_Waal_Energy-OPLS-2005>
147.960174560547

> <r_mmod_Electrostatic_Energy-OPLS-2005>
-493.079040527344

> <r_mmod_Solvation_Energy-OPLS-2005>
-206.793014526367

> <b_mmod_Minimization_Converged-OPLS-2005>
0

> <r_mmod_RMS_Derivative-OPLS-2005>
0.114138498902321

$$$$
18
                    3D
 Structure written by MMmdl.
153162  0  0  1  0            999 V2000
  -30.6038  -14.8628   20.4823 C   0  0  0  0  0  0
  -30.4371  -12.5474   19.4766 C   0  0  0  0  0  0
  -29.5128  -12.5312   18.2374 C   0  0  0  0  0  0
  -28.0408  -12.3376   18.6476 C   0  0  0  0  0  0
  -27.6375  -13.2372   19.8445 C   0  0  2  0  0  0
  -28.6827  -13.1749   20.9724 C   0  0  0  0  0  0
  -25.2504  -13.8198   20.5712 C   0  0  0  0  0  0
  -24.1801  -13.0437   20.9209 C   0  0  0  0  0  0
  -24.6401  -11.6916   20.8726 C   0  0  0  0  0  0
  -23.9081  -10.4288   21.0404 C   0  0  0  0  0  0
  -24.3628   -9.4202   21.9181 C   0  0  0  0  0  0
  -23.6296   -8.2244   22.0757 C   0  0  0  0  0  0
  -22.4276   -8.0286   21.3552 C   0  0  0  0  0  0
  -21.9915   -9.0259   20.4654 C   0  0  0  0  0  0
  -22.7250  -10.2133   20.3054 C   0  0  0  0  0  0
  -21.6853   -6.0738   22.5281 C   0  0  0  0  0  0
  -21.4022   -6.5644   23.8217 C   0  0  0  0  0  0
  -21.3653   -5.6792   24.9180 C   0  0  0  0  0  0
  -21.6043   -4.3058   24.7226 C   0  0  0  0  0  0
  -21.8816   -3.8147   23.4350 C   0  0  0  0  0  0
  -21.9194   -4.6965   22.3409 C   0  0  0  0  0  0
  -22.7822  -13.5215   21.1879 C   0  0  0  0  0  0
  -22.1666   -4.2154   21.0984 F   0  0  0  0  0  0
  -21.5623   -3.4542   25.7736 F   0  0  0  0  0  0
  -29.9648  -13.6220   20.3993 N   0  0  0  0  0  0
  -26.2922  -12.9405   20.3252 N   0  0  0  0  0  0
  -25.9329  -11.6544   20.5710 N   0  0  0  0  0  0
  -22.0477  -12.8194   22.0434 N   0  0  0  0  0  0
  -25.4230  -15.1927   20.4206 N   0  0  0  0  0  0
  -31.7834  -14.8992   20.1140 O   0  0  0  0  0  0
  -21.6647   -6.8878   21.4238 O   0  0  0  0  0  0
  -22.3493  -14.5518   20.6739 O   0  0  0  0  0  0
  -24.6430  -31.8489   23.1974 C   0  0  0  0  0  0
  -25.9223  -32.4720   23.8324 C   0  0  1  0  0  0
  -27.1989  -27.1606   20.1111 C   0  0  0  0  0  0
  -25.5980  -33.8524   24.2240 N   0  0  0  0  0  0
  -23.4417  -30.4785   21.5463 C   0  0  2  0  0  0
  -24.8835  -28.9266   20.1096 C   0  0  0  0  0  0
  -22.7563  -29.4575   22.4890 C   0  0  0  0  0  0
  -18.0307  -28.1395   22.8471 C   0  0  0  0  0  0
  -24.1487  -36.7264   23.2638 C   0  0  0  0  0  0
  -26.0018  -30.7261   21.3994 C   0  0  0  0  0  0
  -26.0658  -29.3450   20.7307 C   0  0  0  0  0  0
  -27.2208  -28.4759   20.7265 C   0  0  0  0  0  0
  -25.9799  -26.8577   19.4492 C   0  0  0  0  0  0
  -24.8528  -27.6933   19.4583 C   0  0  0  0  0  0
  -23.6626  -29.8274   20.1597 C   0  0  0  0  0  0
  -25.4115  -36.3053   24.0327 C   0  0  1  0  0  0
  -20.5918  -28.3710   23.1244 C   0  0  2  0  0  0
  -20.6788  -26.9411   22.5404 C   0  0  0  0  0  0
  -19.5755  -26.6373   21.5212 C   0  0  0  0  0  0
  -18.1940  -26.7937   22.1624 C   0  0  0  0  0  0
  -19.1564  -28.8871   23.2846 C   0  0  0  0  0  0
  -18.9478  -30.1470   23.8867 C   0  0  0  0  0  0
  -17.6468  -30.6581   24.0557 C   0  0  0  0  0  0
  -25.9069  -34.9422   23.5084 C   0  0  0  0  0  0
  -16.5361  -29.9069   23.6340 C   0  0  0  0  0  0
  -16.7293  -28.6498   23.0351 C   0  0  0  0  0  0
  -26.4530  -31.6578   25.0757 C   0  0  0  0  0  0
  -25.3707  -31.3800   26.1457 C   0  0  0  0  0  0
  -27.0370  -30.2956   24.6347 C   0  0  0  0  0  0
  -27.6065  -32.4333   25.7535 C   0  0  0  0  0  0
  -27.5584  -37.1794   24.8457 C   0  0  0  0  0  0
  -21.4259  -29.3042   22.3624 N   0  0  0  0  0  0
  -26.4288  -37.3756   23.9408 N   0  0  0  0  0  0
  -24.7162  -31.0363   22.1020 N   0  0  0  0  0  0
  -23.4224  -28.8094   23.3004 O   0  0  0  0  0  0
  -28.2461  -26.1662   20.1709 O   0  0  0  0  0  0
  -26.5624  -34.8898   22.4642 O   0  0  0  0  0  0
  -23.5555  -32.1365   23.7205 O   0  0  0  0  0  0
  -31.0807  -18.8807   18.4394 C   0  0  0  0  0  0
  -30.4616  -20.0543   18.9181 C   0  0  0  0  0  0
  -30.8783  -17.6228   19.0391 C   0  0  0  0  0  0
  -29.4169  -18.7321   20.6188 C   0  0  0  0  0  0
  -29.5731  -20.0785   20.0173 C   0  0  0  0  0  0
  -30.0591  -17.4651   20.1800 C   0  0  0  0  0  0
  -28.5151  -23.4837   20.0494 C   0  0  0  0  0  0
  -28.0423  -22.2107   19.4880 C   0  0  0  0  0  0
  -28.0044  -24.7759   19.7903 C   0  0  0  0  0  0
  -29.5988  -22.6469   20.7983 C   0  0  0  0  0  0
  -29.2679  -16.0946   22.1233 C   0  0  0  0  0  0
  -28.8954  -21.4057   20.3003 N   0  0  0  0  0  0
  -29.9175  -16.0751   20.8084 N   0  0  0  0  0  0
  -27.2819  -22.0036   18.5654 O   0  0  0  0  0  0
  -31.4690  -12.6953   19.1548 H   0  0  0  0  0  0
  -30.4288  -11.5778   19.9770 H   0  0  0  0  0  0
  -29.8142  -11.7382   17.5517 H   0  0  0  0  0  0
  -29.6205  -13.4656   17.6847 H   0  0  0  0  0  0
  -27.9075  -11.2880   18.9127 H   0  0  0  0  0  0
  -27.3841  -12.5200   17.7968 H   0  0  0  0  0  0
  -27.6255  -14.2604   19.4684 H   0  0  0  0  0  0
  -28.7661  -12.1575   21.3587 H   0  0  0  0  0  0
  -28.3543  -13.7635   21.8213 H   0  0  0  0  0  0
  -25.2778   -9.5680   22.4737 H   0  0  0  0  0  0
  -24.0016   -7.4630   22.7461 H   0  0  0  0  0  0
  -21.0853   -8.8775   19.8945 H   0  0  0  0  0  0
  -22.3721  -10.9672   19.6152 H   0  0  0  0  0  0
  -21.2027   -7.6155   23.9723 H   0  0  0  0  0  0
  -21.1476   -6.0530   25.9080 H   0  0  0  0  0  0
  -22.0603   -2.7609   23.2856 H   0  0  0  0  0  0
  -22.4115  -11.9867   22.4824 H   0  0  0  0  0  0
  -21.1087  -13.1202   22.2632 H   0  0  0  0  0  0
  -24.6652  -15.8535   20.5510 H   0  0  0  0  0  0
  -26.2906  -15.6336   20.1401 H   0  0  0  0  0  0
  -26.7296  -32.5320   23.1056 H   0  0  0  0  0  0
  -25.0132  -33.9643   25.0393 H   0  0  0  0  0  0
  -22.7420  -31.3054   21.4060 H   0  0  0  0  0  0
  -23.3758  -35.9591   23.3290 H   0  0  0  0  0  0
  -24.3574  -36.8885   22.2054 H   0  0  0  0  0  0
  -23.7224  -37.6454   23.6665 H   0  0  0  0  0  0
  -26.1628  -31.4860   20.6337 H   0  0  0  0  0  0
  -26.8715  -30.7638   22.0437 H   0  0  0  0  0  0
  -28.1182  -28.7903   21.2413 H   0  0  0  0  0  0
  -25.7972  -25.9447   18.9134 H   0  0  0  0  0  0
  -23.9516  -27.3700   18.9560 H   0  0  0  0  0  0
  -23.7991  -30.6113   19.4140 H   0  0  0  0  0  0
  -22.7742  -29.2776   19.8440 H   0  0  0  0  0  0
  -25.1292  -36.1905   25.0820 H   0  0  0  0  0  0
  -21.0001  -28.3301   24.1371 H   0  0  0  0  0  0
  -20.5671  -26.2313   23.3614 H   0  0  0  0  0  0
  -21.6655  -26.7413   22.1200 H   0  0  0  0  0  0
  -19.6895  -25.6276   21.1249 H   0  0  0  0  0  0
  -19.6695  -27.3177   20.6736 H   0  0  0  0  0  0
  -17.4201  -26.6678   21.4034 H   0  0  0  0  0  0
  -18.0330  -26.0094   22.9030 H   0  0  0  0  0  0
  -19.7949  -30.7299   24.2208 H   0  0  0  0  0  0
  -17.5019  -31.6259   24.5160 H   0  0  0  0  0  0
  -15.5358  -30.2953   23.7684 H   0  0  0  0  0  0
  -15.8699  -28.0800   22.7075 H   0  0  0  0  0  0
  -24.5893  -30.7124   25.7808 H   0  0  0  0  0  0
  -24.8889  -32.2996   26.4790 H   0  0  0  0  0  0
  -25.7988  -30.9052   27.0293 H   0  0  0  0  0  0
  -26.2988  -29.6704   24.1309 H   0  0  0  0  0  0
  -27.3906  -29.7236   25.4936 H   0  0  0  0  0  0
  -27.8938  -30.4162   23.9713 H   0  0  0  0  0  0
  -27.2663  -33.3652   26.2063 H   0  0  0  0  0  0
  -28.3910  -32.6860   25.0390 H   0  0  0  0  0  0
  -28.0693  -31.8481   26.5491 H   0  0  0  0  0  0
  -28.2601  -38.0096   24.7509 H   0  0  0  0  0  0
  -28.1088  -36.2626   24.6288 H   0  0  0  0  0  0
  -27.2292  -37.1441   25.8856 H   0  0  0  0  0  0
  -20.9453  -29.8794   21.6843 H   0  0  0  0  0  0
  -26.0169  -38.2828   24.1417 H   0  0  0  0  0  0
  -31.7226  -18.9486   17.5710 H   0  0  0  0  0  0
  -30.6533  -20.9726   18.3800 H   0  0  0  0  0  0
  -31.3848  -16.7793   18.5942 H   0  0  0  0  0  0
  -28.7351  -18.6789   21.4551 H   0  0  0  0  0  0
  -27.2398  -24.7185   19.0435 H   0  0  0  0  0  0
  -29.6103  -22.6904   21.8890 H   0  0  0  0  0  0
  -30.6179  -22.7187   20.4142 H   0  0  0  0  0  0
  -28.1836  -16.0533   22.0169 H   0  0  0  0  0  0
  -29.5235  -16.9959   22.6792 H   0  0  0  0  0  0
  -29.5889  -15.2745   22.7681 H   0  0  0  0  0  0
  1 25  1  0  0  0
  1 30  2  0  0  0
  1 83  1  0  0  0
  2  3  1  0  0  0
  2 25  1  0  0  0
  2 85  1  0  0  0
  2 86  1  0  0  0
  3  4  1  0  0  0
  3 87  1  0  0  0
  3 88  1  0  0  0
  4  5  1  0  0  0
  4 89  1  0  0  0
  4 90  1  0  0  0
  5  6  1  0  0  0
  5 26  1  0  0  0
  5 91  1  0  0  0
  6 25  1  0  0  0
  6 92  1  0  0  0
  6 93  1  0  0  0
  7  8  2  0  0  0
  7 26  1  0  0  0
  7 29  1  0  0  0
  8  9  1  0  0  0
  8 22  1  0  0  0
  9 10  1  0  0  0
  9 27  2  0  0  0
 10 11  2  0  0  0
 10 15  1  0  0  0
 11 12  1  0  0  0
 11 94  1  0  0  0
 12 13  2  0  0  0
 12 95  1  0  0  0
 13 14  1  0  0  0
 13 31  1  0  0  0
 14 15  2  0  0  0
 14 96  1  0  0  0
 15 97  1  0  0  0
 16 17  2  0  0  0
 16 21  1  0  0  0
 16 31  1  0  0  0
 17 18  1  0  0  0
 17 98  1  0  0  0
 18 19  2  0  0  0
 18 99  1  0  0  0
 19 20  1  0  0  0
 19 24  1  0  0  0
 20 21  2  0  0  0
 20100  1  0  0  0
 21 23  1  0  0  0
 22 28  1  0  0  0
 22 32  2  0  0  0
 26 27  1  0  0  0
 28101  1  0  0  0
 28102  1  0  0  0
 29103  1  0  0  0
 29104  1  0  0  0
 33 34  1  0  0  0
 33 66  1  0  0  0
 33 70  2  0  0  0
 34 36  1  0  0  0
 34 59  1  0  0  0
 34105  1  0  0  0
 35 44  2  0  0  0
 35 45  1  0  0  0
 35 68  1  0  0  0
 36 56  1  0  0  0
 36106  1  0  0  0
 37 39  1  0  0  0
 37 47  1  0  0  0
 37 66  1  0  0  0
 37107  1  0  0  0
 38 43  2  0  0  0
 38 46  1  0  0  0
 38 47  1  0  0  0
 39 64  1  0  0  0
 39 67  2  0  0  0
 40 52  1  0  0  0
 40 53  2  0  0  0
 40 58  1  0  0  0
 41108  1  0  0  0
 41109  1  0  0  0
 41110  1  0  0  0
 41 48  1  0  0  0
 42 43  1  0  0  0
 42 66  1  0  0  0
 42111  1  0  0  0
 42112  1  0  0  0
 43 44  1  0  0  0
 44113  1  0  0  0
 45 46  2  0  0  0
 45114  1  0  0  0
 46115  1  0  0  0
 47116  1  0  0  0
 47117  1  0  0  0
 48 56  1  0  0  0
 48 65  1  0  0  0
 48118  1  0  0  0
 49 50  1  0  0  0
 49 53  1  0  0  0
 49 64  1  0  0  0
 49119  1  0  0  0
 50 51  1  0  0  0
 50120  1  0  0  0
 50121  1  0  0  0
 51 52  1  0  0  0
 51122  1  0  0  0
 51123  1  0  0  0
 52124  1  0  0  0
 52125  1  0  0  0
 53 54  1  0  0  0
 54 55  2  0  0  0
 54126  1  0  0  0
 55 57  1  0  0  0
 55127  1  0  0  0
 56 69  2  0  0  0
 57 58  2  0  0  0
 57128  1  0  0  0
 58129  1  0  0  0
 59 60  1  0  0  0
 59 61  1  0  0  0
 59 62  1  0  0  0
 60130  1  0  0  0
 60131  1  0  0  0
 60132  1  0  0  0
 61133  1  0  0  0
 61134  1  0  0  0
 61135  1  0  0  0
 62136  1  0  0  0
 62137  1  0  0  0
 62138  1  0  0  0
 63 65  1  0  0  0
 63139  1  0  0  0
 63140  1  0  0  0
 63141  1  0  0  0
 64142  1  0  0  0
 65143  1  0  0  0
 68 79  1  0  0  0
 71 72  2  0  0  0
 71 73  1  0  0  0
 71144  1  0  0  0
 72 75  1  0  0  0
 72145  1  0  0  0
 73 76  2  0  0  0
 73146  1  0  0  0
 74 75  2  0  0  0
 74 76  1  0  0  0
 74147  1  0  0  0
 75 82  1  0  0  0
 76 83  1  0  0  0
 77 78  1  0  0  0
 77 79  2  0  0  0
 77 80  1  0  0  0
 78 82  1  0  0  0
 78 84  2  0  0  0
 79148  1  0  0  0
 80 82  1  0  0  0
 80149  1  0  0  0
 80150  1  0  0  0
 81 83  1  0  0  0
 81151  1  0  0  0
 81152  1  0  0  0
 81153  1  0  0  0
M  ISO  4   1 100  68 101  79 101  83 100
M  END
> <chiral flag>
0

> <version>
0

> <s_m_source_file>
/data/baiqing/PycharmProjects/Reinvent-master-3.2/result/LINK_invent/BTK/process_docking_weight1_custom_product_contain_oxygen_bond_distance_aromatic_linkinvent_7_9_3/rearranged_h_0088.sdf

> <i_m_source_file_index>
19

> <r_mmod_Potential_Energy-OPLS-2005>
628.657104492188

> <r_mmod_Stretch_Energy-OPLS-2005>
198.365295410156

> <r_mmod_Bend_Energy-OPLS-2005>
303.2509765625

> <r_mmod_Torsional_Energy-OPLS-2005>
305.21337890625

> <r_mmod_Improper_Torsional_Energy-OPLS-2005>
8.97716331481934

> <r_mmod_Van_der_Waal_Energy-OPLS-2005>
156.975616455078

> <r_mmod_Electrostatic_Energy-OPLS-2005>
-287.963317871094

> <r_mmod_Solvation_Energy-OPLS-2005>
-203.516876220703

> <b_mmod_Minimization_Converged-OPLS-2005>
0

> <r_mmod_RMS_Derivative-OPLS-2005>
1.99364507198334

$$$$
19
                    3D
 Structure written by MMmdl.
157165  0  0  1  0            999 V2000
  -30.6821  -14.5249   20.6013 C   0  0  0  0  0  0
  -30.4388  -12.3460   19.4523 C   0  0  0  0  0  0
  -29.5209  -12.5318   18.2218 C   0  0  0  0  0  0
  -28.0342  -12.3945   18.6100 C   0  0  0  0  0  0
  -27.6664  -13.2129   19.8784 C   0  0  2  0  0  0
  -28.7020  -13.0042   21.0068 C   0  0  0  0  0  0
  -25.2612  -13.8181   20.5658 C   0  0  0  0  0  0
  -24.1859  -13.0444   20.9141 C   0  0  0  0  0  0
  -24.6424  -11.6920   20.8686 C   0  0  0  0  0  0
  -23.9107  -10.4302   21.0378 C   0  0  0  0  0  0
  -24.3640   -9.4211   21.9162 C   0  0  0  0  0  0
  -23.6306   -8.2253   22.0761 C   0  0  0  0  0  0
  -22.4278   -8.0306   21.3565 C   0  0  0  0  0  0
  -21.9918   -9.0281   20.4672 C   0  0  0  0  0  0
  -22.7257  -10.2153   20.3052 C   0  0  0  0  0  0
  -21.6874   -6.0740   22.5281 C   0  0  0  0  0  0
  -21.4013   -6.5636   23.8197 C   0  0  0  0  0  0
  -21.3648   -5.6781   24.9153 C   0  0  0  0  0  0
  -21.6047   -4.3052   24.7213 C   0  0  0  0  0  0
  -21.8824   -3.8152   23.4330 C   0  0  0  0  0  0
  -21.9186   -4.6969   22.3385 C   0  0  0  0  0  0
  -22.7873  -13.5263   21.1757 C   0  0  0  0  0  0
  -22.1663   -4.2152   21.0970 F   0  0  0  0  0  0
  -21.5619   -3.4533   25.7716 F   0  0  0  0  0  0
  -30.0378  -13.3273   20.4778 N   0  0  0  0  0  0
  -26.3053  -12.9359   20.3331 N   0  0  0  0  0  0
  -25.9351  -11.6524   20.5716 N   0  0  0  0  0  0
  -22.0476  -12.8316   22.0325 N   0  0  0  0  0  0
  -25.4350  -15.1892   20.4172 N   0  0  0  0  0  0
  -31.7789  -14.7425   20.0752 O   0  0  0  0  0  0
  -21.6653   -6.8891   21.4253 O   0  0  0  0  0  0
  -22.3570  -14.5540   20.6551 O   0  0  0  0  0  0
  -24.6207  -31.8634   23.2021 C   0  0  0  0  0  0
  -25.9077  -32.4804   23.8369 C   0  0  1  0  0  0
  -27.2237  -27.3534   20.1367 C   0  0  0  0  0  0
  -25.5908  -33.8600   24.2320 N   0  0  0  0  0  0
  -23.4114  -30.4869   21.5398 C   0  0  2  0  0  0
  -24.8546  -28.9376   20.1056 C   0  0  0  0  0  0
  -22.7433  -29.4670   22.4917 C   0  0  0  0  0  0
  -18.0283  -28.1350   22.8521 C   0  0  0  0  0  0
  -24.1477  -36.7285   23.2648 C   0  0  0  0  0  0
  -25.9437  -30.8051   21.3618 C   0  0  0  0  0  0
  -26.0154  -29.4304   20.7164 C   0  0  0  0  0  0
  -27.1953  -28.6431   20.7337 C   0  0  0  0  0  0
  -26.0484  -26.8989   19.4941 C   0  0  0  0  0  0
  -24.8732  -27.6759   19.4830 C   0  0  0  0  0  0
  -23.6202  -29.8136   20.1535 C   0  0  0  0  0  0
  -25.4106  -36.3099   24.0351 C   0  0  1  0  0  0
  -20.5880  -28.3661   23.1260 C   0  0  2  0  0  0
  -20.6745  -26.9382   22.5396 C   0  0  0  0  0  0
  -19.5721  -26.6361   21.5193 C   0  0  0  0  0  0
  -18.1899  -26.7903   22.1622 C   0  0  0  0  0  0
  -19.1537  -28.8815   23.2895 C   0  0  0  0  0  0
  -18.9474  -30.1418   23.8924 C   0  0  0  0  0  0
  -17.6479  -30.6558   24.0567 C   0  0  0  0  0  0
  -25.9057  -34.9464   23.5133 C   0  0  0  0  0  0
  -16.5367  -29.9071   23.6317 C   0  0  0  0  0  0
  -16.7276  -28.6461   23.0386 C   0  0  0  0  0  0
  -26.4495  -31.6595   25.0717 C   0  0  0  0  0  0
  -25.3767  -31.3683   26.1461 C   0  0  0  0  0  0
  -27.0365  -30.3066   24.6089 C   0  0  0  0  0  0
  -27.6082  -32.4312   25.7461 C   0  0  0  0  0  0
  -27.5565  -37.1817   24.8482 C   0  0  0  0  0  0
  -21.4136  -29.3062   22.3668 N   0  0  0  0  0  0
  -26.4288  -37.3791   23.9418 N   0  0  0  0  0  0
  -24.6777  -31.0690   22.0936 N   0  0  0  0  0  0
  -23.4183  -28.8222   23.2985 O   0  0  0  0  0  0
  -28.3773  -26.5790   20.2332 O   0  0  0  0  0  0
  -26.5619  -34.8931   22.4706 O   0  0  0  0  0  0
  -23.5369  -32.1406   23.7357 O   0  0  0  0  0  0
  -28.6625  -17.9832   18.7991 C   0  0  0  0  0  0
  -28.7629  -19.2003   19.4939 C   0  0  0  0  0  0
  -29.1202  -16.7914   19.3773 C   0  0  0  0  0  0
  -29.7455  -18.0218   21.3906 C   0  0  0  0  0  0
  -29.3153  -19.2568   20.7911 C   0  0  0  0  0  0
  -29.6596  -16.7800   20.6822 C   0  0  0  0  0  0
  -29.5043  -20.6190   21.4569 C   0  0  0  0  0  0
  -28.9292  -22.9512   21.1300 C   0  0  0  0  0  0
  -27.9541  -24.0567   20.6204 C   0  0  0  0  0  0
  -30.0713  -23.6108   23.3580 C   0  0  0  0  0  0
  -30.1747  -23.5413   21.8179 C   0  0  0  0  0  0
  -28.4650  -25.2192   19.6975 C   0  0  0  0  0  0
  -28.6736  -21.6731   21.0014 N   0  0  0  0  0  0
  -30.0130  -15.5076   21.2602 N   0  0  0  0  0  0
  -30.3625  -20.6840   22.3371 O   0  0  0  0  0  0
  -26.7408  -23.9646   20.8419 O   0  0  0  0  0  0
  -31.4879  -12.4470   19.1650 H   0  0  0  0  0  0
  -30.3481  -11.3363   19.8531 H   0  0  0  0  0  0
  -29.7717  -11.8065   17.4455 H   0  0  0  0  0  0
  -29.6984  -13.5134   17.7771 H   0  0  0  0  0  0
  -27.8230  -11.3385   18.7753 H   0  0  0  0  0  0
  -27.4045  -12.7000   17.7710 H   0  0  0  0  0  0
  -27.7024  -14.2618   19.5930 H   0  0  0  0  0  0
  -28.6899  -11.9671   21.3441 H   0  0  0  0  0  0
  -28.4421  -13.5999   21.8825 H   0  0  0  0  0  0
  -25.2794   -9.5675   22.4725 H   0  0  0  0  0  0
  -24.0008   -7.4653   22.7487 H   0  0  0  0  0  0
  -21.0834   -8.8820   19.9003 H   0  0  0  0  0  0
  -22.3732  -10.9682   19.6150 H   0  0  0  0  0  0
  -21.2034   -7.6151   23.9714 H   0  0  0  0  0  0
  -21.1450   -6.0503   25.9047 H   0  0  0  0  0  0
  -22.0620   -2.7632   23.2825 H   0  0  0  0  0  0
  -22.4089  -12.0059   22.4860 H   0  0  0  0  0  0
  -21.1087  -13.1383   22.2422 H   0  0  0  0  0  0
  -24.6741  -15.8489   20.5402 H   0  0  0  0  0  0
  -26.3016  -15.6355   20.1434 H   0  0  0  0  0  0
  -26.7158  -32.5517   23.1134 H   0  0  0  0  0  0
  -25.0132  -33.9791   25.0498 H   0  0  0  0  0  0
  -22.7106  -31.3090   21.3956 H   0  0  0  0  0  0
  -23.3734  -35.9626   23.3344 H   0  0  0  0  0  0
  -24.3558  -36.8853   22.2054 H   0  0  0  0  0  0
  -23.7236  -37.6502   23.6638 H   0  0  0  0  0  0
  -26.0646  -31.5565   20.5801 H   0  0  0  0  0  0
  -26.8309  -30.8680   21.9785 H   0  0  0  0  0  0
  -28.0806  -29.0103   21.2335 H   0  0  0  0  0  0
  -26.0094  -25.9315   19.0155 H   0  0  0  0  0  0
  -23.9859  -27.2923   18.9943 H   0  0  0  0  0  0
  -23.7368  -30.5842   19.3896 H   0  0  0  0  0  0
  -22.7424  -29.2366   19.8580 H   0  0  0  0  0  0
  -25.1282  -36.1958   25.0845 H   0  0  0  0  0  0
  -21.0054  -28.3225   24.1343 H   0  0  0  0  0  0
  -20.5499  -26.2341   23.3637 H   0  0  0  0  0  0
  -21.6633  -26.7304   22.1291 H   0  0  0  0  0  0
  -19.6865  -25.6262   21.1224 H   0  0  0  0  0  0
  -19.6612  -27.3174   20.6706 H   0  0  0  0  0  0
  -17.4186  -26.6689   21.3996 H   0  0  0  0  0  0
  -18.0266  -26.0012   22.8963 H   0  0  0  0  0  0
  -19.7958  -30.7201   24.2317 H   0  0  0  0  0  0
  -17.5044  -31.6248   24.5156 H   0  0  0  0  0  0
  -15.5368  -30.2993   23.7586 H   0  0  0  0  0  0
  -15.8682  -28.0747   22.7139 H   0  0  0  0  0  0
  -24.5921  -30.7072   25.7754 H   0  0  0  0  0  0
  -24.8993  -32.2846   26.4952 H   0  0  0  0  0  0
  -25.8115  -30.8795   27.0182 H   0  0  0  0  0  0
  -26.2916  -29.6795   24.1185 H   0  0  0  0  0  0
  -27.4220  -29.7328   25.4506 H   0  0  0  0  0  0
  -27.8696  -30.4421   23.9197 H   0  0  0  0  0  0
  -27.2731  -33.3588   26.2081 H   0  0  0  0  0  0
  -28.3857  -32.6893   25.0273 H   0  0  0  0  0  0
  -28.0811  -31.8429   26.5327 H   0  0  0  0  0  0
  -28.2643  -38.0053   24.7495 H   0  0  0  0  0  0
  -28.1005  -36.2605   24.6344 H   0  0  0  0  0  0
  -27.2311  -37.1500   25.8896 H   0  0  0  0  0  0
  -20.9266  -29.8889   21.6989 H   0  0  0  0  0  0
  -26.0163  -38.2870   24.1374 H   0  0  0  0  0  0
  -28.2335  -17.9654   17.8089 H   0  0  0  0  0  0
  -28.4177  -20.0986   19.0046 H   0  0  0  0  0  0
  -29.0340  -15.8813   18.7997 H   0  0  0  0  0  0
  -30.1636  -18.0280   22.3888 H   0  0  0  0  0  0
  -30.0175  -22.6318   23.8342 H   0  0  0  0  0  0
  -29.1920  -24.1749   23.6705 H   0  0  0  0  0  0
  -30.9411  -24.1176   23.7780 H   0  0  0  0  0  0
  -30.3436  -24.5602   21.4709 H   0  0  0  0  0  0
  -31.0657  -22.9946   21.5130 H   0  0  0  0  0  0
  -29.5106  -25.0236   19.4698 H   0  0  0  0  0  0
  -27.9545  -25.1563   18.7371 H   0  0  0  0  0  0
  -29.3287  -15.1491   21.9095 H   0  0  0  0  0  0
  1 25  1  0  0  0
  1 30  2  0  0  0
  1 84  1  0  0  0
  2  3  1  0  0  0
  2 25  1  0  0  0
  2 87  1  0  0  0
  2 88  1  0  0  0
  3  4  1  0  0  0
  3 89  1  0  0  0
  3 90  1  0  0  0
  4  5  1  0  0  0
  4 91  1  0  0  0
  4 92  1  0  0  0
  5  6  1  0  0  0
  5 26  1  0  0  0
  5 93  1  0  0  0
  6 25  1  0  0  0
  6 94  1  0  0  0
  6 95  1  0  0  0
  7  8  2  0  0  0
  7 26  1  0  0  0
  7 29  1  0  0  0
  8  9  1  0  0  0
  8 22  1  0  0  0
  9 10  1  0  0  0
  9 27  2  0  0  0
 10 11  2  0  0  0
 10 15  1  0  0  0
 11 12  1  0  0  0
 11 96  1  0  0  0
 12 13  2  0  0  0
 12 97  1  0  0  0
 13 14  1  0  0  0
 13 31  1  0  0  0
 14 15  2  0  0  0
 14 98  1  0  0  0
 15 99  1  0  0  0
 16 17  2  0  0  0
 16 21  1  0  0  0
 16 31  1  0  0  0
 17 18  1  0  0  0
 17100  1  0  0  0
 18 19  2  0  0  0
 18101  1  0  0  0
 19 20  1  0  0  0
 19 24  1  0  0  0
 20 21  2  0  0  0
 20102  1  0  0  0
 21 23  1  0  0  0
 22 28  1  0  0  0
 22 32  2  0  0  0
 26 27  1  0  0  0
 28103  1  0  0  0
 28104  1  0  0  0
 29105  1  0  0  0
 29106  1  0  0  0
 33 34  1  0  0  0
 33 66  1  0  0  0
 33 70  2  0  0  0
 34 36  1  0  0  0
 34 59  1  0  0  0
 34107  1  0  0  0
 35 44  2  0  0  0
 35 45  1  0  0  0
 35 68  1  0  0  0
 36 56  1  0  0  0
 36108  1  0  0  0
 37 39  1  0  0  0
 37 47  1  0  0  0
 37 66  1  0  0  0
 37109  1  0  0  0
 38 43  2  0  0  0
 38 46  1  0  0  0
 38 47  1  0  0  0
 39 64  1  0  0  0
 39 67  2  0  0  0
 40 52  1  0  0  0
 40 53  2  0  0  0
 40 58  1  0  0  0
 41110  1  0  0  0
 41111  1  0  0  0
 41112  1  0  0  0
 41 48  1  0  0  0
 42 43  1  0  0  0
 42 66  1  0  0  0
 42113  1  0  0  0
 42114  1  0  0  0
 43 44  1  0  0  0
 44115  1  0  0  0
 45 46  2  0  0  0
 45116  1  0  0  0
 46117  1  0  0  0
 47118  1  0  0  0
 47119  1  0  0  0
 48 56  1  0  0  0
 48 65  1  0  0  0
 48120  1  0  0  0
 49 50  1  0  0  0
 49 53  1  0  0  0
 49 64  1  0  0  0
 49121  1  0  0  0
 50 51  1  0  0  0
 50122  1  0  0  0
 50123  1  0  0  0
 51 52  1  0  0  0
 51124  1  0  0  0
 51125  1  0  0  0
 52126  1  0  0  0
 52127  1  0  0  0
 53 54  1  0  0  0
 54 55  2  0  0  0
 54128  1  0  0  0
 55 57  1  0  0  0
 55129  1  0  0  0
 56 69  2  0  0  0
 57 58  2  0  0  0
 57130  1  0  0  0
 58131  1  0  0  0
 59 60  1  0  0  0
 59 61  1  0  0  0
 59 62  1  0  0  0
 60132  1  0  0  0
 60133  1  0  0  0
 60134  1  0  0  0
 61135  1  0  0  0
 61136  1  0  0  0
 61137  1  0  0  0
 62138  1  0  0  0
 62139  1  0  0  0
 62140  1  0  0  0
 63 65  1  0  0  0
 63141  1  0  0  0
 63142  1  0  0  0
 63143  1  0  0  0
 64144  1  0  0  0
 65145  1  0  0  0
 68 82  1  0  0  0
 71 72  2  0  0  0
 71 73  1  0  0  0
 71146  1  0  0  0
 72 75  1  0  0  0
 72147  1  0  0  0
 73 76  2  0  0  0
 73148  1  0  0  0
 74 75  2  0  0  0
 74 76  1  0  0  0
 74149  1  0  0  0
 75 77  1  0  0  0
 76 84  1  0  0  0
 77 83  1  0  0  0
 77 85  2  0  0  0
 78 79  1  0  0  0
 78 81  1  0  0  0
 78 83  2  0  0  0
 79 82  1  0  0  0
 79 86  2  0  0  0
 80 81  1  0  0  0
 80150  1  0  0  0
 80151  1  0  0  0
 80152  1  0  0  0
 81153  1  0  0  0
 81154  1  0  0  0
 82155  1  0  0  0
 82156  1  0  0  0
 84157  1  0  0  0
M  ISO  4   1 100  68 101  82 101  84 100
M  END
> <chiral flag>
0

> <version>
0

> <s_m_source_file>
/data/baiqing/PycharmProjects/Reinvent-master-3.2/result/LINK_invent/BTK/process_docking_weight1_custom_product_contain_oxygen_bond_distance_aromatic_linkinvent_7_9_3/rearranged_h_0088.sdf

> <i_m_source_file_index>
20

> <r_mmod_Potential_Energy-OPLS-2005>
99.568473815918

> <r_mmod_Stretch_Energy-OPLS-2005>
68.0855865478516

> <r_mmod_Bend_Energy-OPLS-2005>
142.246795654297

> <r_mmod_Torsional_Energy-OPLS-2005>
266.959136962891

> <r_mmod_Improper_Torsional_Energy-OPLS-2005>
6.68777894973755

> <r_mmod_Van_der_Waal_Energy-OPLS-2005>
154.994735717773

> <r_mmod_Electrostatic_Energy-OPLS-2005>
-339.515075683594

> <r_mmod_Solvation_Energy-OPLS-2005>
-226.849166870117

> <b_mmod_Minimization_Converged-OPLS-2005>
0

> <r_mmod_RMS_Derivative-OPLS-2005>
4.94491338729858

$$$$
20
                    3D
 Structure written by MMmdl.
156165  0  0  1  0            999 V2000
  -30.6380  -14.7387   20.5552 C   0  0  0  0  0  0
  -30.4371  -12.4742   19.4735 C   0  0  0  0  0  0
  -29.5113  -12.5279   18.2374 C   0  0  0  0  0  0
  -28.0379  -12.3419   18.6453 C   0  0  0  0  0  0
  -27.6462  -13.2280   19.8540 C   0  0  2  0  0  0
  -28.6839  -13.1270   20.9885 C   0  0  0  0  0  0
  -25.2529  -13.8176   20.5693 C   0  0  0  0  0  0
  -24.1806  -13.0430   20.9180 C   0  0  0  0  0  0
  -24.6389  -11.6903   20.8711 C   0  0  0  0  0  0
  -23.9058  -10.4288   21.0389 C   0  0  0  0  0  0
  -24.3612   -9.4206   21.9170 C   0  0  0  0  0  0
  -23.6292   -8.2243   22.0748 C   0  0  0  0  0  0
  -22.4273   -8.0276   21.3545 C   0  0  0  0  0  0
  -21.9904   -9.0242   20.4643 C   0  0  0  0  0  0
  -22.7225  -10.2125   20.3043 C   0  0  0  0  0  0
  -21.6855   -6.0733   22.5284 C   0  0  0  0  0  0
  -21.4014   -6.5634   23.8216 C   0  0  0  0  0  0
  -21.3661   -5.6783   24.9174 C   0  0  0  0  0  0
  -21.6042   -4.3047   24.7223 C   0  0  0  0  0  0
  -21.8816   -3.8143   23.4340 C   0  0  0  0  0  0
  -21.9199   -4.6966   22.3403 C   0  0  0  0  0  0
  -22.7833  -13.5225   21.1841 C   0  0  0  0  0  0
  -22.1669   -4.2154   21.0981 F   0  0  0  0  0  0
  -21.5622   -3.4529   25.7731 F   0  0  0  0  0  0
  -29.9958  -13.5141   20.4390 N   0  0  0  0  0  0
  -26.2952  -12.9382   20.3270 N   0  0  0  0  0  0
  -25.9320  -11.6524   20.5709 N   0  0  0  0  0  0
  -22.0489  -12.8209   22.0401 N   0  0  0  0  0  0
  -25.4216  -15.1897   20.4141 N   0  0  0  0  0  0
  -31.7486  -14.8851   20.0338 O   0  0  0  0  0  0
  -21.6632   -6.8879   21.4248 O   0  0  0  0  0  0
  -22.3518  -14.5537   20.6696 O   0  0  0  0  0  0
  -24.6326  -31.8541   23.1968 C   0  0  0  0  0  0
  -25.9142  -32.4756   23.8329 C   0  0  1  0  0  0
  -27.2266  -27.2686   20.1294 C   0  0  0  0  0  0
  -25.5927  -33.8555   24.2258 N   0  0  0  0  0  0
  -23.4315  -30.4758   21.5396 C   0  0  2  0  0  0
  -24.8834  -28.9229   20.1085 C   0  0  0  0  0  0
  -22.7519  -29.4595   22.4891 C   0  0  0  0  0  0
  -18.0296  -28.1407   22.8469 C   0  0  0  0  0  0
  -24.1478  -36.7274   23.2635 C   0  0  0  0  0  0
  -25.9766  -30.7717   21.3743 C   0  0  0  0  0  0
  -26.0545  -29.3924   20.7191 C   0  0  0  0  0  0
  -27.2331  -28.5767   20.7215 C   0  0  0  0  0  0
  -26.0372  -26.8641   19.4919 C   0  0  0  0  0  0
  -24.8791  -27.6657   19.4827 C   0  0  0  0  0  0
  -23.6528  -29.8083   20.1561 C   0  0  0  0  0  0
  -25.4102  -36.3064   24.0329 C   0  0  1  0  0  0
  -20.5903  -28.3706   23.1265 C   0  0  2  0  0  0
  -20.6770  -26.9416   22.5416 C   0  0  0  0  0  0
  -19.5753  -26.6407   21.5204 C   0  0  0  0  0  0
  -18.1934  -26.7954   22.1604 C   0  0  0  0  0  0
  -19.1551  -28.8871   23.2868 C   0  0  0  0  0  0
  -18.9469  -30.1470   23.8891 C   0  0  0  0  0  0
  -17.6468  -30.6589   24.0578 C   0  0  0  0  0  0
  -25.9051  -34.9438   23.5093 C   0  0  0  0  0  0
  -16.5360  -29.9090   23.6344 C   0  0  0  0  0  0
  -16.7285  -28.6522   23.0339 C   0  0  0  0  0  0
  -26.4491  -31.6575   25.0721 C   0  0  0  0  0  0
  -25.3717  -31.3736   26.1447 C   0  0  0  0  0  0
  -27.0319  -30.2988   24.6192 C   0  0  0  0  0  0
  -27.6062  -32.4297   25.7492 C   0  0  0  0  0  0
  -27.5580  -37.1781   24.8449 C   0  0  0  0  0  0
  -21.4222  -29.3044   22.3645 N   0  0  0  0  0  0
  -26.4267  -37.3777   23.9427 N   0  0  0  0  0  0
  -24.6999  -31.0508   22.0943 N   0  0  0  0  0  0
  -23.4212  -28.8133   23.2997 O   0  0  0  0  0  0
  -28.2659  -26.3131   20.1772 O   0  0  0  0  0  0
  -26.5630  -34.8916   22.4666 O   0  0  0  0  0  0
  -23.5474  -32.1347   23.7259 O   0  0  0  0  0  0
  -28.4163  -19.1819   20.2498 C   0  0  0  0  0  0
  -28.6921  -17.7702   20.3039 C   0  0  0  0  0  0
  -30.8462  -18.2348   21.2199 C   0  0  0  0  0  0
  -29.3310  -20.1770   20.7117 C   0  0  0  0  0  0
  -29.9029  -17.2312   20.8319 C   0  0  0  0  0  0
  -30.5725  -19.6472   21.1727 C   0  0  0  0  0  0
  -28.3387  -23.8755   21.1880 C   0  0  0  0  0  0
  -27.9352  -23.2031   22.4180 C   0  0  0  0  0  0
  -28.9508  -22.7916   20.3458 C   0  0  0  0  0  0
  -29.3972  -16.4436   23.5395 C   0  0  0  0  0  0
  -28.0706  -25.2502   21.0959 C   0  0  0  0  0  0
  -29.9174  -15.5847   22.6410 C   0  0  0  0  0  0
  -28.3186  -21.7436   22.3581 C   0  0  0  0  0  0
  -28.9016  -21.5698   21.0305 N   0  0  0  0  0  0
  -30.0361  -15.7955   21.2481 N   0  0  0  0  0  0
  -27.3670  -23.6979   23.3990 O   0  0  0  0  0  0
  -29.4208  -22.9257   19.2110 O   0  0  0  0  0  0
  -31.4927  -20.5026   21.6795 F   0  0  0  0  0  0
  -31.4746  -12.6086   19.1656 H   0  0  0  0  0  0
  -30.3967  -11.4880   19.9387 H   0  0  0  0  0  0
  -29.7963  -11.7606   17.5165 H   0  0  0  0  0  0
  -29.6322  -13.4857   17.7296 H   0  0  0  0  0  0
  -27.8929  -11.2901   18.8955 H   0  0  0  0  0  0
  -27.3818  -12.5454   17.7982 H   0  0  0  0  0  0
  -27.6529  -14.2580   19.4958 H   0  0  0  0  0  0
  -28.7246  -12.1121   21.3860 H   0  0  0  0  0  0
  -28.3664  -13.7542   21.8175 H   0  0  0  0  0  0
  -25.2766   -9.5686   22.4729 H   0  0  0  0  0  0
  -24.0010   -7.4638   22.7464 H   0  0  0  0  0  0
  -21.0834   -8.8740   19.8958 H   0  0  0  0  0  0
  -22.3668  -10.9647   19.6139 H   0  0  0  0  0  0
  -21.1996   -7.6139   23.9714 H   0  0  0  0  0  0
  -21.1488   -6.0512   25.9075 H   0  0  0  0  0  0
  -22.0593   -2.7610   23.2829 H   0  0  0  0  0  0
  -22.4122  -11.9869   22.4771 H   0  0  0  0  0  0
  -21.1111  -13.1231   22.2624 H   0  0  0  0  0  0
  -24.6564  -15.8447   20.5297 H   0  0  0  0  0  0
  -26.2798  -15.6298   20.1117 H   0  0  0  0  0  0
  -26.7215  -32.5410   23.1083 H   0  0  0  0  0  0
  -25.0062  -33.9679   25.0395 H   0  0  0  0  0  0
  -22.7297  -31.2991   21.3911 H   0  0  0  0  0  0
  -23.3756  -35.9586   23.3265 H   0  0  0  0  0  0
  -24.3587  -36.8928   22.2057 H   0  0  0  0  0  0
  -23.7196  -37.6453   23.6676 H   0  0  0  0  0  0
  -26.1105  -31.5304   20.6014 H   0  0  0  0  0  0
  -26.8556  -30.8265   22.0044 H   0  0  0  0  0  0
  -28.1282  -28.9250   21.2170 H   0  0  0  0  0  0
  -25.9978  -25.8883   19.0277 H   0  0  0  0  0  0
  -23.9820  -27.2991   19.0036 H   0  0  0  0  0  0
  -23.7794  -30.5837   19.3998 H   0  0  0  0  0  0
  -22.7716  -29.2415   19.8508 H   0  0  0  0  0  0
  -25.1277  -36.1900   25.0819 H   0  0  0  0  0  0
  -21.0007  -28.3281   24.1382 H   0  0  0  0  0  0
  -20.5623  -26.2321   23.3625 H   0  0  0  0  0  0
  -21.6640  -26.7410   22.1246 H   0  0  0  0  0  0
  -19.6908  -25.6316   21.1236 H   0  0  0  0  0  0
  -19.6708  -27.3217   20.6733 H   0  0  0  0  0  0
  -17.4213  -26.6720   21.3996 H   0  0  0  0  0  0
  -18.0319  -26.0096   22.9000 H   0  0  0  0  0  0
  -19.7943  -30.7294   24.2257 H   0  0  0  0  0  0
  -17.5019  -31.6260   24.5197 H   0  0  0  0  0  0
  -15.5356  -30.2987   23.7666 H   0  0  0  0  0  0
  -15.8692  -28.0848   22.7034 H   0  0  0  0  0  0
  -24.5955  -30.6982   25.7816 H   0  0  0  0  0  0
  -24.8821  -32.2899   26.4763 H   0  0  0  0  0  0
  -25.8066  -30.9043   27.0283 H   0  0  0  0  0  0
  -26.2887  -29.6759   24.1197 H   0  0  0  0  0  0
  -27.3970  -29.7225   25.4703 H   0  0  0  0  0  0
  -27.8785  -30.4252   23.9442 H   0  0  0  0  0  0
  -27.2698  -33.3620   26.2036 H   0  0  0  0  0  0
  -28.3896  -32.6803   25.0331 H   0  0  0  0  0  0
  -28.0694  -31.8428   26.5431 H   0  0  0  0  0  0
  -28.2562  -38.0115   24.7556 H   0  0  0  0  0  0
  -28.1106  -36.2651   24.6177 H   0  0  0  0  0  0
  -27.2331  -37.1330   25.8859 H   0  0  0  0  0  0
  -20.9405  -29.8777   21.6858 H   0  0  0  0  0  0
  -26.0139  -38.2835   24.1483 H   0  0  0  0  0  0
  -27.4314  -19.4941   19.9317 H   0  0  0  0  0  0
  -27.9018  -17.0899   20.0214 H   0  0  0  0  0  0
  -31.7780  -17.9198   21.6663 H   0  0  0  0  0  0
  -29.3614  -16.1769   24.5867 H   0  0  0  0  0  0
  -28.9974  -17.4102   23.2697 H   0  0  0  0  0  0
  -27.5835  -25.6885   21.9581 H   0  0  0  0  0  0
  -30.2934  -14.6272   22.9835 H   0  0  0  0  0  0
  -27.4420  -21.1108   22.4957 H   0  0  0  0  0  0
  -29.0489  -21.5196   23.1357 H   0  0  0  0  0  0
  1 25  1  0  0  0
  1 30  2  0  0  0
  1 85  1  0  0  0
  2  3  1  0  0  0
  2 25  1  0  0  0
  2 89  1  0  0  0
  2 90  1  0  0  0
  3  4  1  0  0  0
  3 91  1  0  0  0
  3 92  1  0  0  0
  4  5  1  0  0  0
  4 93  1  0  0  0
  4 94  1  0  0  0
  5  6  1  0  0  0
  5 26  1  0  0  0
  5 95  1  0  0  0
  6 25  1  0  0  0
  6 96  1  0  0  0
  6 97  1  0  0  0
  7  8  2  0  0  0
  7 26  1  0  0  0
  7 29  1  0  0  0
  8  9  1  0  0  0
  8 22  1  0  0  0
  9 10  1  0  0  0
  9 27  2  0  0  0
 10 11  2  0  0  0
 10 15  1  0  0  0
 11 12  1  0  0  0
 11 98  1  0  0  0
 12 13  2  0  0  0
 12 99  1  0  0  0
 13 14  1  0  0  0
 13 31  1  0  0  0
 14 15  2  0  0  0
 14100  1  0  0  0
 15101  1  0  0  0
 16 17  2  0  0  0
 16 21  1  0  0  0
 16 31  1  0  0  0
 17 18  1  0  0  0
 17102  1  0  0  0
 18 19  2  0  0  0
 18103  1  0  0  0
 19 20  1  0  0  0
 19 24  1  0  0  0
 20 21  2  0  0  0
 20104  1  0  0  0
 21 23  1  0  0  0
 22 28  1  0  0  0
 22 32  2  0  0  0
 26 27  1  0  0  0
 28105  1  0  0  0
 28106  1  0  0  0
 29107  1  0  0  0
 29108  1  0  0  0
 33 34  1  0  0  0
 33 66  1  0  0  0
 33 70  2  0  0  0
 34 36  1  0  0  0
 34 59  1  0  0  0
 34109  1  0  0  0
 35 44  2  0  0  0
 35 45  1  0  0  0
 35 68  1  0  0  0
 36 56  1  0  0  0
 36110  1  0  0  0
 37 39  1  0  0  0
 37 47  1  0  0  0
 37 66  1  0  0  0
 37111  1  0  0  0
 38 43  2  0  0  0
 38 46  1  0  0  0
 38 47  1  0  0  0
 39 64  1  0  0  0
 39 67  2  0  0  0
 40 52  1  0  0  0
 40 53  2  0  0  0
 40 58  1  0  0  0
 41112  1  0  0  0
 41113  1  0  0  0
 41114  1  0  0  0
 41 48  1  0  0  0
 42 43  1  0  0  0
 42 66  1  0  0  0
 42115  1  0  0  0
 42116  1  0  0  0
 43 44  1  0  0  0
 44117  1  0  0  0
 45 46  2  0  0  0
 45118  1  0  0  0
 46119  1  0  0  0
 47120  1  0  0  0
 47121  1  0  0  0
 48 56  1  0  0  0
 48 65  1  0  0  0
 48122  1  0  0  0
 49 50  1  0  0  0
 49 53  1  0  0  0
 49 64  1  0  0  0
 49123  1  0  0  0
 50 51  1  0  0  0
 50124  1  0  0  0
 50125  1  0  0  0
 51 52  1  0  0  0
 51126  1  0  0  0
 51127  1  0  0  0
 52128  1  0  0  0
 52129  1  0  0  0
 53 54  1  0  0  0
 54 55  2  0  0  0
 54130  1  0  0  0
 55 57  1  0  0  0
 55131  1  0  0  0
 56 69  2  0  0  0
 57 58  2  0  0  0
 57132  1  0  0  0
 58133  1  0  0  0
 59 60  1  0  0  0
 59 61  1  0  0  0
 59 62  1  0  0  0
 60134  1  0  0  0
 60135  1  0  0  0
 60136  1  0  0  0
 61137  1  0  0  0
 61138  1  0  0  0
 61139  1  0  0  0
 62140  1  0  0  0
 62141  1  0  0  0
 62142  1  0  0  0
 63 65  1  0  0  0
 63143  1  0  0  0
 63144  1  0  0  0
 63145  1  0  0  0
 64146  1  0  0  0
 65147  1  0  0  0
 68 81  1  0  0  0
 71 72  2  0  0  0
 71 74  1  0  0  0
 71148  1  0  0  0
 72 75  1  0  0  0
 72149  1  0  0  0
 73 75  2  0  0  0
 73 76  1  0  0  0
 73150  1  0  0  0
 74 76  2  0  0  0
 74 84  1  0  0  0
 75 85  1  0  0  0
 76 88  1  0  0  0
 77 78  1  0  0  0
 77 79  1  0  0  0
 77 81  2  0  0  0
 78 83  1  0  0  0
 78 86  2  0  0  0
 79 84  1  0  0  0
 79 87  2  0  0  0
 80 82  2  0  0  0
 80151  1  0  0  0
 80152  1  0  0  0
 81153  1  0  0  0
 82 85  1  0  0  0
 82154  1  0  0  0
 83 84  1  0  0  0
 83155  1  0  0  0
 83156  1  0  0  0
M  ISO  4   1 100  68 101  81 101  85 100
M  END
> <chiral flag>
0

> <version>
0

> <s_m_source_file>
/data/baiqing/PycharmProjects/Reinvent-master-3.2/result/LINK_invent/BTK/process_docking_weight1_custom_product_contain_oxygen_bond_distance_aromatic_linkinvent_7_9_3/rearranged_h_0088.sdf

> <i_m_source_file_index>
21

> <r_mmod_Potential_Energy-OPLS-2005>
497.653991699219

> <r_mmod_Stretch_Energy-OPLS-2005>
124.470664978027

> <r_mmod_Bend_Energy-OPLS-2005>
258.377777099609

> <r_mmod_Torsional_Energy-OPLS-2005>
408.413513183594

> <r_mmod_Improper_Torsional_Energy-OPLS-2005>
8.63776016235352

> <r_mmod_Van_der_Waal_Energy-OPLS-2005>
137.290634155273

> <r_mmod_Electrostatic_Energy-OPLS-2005>
-300.307739257812

> <r_mmod_Solvation_Energy-OPLS-2005>
-224.660415649414

> <b_mmod_Minimization_Converged-OPLS-2005>
0

> <r_mmod_RMS_Derivative-OPLS-2005>
1.41514527797699

$$$$
21
                    3D
 Structure written by MMmdl.
149157  0  0  1  0            999 V2000
  -30.5941  -14.6845   20.4789 C   0  0  0  0  0  0
  -30.4437  -12.4152   19.4592 C   0  0  0  0  0  0
  -29.5127  -12.5071   18.2286 C   0  0  0  0  0  0
  -28.0353  -12.3405   18.6378 C   0  0  0  0  0  0
  -27.6510  -13.2164   19.8597 C   0  0  2  0  0  0
  -28.6961  -13.0868   20.9907 C   0  0  0  0  0  0
  -25.2555  -13.8167   20.5683 C   0  0  0  0  0  0
  -24.1823  -13.0433   20.9198 C   0  0  0  0  0  0
  -24.6387  -11.6905   20.8734 C   0  0  0  0  0  0
  -23.9053  -10.4288   21.0399 C   0  0  0  0  0  0
  -24.3608   -9.4207   21.9177 C   0  0  0  0  0  0
  -23.6283   -8.2244   22.0751 C   0  0  0  0  0  0
  -22.4268   -8.0279   21.3543 C   0  0  0  0  0  0
  -21.9896   -9.0254   20.4645 C   0  0  0  0  0  0
  -22.7223  -10.2132   20.3054 C   0  0  0  0  0  0
  -21.6855   -6.0729   22.5273 C   0  0  0  0  0  0
  -21.4020   -6.5635   23.8208 C   0  0  0  0  0  0
  -21.3659   -5.6786   24.9168 C   0  0  0  0  0  0
  -21.6041   -4.3049   24.7219 C   0  0  0  0  0  0
  -21.8821   -3.8141   23.4342 C   0  0  0  0  0  0
  -21.9195   -4.6956   22.3396 C   0  0  0  0  0  0
  -22.7845  -13.5228   21.1858 C   0  0  0  0  0  0
  -22.1660   -4.2143   21.0971 F   0  0  0  0  0  0
  -21.5626   -3.4532   25.7734 F   0  0  0  0  0  0
  -30.0072  -13.4436   20.4263 N   0  0  0  0  0  0
  -26.2975  -12.9343   20.3289 N   0  0  0  0  0  0
  -25.9315  -11.6501   20.5742 N   0  0  0  0  0  0
  -22.0484  -12.8234   22.0418 N   0  0  0  0  0  0
  -25.4261  -15.1888   20.4085 N   0  0  0  0  0  0
  -31.7637  -14.8490   20.1189 O   0  0  0  0  0  0
  -21.6639   -6.8873   21.4237 O   0  0  0  0  0  0
  -22.3532  -14.5531   20.6698 O   0  0  0  0  0  0
  -24.6276  -31.8581   23.2004 C   0  0  0  0  0  0
  -25.9111  -32.4768   23.8348 C   0  0  1  0  0  0
  -27.2274  -27.3038   20.1261 C   0  0  0  0  0  0
  -25.5920  -33.8567   24.2274 N   0  0  0  0  0  0
  -23.4235  -30.4793   21.5433 C   0  0  2  0  0  0
  -24.8721  -28.9288   20.1138 C   0  0  0  0  0  0
  -22.7486  -29.4610   22.4934 C   0  0  0  0  0  0
  -18.0290  -28.1385   22.8491 C   0  0  0  0  0  0
  -24.1491  -36.7294   23.2642 C   0  0  0  0  0  0
  -25.9652  -30.7839   21.3737 C   0  0  0  0  0  0
  -26.0414  -29.4083   20.7191 C   0  0  0  0  0  0
  -27.2247  -28.6083   20.7131 C   0  0  0  0  0  0
  -26.0391  -26.8814   19.4924 C   0  0  0  0  0  0
  -24.8730  -27.6707   19.4912 C   0  0  0  0  0  0
  -23.6402  -29.8106   20.1603 C   0  0  0  0  0  0
  -25.4114  -36.3077   24.0330 C   0  0  1  0  0  0
  -20.5890  -28.3692   23.1280 C   0  0  2  0  0  0
  -20.6779  -26.9416   22.5402 C   0  0  0  0  0  0
  -19.5745  -26.6383   21.5214 C   0  0  0  0  0  0
  -18.1933  -26.7923   22.1641 C   0  0  0  0  0  0
  -19.1541  -28.8857   23.2879 C   0  0  0  0  0  0
  -18.9463  -30.1460   23.8895 C   0  0  0  0  0  0
  -17.6462  -30.6588   24.0563 C   0  0  0  0  0  0
  -25.9048  -34.9445   23.5105 C   0  0  0  0  0  0
  -16.5354  -29.9087   23.6325 C   0  0  0  0  0  0
  -16.7278  -28.6502   23.0353 C   0  0  0  0  0  0
  -26.4487  -31.6584   25.0726 C   0  0  0  0  0  0
  -25.3722  -31.3743   26.1463 C   0  0  0  0  0  0
  -27.0323  -30.3003   24.6190 C   0  0  0  0  0  0
  -27.6056  -32.4316   25.7486 C   0  0  0  0  0  0
  -27.5568  -37.1815   24.8474 C   0  0  0  0  0  0
  -21.4197  -29.3045   22.3676 N   0  0  0  0  0  0
  -26.4298  -37.3763   23.9392 N   0  0  0  0  0  0
  -24.6910  -31.0575   22.0964 N   0  0  0  0  0  0
  -23.4199  -28.8154   23.3023 O   0  0  0  0  0  0
  -28.3340  -26.4383   20.1398 O   0  0  0  0  0  0
  -26.5621  -34.8912   22.4674 O   0  0  0  0  0  0
  -23.5434  -32.1386   23.7319 O   0  0  0  0  0  0
  -28.5234  -19.3504   20.3931 C   0  0  0  0  0  0
  -28.5843  -17.9388   20.6237 C   0  0  0  0  0  0
  -30.9601  -17.9630   20.3069 C   0  0  0  0  0  0
  -29.6821  -20.1192   20.1061 C   0  0  0  0  0  0
  -29.7955  -17.1893   20.5638 C   0  0  0  0  0  0
  -30.9066  -19.3787   20.0898 C   0  0  0  0  0  0
  -28.9109  -23.8443   19.9983 C   0  0  0  0  0  0
  -29.6199  -21.6060   19.6585 C   0  0  0  0  0  0
  -28.1161  -25.0512   20.6448 C   0  0  0  0  0  0
  -28.8952  -22.5883   20.3969 N   0  0  0  0  0  0
  -29.7492  -15.7304   20.7791 N   0  0  0  0  0  0
  -30.2659  -21.8653   18.6389 O   0  0  0  0  0  0
  -32.0716  -20.0215   19.8292 F   0  0  0  0  0  0
  -31.4832  -12.5518   19.1559 H   0  0  0  0  0  0
  -30.3913  -11.4233   19.9104 H   0  0  0  0  0  0
  -29.7837  -11.7483   17.4933 H   0  0  0  0  0  0
  -29.6498  -13.4715   17.7363 H   0  0  0  0  0  0
  -27.8757  -11.2881   18.8738 H   0  0  0  0  0  0
  -27.3824  -12.5646   17.7937 H   0  0  0  0  0  0
  -27.6621  -14.2481   19.5092 H   0  0  0  0  0  0
  -28.7166  -12.0670   21.3776 H   0  0  0  0  0  0
  -28.4352  -13.7213   21.8395 H   0  0  0  0  0  0
  -25.2757   -9.5684   22.4748 H   0  0  0  0  0  0
  -23.9991   -7.4638   22.7475 H   0  0  0  0  0  0
  -21.0823   -8.8772   19.8955 H   0  0  0  0  0  0
  -22.3678  -10.9673   19.6165 H   0  0  0  0  0  0
  -21.2020   -7.6147   23.9710 H   0  0  0  0  0  0
  -21.1475   -6.0516   25.9069 H   0  0  0  0  0  0
  -22.0602   -2.7603   23.2845 H   0  0  0  0  0  0
  -22.4097  -11.9901   22.4822 H   0  0  0  0  0  0
  -21.1104  -13.1274   22.2618 H   0  0  0  0  0  0
  -24.6535  -15.8385   20.5101 H   0  0  0  0  0  0
  -26.2566  -15.6209   20.0263 H   0  0  0  0  0  0
  -26.7183  -32.5434   23.1102 H   0  0  0  0  0  0
  -25.0055  -33.9708   25.0412 H   0  0  0  0  0  0
  -22.7180  -31.2999   21.3972 H   0  0  0  0  0  0
  -23.3728  -35.9656   23.3347 H   0  0  0  0  0  0
  -24.3573  -36.8866   22.2047 H   0  0  0  0  0  0
  -23.7279  -37.6526   23.6633 H   0  0  0  0  0  0
  -26.0961  -31.5447   20.6030 H   0  0  0  0  0  0
  -26.8455  -30.8359   22.0028 H   0  0  0  0  0  0
  -28.1231  -28.9713   21.1927 H   0  0  0  0  0  0
  -26.0029  -25.9208   18.9989 H   0  0  0  0  0  0
  -23.9787  -27.2987   19.0100 H   0  0  0  0  0  0
  -23.7612  -30.5849   19.4018 H   0  0  0  0  0  0
  -22.7600  -29.2403   19.8581 H   0  0  0  0  0  0
  -25.1296  -36.1941   25.0824 H   0  0  0  0  0  0
  -20.9981  -28.3268   24.1401 H   0  0  0  0  0  0
  -20.5691  -26.2301   23.3601 H   0  0  0  0  0  0
  -21.6646  -26.7450   22.1186 H   0  0  0  0  0  0
  -19.6904  -25.6295   21.1243 H   0  0  0  0  0  0
  -19.6667  -27.3192   20.6742 H   0  0  0  0  0  0
  -17.4189  -26.6653   21.4062 H   0  0  0  0  0  0
  -18.0354  -26.0074   22.9050 H   0  0  0  0  0  0
  -19.7938  -30.7280   24.2261 H   0  0  0  0  0  0
  -17.5014  -31.6266   24.5167 H   0  0  0  0  0  0
  -15.5355  -30.2991   23.7643 H   0  0  0  0  0  0
  -15.8679  -28.0819   22.7072 H   0  0  0  0  0  0
  -24.5835  -30.7172   25.7782 H   0  0  0  0  0  0
  -24.8996  -32.2929   26.4954 H   0  0  0  0  0  0
  -25.8032  -30.8842   27.0202 H   0  0  0  0  0  0
  -26.2898  -29.6758   24.1209 H   0  0  0  0  0  0
  -27.4009  -29.7259   25.4699 H   0  0  0  0  0  0
  -27.8772  -30.4283   23.9419 H   0  0  0  0  0  0
  -27.2680  -33.3630   26.2043 H   0  0  0  0  0  0
  -28.3871  -32.6850   25.0309 H   0  0  0  0  0  0
  -28.0713  -31.8450   26.5416 H   0  0  0  0  0  0
  -28.2628  -38.0068   24.7452 H   0  0  0  0  0  0
  -28.1022  -36.2598   24.6394 H   0  0  0  0  0  0
  -27.2273  -37.1574   25.8876 H   0  0  0  0  0  0
  -20.9385  -29.8773   21.6884 H   0  0  0  0  0  0
  -26.0184  -38.2849   24.1345 H   0  0  0  0  0  0
  -27.5601  -19.8410   20.4037 H   0  0  0  0  0  0
  -27.6554  -17.4232   20.8242 H   0  0  0  0  0  0
  -31.9231  -17.4766   20.2614 H   0  0  0  0  0  0
  -29.4997  -24.1698   19.1352 H   0  0  0  0  0  0
  -28.3725  -25.0696   21.7041 H   0  0  0  0  0  0
  -27.0609  -24.7818   20.6244 H   0  0  0  0  0  0
  -28.8445  -15.3927   21.0675 H   0  0  0  0  0  0
  1 25  1  0  0  0
  1 30  2  0  0  0
  1 81  1  0  0  0
  2  3  1  0  0  0
  2 25  1  0  0  0
  2 84  1  0  0  0
  2 85  1  0  0  0
  3  4  1  0  0  0
  3 86  1  0  0  0
  3 87  1  0  0  0
  4  5  1  0  0  0
  4 88  1  0  0  0
  4 89  1  0  0  0
  5  6  1  0  0  0
  5 26  1  0  0  0
  5 90  1  0  0  0
  6 25  1  0  0  0
  6 91  1  0  0  0
  6 92  1  0  0  0
  7  8  2  0  0  0
  7 26  1  0  0  0
  7 29  1  0  0  0
  8  9  1  0  0  0
  8 22  1  0  0  0
  9 10  1  0  0  0
  9 27  2  0  0  0
 10 11  2  0  0  0
 10 15  1  0  0  0
 11 12  1  0  0  0
 11 93  1  0  0  0
 12 13  2  0  0  0
 12 94  1  0  0  0
 13 14  1  0  0  0
 13 31  1  0  0  0
 14 15  2  0  0  0
 14 95  1  0  0  0
 15 96  1  0  0  0
 16 17  2  0  0  0
 16 21  1  0  0  0
 16 31  1  0  0  0
 17 18  1  0  0  0
 17 97  1  0  0  0
 18 19  2  0  0  0
 18 98  1  0  0  0
 19 20  1  0  0  0
 19 24  1  0  0  0
 20 21  2  0  0  0
 20 99  1  0  0  0
 21 23  1  0  0  0
 22 28  1  0  0  0
 22 32  2  0  0  0
 26 27  1  0  0  0
 28100  1  0  0  0
 28101  1  0  0  0
 29102  1  0  0  0
 29103  1  0  0  0
 33 34  1  0  0  0
 33 66  1  0  0  0
 33 70  2  0  0  0
 34 36  1  0  0  0
 34 59  1  0  0  0
 34104  1  0  0  0
 35 44  2  0  0  0
 35 45  1  0  0  0
 35 68  1  0  0  0
 36 56  1  0  0  0
 36105  1  0  0  0
 37 39  1  0  0  0
 37 47  1  0  0  0
 37 66  1  0  0  0
 37106  1  0  0  0
 38 43  2  0  0  0
 38 46  1  0  0  0
 38 47  1  0  0  0
 39 64  1  0  0  0
 39 67  2  0  0  0
 40 52  1  0  0  0
 40 53  2  0  0  0
 40 58  1  0  0  0
 41107  1  0  0  0
 41108  1  0  0  0
 41109  1  0  0  0
 41 48  1  0  0  0
 42 43  1  0  0  0
 42 66  1  0  0  0
 42110  1  0  0  0
 42111  1  0  0  0
 43 44  1  0  0  0
 44112  1  0  0  0
 45 46  2  0  0  0
 45113  1  0  0  0
 46114  1  0  0  0
 47115  1  0  0  0
 47116  1  0  0  0
 48 56  1  0  0  0
 48 65  1  0  0  0
 48117  1  0  0  0
 49 50  1  0  0  0
 49 53  1  0  0  0
 49 64  1  0  0  0
 49118  1  0  0  0
 50 51  1  0  0  0
 50119  1  0  0  0
 50120  1  0  0  0
 51 52  1  0  0  0
 51121  1  0  0  0
 51122  1  0  0  0
 52123  1  0  0  0
 52124  1  0  0  0
 53 54  1  0  0  0
 54 55  2  0  0  0
 54125  1  0  0  0
 55 57  1  0  0  0
 55126  1  0  0  0
 56 69  2  0  0  0
 57 58  2  0  0  0
 57127  1  0  0  0
 58128  1  0  0  0
 59 60  1  0  0  0
 59 61  1  0  0  0
 59 62  1  0  0  0
 60129  1  0  0  0
 60130  1  0  0  0
 60131  1  0  0  0
 61132  1  0  0  0
 61133  1  0  0  0
 61134  1  0  0  0
 62135  1  0  0  0
 62136  1  0  0  0
 62137  1  0  0  0
 63 65  1  0  0  0
 63138  1  0  0  0
 63139  1  0  0  0
 63140  1  0  0  0
 64141  1  0  0  0
 65142  1  0  0  0
 68 79  1  0  0  0
 71 72  2  0  0  0
 71 74  1  0  0  0
 71143  1  0  0  0
 72 75  1  0  0  0
 72144  1  0  0  0
 73 75  2  0  0  0
 73 76  1  0  0  0
 73145  1  0  0  0
 74 76  2  0  0  0
 74 78  1  0  0  0
 75 81  1  0  0  0
 76 83  1  0  0  0
 77 79  1  0  0  0
 77 80  2  0  0  0
 77146  1  0  0  0
 78 80  1  0  0  0
 78 82  2  0  0  0
 79147  1  0  0  0
 79148  1  0  0  0
 81149  1  0  0  0
M  ISO  4   1 100  68 101  79 101  81 100
M  END
> <chiral flag>
0

> <version>
0

> <s_m_source_file>
/data/baiqing/PycharmProjects/Reinvent-master-3.2/result/LINK_invent/BTK/process_docking_weight1_custom_product_contain_oxygen_bond_distance_aromatic_linkinvent_7_9_3/rearranged_h_0088.sdf

> <i_m_source_file_index>
22

> <r_mmod_Potential_Energy-OPLS-2005>
117.288688659668

> <r_mmod_Stretch_Energy-OPLS-2005>
93.9881362915039

> <r_mmod_Bend_Energy-OPLS-2005>
143.158737182617

> <r_mmod_Torsional_Energy-OPLS-2005>
230.474792480469

> <r_mmod_Improper_Torsional_Energy-OPLS-2005>
5.39532899856567

> <r_mmod_Van_der_Waal_Energy-OPLS-2005>
147.806732177734

> <r_mmod_Electrostatic_Energy-OPLS-2005>
-354.025787353516

> <r_mmod_Solvation_Energy-OPLS-2005>
-209.601470947266

> <b_mmod_Minimization_Converged-OPLS-2005>
0

> <r_mmod_RMS_Derivative-OPLS-2005>
0.876761496067047

$$$$
22
                    3D
 Structure written by MMmdl.
156165  0  0  1  0            999 V2000
  -30.6099  -14.6938   20.4659 C   0  0  0  0  0  0
  -30.4427  -12.4213   19.4551 C   0  0  0  0  0  0
  -29.5090  -12.5073   18.2267 C   0  0  0  0  0  0
  -28.0332  -12.3389   18.6423 C   0  0  0  0  0  0
  -27.6488  -13.2219   19.8600 C   0  0  2  0  0  0
  -28.7001  -13.1092   20.9875 C   0  0  0  0  0  0
  -25.2518  -13.8150   20.5749 C   0  0  0  0  0  0
  -24.1794  -13.0390   20.9182 C   0  0  0  0  0  0
  -24.6393  -11.6880   20.8724 C   0  0  0  0  0  0
  -23.9069  -10.4266   21.0387 C   0  0  0  0  0  0
  -24.3617   -9.4191   21.9175 C   0  0  0  0  0  0
  -23.6287   -8.2233   22.0753 C   0  0  0  0  0  0
  -22.4269   -8.0270   21.3543 C   0  0  0  0  0  0
  -21.9904   -9.0239   20.4643 C   0  0  0  0  0  0
  -22.7237  -10.2113   20.3043 C   0  0  0  0  0  0
  -21.6850   -6.0729   22.5279 C   0  0  0  0  0  0
  -21.4012   -6.5634   23.8212 C   0  0  0  0  0  0
  -21.3660   -5.6788   24.9175 C   0  0  0  0  0  0
  -21.6045   -4.3051   24.7225 C   0  0  0  0  0  0
  -21.8821   -3.8143   23.4346 C   0  0  0  0  0  0
  -21.9193   -4.6959   22.3402 C   0  0  0  0  0  0
  -22.7818  -13.5184   21.1853 C   0  0  0  0  0  0
  -22.1661   -4.2146   21.0979 F   0  0  0  0  0  0
  -21.5632   -3.4535   25.7738 F   0  0  0  0  0  0
  -30.0088  -13.4592   20.4120 N   0  0  0  0  0  0
  -26.2977  -12.9369   20.3353 N   0  0  0  0  0  0
  -25.9331  -11.6507   20.5761 N   0  0  0  0  0  0
  -22.0470  -12.8180   22.0420 N   0  0  0  0  0  0
  -25.4063  -15.1892   20.4338 N   0  0  0  0  0  0
  -31.7923  -14.8369   20.1409 O   0  0  0  0  0  0
  -21.6633   -6.8869   21.4241 O   0  0  0  0  0  0
  -22.3496  -14.5494   20.6711 O   0  0  0  0  0  0
  -24.6278  -31.8584   23.2021 C   0  0  0  0  0  0
  -25.9119  -32.4772   23.8355 C   0  0  1  0  0  0
  -27.2260  -27.2975   20.1236 C   0  0  0  0  0  0
  -25.5928  -33.8574   24.2278 N   0  0  0  0  0  0
  -23.4237  -30.4814   21.5442 C   0  0  2  0  0  0
  -24.8736  -28.9352   20.1100 C   0  0  0  0  0  0
  -22.7487  -29.4615   22.4923 C   0  0  0  0  0  0
  -18.0290  -28.1386   22.8487 C   0  0  0  0  0  0
  -24.1490  -36.7291   23.2638 C   0  0  0  0  0  0
  -25.9673  -30.7796   21.3808 C   0  0  0  0  0  0
  -26.0417  -29.4045   20.7253 C   0  0  0  0  0  0
  -27.2199  -28.5948   20.7295 C   0  0  0  0  0  0
  -26.0423  -26.8999   19.4604 C   0  0  0  0  0  0
  -24.8764  -27.6879   19.4685 C   0  0  0  0  0  0
  -23.6417  -29.8170   20.1595 C   0  0  0  0  0  0
  -25.4116  -36.3082   24.0328 C   0  0  1  0  0  0
  -20.5892  -28.3695   23.1275 C   0  0  2  0  0  0
  -20.6777  -26.9415   22.5409 C   0  0  0  0  0  0
  -19.5752  -26.6385   21.5212 C   0  0  0  0  0  0
  -18.1933  -26.7929   22.1626 C   0  0  0  0  0  0
  -19.1543  -28.8858   23.2876 C   0  0  0  0  0  0
  -18.9464  -30.1457   23.8895 C   0  0  0  0  0  0
  -17.6464  -30.6587   24.0565 C   0  0  0  0  0  0
  -25.9052  -34.9449   23.5104 C   0  0  0  0  0  0
  -16.5355  -29.9085   23.6331 C   0  0  0  0  0  0
  -16.7277  -28.6501   23.0355 C   0  0  0  0  0  0
  -26.4499  -31.6586   25.0731 C   0  0  0  0  0  0
  -25.3725  -31.3726   26.1453 C   0  0  0  0  0  0
  -27.0345  -30.3005   24.6203 C   0  0  0  0  0  0
  -27.6053  -32.4324   25.7504 C   0  0  0  0  0  0
  -27.5580  -37.1803   24.8466 C   0  0  0  0  0  0
  -21.4198  -29.3045   22.3666 N   0  0  0  0  0  0
  -26.4294  -37.3776   23.9407 N   0  0  0  0  0  0
  -24.6915  -31.0571   22.0988 N   0  0  0  0  0  0
  -23.4199  -28.8152   23.3011 O   0  0  0  0  0  0
  -28.3173  -26.4054   20.1667 O   0  0  0  0  0  0
  -26.5624  -34.8917   22.4672 O   0  0  0  0  0  0
  -23.5436  -32.1397   23.7330 O   0  0  0  0  0  0
  -28.5667  -19.3264   20.1036 C   0  0  0  0  0  0
  -30.8616  -19.4857   20.7783 C   0  0  0  0  0  0
  -29.6601  -20.1796   20.4252 C   0  0  0  0  0  0
  -28.6646  -17.9002   20.1372 C   0  0  0  0  0  0
  -30.9603  -18.0543   20.8504 C   0  0  0  0  0  0
  -29.8497  -17.2177   20.5351 C   0  0  0  0  0  0
  -28.8989  -23.9228   20.2891 C   0  0  0  0  0  0
  -30.3227  -23.9163   20.0362 C   0  0  0  0  0  0
  -28.4992  -22.5063   20.4781 C   0  0  0  0  0  0
  -28.0569  -25.0192   20.3567 C   0  0  0  0  0  0
  -30.8113  -22.4706   20.1351 C   0  0  0  0  0  0
  -29.5924  -21.6669   20.3509 N   0  0  0  0  0  0
  -27.5665  -17.1408   19.7284 N   0  0  0  0  0  0
  -32.1627  -17.4783   21.2588 N   0  0  0  0  0  0
  -29.7681  -15.7547   20.6912 N   0  0  0  0  0  0
  -31.0594  -24.8797   19.7979 O   0  0  0  0  0  0
  -27.3502  -22.1180   20.7208 O   0  0  0  0  0  0
  -31.4819  -12.5543   19.1490 H   0  0  0  0  0  0
  -30.3892  -11.4335   19.9154 H   0  0  0  0  0  0
  -29.7797  -11.7469   17.4930 H   0  0  0  0  0  0
  -29.6417  -13.4703   17.7307 H   0  0  0  0  0  0
  -27.8799  -11.2872   18.8877 H   0  0  0  0  0  0
  -27.3757  -12.5518   17.7985 H   0  0  0  0  0  0
  -27.6501  -14.2501   19.5008 H   0  0  0  0  0  0
  -28.7241  -12.0964   21.3924 H   0  0  0  0  0  0
  -28.4450  -13.7612   21.8247 H   0  0  0  0  0  0
  -25.2761   -9.5671   22.4748 H   0  0  0  0  0  0
  -23.9996   -7.4626   22.7473 H   0  0  0  0  0  0
  -21.0837   -8.8752   19.8949 H   0  0  0  0  0  0
  -22.3695  -10.9647   19.6148 H   0  0  0  0  0  0
  -21.2001   -7.6141   23.9716 H   0  0  0  0  0  0
  -21.1483   -6.0517   25.9078 H   0  0  0  0  0  0
  -22.0603   -2.7606   23.2846 H   0  0  0  0  0  0
  -22.4089  -11.9839   22.4800 H   0  0  0  0  0  0
  -21.1093  -13.1210   22.2644 H   0  0  0  0  0  0
  -24.6268  -15.8195   20.5818 H   0  0  0  0  0  0
  -26.2706  -15.6961   20.2422 H   0  0  0  0  0  0
  -26.7186  -32.5437   23.1100 H   0  0  0  0  0  0
  -25.0071  -33.9718   25.0421 H   0  0  0  0  0  0
  -22.7187  -31.3027   21.3996 H   0  0  0  0  0  0
  -23.3751  -35.9624   23.3306 H   0  0  0  0  0  0
  -24.3579  -36.8908   22.2052 H   0  0  0  0  0  0
  -23.7243  -37.6493   23.6659 H   0  0  0  0  0  0
  -26.1034  -31.5409   20.6114 H   0  0  0  0  0  0
  -26.8458  -30.8291   22.0123 H   0  0  0  0  0  0
  -28.1124  -28.9451   21.2288 H   0  0  0  0  0  0
  -26.0015  -25.9506   18.9453 H   0  0  0  0  0  0
  -23.9858  -27.3270   18.9728 H   0  0  0  0  0  0
  -23.7618  -30.5942   19.4038 H   0  0  0  0  0  0
  -22.7620  -29.2469   19.8553 H   0  0  0  0  0  0
  -25.1297  -36.1934   25.0821 H   0  0  0  0  0  0
  -20.9985  -28.3271   24.1395 H   0  0  0  0  0  0
  -20.5674  -26.2307   23.3612 H   0  0  0  0  0  0
  -21.6645  -26.7438   22.1203 H   0  0  0  0  0  0
  -19.6912  -25.6294   21.1245 H   0  0  0  0  0  0
  -19.6686  -27.3193   20.6740 H   0  0  0  0  0  0
  -17.4201  -26.6679   21.4029 H   0  0  0  0  0  0
  -18.0333  -26.0067   22.9019 H   0  0  0  0  0  0
  -19.7939  -30.7276   24.2263 H   0  0  0  0  0  0
  -17.5017  -31.6267   24.5167 H   0  0  0  0  0  0
  -15.5355  -30.2988   23.7652 H   0  0  0  0  0  0
  -15.8677  -28.0818   22.7074 H   0  0  0  0  0  0
  -24.5905  -30.7071   25.7779 H   0  0  0  0  0  0
  -24.8910  -32.2892   26.4869 H   0  0  0  0  0  0
  -25.8045  -30.8909   27.0234 H   0  0  0  0  0  0
  -26.2927  -29.6753   24.1220 H   0  0  0  0  0  0
  -27.4026  -29.7263   25.4716 H   0  0  0  0  0  0
  -27.8806  -30.4281   23.9446 H   0  0  0  0  0  0
  -27.2660  -33.3626   26.2074 H   0  0  0  0  0  0
  -28.3869  -32.6884   25.0338 H   0  0  0  0  0  0
  -28.0717  -31.8455   26.5427 H   0  0  0  0  0  0
  -28.2601  -38.0098   24.7509 H   0  0  0  0  0  0
  -28.1075  -36.2628   24.6300 H   0  0  0  0  0  0
  -27.2298  -37.1462   25.8870 H   0  0  0  0  0  0
  -20.9379  -29.8775   21.6880 H   0  0  0  0  0  0
  -26.0175  -38.2852   24.1402 H   0  0  0  0  0  0
  -27.6336  -19.7711   19.7893 H   0  0  0  0  0  0
  -31.7373  -20.0667   21.0291 H   0  0  0  0  0  0
  -27.0189  -24.8426   20.6012 H   0  0  0  0  0  0
  -31.5018  -22.3734   20.9726 H   0  0  0  0  0  0
  -31.3173  -22.1746   19.2162 H   0  0  0  0  0  0
  -26.8082  -17.6901   19.3370 H   0  0  0  0  0  0
  -27.8222  -16.4157   19.0678 H   0  0  0  0  0  0
  -33.0060  -18.0280   21.1342 H   0  0  0  0  0  0
  -32.2891  -16.5128   20.9474 H   0  0  0  0  0  0
  -28.8149  -15.4605   20.8328 H   0  0  0  0  0  0
  1 25  1  0  0  0
  1 30  2  0  0  0
  1 85  1  0  0  0
  2  3  1  0  0  0
  2 25  1  0  0  0
  2 88  1  0  0  0
  2 89  1  0  0  0
  3  4  1  0  0  0
  3 90  1  0  0  0
  3 91  1  0  0  0
  4  5  1  0  0  0
  4 92  1  0  0  0
  4 93  1  0  0  0
  5  6  1  0  0  0
  5 26  1  0  0  0
  5 94  1  0  0  0
  6 25  1  0  0  0
  6 95  1  0  0  0
  6 96  1  0  0  0
  7  8  2  0  0  0
  7 26  1  0  0  0
  7 29  1  0  0  0
  8  9  1  0  0  0
  8 22  1  0  0  0
  9 10  1  0  0  0
  9 27  2  0  0  0
 10 11  2  0  0  0
 10 15  1  0  0  0
 11 12  1  0  0  0
 11 97  1  0  0  0
 12 13  2  0  0  0
 12 98  1  0  0  0
 13 14  1  0  0  0
 13 31  1  0  0  0
 14 15  2  0  0  0
 14 99  1  0  0  0
 15100  1  0  0  0
 16 17  2  0  0  0
 16 21  1  0  0  0
 16 31  1  0  0  0
 17 18  1  0  0  0
 17101  1  0  0  0
 18 19  2  0  0  0
 18102  1  0  0  0
 19 20  1  0  0  0
 19 24  1  0  0  0
 20 21  2  0  0  0
 20103  1  0  0  0
 21 23  1  0  0  0
 22 28  1  0  0  0
 22 32  2  0  0  0
 26 27  1  0  0  0
 28104  1  0  0  0
 28105  1  0  0  0
 29106  1  0  0  0
 29107  1  0  0  0
 33 34  1  0  0  0
 33 66  1  0  0  0
 33 70  2  0  0  0
 34 36  1  0  0  0
 34 59  1  0  0  0
 34108  1  0  0  0
 35 44  2  0  0  0
 35 45  1  0  0  0
 35 68  1  0  0  0
 36 56  1  0  0  0
 36109  1  0  0  0
 37 39  1  0  0  0
 37 47  1  0  0  0
 37 66  1  0  0  0
 37110  1  0  0  0
 38 43  2  0  0  0
 38 46  1  0  0  0
 38 47  1  0  0  0
 39 64  1  0  0  0
 39 67  2  0  0  0
 40 52  1  0  0  0
 40 53  2  0  0  0
 40 58  1  0  0  0
 41111  1  0  0  0
 41112  1  0  0  0
 41113  1  0  0  0
 41 48  1  0  0  0
 42 43  1  0  0  0
 42 66  1  0  0  0
 42114  1  0  0  0
 42115  1  0  0  0
 43 44  1  0  0  0
 44116  1  0  0  0
 45 46  2  0  0  0
 45117  1  0  0  0
 46118  1  0  0  0
 47119  1  0  0  0
 47120  1  0  0  0
 48 56  1  0  0  0
 48 65  1  0  0  0
 48121  1  0  0  0
 49 50  1  0  0  0
 49 53  1  0  0  0
 49 64  1  0  0  0
 49122  1  0  0  0
 50 51  1  0  0  0
 50123  1  0  0  0
 50124  1  0  0  0
 51 52  1  0  0  0
 51125  1  0  0  0
 51126  1  0  0  0
 52127  1  0  0  0
 52128  1  0  0  0
 53 54  1  0  0  0
 54 55  2  0  0  0
 54129  1  0  0  0
 55 57  1  0  0  0
 55130  1  0  0  0
 56 69  2  0  0  0
 57 58  2  0  0  0
 57131  1  0  0  0
 58132  1  0  0  0
 59 60  1  0  0  0
 59 61  1  0  0  0
 59 62  1  0  0  0
 60133  1  0  0  0
 60134  1  0  0  0
 60135  1  0  0  0
 61136  1  0  0  0
 61137  1  0  0  0
 61138  1  0  0  0
 62139  1  0  0  0
 62140  1  0  0  0
 62141  1  0  0  0
 63 65  1  0  0  0
 63142  1  0  0  0
 63143  1  0  0  0
 63144  1  0  0  0
 64145  1  0  0  0
 65146  1  0  0  0
 68 80  1  0  0  0
 71 73  2  0  0  0
 71 74  1  0  0  0
 71147  1  0  0  0
 72 73  1  0  0  0
 72 75  2  0  0  0
 72148  1  0  0  0
 73 82  1  0  0  0
 74 76  2  0  0  0
 74 83  1  0  0  0
 75 76  1  0  0  0
 75 84  1  0  0  0
 76 85  1  0  0  0
 77 78  1  0  0  0
 77 79  1  0  0  0
 77 80  2  0  0  0
 78 81  1  0  0  0
 78 86  2  0  0  0
 79 82  1  0  0  0
 79 87  2  0  0  0
 80149  1  0  0  0
 81 82  1  0  0  0
 81150  1  0  0  0
 81151  1  0  0  0
 83152  1  0  0  0
 83153  1  0  0  0
 84154  1  0  0  0
 84155  1  0  0  0
 85156  1  0  0  0
M  ISO  4   1 100  68 101  80 101  85 100
M  END
> <chiral flag>
0

> <version>
0

> <s_m_source_file>
/data/baiqing/PycharmProjects/Reinvent-master-3.2/result/LINK_invent/BTK/process_docking_weight1_custom_product_contain_oxygen_bond_distance_aromatic_linkinvent_7_9_3/rearranged_h_0088.sdf

> <i_m_source_file_index>
23

> <r_mmod_Potential_Energy-OPLS-2005>
16.6991004943848

> <r_mmod_Stretch_Energy-OPLS-2005>
92.9879150390625

> <r_mmod_Bend_Energy-OPLS-2005>
196.00456237793

> <r_mmod_Torsional_Energy-OPLS-2005>
271.898834228516

> <r_mmod_Improper_Torsional_Energy-OPLS-2005>
15.5907363891602

> <r_mmod_Van_der_Waal_Energy-OPLS-2005>
150.558792114258

> <r_mmod_Electrostatic_Energy-OPLS-2005>
-538.5390625

> <r_mmod_Solvation_Energy-OPLS-2005>
-238.097839355469

> <b_mmod_Minimization_Converged-OPLS-2005>
0

> <r_mmod_RMS_Derivative-OPLS-2005>
0.306821525096893

$$$$
23
                    3D
 Structure written by MMmdl.
151159  0  0  1  0            999 V2000
  -30.5256  -14.8894   20.4787 C   0  0  0  0  0  0
  -30.4609  -12.5587   19.4902 C   0  0  0  0  0  0
  -29.5271  -12.5546   18.2528 C   0  0  0  0  0  0
  -28.0518  -12.3479   18.6562 C   0  0  0  0  0  0
  -27.6475  -13.2292   19.8663 C   0  0  2  0  0  0
  -28.6949  -13.1155   20.9915 C   0  0  0  0  0  0
  -25.2536  -13.8171   20.5718 C   0  0  0  0  0  0
  -24.1803  -13.0419   20.9167 C   0  0  0  0  0  0
  -24.6396  -11.6897   20.8721 C   0  0  0  0  0  0
  -23.9068  -10.4282   21.0395 C   0  0  0  0  0  0
  -24.3617   -9.4202   21.9179 C   0  0  0  0  0  0
  -23.6288   -8.2240   22.0757 C   0  0  0  0  0  0
  -22.4271   -8.0278   21.3546 C   0  0  0  0  0  0
  -21.9905   -9.0250   20.4647 C   0  0  0  0  0  0
  -22.7236  -10.2127   20.3051 C   0  0  0  0  0  0
  -21.6850   -6.0735   22.5279 C   0  0  0  0  0  0
  -21.4013   -6.5641   23.8211 C   0  0  0  0  0  0
  -21.3657   -5.6795   24.9174 C   0  0  0  0  0  0
  -21.6043   -4.3057   24.7225 C   0  0  0  0  0  0
  -21.8819   -3.8149   23.4346 C   0  0  0  0  0  0
  -21.9192   -4.6964   22.3402 C   0  0  0  0  0  0
  -22.7830  -13.5212   21.1839 C   0  0  0  0  0  0
  -22.1660   -4.2151   21.0979 F   0  0  0  0  0  0
  -21.5627   -3.4540   25.7737 F   0  0  0  0  0  0
  -29.9753  -13.6008   20.4419 N   0  0  0  0  0  0
  -26.2970  -12.9367   20.3350 N   0  0  0  0  0  0
  -25.9332  -11.6506   20.5746 N   0  0  0  0  0  0
  -22.0483  -12.8209   22.0410 N   0  0  0  0  0  0
  -25.4256  -15.1896   20.4213 N   0  0  0  0  0  0
  -31.6788  -15.0295   20.0493 O   0  0  0  0  0  0
  -21.6635   -6.8876   21.4240 O   0  0  0  0  0  0
  -22.3511  -14.5520   20.6696 O   0  0  0  0  0  0
  -24.6407  -31.8470   23.1918 C   0  0  0  0  0  0
  -25.9194  -32.4707   23.8290 C   0  0  1  0  0  0
  -27.2216  -27.1712   20.1361 C   0  0  0  0  0  0
  -25.5954  -33.8514   24.2205 N   0  0  0  0  0  0
  -23.4423  -30.4690   21.5364 C   0  0  2  0  0  0
  -24.8922  -28.9048   20.1077 C   0  0  0  0  0  0
  -22.7553  -29.4567   22.4864 C   0  0  0  0  0  0
  -18.0302  -28.1398   22.8478 C   0  0  0  0  0  0
  -24.1489  -36.7260   23.2644 C   0  0  0  0  0  0
  -25.9974  -30.7287   21.3893 C   0  0  0  0  0  0
  -26.0682  -29.3448   20.7284 C   0  0  0  0  0  0
  -27.2320  -28.4922   20.7316 C   0  0  0  0  0  0
  -26.0224  -26.8347   19.4650 C   0  0  0  0  0  0
  -24.8804  -27.6608   19.4625 C   0  0  0  0  0  0
  -23.6669  -29.8023   20.1541 C   0  0  0  0  0  0
  -25.4121  -36.3039   24.0317 C   0  0  1  0  0  0
  -20.5914  -28.3724   23.1235 C   0  0  2  0  0  0
  -20.6787  -26.9428   22.5401 C   0  0  0  0  0  0
  -19.5758  -26.6383   21.5210 C   0  0  0  0  0  0
  -18.1939  -26.7936   22.1623 C   0  0  0  0  0  0
  -19.1559  -28.8878   23.2849 C   0  0  0  0  0  0
  -18.9479  -30.1473   23.8875 C   0  0  0  0  0  0
  -17.6478  -30.6594   24.0563 C   0  0  0  0  0  0
  -25.9073  -34.9414   23.5067 C   0  0  0  0  0  0
  -16.5368  -29.9089   23.6340 C   0  0  0  0  0  0
  -16.7288  -28.6508   23.0358 C   0  0  0  0  0  0
  -26.4525  -31.6573   25.0724 C   0  0  0  0  0  0
  -25.3709  -31.3758   26.1420 C   0  0  0  0  0  0
  -27.0400  -30.2972   24.6303 C   0  0  0  0  0  0
  -27.6054  -32.4347   25.7504 C   0  0  0  0  0  0
  -27.5573  -37.1785   24.8468 C   0  0  0  0  0  0
  -21.4249  -29.3054   22.3611 N   0  0  0  0  0  0
  -26.4286  -37.3750   23.9410 N   0  0  0  0  0  0
  -24.7129  -31.0352   22.0942 N   0  0  0  0  0  0
  -23.4209  -28.8105   23.2999 O   0  0  0  0  0  0
  -28.2759  -26.1961   20.2219 O   0  0  0  0  0  0
  -26.5654  -34.8905   22.4643 O   0  0  0  0  0  0
  -23.5533  -32.1341   23.7150 O   0  0  0  0  0  0
  -29.9817  -18.7854   21.5851 C   0  0  0  0  0  0
  -29.7326  -20.2021   21.3798 C   0  0  0  0  0  0
  -29.2849  -18.3023   19.3847 C   0  0  0  0  0  0
  -29.7539  -17.7418   20.6157 C   0  0  0  0  0  0
  -29.2020  -20.7389   20.1660 C   0  0  0  0  0  0
  -29.0235  -19.7150   19.1721 C   0  0  0  0  0  0
  -29.6607  -16.1940   21.0265 C   0  0  0  0  0  0
  -28.8965  -23.4522   20.4182 C   0  0  0  0  0  0
  -27.9978  -24.7169   19.8741 C   0  0  0  0  0  0
  -28.7958  -16.0154   21.9326 N   0  0  0  0  0  0
  -28.5290  -20.1090   17.9283 N   0  0  0  0  0  0
  -28.7252  -22.1568   19.8913 N   0  0  0  0  0  0
  -29.7231  -23.6576   21.3111 O   0  0  0  0  0  0
  -31.4895  -12.7391   19.1746 H   0  0  0  0  0  0
  -30.4770  -11.5763   19.9649 H   0  0  0  0  0  0
  -29.8352  -11.7807   17.5487 H   0  0  0  0  0  0
  -29.6268  -13.5042   17.7251 H   0  0  0  0  0  0
  -27.9222  -11.2952   18.9104 H   0  0  0  0  0  0
  -27.3939  -12.5390   17.8078 H   0  0  0  0  0  0
  -27.6494  -14.2607   19.5140 H   0  0  0  0  0  0
  -28.7839  -12.0762   21.3114 H   0  0  0  0  0  0
  -28.3828  -13.6340   21.8930 H   0  0  0  0  0  0
  -25.2762   -9.5677   22.4753 H   0  0  0  0  0  0
  -23.9993   -7.4634   22.7482 H   0  0  0  0  0  0
  -21.0833   -8.8768   19.8958 H   0  0  0  0  0  0
  -22.3693  -10.9664   19.6161 H   0  0  0  0  0  0
  -21.2006   -7.6149   23.9713 H   0  0  0  0  0  0
  -21.1478   -6.0526   25.9075 H   0  0  0  0  0  0
  -22.0601   -2.7611   23.2846 H   0  0  0  0  0  0
  -22.4097  -11.9860   22.4778 H   0  0  0  0  0  0
  -21.1117  -13.1255   22.2649 H   0  0  0  0  0  0
  -24.6770  -15.8551   20.5785 H   0  0  0  0  0  0
  -26.3187  -15.6301   20.2368 H   0  0  0  0  0  0
  -26.7257  -32.5311   23.1018 H   0  0  0  0  0  0
  -25.0088  -33.9637   25.0342 H   0  0  0  0  0  0
  -22.7435  -31.2944   21.3850 H   0  0  0  0  0  0
  -23.3754  -35.9588   23.3300 H   0  0  0  0  0  0
  -24.3575  -36.8898   22.2061 H   0  0  0  0  0  0
  -23.7241  -37.6452   23.6686 H   0  0  0  0  0  0
  -26.1539  -31.4853   20.6193 H   0  0  0  0  0  0
  -26.8682  -30.7733   22.0319 H   0  0  0  0  0  0
  -28.1249  -28.8218   21.2443 H   0  0  0  0  0  0
  -25.9241  -25.8940   18.9455 H   0  0  0  0  0  0
  -23.9848  -27.3217   18.9600 H   0  0  0  0  0  0
  -23.7996  -30.5789   19.4000 H   0  0  0  0  0  0
  -22.7820  -29.2435   19.8438 H   0  0  0  0  0  0
  -25.1305  -36.1870   25.0809 H   0  0  0  0  0  0
  -21.0010  -28.3316   24.1354 H   0  0  0  0  0  0
  -20.5684  -26.2339   23.3621 H   0  0  0  0  0  0
  -21.6652  -26.7435   22.1195 H   0  0  0  0  0  0
  -19.6922  -25.6288   21.1255 H   0  0  0  0  0  0
  -19.6693  -27.3182   20.6730 H   0  0  0  0  0  0
  -17.4208  -26.6683   21.4027 H   0  0  0  0  0  0
  -18.0341  -26.0080   22.9022 H   0  0  0  0  0  0
  -19.7957  -30.7294   24.2233 H   0  0  0  0  0  0
  -17.5032  -31.6271   24.5172 H   0  0  0  0  0  0
  -15.5368  -30.2986   23.7679 H   0  0  0  0  0  0
  -15.8687  -28.0822   22.7088 H   0  0  0  0  0  0
  -24.5889  -30.7111   25.7733 H   0  0  0  0  0  0
  -24.8899  -32.2941   26.4798 H   0  0  0  0  0  0
  -25.7987  -30.8955   27.0229 H   0  0  0  0  0  0
  -26.3024  -29.6682   24.1309 H   0  0  0  0  0  0
  -27.4019  -29.7280   25.4876 H   0  0  0  0  0  0
  -27.8923  -30.4213   23.9620 H   0  0  0  0  0  0
  -27.2649  -33.3672   26.2019 H   0  0  0  0  0  0
  -28.3894  -32.6877   25.0352 H   0  0  0  0  0  0
  -28.0692  -31.8517   26.5471 H   0  0  0  0  0  0
  -28.2586  -38.0084   24.7513 H   0  0  0  0  0  0
  -28.1073  -36.2615   24.6298 H   0  0  0  0  0  0
  -27.2289  -37.1436   25.8869 H   0  0  0  0  0  0
  -20.9457  -29.8778   21.6801 H   0  0  0  0  0  0
  -26.0152  -38.2816   24.1417 H   0  0  0  0  0  0
  -30.2947  -18.4818   22.5745 H   0  0  0  0  0  0
  -29.8956  -20.8766   22.2082 H   0  0  0  0  0  0
  -29.0362  -17.6073   18.5953 H   0  0  0  0  0  0
  -26.9953  -24.4773   20.2285 H   0  0  0  0  0  0
  -27.9648  -24.6405   18.7870 H   0  0  0  0  0  0
  -28.3520  -16.8919   22.1791 H   0  0  0  0  0  0
  -28.6058  -19.4317   17.1765 H   0  0  0  0  0  0
  -28.8024  -21.0320   17.6092 H   0  0  0  0  0  0
  -28.0829  -22.1668   19.1106 H   0  0  0  0  0  0
  1 25  1  0  0  0
  1 30  2  0  0  0
  1 77  1  0  0  0
  2  3  1  0  0  0
  2 25  1  0  0  0
  2 84  1  0  0  0
  2 85  1  0  0  0
  3  4  1  0  0  0
  3 86  1  0  0  0
  3 87  1  0  0  0
  4  5  1  0  0  0
  4 88  1  0  0  0
  4 89  1  0  0  0
  5  6  1  0  0  0
  5 26  1  0  0  0
  5 90  1  0  0  0
  6 25  1  0  0  0
  6 91  1  0  0  0
  6 92  1  0  0  0
  7  8  2  0  0  0
  7 26  1  0  0  0
  7 29  1  0  0  0
  8  9  1  0  0  0
  8 22  1  0  0  0
  9 10  1  0  0  0
  9 27  2  0  0  0
 10 11  2  0  0  0
 10 15  1  0  0  0
 11 12  1  0  0  0
 11 93  1  0  0  0
 12 13  2  0  0  0
 12 94  1  0  0  0
 13 14  1  0  0  0
 13 31  1  0  0  0
 14 15  2  0  0  0
 14 95  1  0  0  0
 15 96  1  0  0  0
 16 17  2  0  0  0
 16 21  1  0  0  0
 16 31  1  0  0  0
 17 18  1  0  0  0
 17 97  1  0  0  0
 18 19  2  0  0  0
 18 98  1  0  0  0
 19 20  1  0  0  0
 19 24  1  0  0  0
 20 21  2  0  0  0
 20 99  1  0  0  0
 21 23  1  0  0  0
 22 28  1  0  0  0
 22 32  2  0  0  0
 26 27  1  0  0  0
 28100  1  0  0  0
 28101  1  0  0  0
 29102  1  0  0  0
 29103  1  0  0  0
 33 34  1  0  0  0
 33 66  1  0  0  0
 33 70  2  0  0  0
 34 36  1  0  0  0
 34 59  1  0  0  0
 34104  1  0  0  0
 35 44  2  0  0  0
 35 45  1  0  0  0
 35 68  1  0  0  0
 36 56  1  0  0  0
 36105  1  0  0  0
 37 39  1  0  0  0
 37 47  1  0  0  0
 37 66  1  0  0  0
 37106  1  0  0  0
 38 43  2  0  0  0
 38 46  1  0  0  0
 38 47  1  0  0  0
 39 64  1  0  0  0
 39 67  2  0  0  0
 40 52  1  0  0  0
 40 53  2  0  0  0
 40 58  1  0  0  0
 41107  1  0  0  0
 41108  1  0  0  0
 41109  1  0  0  0
 41 48  1  0  0  0
 42 43  1  0  0  0
 42 66  1  0  0  0
 42110  1  0  0  0
 42111  1  0  0  0
 43 44  1  0  0  0
 44112  1  0  0  0
 45 46  2  0  0  0
 45113  1  0  0  0
 46114  1  0  0  0
 47115  1  0  0  0
 47116  1  0  0  0
 48 56  1  0  0  0
 48 65  1  0  0  0
 48117  1  0  0  0
 49 50  1  0  0  0
 49 53  1  0  0  0
 49 64  1  0  0  0
 49118  1  0  0  0
 50 51  1  0  0  0
 50119  1  0  0  0
 50120  1  0  0  0
 51 52  1  0  0  0
 51121  1  0  0  0
 51122  1  0  0  0
 52123  1  0  0  0
 52124  1  0  0  0
 53 54  1  0  0  0
 54 55  2  0  0  0
 54125  1  0  0  0
 55 57  1  0  0  0
 55126  1  0  0  0
 56 69  2  0  0  0
 57 58  2  0  0  0
 57127  1  0  0  0
 58128  1  0  0  0
 59 60  1  0  0  0
 59 61  1  0  0  0
 59 62  1  0  0  0
 60129  1  0  0  0
 60130  1  0  0  0
 60131  1  0  0  0
 61132  1  0  0  0
 61133  1  0  0  0
 61134  1  0  0  0
 62135  1  0  0  0
 62136  1  0  0  0
 62137  1  0  0  0
 63 65  1  0  0  0
 63138  1  0  0  0
 63139  1  0  0  0
 63140  1  0  0  0
 64141  1  0  0  0
 65142  1  0  0  0
 68 79  1  0  0  0
 71 72  2  0  0  0
 71 74  1  0  0  0
 71143  1  0  0  0
 72 75  1  0  0  0
 72144  1  0  0  0
 73 74  2  0  0  0
 73 76  1  0  0  0
 73145  1  0  0  0
 74 77  1  0  0  0
 75 76  2  0  0  0
 75 82  1  0  0  0
 76 81  1  0  0  0
 77 80  2  0  0  0
 78 79  1  0  0  0
 78 82  1  0  0  0
 78 83  2  0  0  0
 79146  1  0  0  0
 79147  1  0  0  0
 80148  1  0  0  0
 81149  1  0  0  0
 81150  1  0  0  0
 82151  1  0  0  0
M  ISO  4   1 100  68 101  77 100  79 101
M  END
> <chiral flag>
0

> <version>
0

> <s_m_source_file>
/data/baiqing/PycharmProjects/Reinvent-master-3.2/result/LINK_invent/BTK/process_docking_weight1_custom_product_contain_oxygen_bond_distance_aromatic_linkinvent_7_9_3/rearranged_h_0088.sdf

> <i_m_source_file_index>
24

> <r_mmod_Potential_Energy-OPLS-2005>
424.472625732422

> <r_mmod_Stretch_Energy-OPLS-2005>
215.786926269531

> <r_mmod_Bend_Energy-OPLS-2005>
255.771362304688

> <r_mmod_Torsional_Energy-OPLS-2005>
225.786468505859

> <r_mmod_Improper_Torsional_Energy-OPLS-2005>
10.2868709564209

> <r_mmod_Van_der_Waal_Energy-OPLS-2005>
144.25276184082

> <r_mmod_Electrostatic_Energy-OPLS-2005>
-338.353363037109

> <r_mmod_Solvation_Energy-OPLS-2005>
-243.047012329102

> <b_mmod_Minimization_Converged-OPLS-2005>
0

> <r_mmod_RMS_Derivative-OPLS-2005>
0.509174048900604

$$$$
24
                    3D
 Structure written by MMmdl.
159168  0  0  1  0            999 V2000
  -30.5455  -14.9984   20.3299 C   0  0  0  0  0  0
  -30.4568  -12.6080   19.4608 C   0  0  0  0  0  0
  -29.5179  -12.4377   18.2438 C   0  0  0  0  0  0
  -28.0516  -12.2409   18.6836 C   0  0  0  0  0  0
  -27.6155  -13.2040   19.8151 C   0  0  2  0  0  0
  -28.6826  -13.3278   20.9255 C   0  0  0  0  0  0
  -25.2500  -13.8099   20.5796 C   0  0  0  0  0  0
  -24.1761  -13.0379   20.9253 C   0  0  0  0  0  0
  -24.6328  -11.6860   20.8790 C   0  0  0  0  0  0
  -23.9005  -10.4260   21.0436 C   0  0  0  0  0  0
  -24.3573   -9.4190   21.9199 C   0  0  0  0  0  0
  -23.6280   -8.2215   22.0750 C   0  0  0  0  0  0
  -22.4259   -8.0255   21.3547 C   0  0  0  0  0  0
  -21.9888   -9.0228   20.4649 C   0  0  0  0  0  0
  -22.7195  -10.2119   20.3070 C   0  0  0  0  0  0
  -21.6843   -6.0723   22.5286 C   0  0  0  0  0  0
  -21.3995   -6.5629   23.8213 C   0  0  0  0  0  0
  -21.3650   -5.6780   24.9176 C   0  0  0  0  0  0
  -21.6049   -4.3049   24.7230 C   0  0  0  0  0  0
  -21.8813   -3.8138   23.4349 C   0  0  0  0  0  0
  -21.9189   -4.6950   22.3404 C   0  0  0  0  0  0
  -22.7787  -13.5213   21.1878 C   0  0  0  0  0  0
  -22.1661   -4.2143   21.0981 F   0  0  0  0  0  0
  -21.5640   -3.4534   25.7740 F   0  0  0  0  0  0
  -29.9394  -13.7363   20.2757 N   0  0  0  0  0  0
  -26.2848  -12.9220   20.3294 N   0  0  0  0  0  0
  -25.9244  -11.6406   20.5797 N   0  0  0  0  0  0
  -22.0385  -12.8242   22.0415 N   0  0  0  0  0  0
  -25.4225  -15.1843   20.4340 N   0  0  0  0  0  0
  -31.7807  -15.0105   20.3047 O   0  0  0  0  0  0
  -21.6621   -6.8864   21.4250 O   0  0  0  0  0  0
  -22.3513  -14.5524   20.6695 O   0  0  0  0  0  0
  -24.6411  -31.8486   23.1901 C   0  0  0  0  0  0
  -25.9197  -32.4715   23.8289 C   0  0  1  0  0  0
  -27.2233  -27.1591   20.1537 C   0  0  0  0  0  0
  -25.5959  -33.8521   24.2201 N   0  0  0  0  0  0
  -23.4430  -30.4656   21.5366 C   0  0  2  0  0  0
  -24.8946  -28.8914   20.1156 C   0  0  0  0  0  0
  -22.7554  -29.4568   22.4900 C   0  0  0  0  0  0
  -18.0303  -28.1403   22.8480 C   0  0  0  0  0  0
  -24.1491  -36.7258   23.2640 C   0  0  0  0  0  0
  -25.9975  -30.7265   21.3865 C   0  0  0  0  0  0
  -26.0714  -29.3380   20.7322 C   0  0  0  0  0  0
  -27.2387  -28.4876   20.7327 C   0  0  0  0  0  0
  -26.0247  -26.8116   19.4942 C   0  0  0  0  0  0
  -24.8813  -27.6389   19.4834 C   0  0  0  0  0  0
  -23.6699  -29.7910   20.1567 C   0  0  0  0  0  0
  -25.4122  -36.3041   24.0319 C   0  0  1  0  0  0
  -20.5906  -28.3728   23.1254 C   0  0  2  0  0  0
  -20.6784  -26.9443   22.5408 C   0  0  0  0  0  0
  -19.5761  -26.6388   21.5219 C   0  0  0  0  0  0
  -18.1945  -26.7942   22.1628 C   0  0  0  0  0  0
  -19.1557  -28.8881   23.2854 C   0  0  0  0  0  0
  -18.9477  -30.1477   23.8871 C   0  0  0  0  0  0
  -17.6478  -30.6604   24.0551 C   0  0  0  0  0  0
  -25.9075  -34.9419   23.5064 C   0  0  0  0  0  0
  -16.5369  -29.9092   23.6336 C   0  0  0  0  0  0
  -16.7289  -28.6508   23.0363 C   0  0  0  0  0  0
  -26.4515  -31.6564   25.0720 C   0  0  0  0  0  0
  -25.3702  -31.3763   26.1420 C   0  0  0  0  0  0
  -27.0367  -30.2956   24.6285 C   0  0  0  0  0  0
  -27.6068  -32.4314   25.7502 C   0  0  0  0  0  0
  -27.5582  -37.1782   24.8463 C   0  0  0  0  0  0
  -21.4252  -29.3051   22.3637 N   0  0  0  0  0  0
  -26.4285  -37.3756   23.9421 N   0  0  0  0  0  0
  -24.7139  -31.0349   22.0924 N   0  0  0  0  0  0
  -23.4207  -28.8134   23.3056 O   0  0  0  0  0  0
  -28.2806  -26.1830   20.1723 O   0  0  0  0  0  0
  -26.5655  -34.8916   22.4637 O   0  0  0  0  0  0
  -23.5535  -32.1372   23.7130 O   0  0  0  0  0  0
  -28.7404  -19.6452   21.4956 C   0  0  0  0  0  0
  -29.0154  -18.2284   21.3603 C   0  0  0  0  0  0
  -30.3961  -18.7189   19.5186 C   0  0  0  0  0  0
  -29.2546  -20.7086   20.6608 C   0  0  0  0  0  0
  -29.8578  -17.6663   20.3515 C   0  0  0  0  0  0
  -30.1233  -20.1495   19.6539 C   0  0  0  0  0  0
  -28.7600  -23.3674   20.1516 C   0  0  0  0  0  0
  -29.0294  -16.1065   18.8668 C   0  0  0  0  0  0
  -28.9330  -23.8389   22.9065 C   0  0  0  0  0  0
  -28.0023  -24.8468   22.2343 C   0  0  0  0  0  0
  -28.6440  -22.4169   22.3971 C   0  0  0  0  0  0
  -28.0000  -24.7489   20.6967 C   0  0  1  0  0  0
  -28.9147  -22.1942   20.9601 N   0  0  0  0  0  0
  -30.7398  -21.0062   18.7470 N   0  0  0  0  0  0
  -29.8206  -16.1850   19.9535 N   0  0  0  0  0  0
  -29.1464  -23.3802   18.9776 O   0  0  0  0  0  0
  -29.3891  -15.7189   17.7513 O   0  0  0  0  0  0
  -31.4750  -12.7944   19.1140 H   0  0  0  0  0  0
  -30.5003  -11.6937   20.0538 H   0  0  0  0  0  0
  -29.8411  -11.5841   17.6477 H   0  0  0  0  0  0
  -29.5938  -13.2938   17.5779 H   0  0  0  0  0  0
  -27.9580  -11.2116   19.0294 H   0  0  0  0  0  0
  -27.3819  -12.3290   17.8281 H   0  0  0  0  0  0
  -27.5068  -14.1546   19.3143 H   0  0  0  0  0  0
  -28.8017  -12.3879   21.4654 H   0  0  0  0  0  0
  -28.3774  -14.0758   21.6587 H   0  0  0  0  0  0
  -25.2723   -9.5681   22.4765 H   0  0  0  0  0  0
  -23.9999   -7.4601   22.7472 H   0  0  0  0  0  0
  -21.0808   -8.8741   19.8972 H   0  0  0  0  0  0
  -22.3656  -10.9641   19.6170 H   0  0  0  0  0  0
  -21.1973   -7.6133   23.9712 H   0  0  0  0  0  0
  -21.1482   -6.0512   25.9078 H   0  0  0  0  0  0
  -22.0606   -2.7605   23.2837 H   0  0  0  0  0  0
  -22.3964  -11.9907   22.4843 H   0  0  0  0  0  0
  -21.1005  -13.1319   22.2588 H   0  0  0  0  0  0
  -24.6601  -15.8373   20.5800 H   0  0  0  0  0  0
  -26.2966  -15.6424   20.2234 H   0  0  0  0  0  0
  -26.7267  -32.5328   23.1027 H   0  0  0  0  0  0
  -25.0053  -33.9638   25.0310 H   0  0  0  0  0  0
  -22.7429  -31.2894   21.3801 H   0  0  0  0  0  0
  -23.3773  -35.9565   23.3278 H   0  0  0  0  0  0
  -24.3581  -36.8921   22.2059 H   0  0  0  0  0  0
  -23.7220  -37.6440   23.6689 H   0  0  0  0  0  0
  -26.1508  -31.4798   20.6123 H   0  0  0  0  0  0
  -26.8680  -30.7787   22.0281 H   0  0  0  0  0  0
  -28.1377  -28.8257   21.2274 H   0  0  0  0  0  0
  -25.9561  -25.8602   18.9855 H   0  0  0  0  0  0
  -23.9829  -27.2944   18.9893 H   0  0  0  0  0  0
  -23.8083  -30.5640   19.4000 H   0  0  0  0  0  0
  -22.7842  -29.2325   19.8468 H   0  0  0  0  0  0
  -25.1309  -36.1861   25.0810 H   0  0  0  0  0  0
  -20.9996  -28.3309   24.1378 H   0  0  0  0  0  0
  -20.5697  -26.2350   23.3624 H   0  0  0  0  0  0
  -21.6647  -26.7463   22.1201 H   0  0  0  0  0  0
  -19.6924  -25.6290   21.1276 H   0  0  0  0  0  0
  -19.6694  -27.3169   20.6727 H   0  0  0  0  0  0
  -17.4223  -26.6696   21.4023 H   0  0  0  0  0  0
  -18.0337  -26.0082   22.9020 H   0  0  0  0  0  0
  -19.7953  -30.7283   24.2237 H   0  0  0  0  0  0
  -17.5041  -31.6284   24.5157 H   0  0  0  0  0  0
  -15.5366  -30.2984   23.7674 H   0  0  0  0  0  0
  -15.8694  -28.0811   22.7097 H   0  0  0  0  0  0
  -24.5836  -30.7174   25.7721 H   0  0  0  0  0  0
  -24.8940  -32.2953   26.4841 H   0  0  0  0  0  0
  -25.7959  -30.8903   27.0203 H   0  0  0  0  0  0
  -26.2967  -29.6696   24.1281 H   0  0  0  0  0  0
  -27.3967  -29.7234   25.4846 H   0  0  0  0  0  0
  -27.8888  -30.4186   23.9601 H   0  0  0  0  0  0
  -27.2674  -33.3614   26.2067 H   0  0  0  0  0  0
  -28.3877  -32.6878   25.0335 H   0  0  0  0  0  0
  -28.0738  -31.8456   26.5424 H   0  0  0  0  0  0
  -28.2578  -38.0102   24.7543 H   0  0  0  0  0  0
  -28.1101  -36.2635   24.6234 H   0  0  0  0  0  0
  -27.2321  -37.1371   25.8873 H   0  0  0  0  0  0
  -20.9482  -29.8745   21.6791 H   0  0  0  0  0  0
  -26.0156  -38.2829   24.1427 H   0  0  0  0  0  0
  -28.0548  -19.8996   22.2909 H   0  0  0  0  0  0
  -28.4909  -17.5562   22.0242 H   0  0  0  0  0  0
  -31.0068  -18.4051   18.6828 H   0  0  0  0  0  0
  -28.0297  -16.5190   19.0796 H   0  0  0  0  0  0
  -28.7967  -23.8811   23.9869 H   0  0  0  0  0  0
  -29.9776  -24.0995   22.7198 H   0  0  0  0  0  0
  -28.2827  -25.8511   22.5532 H   0  0  0  0  0  0
  -26.9855  -24.6966   22.6017 H   0  0  0  0  0  0
  -27.6084  -22.1493   22.6145 H   0  0  0  0  0  0
  -29.2699  -21.7468   22.9882 H   0  0  0  0  0  0
  -26.9698  -24.5266   20.4265 H   0  0  0  0  0  0
  -31.0671  -20.6211   17.8673 H   0  0  0  0  0  0
  -30.3067  -21.9245   18.6297 H   0  0  0  0  0  0
  1 25  1  0  0  0
  1 30  2  0  0  0
  1 85  1  0  0  0
  2  3  1  0  0  0
  2 25  1  0  0  0
  2 88  1  0  0  0
  2 89  1  0  0  0
  3  4  1  0  0  0
  3 90  1  0  0  0
  3 91  1  0  0  0
  4  5  1  0  0  0
  4 92  1  0  0  0
  4 93  1  0  0  0
  5  6  1  0  0  0
  5 26  1  0  0  0
  5 94  1  0  0  0
  6 25  1  0  0  0
  6 95  1  0  0  0
  6 96  1  0  0  0
  7  8  2  0  0  0
  7 26  1  0  0  0
  7 29  1  0  0  0
  8  9  1  0  0  0
  8 22  1  0  0  0
  9 10  1  0  0  0
  9 27  2  0  0  0
 10 11  2  0  0  0
 10 15  1  0  0  0
 11 12  1  0  0  0
 11 97  1  0  0  0
 12 13  2  0  0  0
 12 98  1  0  0  0
 13 14  1  0  0  0
 13 31  1  0  0  0
 14 15  2  0  0  0
 14 99  1  0  0  0
 15100  1  0  0  0
 16 17  2  0  0  0
 16 21  1  0  0  0
 16 31  1  0  0  0
 17 18  1  0  0  0
 17101  1  0  0  0
 18 19  2  0  0  0
 18102  1  0  0  0
 19 20  1  0  0  0
 19 24  1  0  0  0
 20 21  2  0  0  0
 20103  1  0  0  0
 21 23  1  0  0  0
 22 28  1  0  0  0
 22 32  2  0  0  0
 26 27  1  0  0  0
 28104  1  0  0  0
 28105  1  0  0  0
 29106  1  0  0  0
 29107  1  0  0  0
 33 34  1  0  0  0
 33 66  1  0  0  0
 33 70  2  0  0  0
 34 36  1  0  0  0
 34 59  1  0  0  0
 34108  1  0  0  0
 35 44  2  0  0  0
 35 45  1  0  0  0
 35 68  1  0  0  0
 36 56  1  0  0  0
 36109  1  0  0  0
 37 39  1  0  0  0
 37 47  1  0  0  0
 37 66  1  0  0  0
 37110  1  0  0  0
 38 43  2  0  0  0
 38 46  1  0  0  0
 38 47  1  0  0  0
 39 64  1  0  0  0
 39 67  2  0  0  0
 40 52  1  0  0  0
 40 53  2  0  0  0
 40 58  1  0  0  0
 41111  1  0  0  0
 41112  1  0  0  0
 41113  1  0  0  0
 41 48  1  0  0  0
 42 43  1  0  0  0
 42 66  1  0  0  0
 42114  1  0  0  0
 42115  1  0  0  0
 43 44  1  0  0  0
 44116  1  0  0  0
 45 46  2  0  0  0
 45117  1  0  0  0
 46118  1  0  0  0
 47119  1  0  0  0
 47120  1  0  0  0
 48 56  1  0  0  0
 48 65  1  0  0  0
 48121  1  0  0  0
 49 50  1  0  0  0
 49 53  1  0  0  0
 49 64  1  0  0  0
 49122  1  0  0  0
 50 51  1  0  0  0
 50123  1  0  0  0
 50124  1  0  0  0
 51 52  1  0  0  0
 51125  1  0  0  0
 51126  1  0  0  0
 52127  1  0  0  0
 52128  1  0  0  0
 53 54  1  0  0  0
 54 55  2  0  0  0
 54129  1  0  0  0
 55 57  1  0  0  0
 55130  1  0  0  0
 56 69  2  0  0  0
 57 58  2  0  0  0
 57131  1  0  0  0
 58132  1  0  0  0
 59 60  1  0  0  0
 59 61  1  0  0  0
 59 62  1  0  0  0
 60133  1  0  0  0
 60134  1  0  0  0
 60135  1  0  0  0
 61136  1  0  0  0
 61137  1  0  0  0
 61138  1  0  0  0
 62139  1  0  0  0
 62140  1  0  0  0
 62141  1  0  0  0
 63 65  1  0  0  0
 63142  1  0  0  0
 63143  1  0  0  0
 63144  1  0  0  0
 64145  1  0  0  0
 65146  1  0  0  0
 68 82  1  0  0  0
 71 72  2  0  0  0
 71 74  1  0  0  0
 71147  1  0  0  0
 72 75  1  0  0  0
 72148  1  0  0  0
 73 75  2  0  0  0
 73 76  1  0  0  0
 73149  1  0  0  0
 74 76  2  0  0  0
 74 83  1  0  0  0
 75 85  1  0  0  0
 76 84  1  0  0  0
 77 82  1  0  0  0
 77 83  1  0  0  0
 77 86  2  0  0  0
 78 85  1  0  0  0
 78 87  2  0  0  0
 78150  1  0  0  0
 79 80  1  0  0  0
 79 81  1  0  0  0
 79151  1  0  0  0
 79152  1  0  0  0
 80 82  1  0  0  0
 80153  1  0  0  0
 80154  1  0  0  0
 81 83  1  0  0  0
 81155  1  0  0  0
 81156  1  0  0  0
 82157  1  0  0  0
 84158  1  0  0  0
 84159  1  0  0  0
M  ISO  4   1 100  68 101  82 101  85 100
M  END
> <chiral flag>
0

> <version>
0

> <s_m_source_file>
/data/baiqing/PycharmProjects/Reinvent-master-3.2/result/LINK_invent/BTK/process_docking_weight1_custom_product_contain_oxygen_bond_distance_aromatic_linkinvent_7_9_3/rearranged_h_0088.sdf

> <i_m_source_file_index>
25

> <r_mmod_Potential_Energy-OPLS-2005>
789.538452148438

> <r_mmod_Stretch_Energy-OPLS-2005>
245.575820922852

> <r_mmod_Bend_Energy-OPLS-2005>
269.677337646484

> <r_mmod_Torsional_Energy-OPLS-2005>
401.680297851562

> <r_mmod_Improper_Torsional_Energy-OPLS-2005>
23.0597381591797

> <r_mmod_Van_der_Waal_Energy-OPLS-2005>
162.531951904297

> <r_mmod_Electrostatic_Energy-OPLS-2005>
-297.607666015625

> <r_mmod_Solvation_Energy-OPLS-2005>
-229.782867431641

> <b_mmod_Minimization_Converged-OPLS-2005>
0

> <r_mmod_RMS_Derivative-OPLS-2005>
2.54898047447205

$$$$
25
                    3D
 Structure written by MMmdl.
151159  0  0  1  0            999 V2000
  -30.6594  -14.5465   20.5148 C   0  0  0  0  0  0
  -30.4274  -12.3357   19.4375 C   0  0  0  0  0  0
  -29.4992  -12.5091   18.2161 C   0  0  0  0  0  0
  -28.0193  -12.3641   18.6252 C   0  0  0  0  0  0
  -27.6575  -13.2121   19.8744 C   0  0  2  0  0  0
  -28.7026  -13.0222   20.9978 C   0  0  0  0  0  0
  -25.2559  -13.8158   20.5693 C   0  0  0  0  0  0
  -24.1812  -13.0422   20.9141 C   0  0  0  0  0  0
  -24.6382  -11.6896   20.8716 C   0  0  0  0  0  0
  -23.9053  -10.4280   21.0384 C   0  0  0  0  0  0
  -24.3609   -9.4204   21.9167 C   0  0  0  0  0  0
  -23.6290   -8.2240   22.0745 C   0  0  0  0  0  0
  -22.4270   -8.0270   21.3541 C   0  0  0  0  0  0
  -21.9902   -9.0232   20.4639 C   0  0  0  0  0  0
  -22.7223  -10.2113   20.3043 C   0  0  0  0  0  0
  -21.6853   -6.0734   22.5278 C   0  0  0  0  0  0
  -21.4009   -6.5638   23.8209 C   0  0  0  0  0  0
  -21.3665   -5.6793   24.9173 C   0  0  0  0  0  0
  -21.6050   -4.3057   24.7227 C   0  0  0  0  0  0
  -21.8819   -3.8150   23.4347 C   0  0  0  0  0  0
  -21.9190   -4.6964   22.3404 C   0  0  0  0  0  0
  -22.7841  -13.5220   21.1825 C   0  0  0  0  0  0
  -22.1659   -4.2154   21.0982 F   0  0  0  0  0  0
  -21.5636   -3.4538   25.7739 F   0  0  0  0  0  0
  -30.0281  -13.3388   20.4400 N   0  0  0  0  0  0
  -26.3008  -12.9341   20.3391 N   0  0  0  0  0  0
  -25.9321  -11.6493   20.5780 N   0  0  0  0  0  0
  -22.0505  -12.8204   22.0394 N   0  0  0  0  0  0
  -25.4250  -15.1884   20.4186 N   0  0  0  0  0  0
  -31.8136  -14.7048   20.1073 O   0  0  0  0  0  0
  -21.6638   -6.8869   21.4237 O   0  0  0  0  0  0
  -22.3509  -14.5531   20.6690 O   0  0  0  0  0  0
  -24.6181  -31.8661   23.2083 C   0  0  0  0  0  0
  -25.9058  -32.4817   23.8387 C   0  0  1  0  0  0
  -27.2296  -27.4072   20.0988 C   0  0  0  0  0  0
  -25.5906  -33.8615   24.2323 N   0  0  0  0  0  0
  -23.4097  -30.4898   21.5483 C   0  0  2  0  0  0
  -24.8580  -28.9545   20.1107 C   0  0  0  0  0  0
  -22.7438  -29.4649   22.4960 C   0  0  0  0  0  0
  -18.0286  -28.1388   22.8489 C   0  0  0  0  0  0
  -24.1485  -36.7310   23.2635 C   0  0  0  0  0  0
  -25.9424  -30.8242   21.3657 C   0  0  0  0  0  0
  -26.0219  -29.4579   20.7085 C   0  0  0  0  0  0
  -27.2160  -28.6925   20.6987 C   0  0  0  0  0  0
  -26.0525  -26.9275   19.4920 C   0  0  0  0  0  0
  -24.8696  -27.6894   19.4982 C   0  0  0  0  0  0
  -23.6209  -29.8242   20.1627 C   0  0  0  0  0  0
  -25.4107  -36.3110   24.0338 C   0  0  1  0  0  0
  -20.5878  -28.3684   23.1290 C   0  0  2  0  0  0
  -20.6781  -26.9413   22.5407 C   0  0  0  0  0  0
  -19.5755  -26.6389   21.5211 C   0  0  0  0  0  0
  -18.1932  -26.7934   22.1621 C   0  0  0  0  0  0
  -19.1537  -28.8852   23.2891 C   0  0  0  0  0  0
  -18.9462  -30.1458   23.8901 C   0  0  0  0  0  0
  -17.6462  -30.6589   24.0567 C   0  0  0  0  0  0
  -25.9041  -34.9476   23.5129 C   0  0  0  0  0  0
  -16.5352  -29.9093   23.6325 C   0  0  0  0  0  0
  -16.7274  -28.6511   23.0344 C   0  0  0  0  0  0
  -26.4476  -31.6596   25.0724 C   0  0  0  0  0  0
  -25.3746  -31.3699   26.1477 C   0  0  0  0  0  0
  -27.0302  -30.3031   24.6106 C   0  0  0  0  0  0
  -27.6047  -32.4315   25.7493 C   0  0  0  0  0  0
  -27.5589  -37.1806   24.8461 C   0  0  0  0  0  0
  -21.4160  -29.3048   22.3696 N   0  0  0  0  0  0
  -26.4291  -37.3803   23.9418 N   0  0  0  0  0  0
  -24.6752  -31.0746   22.0988 N   0  0  0  0  0  0
  -23.4190  -28.8189   23.3019 O   0  0  0  0  0  0
  -28.3265  -26.5682   20.1358 O   0  0  0  0  0  0
  -26.5603  -34.8924   22.4691 O   0  0  0  0  0  0
  -23.5359  -32.1420   23.7458 O   0  0  0  0  0  0
  -31.0592  -19.0424   19.8069 C   0  0  0  0  0  0
  -31.1103  -17.6669   20.1469 C   0  0  0  0  0  0
  -28.7241  -19.1363   20.4299 C   0  0  0  0  0  0
  -29.8698  -19.8045   19.9353 C   0  0  0  0  0  0
  -29.9525  -16.9896   20.6058 C   0  0  0  0  0  0
  -28.7692  -17.7546   20.7522 C   0  0  0  0  0  0
  -28.5719  -24.2707   21.0628 C   0  0  0  0  0  0
  -28.2542  -25.5953   21.1189 C   0  0  0  0  0  0
  -29.8226  -21.2355   19.4146 C   0  0  0  0  0  0
  -29.0920  -23.5258   19.9140 C   0  0  0  0  0  0
  -29.8814  -15.5806   20.9196 N   0  0  0  0  0  0
  -29.2453  -22.1957   20.1821 N   0  0  0  0  0  0
  -30.3599  -21.4558   18.3230 O   0  0  0  0  0  0
  -29.3644  -24.0543   18.8301 O   0  0  0  0  0  0
  -27.6407  -17.1367   21.1761 F   0  0  0  0  0  0
  -31.4725  -12.4385   19.1387 H   0  0  0  0  0  0
  -30.3344  -11.3308   19.8519 H   0  0  0  0  0  0
  -29.7480  -11.7782   17.4458 H   0  0  0  0  0  0
  -29.6609  -13.4913   17.7688 H   0  0  0  0  0  0
  -27.8342  -11.3083   18.8272 H   0  0  0  0  0  0
  -27.3701  -12.6319   17.7901 H   0  0  0  0  0  0
  -27.6879  -14.2561   19.5627 H   0  0  0  0  0  0
  -28.6902  -11.9926   21.3580 H   0  0  0  0  0  0
  -28.4637  -13.6384   21.8658 H   0  0  0  0  0  0
  -25.2749   -9.5698   22.4739 H   0  0  0  0  0  0
  -24.0012   -7.4637   22.7463 H   0  0  0  0  0  0
  -21.0839   -8.8731   19.8944 H   0  0  0  0  0  0
  -22.3664  -10.9644   19.6155 H   0  0  0  0  0  0
  -21.1989   -7.6142   23.9719 H   0  0  0  0  0  0
  -21.1493   -6.0519   25.9078 H   0  0  0  0  0  0
  -22.0597   -2.7615   23.2843 H   0  0  0  0  0  0
  -22.4132  -11.9865   22.4772 H   0  0  0  0  0  0
  -21.1124  -13.1219   22.2615 H   0  0  0  0  0  0
  -24.6653  -15.8412   20.5732 H   0  0  0  0  0  0
  -26.3084  -15.6536   20.2479 H   0  0  0  0  0  0
  -26.7133  -32.5516   23.1152 H   0  0  0  0  0  0
  -25.0059  -33.9778   25.0468 H   0  0  0  0  0  0
  -22.6999  -31.3074   21.4081 H   0  0  0  0  0  0
  -23.3755  -35.9636   23.3292 H   0  0  0  0  0  0
  -24.3574  -36.8929   22.2049 H   0  0  0  0  0  0
  -23.7223  -37.6506   23.6651 H   0  0  0  0  0  0
  -26.0593  -31.5917   20.5993 H   0  0  0  0  0  0
  -26.8272  -30.8751   21.9886 H   0  0  0  0  0  0
  -28.1123  -29.0687   21.1717 H   0  0  0  0  0  0
  -26.0493  -25.9470   19.0365 H   0  0  0  0  0  0
  -23.9737  -27.2944   19.0388 H   0  0  0  0  0  0
  -23.7338  -30.6010   19.4053 H   0  0  0  0  0  0
  -22.7437  -29.2478   19.8624 H   0  0  0  0  0  0
  -25.1282  -36.1973   25.0833 H   0  0  0  0  0  0
  -20.9979  -28.3262   24.1407 H   0  0  0  0  0  0
  -20.5680  -26.2300   23.3607 H   0  0  0  0  0  0
  -21.6651  -26.7453   22.1196 H   0  0  0  0  0  0
  -19.6915  -25.6300   21.1237 H   0  0  0  0  0  0
  -19.6689  -27.3203   20.6746 H   0  0  0  0  0  0
  -17.4205  -26.6684   21.4022 H   0  0  0  0  0  0
  -18.0332  -26.0070   22.9011 H   0  0  0  0  0  0
  -19.7939  -30.7284   24.2255 H   0  0  0  0  0  0
  -17.5017  -31.6265   24.5174 H   0  0  0  0  0  0
  -15.5352  -30.2998   23.7650 H   0  0  0  0  0  0
  -15.8673  -28.0837   22.7045 H   0  0  0  0  0  0
  -24.5921  -30.7044   25.7813 H   0  0  0  0  0  0
  -24.8939  -32.2853   26.4933 H   0  0  0  0  0  0
  -25.8105  -30.8860   27.0227 H   0  0  0  0  0  0
  -26.2844  -29.6805   24.1147 H   0  0  0  0  0  0
  -27.4050  -29.7249   25.4559 H   0  0  0  0  0  0
  -27.8689  -30.4334   23.9266 H   0  0  0  0  0  0
  -27.2662  -33.3604   26.2088 H   0  0  0  0  0  0
  -28.3852  -32.6893   25.0326 H   0  0  0  0  0  0
  -28.0724  -31.8435   26.5399 H   0  0  0  0  0  0
  -28.2592  -38.0123   24.7546 H   0  0  0  0  0  0
  -28.1108  -36.2657   24.6242 H   0  0  0  0  0  0
  -27.2313  -37.1394   25.8866 H   0  0  0  0  0  0
  -20.9335  -29.8765   21.6904 H   0  0  0  0  0  0
  -26.0181  -38.2877   24.1445 H   0  0  0  0  0  0
  -31.9497  -19.5159   19.4159 H   0  0  0  0  0  0
  -32.0481  -17.1467   20.0236 H   0  0  0  0  0  0
  -27.7839  -19.6616   20.5140 H   0  0  0  0  0  0
  -28.4167  -23.7224   21.9809 H   0  0  0  0  0  0
  -27.8779  -26.0156   22.0428 H   0  0  0  0  0  0
  -28.9819  -15.2940   21.2750 H   0  0  0  0  0  0
  -28.9273  -21.8824   21.0844 H   0  0  0  0  0  0
  1 25  1  0  0  0
  1 30  2  0  0  0
  1 81  1  0  0  0
  2  3  1  0  0  0
  2 25  1  0  0  0
  2 86  1  0  0  0
  2 87  1  0  0  0
  3  4  1  0  0  0
  3 88  1  0  0  0
  3 89  1  0  0  0
  4  5  1  0  0  0
  4 90  1  0  0  0
  4 91  1  0  0  0
  5  6  1  0  0  0
  5 26  1  0  0  0
  5 92  1  0  0  0
  6 25  1  0  0  0
  6 93  1  0  0  0
  6 94  1  0  0  0
  7  8  2  0  0  0
  7 26  1  0  0  0
  7 29  1  0  0  0
  8  9  1  0  0  0
  8 22  1  0  0  0
  9 10  1  0  0  0
  9 27  2  0  0  0
 10 11  2  0  0  0
 10 15  1  0  0  0
 11 12  1  0  0  0
 11 95  1  0  0  0
 12 13  2  0  0  0
 12 96  1  0  0  0
 13 14  1  0  0  0
 13 31  1  0  0  0
 14 15  2  0  0  0
 14 97  1  0  0  0
 15 98  1  0  0  0
 16 17  2  0  0  0
 16 21  1  0  0  0
 16 31  1  0  0  0
 17 18  1  0  0  0
 17 99  1  0  0  0
 18 19  2  0  0  0
 18100  1  0  0  0
 19 20  1  0  0  0
 19 24  1  0  0  0
 20 21  2  0  0  0
 20101  1  0  0  0
 21 23  1  0  0  0
 22 28  1  0  0  0
 22 32  2  0  0  0
 26 27  1  0  0  0
 28102  1  0  0  0
 28103  1  0  0  0
 29104  1  0  0  0
 29105  1  0  0  0
 33 34  1  0  0  0
 33 66  1  0  0  0
 33 70  2  0  0  0
 34 36  1  0  0  0
 34 59  1  0  0  0
 34106  1  0  0  0
 35 44  2  0  0  0
 35 45  1  0  0  0
 35 68  1  0  0  0
 36 56  1  0  0  0
 36107  1  0  0  0
 37 39  1  0  0  0
 37 47  1  0  0  0
 37 66  1  0  0  0
 37108  1  0  0  0
 38 43  2  0  0  0
 38 46  1  0  0  0
 38 47  1  0  0  0
 39 64  1  0  0  0
 39 67  2  0  0  0
 40 52  1  0  0  0
 40 53  2  0  0  0
 40 58  1  0  0  0
 41109  1  0  0  0
 41110  1  0  0  0
 41111  1  0  0  0
 41 48  1  0  0  0
 42 43  1  0  0  0
 42 66  1  0  0  0
 42112  1  0  0  0
 42113  1  0  0  0
 43 44  1  0  0  0
 44114  1  0  0  0
 45 46  2  0  0  0
 45115  1  0  0  0
 46116  1  0  0  0
 47117  1  0  0  0
 47118  1  0  0  0
 48 56  1  0  0  0
 48 65  1  0  0  0
 48119  1  0  0  0
 49 50  1  0  0  0
 49 53  1  0  0  0
 49 64  1  0  0  0
 49120  1  0  0  0
 50 51  1  0  0  0
 50121  1  0  0  0
 50122  1  0  0  0
 51 52  1  0  0  0
 51123  1  0  0  0
 51124  1  0  0  0
 52125  1  0  0  0
 52126  1  0  0  0
 53 54  1  0  0  0
 54 55  2  0  0  0
 54127  1  0  0  0
 55 57  1  0  0  0
 55128  1  0  0  0
 56 69  2  0  0  0
 57 58  2  0  0  0
 57129  1  0  0  0
 58130  1  0  0  0
 59 60  1  0  0  0
 59 61  1  0  0  0
 59 62  1  0  0  0
 60131  1  0  0  0
 60132  1  0  0  0
 60133  1  0  0  0
 61134  1  0  0  0
 61135  1  0  0  0
 61136  1  0  0  0
 62137  1  0  0  0
 62138  1  0  0  0
 62139  1  0  0  0
 63 65  1  0  0  0
 63140  1  0  0  0
 63141  1  0  0  0
 63142  1  0  0  0
 64143  1  0  0  0
 65144  1  0  0  0
 68 78  1  0  0  0
 71 72  2  0  0  0
 71 74  1  0  0  0
 71145  1  0  0  0
 72 75  1  0  0  0
 72146  1  0  0  0
 73 74  2  0  0  0
 73 76  1  0  0  0
 73147  1  0  0  0
 74 79  1  0  0  0
 75 76  2  0  0  0
 75 81  1  0  0  0
 76 85  1  0  0  0
 77 78  2  0  0  0
 77 80  1  0  0  0
 77148  1  0  0  0
 78149  1  0  0  0
 79 82  1  0  0  0
 79 83  2  0  0  0
 80 82  1  0  0  0
 80 84  2  0  0  0
 81150  1  0  0  0
 82151  1  0  0  0
M  ISO  4   1 100  68 101  78 101  81 100
M  END
> <chiral flag>
0

> <version>
0

> <s_m_source_file>
/data/baiqing/PycharmProjects/Reinvent-master-3.2/result/LINK_invent/BTK/process_docking_weight1_custom_product_contain_oxygen_bond_distance_aromatic_linkinvent_7_9_3/rearranged_h_0088.sdf

> <i_m_source_file_index>
26

> <r_mmod_Potential_Energy-OPLS-2005>
-186.356536865234

> <r_mmod_Stretch_Energy-OPLS-2005>
46.5533752441406

> <r_mmod_Bend_Energy-OPLS-2005>
122.296653747559

> <r_mmod_Torsional_Energy-OPLS-2005>
241.884567260742

> <r_mmod_Improper_Torsional_Energy-OPLS-2005>
5.23585414886475

> <r_mmod_Van_der_Waal_Energy-OPLS-2005>
151.097885131836

> <r_mmod_Electrostatic_Energy-OPLS-2005>
-508.726165771484

> <r_mmod_Solvation_Energy-OPLS-2005>
-268.882598876953

> <b_mmod_Minimization_Converged-OPLS-2005>
0

> <r_mmod_RMS_Derivative-OPLS-2005>
1.2514910697937

$$$$
26
                    3D
 Structure written by MMmdl.
154163  0  0  1  0            999 V2000
  -30.6095  -14.6973   20.4676 C   0  0  0  0  0  0
  -30.4427  -12.4230   19.4566 C   0  0  0  0  0  0
  -29.5093  -12.5105   18.2279 C   0  0  0  0  0  0
  -28.0336  -12.3405   18.6423 C   0  0  0  0  0  0
  -27.6491  -13.2222   19.8604 C   0  0  2  0  0  0
  -28.7003  -13.1100   20.9886 C   0  0  0  0  0  0
  -25.2525  -13.8153   20.5751 C   0  0  0  0  0  0
  -24.1801  -13.0393   20.9186 C   0  0  0  0  0  0
  -24.6398  -11.6882   20.8729 C   0  0  0  0  0  0
  -23.9075  -10.4266   21.0390 C   0  0  0  0  0  0
  -24.3621   -9.4188   21.9174 C   0  0  0  0  0  0
  -23.6290   -8.2232   22.0750 C   0  0  0  0  0  0
  -22.4272   -8.0272   21.3540 C   0  0  0  0  0  0
  -21.9908   -9.0243   20.4640 C   0  0  0  0  0  0
  -22.7244  -10.2116   20.3042 C   0  0  0  0  0  0
  -21.6852   -6.0733   22.5280 C   0  0  0  0  0  0
  -21.4012   -6.5637   23.8214 C   0  0  0  0  0  0
  -21.3659   -5.6789   24.9175 C   0  0  0  0  0  0
  -21.6046   -4.3052   24.7225 C   0  0  0  0  0  0
  -21.8819   -3.8144   23.4345 C   0  0  0  0  0  0
  -21.9190   -4.6961   22.3401 C   0  0  0  0  0  0
  -22.7822  -13.5185   21.1855 C   0  0  0  0  0  0
  -22.1658   -4.2148   21.0980 F   0  0  0  0  0  0
  -21.5630   -3.4536   25.7738 F   0  0  0  0  0  0
  -30.0100  -13.4608   20.4148 N   0  0  0  0  0  0
  -26.2981  -12.9369   20.3353 N   0  0  0  0  0  0
  -25.9335  -11.6507   20.5760 N   0  0  0  0  0  0
  -22.0475  -12.8177   22.0417 N   0  0  0  0  0  0
  -25.4082  -15.1896   20.4337 N   0  0  0  0  0  0
  -31.7873  -14.8423   20.1313 O   0  0  0  0  0  0
  -21.6632   -6.8875   21.4242 O   0  0  0  0  0  0
  -22.3500  -14.5496   20.6715 O   0  0  0  0  0  0
  -24.6282  -31.8580   23.2020 C   0  0  0  0  0  0
  -25.9123  -32.4769   23.8354 C   0  0  1  0  0  0
  -27.2267  -27.2970   20.1203 C   0  0  0  0  0  0
  -25.5931  -33.8572   24.2279 N   0  0  0  0  0  0
  -23.4242  -30.4814   21.5440 C   0  0  2  0  0  0
  -24.8740  -28.9348   20.1099 C   0  0  0  0  0  0
  -22.7488  -29.4612   22.4917 C   0  0  0  0  0  0
  -18.0291  -28.1389   22.8480 C   0  0  0  0  0  0
  -24.1492  -36.7290   23.2640 C   0  0  0  0  0  0
  -25.9680  -30.7789   21.3806 C   0  0  0  0  0  0
  -26.0426  -29.4041   20.7243 C   0  0  0  0  0  0
  -27.2214  -28.5949   20.7257 C   0  0  0  0  0  0
  -26.0413  -26.8981   19.4614 C   0  0  0  0  0  0
  -24.8758  -27.6870   19.4697 C   0  0  0  0  0  0
  -23.6424  -29.8171   20.1594 C   0  0  0  0  0  0
  -25.4119  -36.3079   24.0328 C   0  0  1  0  0  0
  -20.5892  -28.3692   23.1271 C   0  0  2  0  0  0
  -20.6779  -26.9411   22.5407 C   0  0  0  0  0  0
  -19.5757  -26.6381   21.5208 C   0  0  0  0  0  0
  -18.1936  -26.7930   22.1621 C   0  0  0  0  0  0
  -19.1545  -28.8858   23.2872 C   0  0  0  0  0  0
  -18.9467  -30.1459   23.8890 C   0  0  0  0  0  0
  -17.6466  -30.6587   24.0563 C   0  0  0  0  0  0
  -25.9051  -34.9446   23.5103 C   0  0  0  0  0  0
  -16.5357  -29.9086   23.6333 C   0  0  0  0  0  0
  -16.7278  -28.6507   23.0347 C   0  0  0  0  0  0
  -26.4501  -31.6582   25.0729 C   0  0  0  0  0  0
  -25.3729  -31.3726   26.1451 C   0  0  0  0  0  0
  -27.0346  -30.2999   24.6200 C   0  0  0  0  0  0
  -27.6059  -32.4316   25.7500 C   0  0  0  0  0  0
  -27.5576  -37.1811   24.8473 C   0  0  0  0  0  0
  -21.4198  -29.3043   22.3660 N   0  0  0  0  0  0
  -26.4301  -37.3767   23.9395 N   0  0  0  0  0  0
  -24.6921  -31.0566   22.0987 N   0  0  0  0  0  0
  -23.4201  -28.8148   23.3003 O   0  0  0  0  0  0
  -28.3193  -26.4057   20.1569 O   0  0  0  0  0  0
  -26.5617  -34.8912   22.4669 O   0  0  0  0  0  0
  -23.5437  -32.1391   23.7325 O   0  0  0  0  0  0
  -28.5730  -19.3224   20.0627 C   0  0  0  0  0  0
  -30.8553  -19.4840   20.7709 C   0  0  0  0  0  0
  -29.6613  -20.1777   20.3943 C   0  0  0  0  0  0
  -28.6706  -17.8957   20.1059 C   0  0  0  0  0  0
  -29.8469  -17.2147   20.5281 C   0  0  0  0  0  0
  -30.9491  -18.0538   20.8594 C   0  0  0  0  0  0
  -28.8994  -23.9210   20.2590 C   0  0  0  0  0  0
  -30.3137  -23.9109   19.9555 C   0  0  0  0  0  0
  -28.5055  -22.5051   20.4671 C   0  0  0  0  0  0
  -28.0624  -25.0196   20.3539 C   0  0  0  0  0  0
  -30.8035  -22.4642   20.0393 C   0  0  0  0  0  0
  -29.5932  -21.6640   20.3073 N   0  0  0  0  0  0
  -27.5791  -17.1325   19.6862 N   0  0  0  0  0  0
  -29.7627  -15.7536   20.6949 N   0  0  0  0  0  0
  -31.0424  -24.8725   19.6872 O   0  0  0  0  0  0
  -27.3659  -22.1169   20.7498 O   0  0  0  0  0  0
  -32.1034  -17.5040   21.3064 F   0  0  0  0  0  0
  -31.4823  -12.5546   19.1519 H   0  0  0  0  0  0
  -30.3880  -11.4344   19.9150 H   0  0  0  0  0  0
  -29.7807  -11.7518   17.4926 H   0  0  0  0  0  0
  -29.6414  -13.4747   17.7345 H   0  0  0  0  0  0
  -27.8803  -11.2887   18.8866 H   0  0  0  0  0  0
  -27.3763  -12.5540   17.7984 H   0  0  0  0  0  0
  -27.6502  -14.2504   19.5015 H   0  0  0  0  0  0
  -28.7239  -12.0972   21.3930 H   0  0  0  0  0  0
  -28.4447  -13.7614   21.8261 H   0  0  0  0  0  0
  -25.2765   -9.5666   22.4750 H   0  0  0  0  0  0
  -23.9993   -7.4624   22.7475 H   0  0  0  0  0  0
  -21.0835   -8.8760   19.8951 H   0  0  0  0  0  0
  -22.3700  -10.9652   19.6149 H   0  0  0  0  0  0
  -21.2004   -7.6144   23.9718 H   0  0  0  0  0  0
  -21.1483   -6.0519   25.9079 H   0  0  0  0  0  0
  -22.0601   -2.7607   23.2844 H   0  0  0  0  0  0
  -22.4092  -11.9834   22.4794 H   0  0  0  0  0  0
  -21.1094  -13.1201   22.2633 H   0  0  0  0  0  0
  -24.6311  -15.8217   20.5871 H   0  0  0  0  0  0
  -26.2704  -15.6936   20.2272 H   0  0  0  0  0  0
  -26.7189  -32.5430   23.1095 H   0  0  0  0  0  0
  -25.0085  -33.9718   25.0431 H   0  0  0  0  0  0
  -22.7191  -31.3026   21.3987 H   0  0  0  0  0  0
  -23.3745  -35.9636   23.3343 H   0  0  0  0  0  0
  -24.3569  -36.8868   22.2044 H   0  0  0  0  0  0
  -23.7266  -37.6514   23.6633 H   0  0  0  0  0  0
  -26.1042  -31.5395   20.6104 H   0  0  0  0  0  0
  -26.8466  -30.8282   22.0122 H   0  0  0  0  0  0
  -28.1154  -28.9460   21.2218 H   0  0  0  0  0  0
  -25.9996  -25.9471   18.9496 H   0  0  0  0  0  0
  -23.9839  -27.3254   18.9766 H   0  0  0  0  0  0
  -23.7635  -30.5947   19.4042 H   0  0  0  0  0  0
  -22.7625  -29.2474   19.8549 H   0  0  0  0  0  0
  -25.1304  -36.1936   25.0822 H   0  0  0  0  0  0
  -20.9983  -28.3272   24.1392 H   0  0  0  0  0  0
  -20.5678  -26.2303   23.3612 H   0  0  0  0  0  0
  -21.6648  -26.7437   22.1195 H   0  0  0  0  0  0
  -19.6922  -25.6291   21.1239 H   0  0  0  0  0  0
  -19.6700  -27.3190   20.6738 H   0  0  0  0  0  0
  -17.4204  -26.6676   21.4027 H   0  0  0  0  0  0
  -18.0342  -26.0072   22.9017 H   0  0  0  0  0  0
  -19.7943  -30.7278   24.2253 H   0  0  0  0  0  0
  -17.5022  -31.6267   24.5164 H   0  0  0  0  0  0
  -15.5357  -30.2988   23.7664 H   0  0  0  0  0  0
  -15.8678  -28.0828   22.7059 H   0  0  0  0  0  0
  -24.5904  -30.7076   25.7777 H   0  0  0  0  0  0
  -24.8921  -32.2896   26.4870 H   0  0  0  0  0  0
  -25.8047  -30.8905   27.0230 H   0  0  0  0  0  0
  -26.2927  -29.6746   24.1218 H   0  0  0  0  0  0
  -27.4030  -29.7256   25.4709 H   0  0  0  0  0  0
  -27.8803  -30.4278   23.9440 H   0  0  0  0  0  0
  -27.2674  -33.3621   26.2069 H   0  0  0  0  0  0
  -28.3878  -32.6867   25.0335 H   0  0  0  0  0  0
  -28.0719  -31.8446   26.5424 H   0  0  0  0  0  0
  -28.2620  -38.0078   24.7464 H   0  0  0  0  0  0
  -28.1043  -36.2605   24.6371 H   0  0  0  0  0  0
  -27.2284  -37.1547   25.8875 H   0  0  0  0  0  0
  -20.9380  -29.8773   21.6874 H   0  0  0  0  0  0
  -26.0188  -38.2851   24.1362 H   0  0  0  0  0  0
  -27.6450  -19.7675   19.7337 H   0  0  0  0  0  0
  -31.7347  -20.0512   21.0364 H   0  0  0  0  0  0
  -27.0325  -24.8472   20.6335 H   0  0  0  0  0  0
  -31.5285  -22.3690   20.8468 H   0  0  0  0  0  0
  -31.2696  -22.1650   19.1005 H   0  0  0  0  0  0
  -26.8235  -17.6761   19.2818 H   0  0  0  0  0  0
  -27.8432  -16.4009   19.0357 H   0  0  0  0  0  0
  -28.8102  -15.4573   20.8377 H   0  0  0  0  0  0
  1 25  1  0  0  0
  1 30  2  0  0  0
  1 84  1  0  0  0
  2  3  1  0  0  0
  2 25  1  0  0  0
  2 88  1  0  0  0
  2 89  1  0  0  0
  3  4  1  0  0  0
  3 90  1  0  0  0
  3 91  1  0  0  0
  4  5  1  0  0  0
  4 92  1  0  0  0
  4 93  1  0  0  0
  5  6  1  0  0  0
  5 26  1  0  0  0
  5 94  1  0  0  0
  6 25  1  0  0  0
  6 95  1  0  0  0
  6 96  1  0  0  0
  7  8  2  0  0  0
  7 26  1  0  0  0
  7 29  1  0  0  0
  8  9  1  0  0  0
  8 22  1  0  0  0
  9 10  1  0  0  0
  9 27  2  0  0  0
 10 11  2  0  0  0
 10 15  1  0  0  0
 11 12  1  0  0  0
 11 97  1  0  0  0
 12 13  2  0  0  0
 12 98  1  0  0  0
 13 14  1  0  0  0
 13 31  1  0  0  0
 14 15  2  0  0  0
 14 99  1  0  0  0
 15100  1  0  0  0
 16 17  2  0  0  0
 16 21  1  0  0  0
 16 31  1  0  0  0
 17 18  1  0  0  0
 17101  1  0  0  0
 18 19  2  0  0  0
 18102  1  0  0  0
 19 20  1  0  0  0
 19 24  1  0  0  0
 20 21  2  0  0  0
 20103  1  0  0  0
 21 23  1  0  0  0
 22 28  1  0  0  0
 22 32  2  0  0  0
 26 27  1  0  0  0
 28104  1  0  0  0
 28105  1  0  0  0
 29106  1  0  0  0
 29107  1  0  0  0
 33 34  1  0  0  0
 33 66  1  0  0  0
 33 70  2  0  0  0
 34 36  1  0  0  0
 34 59  1  0  0  0
 34108  1  0  0  0
 35 44  2  0  0  0
 35 45  1  0  0  0
 35 68  1  0  0  0
 36 56  1  0  0  0
 36109  1  0  0  0
 37 39  1  0  0  0
 37 47  1  0  0  0
 37 66  1  0  0  0
 37110  1  0  0  0
 38 43  2  0  0  0
 38 46  1  0  0  0
 38 47  1  0  0  0
 39 64  1  0  0  0
 39 67  2  0  0  0
 40 52  1  0  0  0
 40 53  2  0  0  0
 40 58  1  0  0  0
 41111  1  0  0  0
 41112  1  0  0  0
 41113  1  0  0  0
 41 48  1  0  0  0
 42 43  1  0  0  0
 42 66  1  0  0  0
 42114  1  0  0  0
 42115  1  0  0  0
 43 44  1  0  0  0
 44116  1  0  0  0
 45 46  2  0  0  0
 45117  1  0  0  0
 46118  1  0  0  0
 47119  1  0  0  0
 47120  1  0  0  0
 48 56  1  0  0  0
 48 65  1  0  0  0
 48121  1  0  0  0
 49 50  1  0  0  0
 49 53  1  0  0  0
 49 64  1  0  0  0
 49122  1  0  0  0
 50 51  1  0  0  0
 50123  1  0  0  0
 50124  1  0  0  0
 51 52  1  0  0  0
 51125  1  0  0  0
 51126  1  0  0  0
 52127  1  0  0  0
 52128  1  0  0  0
 53 54  1  0  0  0
 54 55  2  0  0  0
 54129  1  0  0  0
 55 57  1  0  0  0
 55130  1  0  0  0
 56 69  2  0  0  0
 57 58  2  0  0  0
 57131  1  0  0  0
 58132  1  0  0  0
 59 60  1  0  0  0
 59 61  1  0  0  0
 59 62  1  0  0  0
 60133  1  0  0  0
 60134  1  0  0  0
 60135  1  0  0  0
 61136  1  0  0  0
 61137  1  0  0  0
 61138  1  0  0  0
 62139  1  0  0  0
 62140  1  0  0  0
 62141  1  0  0  0
 63 65  1  0  0  0
 63142  1  0  0  0
 63143  1  0  0  0
 63144  1  0  0  0
 64145  1  0  0  0
 65146  1  0  0  0
 68 80  1  0  0  0
 71 73  2  0  0  0
 71 74  1  0  0  0
 71147  1  0  0  0
 72 73  1  0  0  0
 72 76  2  0  0  0
 72148  1  0  0  0
 73 82  1  0  0  0
 74 75  2  0  0  0
 74 83  1  0  0  0
 75 76  1  0  0  0
 75 84  1  0  0  0
 76 87  1  0  0  0
 77 78  1  0  0  0
 77 79  1  0  0  0
 77 80  2  0  0  0
 78 81  1  0  0  0
 78 85  2  0  0  0
 79 82  1  0  0  0
 79 86  2  0  0  0
 80149  1  0  0  0
 81 82  1  0  0  0
 81150  1  0  0  0
 81151  1  0  0  0
 83152  1  0  0  0
 83153  1  0  0  0
 84154  1  0  0  0
M  ISO  4   1 100  68 101  80 101  84 100
M  END
> <chiral flag>
0

> <version>
0

> <s_m_source_file>
/data/baiqing/PycharmProjects/Reinvent-master-3.2/result/LINK_invent/BTK/process_docking_weight1_custom_product_contain_oxygen_bond_distance_aromatic_linkinvent_7_9_3/rearranged_h_0088.sdf

> <i_m_source_file_index>
27

> <r_mmod_Potential_Energy-OPLS-2005>
59.3607521057129

> <r_mmod_Stretch_Energy-OPLS-2005>
92.626594543457

> <r_mmod_Bend_Energy-OPLS-2005>
193.872741699219

> <r_mmod_Torsional_Energy-OPLS-2005>
268.574859619141

> <r_mmod_Improper_Torsional_Energy-OPLS-2005>
11.5239877700806

> <r_mmod_Van_der_Waal_Energy-OPLS-2005>
144.119537353516

> <r_mmod_Electrostatic_Energy-OPLS-2005>
-475.878601074219

> <r_mmod_Solvation_Energy-OPLS-2005>
-241.8505859375

> <b_mmod_Minimization_Converged-OPLS-2005>
0

> <r_mmod_RMS_Derivative-OPLS-2005>
0.559302628040314

$$$$
27
                    3D
 Structure written by MMmdl.
149157  0  0  1  0            999 V2000
  -30.7022  -14.6453   20.4923 C   0  0  0  0  0  0
  -30.4210  -12.4055   19.4507 C   0  0  0  0  0  0
  -29.4974  -12.4944   18.2202 C   0  0  0  0  0  0
  -28.0239  -12.3405   18.6410 C   0  0  0  0  0  0
  -27.6451  -13.2344   19.8538 C   0  0  2  0  0  0
  -28.6968  -13.1558   20.9836 C   0  0  0  0  0  0
  -25.2523  -13.8207   20.5704 C   0  0  0  0  0  0
  -24.1815  -13.0440   20.9226 C   0  0  0  0  0  0
  -24.6416  -11.6916   20.8780 C   0  0  0  0  0  0
  -23.9101  -10.4293   21.0432 C   0  0  0  0  0  0
  -24.3636   -9.4203   21.9209 C   0  0  0  0  0  0
  -23.6293   -8.2247   22.0774 C   0  0  0  0  0  0
  -22.4288   -8.0288   21.3541 C   0  0  0  0  0  0
  -21.9943   -9.0267   20.4642 C   0  0  0  0  0  0
  -22.7286  -10.2142   20.3055 C   0  0  0  0  0  0
  -21.6866   -6.0733   22.5272 C   0  0  0  0  0  0
  -21.4013   -6.5637   23.8201 C   0  0  0  0  0  0
  -21.3662   -5.6794   24.9163 C   0  0  0  0  0  0
  -21.6054   -4.3063   24.7228 C   0  0  0  0  0  0
  -21.8819   -3.8148   23.4352 C   0  0  0  0  0  0
  -21.9195   -4.6957   22.3396 C   0  0  0  0  0  0
  -22.7827  -13.5207   21.1873 C   0  0  0  0  0  0
  -22.1678   -4.2138   21.0982 F   0  0  0  0  0  0
  -21.5622   -3.4543   25.7746 F   0  0  0  0  0  0
  -30.0021  -13.4700   20.3883 N   0  0  0  0  0  0
  -26.2968  -12.9428   20.3332 N   0  0  0  0  0  0
  -25.9355  -11.6571   20.5806 N   0  0  0  0  0  0
  -22.0437  -12.8185   22.0391 N   0  0  0  0  0  0
  -25.4179  -15.1933   20.4077 N   0  0  0  0  0  0
  -31.8961  -14.6572   20.1829 O   0  0  0  0  0  0
  -21.6652   -6.8881   21.4239 O   0  0  0  0  0  0
  -22.3527  -14.5511   20.6711 O   0  0  0  0  0  0
  -24.6222  -31.8627   23.2062 C   0  0  0  0  0  0
  -25.9076  -32.4799   23.8371 C   0  0  1  0  0  0
  -27.2166  -27.3402   20.1225 C   0  0  0  0  0  0
  -25.5903  -33.8600   24.2294 N   0  0  0  0  0  0
  -23.4147  -30.4865   21.5484 C   0  0  2  0  0  0
  -24.8615  -28.9391   20.1188 C   0  0  0  0  0  0
  -22.7442  -29.4637   22.4965 C   0  0  0  0  0  0
  -18.0277  -28.1383   22.8483 C   0  0  0  0  0  0
  -24.1491  -36.7301   23.2645 C   0  0  0  0  0  0
  -25.9537  -30.7963   21.3765 C   0  0  0  0  0  0
  -26.0283  -29.4210   20.7293 C   0  0  0  0  0  0
  -27.2121  -28.6276   20.7341 C   0  0  0  0  0  0
  -26.0370  -26.9024   19.4925 C   0  0  0  0  0  0
  -24.8635  -27.6796   19.4972 C   0  0  0  0  0  0
  -23.6292  -29.8204   20.1644 C   0  0  0  0  0  0
  -25.4115  -36.3098   24.0335 C   0  0  1  0  0  0
  -20.5873  -28.3680   23.1285 C   0  0  2  0  0  0
  -20.6771  -26.9410   22.5417 C   0  0  0  0  0  0
  -19.5748  -26.6381   21.5219 C   0  0  0  0  0  0
  -18.1925  -26.7922   22.1624 C   0  0  0  0  0  0
  -19.1532  -28.8848   23.2881 C   0  0  0  0  0  0
  -18.9458  -30.1450   23.8897 C   0  0  0  0  0  0
  -17.6464  -30.6587   24.0557 C   0  0  0  0  0  0
  -25.9044  -34.9465   23.5116 C   0  0  0  0  0  0
  -16.5351  -29.9089   23.6328 C   0  0  0  0  0  0
  -16.7273  -28.6504   23.0353 C   0  0  0  0  0  0
  -26.4477  -31.6597   25.0730 C   0  0  0  0  0  0
  -25.3713  -31.3730   26.1459 C   0  0  0  0  0  0
  -27.0325  -30.3031   24.6171 C   0  0  0  0  0  0
  -27.6043  -32.4322   25.7499 C   0  0  0  0  0  0
  -27.5576  -37.1819   24.8471 C   0  0  0  0  0  0
  -21.4161  -29.3030   22.3677 N   0  0  0  0  0  0
  -26.4302  -37.3781   23.9395 N   0  0  0  0  0  0
  -24.6824  -31.0647   22.1007 N   0  0  0  0  0  0
  -23.4182  -28.8183   23.3042 O   0  0  0  0  0  0
  -28.2972  -26.4633   20.0796 O   0  0  0  0  0  0
  -26.5620  -34.8917   22.4693 O   0  0  0  0  0  0
  -23.5383  -32.1428   23.7386 O   0  0  0  0  0  0
  -30.0718  -19.6794   21.0641 C   0  0  0  0  0  0
  -28.0726  -20.1395   19.9495 C   0  0  0  0  0  0
  -29.1288  -20.6941   20.6312 C   0  0  0  0  0  0
  -29.7463  -18.3712   20.7072 C   0  0  0  0  0  0
  -28.6041  -25.7475   21.2297 C   0  0  0  0  0  0
  -30.5449  -17.0773   20.8637 C   0  0  0  0  0  0
  -28.7947  -24.4012   21.4580 C   0  0  0  0  0  0
  -28.6301  -23.2463   20.5270 C   0  0  0  0  0  0
  -29.2757  -22.1101   20.9601 N   0  0  0  0  0  0
  -30.0056  -15.8194   20.6984 N   0  0  0  0  0  0
  -31.7289  -17.2414   21.1827 O   0  0  0  0  0  0
  -27.9693  -23.2751   19.4870 O   0  0  0  0  0  0
  -29.1268  -24.0822   22.7198 O   0  0  0  0  0  0
  -28.2308  -18.3831   19.8256 S   0  0  0  0  0  0
  -31.4635  -12.4929   19.1386 H   0  0  0  0  0  0
  -30.3353  -11.4278   19.9279 H   0  0  0  0  0  0
  -29.7624  -11.7203   17.4989 H   0  0  0  0  0  0
  -29.6395  -13.4512   17.7146 H   0  0  0  0  0  0
  -27.8669  -11.2895   18.8890 H   0  0  0  0  0  0
  -27.3653  -12.5547   17.7997 H   0  0  0  0  0  0
  -27.6446  -14.2605   19.4851 H   0  0  0  0  0  0
  -28.7196  -12.1621   21.4340 H   0  0  0  0  0  0
  -28.4535  -13.8521   21.7884 H   0  0  0  0  0  0
  -25.2776   -9.5673   22.4795 H   0  0  0  0  0  0
  -23.9982   -7.4654   22.7523 H   0  0  0  0  0  0
  -21.0876   -8.8803   19.8935 H   0  0  0  0  0  0
  -22.3769  -10.9683   19.6146 H   0  0  0  0  0  0
  -21.2005   -7.6149   23.9700 H   0  0  0  0  0  0
  -21.1487   -6.0527   25.9068 H   0  0  0  0  0  0
  -22.0603   -2.7613   23.2861 H   0  0  0  0  0  0
  -22.4046  -11.9860   22.4799 H   0  0  0  0  0  0
  -21.1003  -13.1153   22.2472 H   0  0  0  0  0  0
  -24.6447  -15.8423   20.5091 H   0  0  0  0  0  0
  -26.2558  -15.6337   20.0501 H   0  0  0  0  0  0
  -26.7136  -32.5486   23.1110 H   0  0  0  0  0  0
  -25.0018  -33.9759   25.0418 H   0  0  0  0  0  0
  -22.7070  -31.3060   21.4060 H   0  0  0  0  0  0
  -23.3745  -35.9644   23.3337 H   0  0  0  0  0  0
  -24.3574  -36.8893   22.2054 H   0  0  0  0  0  0
  -23.7257  -37.6518   23.6646 H   0  0  0  0  0  0
  -26.0792  -31.5544   20.6004 H   0  0  0  0  0  0
  -26.8365  -30.8512   22.0024 H   0  0  0  0  0  0
  -28.1085  -28.9904   21.2175 H   0  0  0  0  0  0
  -26.0236  -25.9349   19.0106 H   0  0  0  0  0  0
  -23.9682  -27.3044   19.0205 H   0  0  0  0  0  0
  -23.7458  -30.5965   19.4065 H   0  0  0  0  0  0
  -22.7494  -29.2486   19.8651 H   0  0  0  0  0  0
  -25.1299  -36.1965   25.0830 H   0  0  0  0  0  0
  -20.9962  -28.3267   24.1407 H   0  0  0  0  0  0
  -20.5675  -26.2296   23.3615 H   0  0  0  0  0  0
  -21.6641  -26.7445   22.1215 H   0  0  0  0  0  0
  -19.6923  -25.6294   21.1247 H   0  0  0  0  0  0
  -19.6698  -27.3185   20.6742 H   0  0  0  0  0  0
  -17.4200  -26.6656   21.4028 H   0  0  0  0  0  0
  -18.0337  -26.0076   22.9028 H   0  0  0  0  0  0
  -19.7945  -30.7258   24.2272 H   0  0  0  0  0  0
  -17.5028  -31.6272   24.5151 H   0  0  0  0  0  0
  -15.5355  -30.2991   23.7664 H   0  0  0  0  0  0
  -15.8664  -28.0824   22.7071 H   0  0  0  0  0  0
  -24.5879  -30.7098   25.7774 H   0  0  0  0  0  0
  -24.8920  -32.2906   26.4887 H   0  0  0  0  0  0
  -25.8035  -30.8895   27.0230 H   0  0  0  0  0  0
  -26.2912  -29.6783   24.1182 H   0  0  0  0  0  0
  -27.4024  -29.7277   25.4661 H   0  0  0  0  0  0
  -27.8772  -30.4328   23.9400 H   0  0  0  0  0  0
  -27.2662  -33.3615   26.2089 H   0  0  0  0  0  0
  -28.3850  -32.6894   25.0327 H   0  0  0  0  0  0
  -28.0711  -31.8444   26.5406 H   0  0  0  0  0  0
  -28.2621  -38.0084   24.7461 H   0  0  0  0  0  0
  -28.1044  -36.2616   24.6370 H   0  0  0  0  0  0
  -27.2286  -37.1551   25.8872 H   0  0  0  0  0  0
  -20.9338  -29.8742   21.6878 H   0  0  0  0  0  0
  -26.0193  -38.2872   24.1346 H   0  0  0  0  0  0
  -30.9749  -19.9361   21.6019 H   0  0  0  0  0  0
  -27.2093  -20.6358   19.5195 H   0  0  0  0  0  0
  -28.7228  -26.4406   22.0514 H   0  0  0  0  0  0
  -29.9769  -22.3049   21.6620 H   0  0  0  0  0  0
  -29.0031  -15.7650   20.6536 H   0  0  0  0  0  0
  -28.9480  -23.1550   22.8263 H   0  0  0  0  0  0
  1 25  1  0  0  0
  1 30  2  0  0  0
  1 80  1  0  0  0
  2  3  1  0  0  0
  2 25  1  0  0  0
  2 85  1  0  0  0
  2 86  1  0  0  0
  3  4  1  0  0  0
  3 87  1  0  0  0
  3 88  1  0  0  0
  4  5  1  0  0  0
  4 89  1  0  0  0
  4 90  1  0  0  0
  5  6  1  0  0  0
  5 26  1  0  0  0
  5 91  1  0  0  0
  6 25  1  0  0  0
  6 92  1  0  0  0
  6 93  1  0  0  0
  7  8  2  0  0  0
  7 26  1  0  0  0
  7 29  1  0  0  0
  8  9  1  0  0  0
  8 22  1  0  0  0
  9 10  1  0  0  0
  9 27  2  0  0  0
 10 11  2  0  0  0
 10 15  1  0  0  0
 11 12  1  0  0  0
 11 94  1  0  0  0
 12 13  2  0  0  0
 12 95  1  0  0  0
 13 14  1  0  0  0
 13 31  1  0  0  0
 14 15  2  0  0  0
 14 96  1  0  0  0
 15 97  1  0  0  0
 16 17  2  0  0  0
 16 21  1  0  0  0
 16 31  1  0  0  0
 17 18  1  0  0  0
 17 98  1  0  0  0
 18 19  2  0  0  0
 18 99  1  0  0  0
 19 20  1  0  0  0
 19 24  1  0  0  0
 20 21  2  0  0  0
 20100  1  0  0  0
 21 23  1  0  0  0
 22 28  1  0  0  0
 22 32  2  0  0  0
 26 27  1  0  0  0
 28101  1  0  0  0
 28102  1  0  0  0
 29103  1  0  0  0
 29104  1  0  0  0
 33 34  1  0  0  0
 33 66  1  0  0  0
 33 70  2  0  0  0
 34 36  1  0  0  0
 34 59  1  0  0  0
 34105  1  0  0  0
 35 44  2  0  0  0
 35 45  1  0  0  0
 35 68  1  0  0  0
 36 56  1  0  0  0
 36106  1  0  0  0
 37 39  1  0  0  0
 37 47  1  0  0  0
 37 66  1  0  0  0
 37107  1  0  0  0
 38 43  2  0  0  0
 38 46  1  0  0  0
 38 47  1  0  0  0
 39 64  1  0  0  0
 39 67  2  0  0  0
 40 52  1  0  0  0
 40 53  2  0  0  0
 40 58  1  0  0  0
 41108  1  0  0  0
 41109  1  0  0  0
 41110  1  0  0  0
 41 48  1  0  0  0
 42 43  1  0  0  0
 42 66  1  0  0  0
 42111  1  0  0  0
 42112  1  0  0  0
 43 44  1  0  0  0
 44113  1  0  0  0
 45 46  2  0  0  0
 45114  1  0  0  0
 46115  1  0  0  0
 47116  1  0  0  0
 47117  1  0  0  0
 48 56  1  0  0  0
 48 65  1  0  0  0
 48118  1  0  0  0
 49 50  1  0  0  0
 49 53  1  0  0  0
 49 64  1  0  0  0
 49119  1  0  0  0
 50 51  1  0  0  0
 50120  1  0  0  0
 50121  1  0  0  0
 51 52  1  0  0  0
 51122  1  0  0  0
 51123  1  0  0  0
 52124  1  0  0  0
 52125  1  0  0  0
 53 54  1  0  0  0
 54 55  2  0  0  0
 54126  1  0  0  0
 55 57  1  0  0  0
 55127  1  0  0  0
 56 69  2  0  0  0
 57 58  2  0  0  0
 57128  1  0  0  0
 58129  1  0  0  0
 59 60  1  0  0  0
 59 61  1  0  0  0
 59 62  1  0  0  0
 60130  1  0  0  0
 60131  1  0  0  0
 60132  1  0  0  0
 61133  1  0  0  0
 61134  1  0  0  0
 61135  1  0  0  0
 62136  1  0  0  0
 62137  1  0  0  0
 62138  1  0  0  0
 63 65  1  0  0  0
 63139  1  0  0  0
 63140  1  0  0  0
 63141  1  0  0  0
 64142  1  0  0  0
 65143  1  0  0  0
 68 75  1  0  0  0
 71 73  1  0  0  0
 71 74  2  0  0  0
 71144  1  0  0  0
 72 73  2  0  0  0
 72 84  1  0  0  0
 72145  1  0  0  0
 73 79  1  0  0  0
 74 76  1  0  0  0
 74 84  1  0  0  0
 75 77  2  0  0  0
 75146  1  0  0  0
 76 80  1  0  0  0
 76 81  2  0  0  0
 77 78  1  0  0  0
 77 83  1  0  0  0
 78 79  1  0  0  0
 78 82  2  0  0  0
 79147  1  0  0  0
 80148  1  0  0  0
 83149  1  0  0  0
M  ISO  4   1 100  68 101  75 101  80 100
M  END
> <chiral flag>
0

> <version>
0

> <s_m_source_file>
/data/baiqing/PycharmProjects/Reinvent-master-3.2/result/LINK_invent/BTK/process_docking_weight1_custom_product_contain_oxygen_bond_distance_aromatic_linkinvent_7_9_3/rearranged_h_0088.sdf

> <i_m_source_file_index>
28

> <r_mmod_Potential_Energy-OPLS-2005>
-30.2696380615234

> <r_mmod_Stretch_Energy-OPLS-2005>
69.1993408203125

> <r_mmod_Bend_Energy-OPLS-2005>
160.189682006836

> <r_mmod_Torsional_Energy-OPLS-2005>
266.148162841797

> <r_mmod_Improper_Torsional_Energy-OPLS-2005>
6.34482574462891

> <r_mmod_Van_der_Waal_Energy-OPLS-2005>
127.652053833008

> <r_mmod_Electrostatic_Energy-OPLS-2005>
-456.580474853516

> <r_mmod_Solvation_Energy-OPLS-2005>
-255.275314331055

> <b_mmod_Minimization_Converged-OPLS-2005>
0

> <r_mmod_RMS_Derivative-OPLS-2005>
2.39349865913391

$$$$
28
                    3D
 Structure written by MMmdl.
157166  0  0  1  0            999 V2000
  -30.7884  -14.4000   20.6579 C   0  0  0  0  0  0
  -30.4181  -12.2999   19.4170 C   0  0  0  0  0  0
  -29.4928  -12.5153   18.2050 C   0  0  0  0  0  0
  -28.0172  -12.3711   18.6173 C   0  0  0  0  0  0
  -27.6650  -13.2106   19.8727 C   0  0  2  0  0  0
  -28.7044  -12.9974   20.9992 C   0  0  0  0  0  0
  -25.2616  -13.8157   20.5678 C   0  0  0  0  0  0
  -24.1865  -13.0447   20.9155 C   0  0  0  0  0  0
  -24.6395  -11.6905   20.8713 C   0  0  0  0  0  0
  -23.9070  -10.4292   21.0394 C   0  0  0  0  0  0
  -24.3623   -9.4210   21.9175 C   0  0  0  0  0  0
  -23.6294   -8.2249   22.0746 C   0  0  0  0  0  0
  -22.4279   -8.0281   21.3545 C   0  0  0  0  0  0
  -21.9910   -9.0256   20.4653 C   0  0  0  0  0  0
  -22.7229  -10.2129   20.3066 C   0  0  0  0  0  0
  -21.6871   -6.0713   22.5276 C   0  0  0  0  0  0
  -21.4006   -6.5620   23.8206 C   0  0  0  0  0  0
  -21.3660   -5.6782   24.9172 C   0  0  0  0  0  0
  -21.6046   -4.3049   24.7225 C   0  0  0  0  0  0
  -21.8826   -3.8129   23.4352 C   0  0  0  0  0  0
  -21.9204   -4.6937   22.3401 C   0  0  0  0  0  0
  -22.7882  -13.5260   21.1809 C   0  0  0  0  0  0
  -22.1693   -4.2116   21.0989 F   0  0  0  0  0  0
  -21.5632   -3.4538   25.7748 F   0  0  0  0  0  0
  -30.0502  -13.2733   20.4584 N   0  0  0  0  0  0
  -26.3049  -12.9343   20.3362 N   0  0  0  0  0  0
  -25.9333  -11.6491   20.5738 N   0  0  0  0  0  0
  -22.0523  -12.8302   22.0390 N   0  0  0  0  0  0
  -25.4394  -15.1865   20.4123 N   0  0  0  0  0  0
  -31.8211  -14.6447   20.0289 O   0  0  0  0  0  0
  -21.6654   -6.8864   21.4241 O   0  0  0  0  0  0
  -22.3582  -14.5582   20.6655 O   0  0  0  0  0  0
  -24.6103  -31.8704   23.2138 C   0  0  0  0  0  0
  -25.9009  -32.4838   23.8420 C   0  0  1  0  0  0
  -27.2464  -27.4730   20.0692 C   0  0  0  0  0  0
  -25.5886  -33.8638   24.2345 N   0  0  0  0  0  0
  -23.3972  -30.4948   21.5528 C   0  0  2  0  0  0
  -24.8450  -28.9681   20.1140 C   0  0  0  0  0  0
  -22.7394  -29.4652   22.4994 C   0  0  0  0  0  0
  -18.0262  -28.1373   22.8488 C   0  0  0  0  0  0
  -24.1488  -36.7340   23.2637 C   0  0  0  0  0  0
  -25.9234  -30.8471   21.3630 C   0  0  0  0  0  0
  -26.0037  -29.4849   20.7063 C   0  0  0  0  0  0
  -27.2053  -28.7449   20.6814 C   0  0  0  0  0  0
  -26.0593  -26.9547   19.4983 C   0  0  0  0  0  0
  -24.8649  -27.6989   19.5116 C   0  0  0  0  0  0
  -23.6050  -29.8301   20.1664 C   0  0  0  0  0  0
  -25.4106  -36.3128   24.0341 C   0  0  1  0  0  0
  -20.5845  -28.3647   23.1332 C   0  0  2  0  0  0
  -20.6741  -26.9383   22.5429 C   0  0  0  0  0  0
  -19.5731  -26.6373   21.5211 C   0  0  0  0  0  0
  -18.1910  -26.7911   22.1625 C   0  0  0  0  0  0
  -19.1512  -28.8829   23.2904 C   0  0  0  0  0  0
  -18.9447  -30.1432   23.8912 C   0  0  0  0  0  0
  -17.6450  -30.6571   24.0565 C   0  0  0  0  0  0
  -25.9023  -34.9489   23.5135 C   0  0  0  0  0  0
  -16.5336  -29.9078   23.6318 C   0  0  0  0  0  0
  -16.7251  -28.6501   23.0331 C   0  0  0  0  0  0
  -26.4451  -31.6611   25.0737 C   0  0  0  0  0  0
  -25.3743  -31.3770   26.1522 C   0  0  0  0  0  0
  -27.0234  -30.3028   24.6115 C   0  0  0  0  0  0
  -27.6057  -32.4312   25.7469 C   0  0  0  0  0  0
  -27.5590  -37.1809   24.8461 C   0  0  0  0  0  0
  -21.4123  -29.3018   22.3744 N   0  0  0  0  0  0
  -26.4297  -37.3804   23.9410 N   0  0  0  0  0  0
  -24.6613  -31.0837   22.1024 N   0  0  0  0  0  0
  -23.4186  -28.8183   23.3009 O   0  0  0  0  0  0
  -28.4280  -26.7614   20.0876 O   0  0  0  0  0  0
  -26.5588  -34.8930   22.4697 O   0  0  0  0  0  0
  -23.5301  -32.1435   23.7551 O   0  0  0  0  0  0
  -29.8443  -20.8217   21.7237 C   0  0  0  0  0  0
  -31.5138  -20.6516   19.9470 C   0  0  0  0  0  0
  -29.4043  -22.0473   21.1953 C   0  0  0  0  0  0
  -31.0781  -21.8879   19.4241 C   0  0  0  0  0  0
  -30.8831  -20.1058   21.0903 C   0  0  0  0  0  0
  -30.0096  -22.5768   20.0392 C   0  0  0  0  0  0
  -31.9704  -16.4688   22.8717 C   0  0  0  0  0  0
  -30.9991  -16.4349   21.9290 C   0  0  0  0  0  0
  -30.6123  -17.6701   21.2292 C   0  0  0  0  0  0
  -32.2948  -18.8466   22.6140 C   0  0  0  0  0  0
  -29.9127  -24.9795   19.5307 C   0  0  0  0  0  0
  -28.8433  -25.9819   19.0545 C   0  0  0  0  0  0
  -32.6137  -17.6347   23.2109 N   0  0  0  0  0  0
  -31.2897  -18.8516   21.6260 N   0  0  0  0  0  0
  -29.4396  -23.7287   19.4595 N   0  0  0  0  0  0
  -30.3535  -15.2364   21.6058 N   0  0  0  0  0  0
  -29.7566  -17.7066   20.3367 O   0  0  0  0  0  0
  -32.8908  -19.8655   22.9628 O   0  0  0  0  0  0
  -31.0397  -25.3074   19.9211 O   0  0  0  0  0  0
  -28.3906  -25.9707   17.9018 O   0  0  0  0  0  0
  -31.4620  -12.3864   19.1110 H   0  0  0  0  0  0
  -30.3159  -11.2880   19.8137 H   0  0  0  0  0  0
  -29.7339  -11.8020   17.4170 H   0  0  0  0  0  0
  -29.6659  -13.5065   17.7834 H   0  0  0  0  0  0
  -27.8261  -11.3148   18.8124 H   0  0  0  0  0  0
  -27.3684  -12.6512   17.7867 H   0  0  0  0  0  0
  -27.7085  -14.2588   19.5758 H   0  0  0  0  0  0
  -28.6621  -11.9681   21.3585 H   0  0  0  0  0  0
  -28.4481  -13.6173   21.8577 H   0  0  0  0  0  0
  -25.2762   -9.5699   22.4752 H   0  0  0  0  0  0
  -24.0017   -7.4649   22.7470 H   0  0  0  0  0  0
  -21.0837   -8.8783   19.8963 H   0  0  0  0  0  0
  -22.3682  -10.9693   19.6199 H   0  0  0  0  0  0
  -21.1999   -7.6131   23.9699 H   0  0  0  0  0  0
  -21.1482   -6.0513   25.9072 H   0  0  0  0  0  0
  -22.0605   -2.7586   23.2878 H   0  0  0  0  0  0
  -22.4153  -11.9987   22.4823 H   0  0  0  0  0  0
  -21.1119  -13.1318   22.2534 H   0  0  0  0  0  0
  -24.6838  -15.8509   20.5379 H   0  0  0  0  0  0
  -26.3056  -15.6206   20.1191 H   0  0  0  0  0  0
  -26.7089  -32.5551   23.1198 H   0  0  0  0  0  0
  -25.0039  -33.9810   25.0490 H   0  0  0  0  0  0
  -22.6837  -31.3104   21.4167 H   0  0  0  0  0  0
  -23.3726  -35.9695   23.3320 H   0  0  0  0  0  0
  -24.3580  -36.8930   22.2044 H   0  0  0  0  0  0
  -23.7262  -37.6564   23.6633 H   0  0  0  0  0  0
  -26.0333  -31.6188   20.5993 H   0  0  0  0  0  0
  -26.8119  -30.8972   21.9804 H   0  0  0  0  0  0
  -28.1026  -29.1500   21.1275 H   0  0  0  0  0  0
  -26.0479  -25.9758   19.0409 H   0  0  0  0  0  0
  -23.9729  -27.2905   19.0581 H   0  0  0  0  0  0
  -23.7128  -30.6077   19.4103 H   0  0  0  0  0  0
  -22.7291  -29.2523   19.8668 H   0  0  0  0  0  0
  -25.1273  -36.2001   25.0832 H   0  0  0  0  0  0
  -20.9933  -28.3210   24.1448 H   0  0  0  0  0  0
  -20.5615  -26.2265   23.3613 H   0  0  0  0  0  0
  -21.6621  -26.7406   22.1247 H   0  0  0  0  0  0
  -19.6897  -25.6288   21.1239 H   0  0  0  0  0  0
  -19.6678  -27.3188   20.6737 H   0  0  0  0  0  0
  -17.4179  -26.6646   21.4033 H   0  0  0  0  0  0
  -18.0321  -26.0051   22.9017 H   0  0  0  0  0  0
  -19.7916  -30.7240   24.2290 H   0  0  0  0  0  0
  -17.5001  -31.6258   24.5169 H   0  0  0  0  0  0
  -15.5340  -30.2995   23.7623 H   0  0  0  0  0  0
  -15.8654  -28.0838   22.7021 H   0  0  0  0  0  0
  -24.5883  -30.7128   25.7921 H   0  0  0  0  0  0
  -24.8980  -32.2950   26.4969 H   0  0  0  0  0  0
  -25.8110  -30.8967   27.0284 H   0  0  0  0  0  0
  -26.2756  -29.6829   24.1154 H   0  0  0  0  0  0
  -27.3942  -29.7233   25.4578 H   0  0  0  0  0  0
  -27.8635  -30.4302   23.9287 H   0  0  0  0  0  0
  -27.2701  -33.3601   26.2088 H   0  0  0  0  0  0
  -28.3837  -32.6877   25.0271 H   0  0  0  0  0  0
  -28.0757  -31.8413   26.5344 H   0  0  0  0  0  0
  -28.2627  -38.0085   24.7471 H   0  0  0  0  0  0
  -28.1055  -36.2609   24.6312 H   0  0  0  0  0  0
  -27.2313  -37.1515   25.8868 H   0  0  0  0  0  0
  -20.9269  -29.8797   21.7025 H   0  0  0  0  0  0
  -26.0194  -38.2888   24.1392 H   0  0  0  0  0  0
  -29.3737  -20.4252   22.6115 H   0  0  0  0  0  0
  -32.3216  -20.1169   19.4631 H   0  0  0  0  0  0
  -28.5968  -22.5768   21.6815 H   0  0  0  0  0  0
  -31.5461  -22.2836   18.5347 H   0  0  0  0  0  0
  -32.2583  -15.5621   23.3813 H   0  0  0  0  0  0
  -33.3419  -17.6435   23.9184 H   0  0  0  0  0  0
  -28.4730  -23.6660   19.1665 H   0  0  0  0  0  0
  -29.4821  -15.0353   22.0708 H   0  0  0  0  0  0
  1 25  1  0  0  0
  1 30  2  0  0  0
  1 86  1  0  0  0
  2  3  1  0  0  0
  2 25  1  0  0  0
  2 91  1  0  0  0
  2 92  1  0  0  0
  3  4  1  0  0  0
  3 93  1  0  0  0
  3 94  1  0  0  0
  4  5  1  0  0  0
  4 95  1  0  0  0
  4 96  1  0  0  0
  5  6  1  0  0  0
  5 26  1  0  0  0
  5 97  1  0  0  0
  6 25  1  0  0  0
  6 98  1  0  0  0
  6 99  1  0  0  0
  7  8  2  0  0  0
  7 26  1  0  0  0
  7 29  1  0  0  0
  8  9  1  0  0  0
  8 22  1  0  0  0
  9 10  1  0  0  0
  9 27  2  0  0  0
 10 11  2  0  0  0
 10 15  1  0  0  0
 11 12  1  0  0  0
 11100  1  0  0  0
 12 13  2  0  0  0
 12101  1  0  0  0
 13 14  1  0  0  0
 13 31  1  0  0  0
 14 15  2  0  0  0
 14102  1  0  0  0
 15103  1  0  0  0
 16 17  2  0  0  0
 16 21  1  0  0  0
 16 31  1  0  0  0
 17 18  1  0  0  0
 17104  1  0  0  0
 18 19  2  0  0  0
 18105  1  0  0  0
 19 20  1  0  0  0
 19 24  1  0  0  0
 20 21  2  0  0  0
 20106  1  0  0  0
 21 23  1  0  0  0
 22 28  1  0  0  0
 22 32  2  0  0  0
 26 27  1  0  0  0
 28107  1  0  0  0
 28108  1  0  0  0
 29109  1  0  0  0
 29110  1  0  0  0
 33 34  1  0  0  0
 33 66  1  0  0  0
 33 70  2  0  0  0
 34 36  1  0  0  0
 34 59  1  0  0  0
 34111  1  0  0  0
 35 44  2  0  0  0
 35 45  1  0  0  0
 35 68  1  0  0  0
 36 56  1  0  0  0
 36112  1  0  0  0
 37 39  1  0  0  0
 37 47  1  0  0  0
 37 66  1  0  0  0
 37113  1  0  0  0
 38 43  2  0  0  0
 38 46  1  0  0  0
 38 47  1  0  0  0
 39 64  1  0  0  0
 39 67  2  0  0  0
 40 52  1  0  0  0
 40 53  2  0  0  0
 40 58  1  0  0  0
 41114  1  0  0  0
 41115  1  0  0  0
 41116  1  0  0  0
 41 48  1  0  0  0
 42 43  1  0  0  0
 42 66  1  0  0  0
 42117  1  0  0  0
 42118  1  0  0  0
 43 44  1  0  0  0
 44119  1  0  0  0
 45 46  2  0  0  0
 45120  1  0  0  0
 46121  1  0  0  0
 47122  1  0  0  0
 47123  1  0  0  0
 48 56  1  0  0  0
 48 65  1  0  0  0
 48124  1  0  0  0
 49 50  1  0  0  0
 49 53  1  0  0  0
 49 64  1  0  0  0
 49125  1  0  0  0
 50 51  1  0  0  0
 50126  1  0  0  0
 50127  1  0  0  0
 51 52  1  0  0  0
 51128  1  0  0  0
 51129  1  0  0  0
 52130  1  0  0  0
 52131  1  0  0  0
 53 54  1  0  0  0
 54 55  2  0  0  0
 54132  1  0  0  0
 55 57  1  0  0  0
 55133  1  0  0  0
 56 69  2  0  0  0
 57 58  2  0  0  0
 57134  1  0  0  0
 58135  1  0  0  0
 59 60  1  0  0  0
 59 61  1  0  0  0
 59 62  1  0  0  0
 60136  1  0  0  0
 60137  1  0  0  0
 60138  1  0  0  0
 61139  1  0  0  0
 61140  1  0  0  0
 61141  1  0  0  0
 62142  1  0  0  0
 62143  1  0  0  0
 62144  1  0  0  0
 63 65  1  0  0  0
 63145  1  0  0  0
 63146  1  0  0  0
 63147  1  0  0  0
 64148  1  0  0  0
 65149  1  0  0  0
 68 82  1  0  0  0
 71 73  2  0  0  0
 71 75  1  0  0  0
 71150  1  0  0  0
 72 74  1  0  0  0
 72 75  2  0  0  0
 72151  1  0  0  0
 73 76  1  0  0  0
 73152  1  0  0  0
 74 76  2  0  0  0
 74153  1  0  0  0
 75 84  1  0  0  0
 76 85  1  0  0  0
 77 78  2  0  0  0
 77 83  1  0  0  0
 77154  1  0  0  0
 78 79  1  0  0  0
 78 86  1  0  0  0
 79 84  1  0  0  0
 79 87  2  0  0  0
 80 83  1  0  0  0
 80 84  1  0  0  0
 80 88  2  0  0  0
 81 82  1  0  0  0
 81 85  1  0  0  0
 81 89  2  0  0  0
 82 90  2  0  0  0
 83155  1  0  0  0
 85156  1  0  0  0
 86157  1  0  0  0
M  ISO  4   1 100  68 101  82 101  86 100
M  END
> <chiral flag>
0

> <version>
0

> <s_m_source_file>
/data/baiqing/PycharmProjects/Reinvent-master-3.2/result/LINK_invent/BTK/process_docking_weight1_custom_product_contain_oxygen_bond_distance_aromatic_linkinvent_7_9_3/rearranged_h_0088.sdf

> <i_m_source_file_index>
29

> <r_mmod_Potential_Energy-OPLS-2005>
-140.406799316406

> <r_mmod_Stretch_Energy-OPLS-2005>
38.2829895019531

> <r_mmod_Bend_Energy-OPLS-2005>
97.7897033691406

> <r_mmod_Torsional_Energy-OPLS-2005>
307.387359619141

> <r_mmod_Improper_Torsional_Energy-OPLS-2005>
3.475581407547

> <r_mmod_Van_der_Waal_Energy-OPLS-2005>
180.462341308594

> <r_mmod_Electrostatic_Energy-OPLS-2005>
-503.537811279297

> <r_mmod_Solvation_Energy-OPLS-2005>
-273.075836181641

> <b_mmod_Minimization_Converged-OPLS-2005>
0

> <r_mmod_RMS_Derivative-OPLS-2005>
3.2589418888092

$$$$
29
                    3D
 Structure written by MMmdl.
154162  0  0  1  0            999 V2000
  -30.6723  -14.5315   20.5264 C   0  0  0  0  0  0
  -30.4300  -12.3289   19.4343 C   0  0  0  0  0  0
  -29.5005  -12.5033   18.2138 C   0  0  0  0  0  0
  -28.0208  -12.3632   18.6251 C   0  0  0  0  0  0
  -27.6606  -13.2124   19.8740 C   0  0  2  0  0  0
  -28.7052  -13.0167   20.9969 C   0  0  0  0  0  0
  -25.2573  -13.8167   20.5686 C   0  0  0  0  0  0
  -24.1822  -13.0431   20.9139 C   0  0  0  0  0  0
  -24.6397  -11.6902   20.8711 C   0  0  0  0  0  0
  -23.9065  -10.4282   21.0385 C   0  0  0  0  0  0
  -24.3611   -9.4202   21.9173 C   0  0  0  0  0  0
  -23.6280   -8.2242   22.0753 C   0  0  0  0  0  0
  -22.4267   -8.0275   21.3540 C   0  0  0  0  0  0
  -21.9899   -9.0248   20.4646 C   0  0  0  0  0  0
  -22.7230  -10.2125   20.3046 C   0  0  0  0  0  0
  -21.6857   -6.0726   22.5273 C   0  0  0  0  0  0
  -21.4018   -6.5631   23.8205 C   0  0  0  0  0  0
  -21.3659   -5.6788   24.9170 C   0  0  0  0  0  0
  -21.6048   -4.3049   24.7226 C   0  0  0  0  0  0
  -21.8818   -3.8137   23.4346 C   0  0  0  0  0  0
  -21.9192   -4.6952   22.3401 C   0  0  0  0  0  0
  -22.7847  -13.5219   21.1813 C   0  0  0  0  0  0
  -22.1658   -4.2136   21.0980 F   0  0  0  0  0  0
  -21.5631   -3.4535   25.7740 F   0  0  0  0  0  0
  -30.0329  -13.3294   20.4399 N   0  0  0  0  0  0
  -26.3026  -12.9354   20.3376 N   0  0  0  0  0  0
  -25.9336  -11.6505   20.5768 N   0  0  0  0  0  0
  -22.0506  -12.8217   22.0389 N   0  0  0  0  0  0
  -25.4273  -15.1889   20.4165 N   0  0  0  0  0  0
  -31.8188  -14.6954   20.1008 O   0  0  0  0  0  0
  -21.6638   -6.8868   21.4235 O   0  0  0  0  0  0
  -22.3517  -14.5524   20.6669 O   0  0  0  0  0  0
  -24.6163  -31.8662   23.2077 C   0  0  0  0  0  0
  -25.9043  -32.4818   23.8381 C   0  0  1  0  0  0
  -27.2330  -27.4133   20.1006 C   0  0  0  0  0  0
  -25.5884  -33.8617   24.2308 N   0  0  0  0  0  0
  -23.4072  -30.4887   21.5480 C   0  0  2  0  0  0
  -24.8565  -28.9523   20.1112 C   0  0  0  0  0  0
  -22.7423  -29.4650   22.4964 C   0  0  0  0  0  0
  -18.0285  -28.1387   22.8500 C   0  0  0  0  0  0
  -24.1476  -36.7317   23.2641 C   0  0  0  0  0  0
  -25.9382  -30.8241   21.3649 C   0  0  0  0  0  0
  -26.0175  -29.4568   20.7129 C   0  0  0  0  0  0
  -27.2114  -28.6934   20.7093 C   0  0  0  0  0  0
  -26.0601  -26.9310   19.4889 C   0  0  0  0  0  0
  -24.8730  -27.6882   19.4965 C   0  0  0  0  0  0
  -23.6184  -29.8210   20.1624 C   0  0  0  0  0  0
  -25.4103  -36.3115   24.0334 C   0  0  1  0  0  0
  -20.5877  -28.3671   23.1316 C   0  0  2  0  0  0
  -20.6773  -26.9404   22.5421 C   0  0  0  0  0  0
  -19.5753  -26.6391   21.5221 C   0  0  0  0  0  0
  -18.1932  -26.7937   22.1631 C   0  0  0  0  0  0
  -19.1536  -28.8846   23.2906 C   0  0  0  0  0  0
  -18.9461  -30.1452   23.8913 C   0  0  0  0  0  0
  -17.6464  -30.6595   24.0573 C   0  0  0  0  0  0
  -25.9029  -34.9477   23.5128 C   0  0  0  0  0  0
  -16.5353  -29.9098   23.6332 C   0  0  0  0  0  0
  -16.7274  -28.6517   23.0349 C   0  0  0  0  0  0
  -26.4473  -31.6602   25.0719 C   0  0  0  0  0  0
  -25.3734  -31.3714   26.1462 C   0  0  0  0  0  0
  -27.0291  -30.3039   24.6091 C   0  0  0  0  0  0
  -27.6044  -32.4318   25.7486 C   0  0  0  0  0  0
  -27.5578  -37.1817   24.8474 C   0  0  0  0  0  0
  -21.4149  -29.3037   22.3714 N   0  0  0  0  0  0
  -26.4295  -37.3801   23.9411 N   0  0  0  0  0  0
  -24.6723  -31.0741   22.0986 N   0  0  0  0  0  0
  -23.4182  -28.8195   23.3020 O   0  0  0  0  0  0
  -28.3390  -26.5876   20.1194 O   0  0  0  0  0  0
  -26.5605  -34.8938   22.4698 O   0  0  0  0  0  0
  -23.5353  -32.1416   23.7465 O   0  0  0  0  0  0
  -31.1252  -19.0584   20.0506 C   0  0  0  0  0  0
  -31.1605  -17.6628   20.3029 C   0  0  0  0  0  0
  -28.7835  -19.1296   20.6588 C   0  0  0  0  0  0
  -29.9426  -19.8206   20.2289 C   0  0  0  0  0  0
  -29.9943  -16.9729   20.7202 C   0  0  0  0  0  0
  -28.8135  -17.7333   20.8978 C   0  0  0  0  0  0
  -28.7974  -24.5210   21.4098 C   0  0  0  0  0  0
  -28.4721  -25.8361   21.2694 C   0  0  0  0  0  0
  -29.9111  -21.3015   19.8500 C   0  0  0  0  0  0
  -29.0925  -23.5449   20.3389 C   0  0  0  0  0  0
  -29.4607  -21.9027   22.1769 C   0  0  0  0  0  0
  -29.9105  -15.5557   20.9764 N   0  0  0  0  0  0
  -29.4587  -22.2603   20.7366 N   0  0  0  0  0  0
  -30.3359  -21.5560   18.7159 O   0  0  0  0  0  0
  -28.9863  -23.8807   19.1531 O   0  0  0  0  0  0
  -27.6797  -17.1013   21.2846 F   0  0  0  0  0  0
  -31.4739  -12.4314   19.1310 H   0  0  0  0  0  0
  -30.3379  -11.3229   19.8471 H   0  0  0  0  0  0
  -29.7442  -11.7691   17.4446 H   0  0  0  0  0  0
  -29.6646  -13.4834   17.7626 H   0  0  0  0  0  0
  -27.8330  -11.3085   18.8282 H   0  0  0  0  0  0
  -27.3702  -12.6290   17.7910 H   0  0  0  0  0  0
  -27.6936  -14.2572   19.5634 H   0  0  0  0  0  0
  -28.6907  -11.9861   21.3546 H   0  0  0  0  0  0
  -28.4653  -13.6295   21.8669 H   0  0  0  0  0  0
  -25.2763   -9.5678   22.4735 H   0  0  0  0  0  0
  -23.9991   -7.4642   22.7478 H   0  0  0  0  0  0
  -21.0830   -8.8761   19.8960 H   0  0  0  0  0  0
  -22.3686  -10.9653   19.6143 H   0  0  0  0  0  0
  -21.2015   -7.6141   23.9702 H   0  0  0  0  0  0
  -21.1484   -6.0520   25.9070 H   0  0  0  0  0  0
  -22.0601   -2.7598   23.2852 H   0  0  0  0  0  0
  -22.4136  -11.9880   22.4763 H   0  0  0  0  0  0
  -21.1125  -13.1232   22.2612 H   0  0  0  0  0  0
  -24.6710  -15.8435   20.5783 H   0  0  0  0  0  0
  -26.3114  -15.6492   20.2351 H   0  0  0  0  0  0
  -26.7113  -32.5539   23.1143 H   0  0  0  0  0  0
  -25.0037  -33.9779   25.0451 H   0  0  0  0  0  0
  -22.6979  -31.3068   21.4080 H   0  0  0  0  0  0
  -23.3739  -35.9651   23.3321 H   0  0  0  0  0  0
  -24.3570  -36.8911   22.2056 H   0  0  0  0  0  0
  -23.7221  -37.6526   23.6641 H   0  0  0  0  0  0
  -26.0511  -31.5861   20.5927 H   0  0  0  0  0  0
  -26.8265  -30.8814   21.9825 H   0  0  0  0  0  0
  -28.1043  -29.0719   21.1864 H   0  0  0  0  0  0
  -26.0631  -25.9538   19.0265 H   0  0  0  0  0  0
  -23.9805  -27.2922   19.0316 H   0  0  0  0  0  0
  -23.7300  -30.5962   19.4040 H   0  0  0  0  0  0
  -22.7414  -29.2445   19.8631 H   0  0  0  0  0  0
  -25.1277  -36.1986   25.0828 H   0  0  0  0  0  0
  -20.9981  -28.3237   24.1434 H   0  0  0  0  0  0
  -20.5682  -26.2275   23.3606 H   0  0  0  0  0  0
  -21.6642  -26.7458   22.1208 H   0  0  0  0  0  0
  -19.6908  -25.6305   21.1241 H   0  0  0  0  0  0
  -19.6690  -27.3213   20.6759 H   0  0  0  0  0  0
  -17.4199  -26.6697   21.4029 H   0  0  0  0  0  0
  -18.0326  -26.0077   22.9022 H   0  0  0  0  0  0
  -19.7931  -30.7277   24.2272 H   0  0  0  0  0  0
  -17.5018  -31.6275   24.5174 H   0  0  0  0  0  0
  -15.5354  -30.3010   23.7644 H   0  0  0  0  0  0
  -15.8674  -28.0849   22.7045 H   0  0  0  0  0  0
  -24.5912  -30.7054   25.7803 H   0  0  0  0  0  0
  -24.8926  -32.2875   26.4905 H   0  0  0  0  0  0
  -25.8094  -30.8889   27.0216 H   0  0  0  0  0  0
  -26.2831  -29.6818   24.1131 H   0  0  0  0  0  0
  -27.4045  -29.7262   25.4547 H   0  0  0  0  0  0
  -27.8675  -30.4367   23.9251 H   0  0  0  0  0  0
  -27.2654  -33.3608   26.2085 H   0  0  0  0  0  0
  -28.3845  -32.6887   25.0306 H   0  0  0  0  0  0
  -28.0713  -31.8416   26.5385 H   0  0  0  0  0  0
  -28.2620  -38.0094   24.7506 H   0  0  0  0  0  0
  -28.1046  -36.2629   24.6311 H   0  0  0  0  0  0
  -27.2300  -37.1480   25.8880 H   0  0  0  0  0  0
  -20.9301  -29.8751   21.6933 H   0  0  0  0  0  0
  -26.0182  -38.2882   24.1408 H   0  0  0  0  0  0
  -32.0241  -19.5507   19.7052 H   0  0  0  0  0  0
  -32.0940  -17.1389   20.1587 H   0  0  0  0  0  0
  -27.8537  -19.6650   20.7856 H   0  0  0  0  0  0
  -28.8128  -24.2201   22.4428 H   0  0  0  0  0  0
  -28.2730  -26.4360   22.1475 H   0  0  0  0  0  0
  -29.8385  -20.9126   22.4274 H   0  0  0  0  0  0
  -28.4527  -21.9619   22.5903 H   0  0  0  0  0  0
  -30.1153  -22.5689   22.7404 H   0  0  0  0  0  0
  -29.0136  -15.2640   21.3347 H   0  0  0  0  0  0
  1 25  1  0  0  0
  1 30  2  0  0  0
  1 82  1  0  0  0
  2  3  1  0  0  0
  2 25  1  0  0  0
  2 87  1  0  0  0
  2 88  1  0  0  0
  3  4  1  0  0  0
  3 89  1  0  0  0
  3 90  1  0  0  0
  4  5  1  0  0  0
  4 91  1  0  0  0
  4 92  1  0  0  0
  5  6  1  0  0  0
  5 26  1  0  0  0
  5 93  1  0  0  0
  6 25  1  0  0  0
  6 94  1  0  0  0
  6 95  1  0  0  0
  7  8  2  0  0  0
  7 26  1  0  0  0
  7 29  1  0  0  0
  8  9  1  0  0  0
  8 22  1  0  0  0
  9 10  1  0  0  0
  9 27  2  0  0  0
 10 11  2  0  0  0
 10 15  1  0  0  0
 11 12  1  0  0  0
 11 96  1  0  0  0
 12 13  2  0  0  0
 12 97  1  0  0  0
 13 14  1  0  0  0
 13 31  1  0  0  0
 14 15  2  0  0  0
 14 98  1  0  0  0
 15 99  1  0  0  0
 16 17  2  0  0  0
 16 21  1  0  0  0
 16 31  1  0  0  0
 17 18  1  0  0  0
 17100  1  0  0  0
 18 19  2  0  0  0
 18101  1  0  0  0
 19 20  1  0  0  0
 19 24  1  0  0  0
 20 21  2  0  0  0
 20102  1  0  0  0
 21 23  1  0  0  0
 22 28  1  0  0  0
 22 32  2  0  0  0
 26 27  1  0  0  0
 28103  1  0  0  0
 28104  1  0  0  0
 29105  1  0  0  0
 29106  1  0  0  0
 33 34  1  0  0  0
 33 66  1  0  0  0
 33 70  2  0  0  0
 34 36  1  0  0  0
 34 59  1  0  0  0
 34107  1  0  0  0
 35 44  2  0  0  0
 35 45  1  0  0  0
 35 68  1  0  0  0
 36 56  1  0  0  0
 36108  1  0  0  0
 37 39  1  0  0  0
 37 47  1  0  0  0
 37 66  1  0  0  0
 37109  1  0  0  0
 38 43  2  0  0  0
 38 46  1  0  0  0
 38 47  1  0  0  0
 39 64  1  0  0  0
 39 67  2  0  0  0
 40 52  1  0  0  0
 40 53  2  0  0  0
 40 58  1  0  0  0
 41110  1  0  0  0
 41111  1  0  0  0
 41112  1  0  0  0
 41 48  1  0  0  0
 42 43  1  0  0  0
 42 66  1  0  0  0
 42113  1  0  0  0
 42114  1  0  0  0
 43 44  1  0  0  0
 44115  1  0  0  0
 45 46  2  0  0  0
 45116  1  0  0  0
 46117  1  0  0  0
 47118  1  0  0  0
 47119  1  0  0  0
 48 56  1  0  0  0
 48 65  1  0  0  0
 48120  1  0  0  0
 49 50  1  0  0  0
 49 53  1  0  0  0
 49 64  1  0  0  0
 49121  1  0  0  0
 50 51  1  0  0  0
 50122  1  0  0  0
 50123  1  0  0  0
 51 52  1  0  0  0
 51124  1  0  0  0
 51125  1  0  0  0
 52126  1  0  0  0
 52127  1  0  0  0
 53 54  1  0  0  0
 54 55  2  0  0  0
 54128  1  0  0  0
 55 57  1  0  0  0
 55129  1  0  0  0
 56 69  2  0  0  0
 57 58  2  0  0  0
 57130  1  0  0  0
 58131  1  0  0  0
 59 60  1  0  0  0
 59 61  1  0  0  0
 59 62  1  0  0  0
 60132  1  0  0  0
 60133  1  0  0  0
 60134  1  0  0  0
 61135  1  0  0  0
 61136  1  0  0  0
 61137  1  0  0  0
 62138  1  0  0  0
 62139  1  0  0  0
 62140  1  0  0  0
 63 65  1  0  0  0
 63141  1  0  0  0
 63142  1  0  0  0
 63143  1  0  0  0
 64144  1  0  0  0
 65145  1  0  0  0
 68 78  1  0  0  0
 71 72  2  0  0  0
 71 74  1  0  0  0
 71146  1  0  0  0
 72 75  1  0  0  0
 72147  1  0  0  0
 73 74  2  0  0  0
 73 76  1  0  0  0
 73148  1  0  0  0
 74 79  1  0  0  0
 75 76  2  0  0  0
 75 82  1  0  0  0
 76 86  1  0  0  0
 77 78  2  0  0  0
 77 80  1  0  0  0
 77149  1  0  0  0
 78150  1  0  0  0
 79 83  1  0  0  0
 79 84  2  0  0  0
 80 83  1  0  0  0
 80 85  2  0  0  0
 81 83  1  0  0  0
 81151  1  0  0  0
 81152  1  0  0  0
 81153  1  0  0  0
 82154  1  0  0  0
M  ISO  4   1 100  68 101  78 101  82 100
M  END
> <chiral flag>
0

> <version>
0

> <s_m_source_file>
/data/baiqing/PycharmProjects/Reinvent-master-3.2/result/LINK_invent/BTK/process_docking_weight1_custom_product_contain_oxygen_bond_distance_aromatic_linkinvent_7_9_3/rearranged_h_0088.sdf

> <i_m_source_file_index>
30

> <r_mmod_Potential_Energy-OPLS-2005>
16.687313079834

> <r_mmod_Stretch_Energy-OPLS-2005>
57.5121040344238

> <r_mmod_Bend_Energy-OPLS-2005>
131.62614440918

> <r_mmod_Torsional_Energy-OPLS-2005>
276.974945068359

> <r_mmod_Improper_Torsional_Energy-OPLS-2005>
4.6211953163147

> <r_mmod_Van_der_Waal_Energy-OPLS-2005>
179.474899291992

> <r_mmod_Electrostatic_Energy-OPLS-2005>
-420.780944824219

> <r_mmod_Solvation_Energy-OPLS-2005>
-233.663360595703

> <b_mmod_Minimization_Converged-OPLS-2005>
0

> <r_mmod_RMS_Derivative-OPLS-2005>
1.30867207050323

$$$$
30
                    3D
 Structure written by MMmdl.
150159  0  0  1  0            999 V2000
  -30.5812  -14.8839   20.4356 C   0  0  0  0  0  0
  -30.4336  -12.5472   19.4879 C   0  0  0  0  0  0
  -29.5143  -12.5187   18.2467 C   0  0  0  0  0  0
  -28.0459  -12.3181   18.6661 C   0  0  0  0  0  0
  -27.6310  -13.2453   19.8391 C   0  0  2  0  0  0
  -28.6761  -13.2557   20.9749 C   0  0  0  0  0  0
  -25.2466  -13.8216   20.5712 C   0  0  0  0  0  0
  -24.1780  -13.0440   20.9227 C   0  0  0  0  0  0
  -24.6394  -11.6925   20.8757 C   0  0  0  0  0  0
  -23.9078  -10.4294   21.0409 C   0  0  0  0  0  0
  -24.3626   -9.4207   21.9185 C   0  0  0  0  0  0
  -23.6298   -8.2244   22.0754 C   0  0  0  0  0  0
  -22.4280   -8.0282   21.3545 C   0  0  0  0  0  0
  -21.9919   -9.0257   20.4646 C   0  0  0  0  0  0
  -22.7250  -10.2135   20.3057 C   0  0  0  0  0  0
  -21.6855   -6.0736   22.5279 C   0  0  0  0  0  0
  -21.4016   -6.5640   23.8212 C   0  0  0  0  0  0
  -21.3660   -5.6793   24.9174 C   0  0  0  0  0  0
  -21.6044   -4.3056   24.7225 C   0  0  0  0  0  0
  -21.8819   -3.8147   23.4346 C   0  0  0  0  0  0
  -21.9194   -4.6964   22.3402 C   0  0  0  0  0  0
  -22.7799  -13.5210   21.1881 C   0  0  0  0  0  0
  -22.1662   -4.2149   21.0980 F   0  0  0  0  0  0
  -21.5628   -3.4539   25.7737 F   0  0  0  0  0  0
  -29.9572  -13.6444   20.3736 N   0  0  0  0  0  0
  -26.2892  -12.9446   20.3255 N   0  0  0  0  0  0
  -25.9326  -11.6576   20.5748 N   0  0  0  0  0  0
  -22.0452  -12.8196   22.0437 N   0  0  0  0  0  0
  -25.4118  -15.1947   20.4133 N   0  0  0  0  0  0
  -31.7866  -14.9199   20.1698 O   0  0  0  0  0  0
  -21.6643   -6.8880   21.4241 O   0  0  0  0  0  0
  -22.3480  -14.5513   20.6725 O   0  0  0  0  0  0
  -24.6401  -31.8475   23.1918 C   0  0  0  0  0  0
  -25.9187  -32.4714   23.8295 C   0  0  1  0  0  0
  -27.2151  -27.1728   20.1491 C   0  0  0  0  0  0
  -25.5948  -33.8519   24.2211 N   0  0  0  0  0  0
  -23.4425  -30.4679   21.5363 C   0  0  2  0  0  0
  -24.8933  -28.9016   20.1103 C   0  0  0  0  0  0
  -22.7553  -29.4562   22.4871 C   0  0  0  0  0  0
  -18.0302  -28.1394   22.8478 C   0  0  0  0  0  0
  -24.1491  -36.7265   23.2642 C   0  0  0  0  0  0
  -25.9963  -30.7316   21.3876 C   0  0  0  0  0  0
  -26.0690  -29.3456   20.7311 C   0  0  0  0  0  0
  -27.2343  -28.4948   20.7389 C   0  0  0  0  0  0
  -26.0200  -26.8255   19.4843 C   0  0  0  0  0  0
  -24.8786  -27.6526   19.4725 C   0  0  0  0  0  0
  -23.6681  -29.7995   20.1546 C   0  0  0  0  0  0
  -25.4122  -36.3044   24.0319 C   0  0  1  0  0  0
  -20.5913  -28.3717   23.1242 C   0  0  2  0  0  0
  -20.6787  -26.9423   22.5404 C   0  0  0  0  0  0
  -19.5761  -26.6382   21.5212 C   0  0  0  0  0  0
  -18.1942  -26.7933   22.1623 C   0  0  0  0  0  0
  -19.1558  -28.8873   23.2853 C   0  0  0  0  0  0
  -18.9475  -30.1470   23.8878 C   0  0  0  0  0  0
  -17.6472  -30.6591   24.0560 C   0  0  0  0  0  0
  -25.9069  -34.9418   23.5072 C   0  0  0  0  0  0
  -16.5363  -29.9084   23.6335 C   0  0  0  0  0  0
  -16.7287  -28.6503   23.0356 C   0  0  0  0  0  0
  -26.4521  -31.6571   25.0722 C   0  0  0  0  0  0
  -25.3712  -31.3747   26.1420 C   0  0  0  0  0  0
  -27.0388  -30.2972   24.6284 C   0  0  0  0  0  0
  -27.6052  -32.4335   25.7508 C   0  0  0  0  0  0
  -27.5576  -37.1789   24.8465 C   0  0  0  0  0  0
  -21.4249  -29.3048   22.3618 N   0  0  0  0  0  0
  -26.4289  -37.3753   23.9407 N   0  0  0  0  0  0
  -24.7124  -31.0359   22.0939 N   0  0  0  0  0  0
  -23.4210  -28.8106   23.3008 O   0  0  0  0  0  0
  -28.2445  -26.1747   20.1870 O   0  0  0  0  0  0
  -26.5651  -34.8908   22.4648 O   0  0  0  0  0  0
  -23.5527  -32.1337   23.7156 O   0  0  0  0  0  0
  -31.9721  -19.1735   21.1764 C   0  0  0  0  0  0
  -31.1410  -20.2748   20.8958 C   0  0  0  0  0  0
  -31.5249  -17.8480   21.0492 C   0  0  0  0  0  0
  -29.7912  -20.1713   20.4815 C   0  0  0  0  0  0
  -30.2105  -17.5483   20.6358 C   0  0  0  0  0  0
  -29.3615  -18.7451   20.3825 C   0  0  0  0  0  0
  -28.4314  -23.5150   20.4495 C   0  0  0  0  0  0
  -29.5860  -22.8509   19.8303 C   0  0  0  0  0  0
  -27.8974  -24.8215   20.5939 C   0  0  0  0  0  0
  -28.0171  -22.0981   20.9862 C   0  0  0  0  0  0
  -29.1332  -21.5213   20.1896 N   0  0  0  0  0  0
  -29.8214  -16.0752   20.5475 N   0  0  0  0  0  0
  -30.5869  -23.3241   19.3328 O   0  0  0  0  0  0
  -28.0832  -18.5132   19.9977 F   0  0  0  0  0  0
  -31.4702  -12.6868   19.1772 H   0  0  0  0  0  0
  -30.4072  -11.5910   20.0130 H   0  0  0  0  0  0
  -29.8213  -11.7244   17.5650 H   0  0  0  0  0  0
  -29.6143  -13.4540   17.6936 H   0  0  0  0  0  0
  -27.9311  -11.2753   18.9639 H   0  0  0  0  0  0
  -27.3832  -12.4648   17.8123 H   0  0  0  0  0  0
  -27.5997  -14.2511   19.4196 H   0  0  0  0  0  0
  -28.7486  -12.2780   21.4533 H   0  0  0  0  0  0
  -28.3890  -13.9625   21.7552 H   0  0  0  0  0  0
  -25.2769   -9.5684   22.4763 H   0  0  0  0  0  0
  -24.0006   -7.4635   22.7474 H   0  0  0  0  0  0
  -21.0850   -8.8778   19.8952 H   0  0  0  0  0  0
  -22.3708  -10.9675   19.6168 H   0  0  0  0  0  0
  -21.2009   -7.6149   23.9716 H   0  0  0  0  0  0
  -21.1482   -6.0523   25.9077 H   0  0  0  0  0  0
  -22.0598   -2.7610   23.2846 H   0  0  0  0  0  0
  -22.4078  -11.9863   22.4827 H   0  0  0  0  0  0
  -21.1066  -13.1210   22.2641 H   0  0  0  0  0  0
  -24.6395  -15.8423   20.5262 H   0  0  0  0  0  0
  -26.2504  -15.6413   20.0663 H   0  0  0  0  0  0
  -26.7253  -32.5336   23.1028 H   0  0  0  0  0  0
  -25.0076  -33.9641   25.0345 H   0  0  0  0  0  0
  -22.7434  -31.2928   21.3841 H   0  0  0  0  0  0
  -23.3757  -35.9593   23.3295 H   0  0  0  0  0  0
  -24.3576  -36.8903   22.2057 H   0  0  0  0  0  0
  -23.7243  -37.6458   23.6682 H   0  0  0  0  0  0
  -26.1480  -31.4870   20.6154 H   0  0  0  0  0  0
  -26.8683  -30.7819   22.0280 H   0  0  0  0  0  0
  -28.1302  -28.8252   21.2453 H   0  0  0  0  0  0
  -25.9513  -25.8648   18.9940 H   0  0  0  0  0  0
  -23.9821  -27.3085   18.9751 H   0  0  0  0  0  0
  -23.8019  -30.5750   19.3997 H   0  0  0  0  0  0
  -22.7839  -29.2395   19.8445 H   0  0  0  0  0  0
  -25.1309  -36.1877   25.0811 H   0  0  0  0  0  0
  -21.0005  -28.3306   24.1363 H   0  0  0  0  0  0
  -20.5682  -26.2331   23.3621 H   0  0  0  0  0  0
  -21.6654  -26.7433   22.1201 H   0  0  0  0  0  0
  -19.6923  -25.6287   21.1254 H   0  0  0  0  0  0
  -19.6698  -27.3181   20.6732 H   0  0  0  0  0  0
  -17.4211  -26.6677   21.4028 H   0  0  0  0  0  0
  -18.0343  -26.0080   22.9025 H   0  0  0  0  0  0
  -19.7951  -30.7292   24.2239 H   0  0  0  0  0  0
  -17.5025  -31.6269   24.5165 H   0  0  0  0  0  0
  -15.5362  -30.2980   23.7671 H   0  0  0  0  0  0
  -15.8688  -28.0815   22.7082 H   0  0  0  0  0  0
  -24.5905  -30.7079   25.7742 H   0  0  0  0  0  0
  -24.8885  -32.2923   26.4792 H   0  0  0  0  0  0
  -25.8003  -30.8961   27.0232 H   0  0  0  0  0  0
  -26.3003  -29.6697   24.1281 H   0  0  0  0  0  0
  -27.4002  -29.7266   25.4849 H   0  0  0  0  0  0
  -27.8909  -30.4218   23.9598 H   0  0  0  0  0  0
  -27.2641  -33.3647   26.2044 H   0  0  0  0  0  0
  -28.3885  -32.6879   25.0356 H   0  0  0  0  0  0
  -28.0696  -31.8490   26.5460 H   0  0  0  0  0  0
  -28.2589  -38.0091   24.7511 H   0  0  0  0  0  0
  -28.1078  -36.2620   24.6296 H   0  0  0  0  0  0
  -27.2293  -37.1440   25.8868 H   0  0  0  0  0  0
  -20.9454  -29.8763   21.6803 H   0  0  0  0  0  0
  -26.0159  -38.2823   24.1408 H   0  0  0  0  0  0
  -32.9892  -19.3537   21.4962 H   0  0  0  0  0  0
  -31.5834  -21.2540   21.0118 H   0  0  0  0  0  0
  -32.2242  -17.0625   21.2930 H   0  0  0  0  0  0
  -26.9932  -24.8750   21.1840 H   0  0  0  0  0  0
  -27.0522  -21.6980   20.6711 H   0  0  0  0  0  0
  -28.1568  -21.9232   22.0548 H   0  0  0  0  0  0
  -28.8262  -15.9145   20.5639 H   0  0  0  0  0  0
  1 25  1  0  0  0
  1 30  2  0  0  0
  1 82  1  0  0  0
  2  3  1  0  0  0
  2 25  1  0  0  0
  2 85  1  0  0  0
  2 86  1  0  0  0
  3  4  1  0  0  0
  3 87  1  0  0  0
  3 88  1  0  0  0
  4  5  1  0  0  0
  4 89  1  0  0  0
  4 90  1  0  0  0
  5  6  1  0  0  0
  5 26  1  0  0  0
  5 91  1  0  0  0
  6 25  1  0  0  0
  6 92  1  0  0  0
  6 93  1  0  0  0
  7  8  2  0  0  0
  7 26  1  0  0  0
  7 29  1  0  0  0
  8  9  1  0  0  0
  8 22  1  0  0  0
  9 10  1  0  0  0
  9 27  2  0  0  0
 10 11  2  0  0  0
 10 15  1  0  0  0
 11 12  1  0  0  0
 11 94  1  0  0  0
 12 13  2  0  0  0
 12 95  1  0  0  0
 13 14  1  0  0  0
 13 31  1  0  0  0
 14 15  2  0  0  0
 14 96  1  0  0  0
 15 97  1  0  0  0
 16 17  2  0  0  0
 16 21  1  0  0  0
 16 31  1  0  0  0
 17 18  1  0  0  0
 17 98  1  0  0  0
 18 19  2  0  0  0
 18 99  1  0  0  0
 19 20  1  0  0  0
 19 24  1  0  0  0
 20 21  2  0  0  0
 20100  1  0  0  0
 21 23  1  0  0  0
 22 28  1  0  0  0
 22 32  2  0  0  0
 26 27  1  0  0  0
 28101  1  0  0  0
 28102  1  0  0  0
 29103  1  0  0  0
 29104  1  0  0  0
 33 34  1  0  0  0
 33 66  1  0  0  0
 33 70  2  0  0  0
 34 36  1  0  0  0
 34 59  1  0  0  0
 34105  1  0  0  0
 35 44  2  0  0  0
 35 45  1  0  0  0
 35 68  1  0  0  0
 36 56  1  0  0  0
 36106  1  0  0  0
 37 39  1  0  0  0
 37 47  1  0  0  0
 37 66  1  0  0  0
 37107  1  0  0  0
 38 43  2  0  0  0
 38 46  1  0  0  0
 38 47  1  0  0  0
 39 64  1  0  0  0
 39 67  2  0  0  0
 40 52  1  0  0  0
 40 53  2  0  0  0
 40 58  1  0  0  0
 41108  1  0  0  0
 41109  1  0  0  0
 41110  1  0  0  0
 41 48  1  0  0  0
 42 43  1  0  0  0
 42 66  1  0  0  0
 42111  1  0  0  0
 42112  1  0  0  0
 43 44  1  0  0  0
 44113  1  0  0  0
 45 46  2  0  0  0
 45114  1  0  0  0
 46115  1  0  0  0
 47116  1  0  0  0
 47117  1  0  0  0
 48 56  1  0  0  0
 48 65  1  0  0  0
 48118  1  0  0  0
 49 50  1  0  0  0
 49 53  1  0  0  0
 49 64  1  0  0  0
 49119  1  0  0  0
 50 51  1  0  0  0
 50120  1  0  0  0
 50121  1  0  0  0
 51 52  1  0  0  0
 51122  1  0  0  0
 51123  1  0  0  0
 52124  1  0  0  0
 52125  1  0  0  0
 53 54  1  0  0  0
 54 55  2  0  0  0
 54126  1  0  0  0
 55 57  1  0  0  0
 55127  1  0  0  0
 56 69  2  0  0  0
 57 58  2  0  0  0
 57128  1  0  0  0
 58129  1  0  0  0
 59 60  1  0  0  0
 59 61  1  0  0  0
 59 62  1  0  0  0
 60130  1  0  0  0
 60131  1  0  0  0
 60132  1  0  0  0
 61133  1  0  0  0
 61134  1  0  0  0
 61135  1  0  0  0
 62136  1  0  0  0
 62137  1  0  0  0
 62138  1  0  0  0
 63 65  1  0  0  0
 63139  1  0  0  0
 63140  1  0  0  0
 63141  1  0  0  0
 64142  1  0  0  0
 65143  1  0  0  0
 68 79  1  0  0  0
 71 72  2  0  0  0
 71 73  1  0  0  0
 71144  1  0  0  0
 72 74  1  0  0  0
 72145  1  0  0  0
 73 75  2  0  0  0
 73146  1  0  0  0
 74 76  2  0  0  0
 74 81  1  0  0  0
 75 76  1  0  0  0
 75 82  1  0  0  0
 76 84  1  0  0  0
 77 78  1  0  0  0
 77 79  2  0  0  0
 77 80  1  0  0  0
 78 81  1  0  0  0
 78 83  2  0  0  0
 79147  1  0  0  0
 80 81  1  0  0  0
 80148  1  0  0  0
 80149  1  0  0  0
 82150  1  0  0  0
M  ISO  4   1 100  68 101  79 101  82 100
M  END
> <chiral flag>
0

> <version>
0

> <s_m_source_file>
/data/baiqing/PycharmProjects/Reinvent-master-3.2/result/LINK_invent/BTK/process_docking_weight1_custom_product_contain_oxygen_bond_distance_aromatic_linkinvent_7_9_3/rearranged_h_0088.sdf

> <i_m_source_file_index>
31

> <r_mmod_Potential_Energy-OPLS-2005>
424.202697753906

> <r_mmod_Stretch_Energy-OPLS-2005>
192.246795654297

> <r_mmod_Bend_Energy-OPLS-2005>
278.433990478516

> <r_mmod_Torsional_Energy-OPLS-2005>
242.282638549805

> <r_mmod_Improper_Torsional_Energy-OPLS-2005>
9.47599697113037

> <r_mmod_Van_der_Waal_Energy-OPLS-2005>
133.535385131836

> <r_mmod_Electrostatic_Energy-OPLS-2005>
-373.323394775391

> <r_mmod_Solvation_Energy-OPLS-2005>
-217.390335083008

> <b_mmod_Minimization_Converged-OPLS-2005>
0

> <r_mmod_RMS_Derivative-OPLS-2005>
0.174578055739403

$$$$
31
                    3D
 Structure written by MMmdl.
151159  0  0  1  0            999 V2000
  -30.6085  -14.7859   20.4688 C   0  0  0  0  0  0
  -30.4359  -12.4853   19.4915 C   0  0  0  0  0  0
  -29.5223  -12.5258   18.2473 C   0  0  0  0  0  0
  -28.0494  -12.3347   18.6527 C   0  0  0  0  0  0
  -27.6428  -13.2343   19.8501 C   0  0  2  0  0  0
  -28.6841  -13.1892   20.9917 C   0  0  0  0  0  0
  -25.2525  -13.8136   20.5689 C   0  0  0  0  0  0
  -24.1834  -13.0392   20.9245 C   0  0  0  0  0  0
  -24.6432  -11.6869   20.8760 C   0  0  0  0  0  0
  -23.9098  -10.4254   21.0414 C   0  0  0  0  0  0
  -24.3622   -9.4161   21.9197 C   0  0  0  0  0  0
  -23.6275   -8.2212   22.0761 C   0  0  0  0  0  0
  -22.4255   -8.0269   21.3548 C   0  0  0  0  0  0
  -21.9919   -9.0253   20.4655 C   0  0  0  0  0  0
  -22.7264  -10.2119   20.3067 C   0  0  0  0  0  0
  -21.6835   -6.0712   22.5268 C   0  0  0  0  0  0
  -21.3996   -6.5627   23.8203 C   0  0  0  0  0  0
  -21.3677   -5.6791   24.9179 C   0  0  0  0  0  0
  -21.6050   -4.3050   24.7230 C   0  0  0  0  0  0
  -21.8820   -3.8129   23.4353 C   0  0  0  0  0  0
  -21.9182   -4.6941   22.3402 C   0  0  0  0  0  0
  -22.7866  -13.5197   21.1907 C   0  0  0  0  0  0
  -22.1640   -4.2127   21.0978 F   0  0  0  0  0  0
  -21.5662   -3.4540   25.7752 F   0  0  0  0  0  0
  -29.9813  -13.5549   20.4132 N   0  0  0  0  0  0
  -26.2942  -12.9357   20.3222 N   0  0  0  0  0  0
  -25.9361  -11.6508   20.5728 N   0  0  0  0  0  0
  -22.0499  -12.8187   22.0455 N   0  0  0  0  0  0
  -25.4253  -15.1844   20.4104 N   0  0  0  0  0  0
  -31.7996  -14.8777   20.1438 O   0  0  0  0  0  0
  -21.6624   -6.8850   21.4226 O   0  0  0  0  0  0
  -22.3587  -14.5529   20.6771 O   0  0  0  0  0  0
  -24.6339  -31.8536   23.1972 C   0  0  0  0  0  0
  -25.9142  -32.4757   23.8342 C   0  0  1  0  0  0
  -27.2290  -27.2385   20.1492 C   0  0  0  0  0  0
  -25.5934  -33.8562   24.2263 N   0  0  0  0  0  0
  -23.4339  -30.4710   21.5412 C   0  0  2  0  0  0
  -24.8846  -28.9079   20.1205 C   0  0  0  0  0  0
  -22.7515  -29.4572   22.4914 C   0  0  0  0  0  0
  -18.0290  -28.1392   22.8487 C   0  0  0  0  0  0
  -24.1473  -36.7268   23.2644 C   0  0  0  0  0  0
  -25.9805  -30.7598   21.3785 C   0  0  0  0  0  0
  -26.0562  -29.3747   20.7305 C   0  0  0  0  0  0
  -27.2339  -28.5534   20.7322 C   0  0  0  0  0  0
  -26.0354  -26.8378   19.5159 C   0  0  0  0  0  0
  -24.8803  -27.6473   19.5013 C   0  0  0  0  0  0
  -23.6552  -29.7991   20.1599 C   0  0  0  0  0  0
  -25.4103  -36.3062   24.0330 C   0  0  1  0  0  0
  -20.5901  -28.3696   23.1276 C   0  0  2  0  0  0
  -20.6773  -26.9409   22.5416 C   0  0  0  0  0  0
  -19.5743  -26.6378   21.5221 C   0  0  0  0  0  0
  -18.1924  -26.7937   22.1631 C   0  0  0  0  0  0
  -19.1547  -28.8864   23.2879 C   0  0  0  0  0  0
  -18.9463  -30.1464   23.8894 C   0  0  0  0  0  0
  -17.6460  -30.6600   24.0556 C   0  0  0  0  0  0
  -25.9051  -34.9438   23.5094 C   0  0  0  0  0  0
  -16.5352  -29.9095   23.6334 C   0  0  0  0  0  0
  -16.7273  -28.6511   23.0366 C   0  0  0  0  0  0
  -26.4503  -31.6606   25.0752 C   0  0  0  0  0  0
  -25.3714  -31.3777   26.1468 C   0  0  0  0  0  0
  -27.0363  -30.3027   24.6244 C   0  0  0  0  0  0
  -27.6041  -32.4364   25.7538 C   0  0  0  0  0  0
  -27.5563  -37.1797   24.8471 C   0  0  0  0  0  0
  -21.4219  -29.3040   22.3672 N   0  0  0  0  0  0
  -26.4271  -37.3767   23.9422 N   0  0  0  0  0  0
  -24.7019  -31.0470   22.0957 N   0  0  0  0  0  0
  -23.4200  -28.8107   23.3024 O   0  0  0  0  0  0
  -28.3159  -26.3308   20.1194 O   0  0  0  0  0  0
  -26.5619  -34.8915   22.4661 O   0  0  0  0  0  0
  -23.5481  -32.1354   23.7257 O   0  0  0  0  0  0
  -28.6802  -23.8033   20.5935 C   0  0  0  0  0  0
  -29.6038  -20.0627   20.5189 C   0  0  0  0  0  0
  -27.8658  -18.4244   20.9516 C   0  0  0  0  0  0
  -29.2258  -18.6481   20.6561 C   0  0  0  0  0  0
  -28.6972  -21.2043   20.6869 C   0  0  0  0  0  0
  -27.3593  -20.8495   21.0199 C   0  0  0  0  0  0
  -26.9646  -19.4933   21.1337 C   0  0  0  0  0  0
  -28.2468  -25.0774   20.8088 C   0  0  0  0  0  0
  -30.1574  -17.4101   20.5042 C   0  0  0  0  0  0
  -29.1038  -22.6207   20.6334 N   0  0  0  0  0  0
  -26.3930  -21.8187   21.3062 N   0  0  0  0  0  0
  -29.8044  -16.0533   20.6662 N   0  0  0  0  0  0
  -31.4211  -17.6938   20.1700 N   0  3  0  0  0  0
  -25.6771  -19.2090   21.4530 F   0  0  0  0  0  0
  -31.4777  -12.6108   19.1931 H   0  0  0  0  0  0
  -30.3789  -11.5109   19.9800 H   0  0  0  0  0  0
  -29.8238  -11.7616   17.5297 H   0  0  0  0  0  0
  -29.6440  -13.4843   17.7400 H   0  0  0  0  0  0
  -27.9126  -11.2848   18.9165 H   0  0  0  0  0  0
  -27.3973  -12.5173   17.7983 H   0  0  0  0  0  0
  -27.6287  -14.2539   19.4643 H   0  0  0  0  0  0
  -28.7289  -12.1944   21.4369 H   0  0  0  0  0  0
  -28.4081  -13.8729   21.7968 H   0  0  0  0  0  0
  -25.2759   -9.5611   22.4794 H   0  0  0  0  0  0
  -23.9981   -7.4590   22.7476 H   0  0  0  0  0  0
  -21.0862   -8.8776   19.8946 H   0  0  0  0  0  0
  -22.3737  -10.9672   19.6185 H   0  0  0  0  0  0
  -21.1958   -7.6129   23.9694 H   0  0  0  0  0  0
  -21.1528   -6.0526   25.9079 H   0  0  0  0  0  0
  -22.0589   -2.7589   23.2866 H   0  0  0  0  0  0
  -22.4103  -11.9800   22.4759 H   0  0  0  0  0  0
  -21.1121  -13.1223   22.2698 H   0  0  0  0  0  0
  -24.6371  -15.8156   20.5005 H   0  0  0  0  0  0
  -26.1758  -15.5686   19.8555 H   0  0  0  0  0  0
  -26.7221  -32.5412   23.1102 H   0  0  0  0  0  0
  -25.0104  -33.9713   25.0423 H   0  0  0  0  0  0
  -22.7325  -31.2946   21.3916 H   0  0  0  0  0  0
  -23.3743  -35.9592   23.3301 H   0  0  0  0  0  0
  -24.3545  -36.8897   22.2056 H   0  0  0  0  0  0
  -23.7219  -37.6465   23.6673 H   0  0  0  0  0  0
  -26.1135  -31.5137   20.6008 H   0  0  0  0  0  0
  -26.8595  -30.8233   22.0080 H   0  0  0  0  0  0
  -28.1364  -28.9080   21.2101 H   0  0  0  0  0  0
  -25.9923  -25.8687   19.0406 H   0  0  0  0  0  0
  -23.9831  -27.2825   19.0213 H   0  0  0  0  0  0
  -23.7876  -30.5740   19.4041 H   0  0  0  0  0  0
  -22.7721  -29.2358   19.8505 H   0  0  0  0  0  0
  -25.1286  -36.1903   25.0822 H   0  0  0  0  0  0
  -20.9990  -28.3265   24.1401 H   0  0  0  0  0  0
  -20.5672  -26.2299   23.3622 H   0  0  0  0  0  0
  -21.6637  -26.7437   22.1204 H   0  0  0  0  0  0
  -19.6893  -25.6282   21.1265 H   0  0  0  0  0  0
  -19.6680  -27.3175   20.6739 H   0  0  0  0  0  0
  -17.4193  -26.6687   21.4037 H   0  0  0  0  0  0
  -18.0313  -26.0096   22.9037 H   0  0  0  0  0  0
  -19.7936  -30.7284   24.2260 H   0  0  0  0  0  0
  -17.5015  -31.6281   24.5149 H   0  0  0  0  0  0
  -15.5350  -30.2993   23.7671 H   0  0  0  0  0  0
  -15.8671  -28.0822   22.7103 H   0  0  0  0  0  0
  -24.5873  -30.7144   25.7801 H   0  0  0  0  0  0
  -24.8924  -32.2961   26.4871 H   0  0  0  0  0  0
  -25.8017  -30.8970   27.0262 H   0  0  0  0  0  0
  -26.2963  -29.6782   24.1223 H   0  0  0  0  0  0
  -27.4006  -29.7293   25.4779 H   0  0  0  0  0  0
  -27.8849  -30.4316   23.9522 H   0  0  0  0  0  0
  -27.2625  -33.3668   26.2087 H   0  0  0  0  0  0
  -28.3870  -32.6928   25.0390 H   0  0  0  0  0  0
  -28.0684  -31.8517   26.5488 H   0  0  0  0  0  0
  -28.2597  -38.0080   24.7506 H   0  0  0  0  0  0
  -28.1050  -36.2617   24.6310 H   0  0  0  0  0  0
  -27.2287  -37.1453   25.8877 H   0  0  0  0  0  0
  -20.9411  -29.8771   21.6878 H   0  0  0  0  0  0
  -26.0144  -38.2840   24.1435 H   0  0  0  0  0  0
  -30.6340  -20.2921   20.2902 H   0  0  0  0  0  0
  -27.4772  -17.4233   21.0611 H   0  0  0  0  0  0
  -27.8033  -25.2783   21.7726 H   0  0  0  0  0  0
  -25.5694  -21.4249   21.7498 H   0  0  0  0  0  0
  -26.7519  -22.5986   21.8386 H   0  0  0  0  0  0
  -28.8411  -15.9719   20.9341 H   0  0  0  0  0  0
  -31.7343  -18.6475   20.0913 H   0  0  0  0  0  0
  -32.0779  -16.9358   20.0216 H   0  0  0  0  0  0
  1 25  1  0  0  0
  1 30  2  0  0  0
  1 82  1  0  0  0
  2  3  1  0  0  0
  2 25  1  0  0  0
  2 85  1  0  0  0
  2 86  1  0  0  0
  3  4  1  0  0  0
  3 87  1  0  0  0
  3 88  1  0  0  0
  4  5  1  0  0  0
  4 89  1  0  0  0
  4 90  1  0  0  0
  5  6  1  0  0  0
  5 26  1  0  0  0
  5 91  1  0  0  0
  6 25  1  0  0  0
  6 92  1  0  0  0
  6 93  1  0  0  0
  7  8  2  0  0  0
  7 26  1  0  0  0
  7 29  1  0  0  0
  8  9  1  0  0  0
  8 22  1  0  0  0
  9 10  1  0  0  0
  9 27  2  0  0  0
 10 11  2  0  0  0
 10 15  1  0  0  0
 11 12  1  0  0  0
 11 94  1  0  0  0
 12 13  2  0  0  0
 12 95  1  0  0  0
 13 14  1  0  0  0
 13 31  1  0  0  0
 14 15  2  0  0  0
 14 96  1  0  0  0
 15 97  1  0  0  0
 16 17  2  0  0  0
 16 21  1  0  0  0
 16 31  1  0  0  0
 17 18  1  0  0  0
 17 98  1  0  0  0
 18 19  2  0  0  0
 18 99  1  0  0  0
 19 20  1  0  0  0
 19 24  1  0  0  0
 20 21  2  0  0  0
 20100  1  0  0  0
 21 23  1  0  0  0
 22 28  1  0  0  0
 22 32  2  0  0  0
 26 27  1  0  0  0
 28101  1  0  0  0
 28102  1  0  0  0
 29103  1  0  0  0
 29104  1  0  0  0
 33 34  1  0  0  0
 33 66  1  0  0  0
 33 70  2  0  0  0
 34 36  1  0  0  0
 34 59  1  0  0  0
 34105  1  0  0  0
 35 44  2  0  0  0
 35 45  1  0  0  0
 35 68  1  0  0  0
 36 56  1  0  0  0
 36106  1  0  0  0
 37 39  1  0  0  0
 37 47  1  0  0  0
 37 66  1  0  0  0
 37107  1  0  0  0
 38 43  2  0  0  0
 38 46  1  0  0  0
 38 47  1  0  0  0
 39 64  1  0  0  0
 39 67  2  0  0  0
 40 52  1  0  0  0
 40 53  2  0  0  0
 40 58  1  0  0  0
 41108  1  0  0  0
 41109  1  0  0  0
 41110  1  0  0  0
 41 48  1  0  0  0
 42 43  1  0  0  0
 42 66  1  0  0  0
 42111  1  0  0  0
 42112  1  0  0  0
 43 44  1  0  0  0
 44113  1  0  0  0
 45 46  2  0  0  0
 45114  1  0  0  0
 46115  1  0  0  0
 47116  1  0  0  0
 47117  1  0  0  0
 48 56  1  0  0  0
 48 65  1  0  0  0
 48118  1  0  0  0
 49 50  1  0  0  0
 49 53  1  0  0  0
 49 64  1  0  0  0
 49119  1  0  0  0
 50 51  1  0  0  0
 50120  1  0  0  0
 50121  1  0  0  0
 51 52  1  0  0  0
 51122  1  0  0  0
 51123  1  0  0  0
 52124  1  0  0  0
 52125  1  0  0  0
 53 54  1  0  0  0
 54 55  2  0  0  0
 54126  1  0  0  0
 55 57  1  0  0  0
 55127  1  0  0  0
 56 69  2  0  0  0
 57 58  2  0  0  0
 57128  1  0  0  0
 58129  1  0  0  0
 59 60  1  0  0  0
 59 61  1  0  0  0
 59 62  1  0  0  0
 60130  1  0  0  0
 60131  1  0  0  0
 60132  1  0  0  0
 61133  1  0  0  0
 61134  1  0  0  0
 61135  1  0  0  0
 62136  1  0  0  0
 62137  1  0  0  0
 62138  1  0  0  0
 63 65  1  0  0  0
 63139  1  0  0  0
 63140  1  0  0  0
 63141  1  0  0  0
 64142  1  0  0  0
 65143  1  0  0  0
 68 78  1  0  0  0
 71 78  2  0  0  0
 71 80  2  0  0  0
 72 74  2  0  0  0
 72 75  1  0  0  0
 72144  1  0  0  0
 73 74  1  0  0  0
 73 77  2  0  0  0
 73145  1  0  0  0
 74 79  1  0  0  0
 75 76  2  0  0  0
 75 80  1  0  0  0
 76 77  1  0  0  0
 76 81  1  0  0  0
 77 84  1  0  0  0
 78146  1  0  0  0
 79 82  1  0  0  0
 79 83  2  0  0  0
 81147  1  0  0  0
 81148  1  0  0  0
 82149  1  0  0  0
 83150  1  0  0  0
 83151  1  0  0  0
M  CHG  1  83   1
M  ISO  4   1 100  68 101  78 101  82 100
M  END
> <chiral flag>
0

> <version>
0

> <s_m_source_file>
/data/baiqing/PycharmProjects/Reinvent-master-3.2/result/LINK_invent/BTK/process_docking_weight1_custom_product_contain_oxygen_bond_distance_aromatic_linkinvent_7_9_3/rearranged_h_0088.sdf

> <i_m_source_file_index>
32

> <r_mmod_Potential_Energy-OPLS-2005>
-114.178359985352

> <r_mmod_Stretch_Energy-OPLS-2005>
140.409484863281

> <r_mmod_Bend_Energy-OPLS-2005>
161.705871582031

> <r_mmod_Torsional_Energy-OPLS-2005>
191.63102722168

> <r_mmod_Improper_Torsional_Energy-OPLS-2005>
13.3554534912109

> <r_mmod_Van_der_Waal_Energy-OPLS-2005>
143.70263671875

> <r_mmod_Electrostatic_Energy-OPLS-2005>
-432.661285400391

> <r_mmod_Solvation_Energy-OPLS-2005>
-432.310607910156

> <b_mmod_Minimization_Converged-OPLS-2005>
0

> <r_mmod_RMS_Derivative-OPLS-2005>
3.1519341468811

$$$$
32
                    3D
 Structure written by MMmdl.
157166  0  0  1  0            999 V2000
  -30.8100  -14.4443   20.5783 C   0  0  0  0  0  0
  -30.3896  -12.2938   19.4438 C   0  0  0  0  0  0
  -29.4880  -12.4943   18.2145 C   0  0  0  0  0  0
  -28.0153  -12.3554   18.6334 C   0  0  0  0  0  0
  -27.6597  -13.2194   19.8735 C   0  0  2  0  0  0
  -28.7080  -13.0722   21.0048 C   0  0  0  0  0  0
  -25.2621  -13.8218   20.5751 C   0  0  0  0  0  0
  -24.1877  -13.0474   20.9227 C   0  0  0  0  0  0
  -24.6402  -11.6938   20.8739 C   0  0  0  0  0  0
  -23.9032  -10.4304   21.0365 C   0  0  0  0  0  0
  -24.3605   -9.4220   21.9132 C   0  0  0  0  0  0
  -23.6305   -8.2245   22.0725 C   0  0  0  0  0  0
  -22.4270   -8.0263   21.3550 C   0  0  0  0  0  0
  -21.9894   -9.0198   20.4630 C   0  0  0  0  0  0
  -22.7198  -10.2097   20.3018 C   0  0  0  0  0  0
  -21.6827   -6.0719   22.5281 C   0  0  0  0  0  0
  -21.3978   -6.5633   23.8208 C   0  0  0  0  0  0
  -21.3680   -5.6809   24.9190 C   0  0  0  0  0  0
  -21.6045   -4.3067   24.7259 C   0  0  0  0  0  0
  -21.8822   -3.8133   23.4387 C   0  0  0  0  0  0
  -21.9201   -4.6942   22.3423 C   0  0  0  0  0  0
  -22.7881  -13.5233   21.1885 C   0  0  0  0  0  0
  -22.1660   -4.2105   21.1013 F   0  0  0  0  0  0
  -21.5650   -3.4571   25.7785 F   0  0  0  0  0  0
  -30.0369  -13.3311   20.4312 N   0  0  0  0  0  0
  -26.3046  -12.9388   20.3433 N   0  0  0  0  0  0
  -25.9363  -11.6535   20.5845 N   0  0  0  0  0  0
  -22.0543  -12.8158   22.0433 N   0  0  0  0  0  0
  -25.4484  -15.1928   20.4186 N   0  0  0  0  0  0
  -31.9350  -14.4904   20.0747 O   0  0  0  0  0  0
  -21.6639   -6.8857   21.4240 O   0  0  0  0  0  0
  -22.3561  -14.5554   20.6786 O   0  0  0  0  0  0
  -24.6182  -31.8676   23.2032 C   0  0  0  0  0  0
  -25.9045  -32.4818   23.8375 C   0  0  1  0  0  0
  -27.2199  -27.4005   20.0853 C   0  0  0  0  0  0
  -25.5825  -33.8608   24.2317 N   0  0  0  0  0  0
  -23.4125  -30.4921   21.5430 C   0  0  2  0  0  0
  -24.8547  -28.9603   20.1041 C   0  0  0  0  0  0
  -22.7523  -29.4616   22.4905 C   0  0  0  0  0  0
  -18.0280  -28.1436   22.8506 C   0  0  0  0  0  0
  -24.1479  -36.7388   23.2655 C   0  0  0  0  0  0
  -25.9455  -30.8122   21.3714 C   0  0  0  0  0  0
  -26.0148  -29.4447   20.7206 C   0  0  0  0  0  0
  -27.1926  -28.6608   20.7295 C   0  0  0  0  0  0
  -26.0495  -26.9617   19.4231 C   0  0  0  0  0  0
  -24.8674  -27.7165   19.4544 C   0  0  0  0  0  0
  -23.6297  -29.8381   20.1540 C   0  0  0  0  0  0
  -25.4076  -36.3150   24.0385 C   0  0  1  0  0  0
  -20.5891  -28.3726   23.1294 C   0  0  2  0  0  0
  -20.6705  -26.9419   22.5459 C   0  0  0  0  0  0
  -19.5656  -26.6391   21.5265 C   0  0  0  0  0  0
  -18.1875  -26.7942   22.1725 C   0  0  0  0  0  0
  -19.1551  -28.8909   23.2879 C   0  0  0  0  0  0
  -18.9485  -30.1481   23.8950 C   0  0  0  0  0  0
  -17.6499  -30.6622   24.0646 C   0  0  0  0  0  0
  -25.9007  -34.9497   23.5189 C   0  0  0  0  0  0
  -16.5367  -29.9177   23.6331 C   0  0  0  0  0  0
  -16.7268  -28.6592   23.0330 C   0  0  0  0  0  0
  -26.4453  -31.6540   25.0674 C   0  0  0  0  0  0
  -25.3694  -31.3588   26.1382 C   0  0  0  0  0  0
  -27.0294  -30.2970   24.6066 C   0  0  0  0  0  0
  -27.6065  -32.4235   25.7377 C   0  0  0  0  0  0
  -27.5601  -37.1851   24.8468 C   0  0  0  0  0  0
  -21.4222  -29.3092   22.3742 N   0  0  0  0  0  0
  -26.4305  -37.3809   23.9401 N   0  0  0  0  0  0
  -24.6764  -31.0763   22.0955 N   0  0  0  0  0  0
  -23.4307  -28.8119   23.2927 O   0  0  0  0  0  0
  -28.3654  -26.6274   20.1725 O   0  0  0  0  0  0
  -26.5649  -34.8987   22.4803 O   0  0  0  0  0  0
  -23.5358  -32.1452   23.7374 O   0  0  0  0  0  0
  -29.0843  -18.1702   20.4080 C   0  0  0  0  0  0
  -28.5260  -19.4464   20.1623 C   0  0  0  0  0  0
  -30.1109  -20.4361   21.7185 C   0  0  0  0  0  0
  -30.1855  -18.0148   21.2899 C   0  0  0  0  0  0
  -29.0382  -20.5932   20.8145 C   0  0  0  0  0  0
  -30.6845  -19.1711   21.9498 C   0  0  0  0  0  0
  -27.1270  -23.6740   20.8279 C   0  0  0  0  0  0
  -28.1959  -24.0749   20.1089 C   0  0  0  0  0  0
  -27.2792  -22.2627   21.1131 C   0  0  0  0  0  0
  -29.0789  -22.9216   19.9846 C   0  0  0  0  0  0
  -30.9301  -16.6970   21.3795 C   0  0  0  0  0  0
  -25.8901  -24.4361   21.2809 C   0  0  0  0  0  0
  -28.4997  -25.4150   19.4002 C   0  0  0  0  0  0
  -28.4680  -21.8932   20.6085 N   0  0  0  0  0  0
  -30.2540  -15.5484   21.1310 N   0  0  0  0  0  0
  -26.4750  -21.5216   21.6855 O   0  0  0  0  0  0
  -30.1751  -22.8568   19.4067 O   0  0  0  0  0  0
  -32.1377  -16.7218   21.6618 O   0  0  0  0  0  0
  -31.7387  -19.1090   22.8056 F   0  0  0  0  0  0
  -31.4385  -12.3124   19.1494 H   0  0  0  0  0  0
  -30.2198  -11.3024   19.8710 H   0  0  0  0  0  0
  -29.7295  -11.7590   17.4443 H   0  0  0  0  0  0
  -29.6680  -13.4789   17.7751 H   0  0  0  0  0  0
  -27.8462  -11.3044   18.8697 H   0  0  0  0  0  0
  -27.3580  -12.5875   17.7949 H   0  0  0  0  0  0
  -27.6878  -14.2571   19.5380 H   0  0  0  0  0  0
  -28.6853  -12.0626   21.4221 H   0  0  0  0  0  0
  -28.4778  -13.7444   21.8332 H   0  0  0  0  0  0
  -25.2747   -9.5716   22.4735 H   0  0  0  0  0  0
  -24.0003   -7.4640   22.7459 H   0  0  0  0  0  0
  -21.0815   -8.8686   19.8956 H   0  0  0  0  0  0
  -22.3594  -10.9623   19.6146 H   0  0  0  0  0  0
  -21.1886   -7.6123   23.9688 H   0  0  0  0  0  0
  -21.1532   -6.0554   25.9102 H   0  0  0  0  0  0
  -22.0585   -2.7591   23.2915 H   0  0  0  0  0  0
  -22.4185  -11.9753   22.4682 H   0  0  0  0  0  0
  -21.1187  -13.1199   22.2760 H   0  0  0  0  0  0
  -24.7022  -15.8735   20.5077 H   0  0  0  0  0  0
  -26.3122  -15.5973   20.0832 H   0  0  0  0  0  0
  -26.7142  -32.5530   23.1169 H   0  0  0  0  0  0
  -24.9775  -33.9713   25.0325 H   0  0  0  0  0  0
  -22.7000  -31.3082   21.4008 H   0  0  0  0  0  0
  -23.3730  -35.9747   23.3307 H   0  0  0  0  0  0
  -24.3582  -36.9009   22.2076 H   0  0  0  0  0  0
  -23.7259  -37.6625   23.6637 H   0  0  0  0  0  0
  -26.0757  -31.5588   20.5835 H   0  0  0  0  0  0
  -26.8315  -30.8653   21.9921 H   0  0  0  0  0  0
  -28.0770  -29.0021   21.2497 H   0  0  0  0  0  0
  -25.9977  -26.0171   18.9080 H   0  0  0  0  0  0
  -23.9809  -27.3321   18.9650 H   0  0  0  0  0  0
  -23.7756  -30.6172   19.4060 H   0  0  0  0  0  0
  -22.7499  -29.2811   19.8265 H   0  0  0  0  0  0
  -25.1233  -36.2113   25.0896 H   0  0  0  0  0  0
  -21.0013  -28.3376   24.1411 H   0  0  0  0  0  0
  -20.5519  -26.2428   23.3728 H   0  0  0  0  0  0
  -21.6539  -26.7326   22.1278 H   0  0  0  0  0  0
  -19.6788  -25.6323   21.1246 H   0  0  0  0  0  0
  -19.6509  -27.3212   20.6807 H   0  0  0  0  0  0
  -17.4038  -26.6653   21.4251 H   0  0  0  0  0  0
  -18.0259  -26.0170   22.9219 H   0  0  0  0  0  0
  -19.7951  -30.7276   24.2384 H   0  0  0  0  0  0
  -17.5033  -31.6247   24.5342 H   0  0  0  0  0  0
  -15.5383  -30.3095   23.7619 H   0  0  0  0  0  0
  -15.8660  -28.0931   22.7039 H   0  0  0  0  0  0
  -24.5892  -30.6949   25.7625 H   0  0  0  0  0  0
  -24.8842  -32.2699   26.4870 H   0  0  0  0  0  0
  -25.8001  -30.8657   27.0107 H   0  0  0  0  0  0
  -26.2828  -29.6657   24.1210 H   0  0  0  0  0  0
  -27.4160  -29.7250   25.4524 H   0  0  0  0  0  0
  -27.8625  -30.4265   23.9151 H   0  0  0  0  0  0
  -27.2732  -33.3532   26.1997 H   0  0  0  0  0  0
  -28.3761  -32.6812   25.0078 H   0  0  0  0  0  0
  -28.0856  -31.8329   26.5195 H   0  0  0  0  0  0
  -28.2645  -38.0130   24.7477 H   0  0  0  0  0  0
  -28.1088  -36.2668   24.6300 H   0  0  0  0  0  0
  -27.2334  -37.1522   25.8886 H   0  0  0  0  0  0
  -20.9425  -29.9103   21.7188 H   0  0  0  0  0  0
  -26.0257  -38.2957   24.1273 H   0  0  0  0  0  0
  -28.6852  -17.3244   19.8622 H   0  0  0  0  0  0
  -27.7134  -19.5445   19.4569 H   0  0  0  0  0  0
  -30.5060  -21.2936   22.2393 H   0  0  0  0  0  0
  -25.1441  -24.4619   20.4848 H   0  0  0  0  0  0
  -26.1567  -25.4455   21.5906 H   0  0  0  0  0  0
  -25.4234  -23.9641   22.1477 H   0  0  0  0  0  0
  -27.9785  -25.4639   18.4460 H   0  0  0  0  0  0
  -29.5531  -25.3915   19.1153 H   0  0  0  0  0  0
  -29.2534  -15.5687   21.2391 H   0  0  0  0  0  0
  1 25  1  0  0  0
  1 30  2  0  0  0
  1 85  1  0  0  0
  2  3  1  0  0  0
  2 25  1  0  0  0
  2 90  1  0  0  0
  2 91  1  0  0  0
  3  4  1  0  0  0
  3 92  1  0  0  0
  3 93  1  0  0  0
  4  5  1  0  0  0
  4 94  1  0  0  0
  4 95  1  0  0  0
  5  6  1  0  0  0
  5 26  1  0  0  0
  5 96  1  0  0  0
  6 25  1  0  0  0
  6 97  1  0  0  0
  6 98  1  0  0  0
  7  8  2  0  0  0
  7 26  1  0  0  0
  7 29  1  0  0  0
  8  9  1  0  0  0
  8 22  1  0  0  0
  9 10  1  0  0  0
  9 27  2  0  0  0
 10 11  2  0  0  0
 10 15  1  0  0  0
 11 12  1  0  0  0
 11 99  1  0  0  0
 12 13  2  0  0  0
 12100  1  0  0  0
 13 14  1  0  0  0
 13 31  1  0  0  0
 14 15  2  0  0  0
 14101  1  0  0  0
 15102  1  0  0  0
 16 17  2  0  0  0
 16 21  1  0  0  0
 16 31  1  0  0  0
 17 18  1  0  0  0
 17103  1  0  0  0
 18 19  2  0  0  0
 18104  1  0  0  0
 19 20  1  0  0  0
 19 24  1  0  0  0
 20 21  2  0  0  0
 20105  1  0  0  0
 21 23  1  0  0  0
 22 28  1  0  0  0
 22 32  2  0  0  0
 26 27  1  0  0  0
 28106  1  0  0  0
 28107  1  0  0  0
 29108  1  0  0  0
 29109  1  0  0  0
 33 34  1  0  0  0
 33 66  1  0  0  0
 33 70  2  0  0  0
 34 36  1  0  0  0
 34 59  1  0  0  0
 34110  1  0  0  0
 35 44  2  0  0  0
 35 45  1  0  0  0
 35 68  1  0  0  0
 36 56  1  0  0  0
 36111  1  0  0  0
 37 39  1  0  0  0
 37 47  1  0  0  0
 37 66  1  0  0  0
 37112  1  0  0  0
 38 43  2  0  0  0
 38 46  1  0  0  0
 38 47  1  0  0  0
 39 64  1  0  0  0
 39 67  2  0  0  0
 40 52  1  0  0  0
 40 53  2  0  0  0
 40 58  1  0  0  0
 41113  1  0  0  0
 41114  1  0  0  0
 41115  1  0  0  0
 41 48  1  0  0  0
 42 43  1  0  0  0
 42 66  1  0  0  0
 42116  1  0  0  0
 42117  1  0  0  0
 43 44  1  0  0  0
 44118  1  0  0  0
 45 46  2  0  0  0
 45119  1  0  0  0
 46120  1  0  0  0
 47121  1  0  0  0
 47122  1  0  0  0
 48 56  1  0  0  0
 48 65  1  0  0  0
 48123  1  0  0  0
 49 50  1  0  0  0
 49 53  1  0  0  0
 49 64  1  0  0  0
 49124  1  0  0  0
 50 51  1  0  0  0
 50125  1  0  0  0
 50126  1  0  0  0
 51 52  1  0  0  0
 51127  1  0  0  0
 51128  1  0  0  0
 52129  1  0  0  0
 52130  1  0  0  0
 53 54  1  0  0  0
 54 55  2  0  0  0
 54131  1  0  0  0
 55 57  1  0  0  0
 55132  1  0  0  0
 56 69  2  0  0  0
 57 58  2  0  0  0
 57133  1  0  0  0
 58134  1  0  0  0
 59 60  1  0  0  0
 59 61  1  0  0  0
 59 62  1  0  0  0
 60135  1  0  0  0
 60136  1  0  0  0
 60137  1  0  0  0
 61138  1  0  0  0
 61139  1  0  0  0
 61140  1  0  0  0
 62141  1  0  0  0
 62142  1  0  0  0
 62143  1  0  0  0
 63 65  1  0  0  0
 63144  1  0  0  0
 63145  1  0  0  0
 63146  1  0  0  0
 64147  1  0  0  0
 65148  1  0  0  0
 68 83  1  0  0  0
 71 72  2  0  0  0
 71 74  1  0  0  0
 71149  1  0  0  0
 72 75  1  0  0  0
 72150  1  0  0  0
 73 75  2  0  0  0
 73 76  1  0  0  0
 73151  1  0  0  0
 74 76  2  0  0  0
 74 81  1  0  0  0
 75 84  1  0  0  0
 76 89  1  0  0  0
 77 78  2  0  0  0
 77 79  1  0  0  0
 77 82  1  0  0  0
 78 80  1  0  0  0
 78 83  1  0  0  0
 79 84  1  0  0  0
 79 86  2  0  0  0
 80 84  1  0  0  0
 80 87  2  0  0  0
 81 85  1  0  0  0
 81 88  2  0  0  0
 82152  1  0  0  0
 82153  1  0  0  0
 82154  1  0  0  0
 83155  1  0  0  0
 83156  1  0  0  0
 85157  1  0  0  0
M  ISO  4   1 100  68 101  83 101  85 100
M  END
> <chiral flag>
0

> <version>
0

> <s_m_source_file>
/data/baiqing/PycharmProjects/Reinvent-master-3.2/result/LINK_invent/BTK/process_docking_weight1_custom_product_contain_oxygen_bond_distance_aromatic_linkinvent_7_9_3/rearranged_h_0088.sdf

> <i_m_source_file_index>
33

> <r_mmod_Potential_Energy-OPLS-2005>
34.9197769165039

> <r_mmod_Stretch_Energy-OPLS-2005>
43.6987266540527

> <r_mmod_Bend_Energy-OPLS-2005>
158.718399047852

> <r_mmod_Torsional_Energy-OPLS-2005>
262.687072753906

> <r_mmod_Improper_Torsional_Energy-OPLS-2005>
4.90266752243042

> <r_mmod_Van_der_Waal_Energy-OPLS-2005>
164.322128295898

> <r_mmod_Electrostatic_Energy-OPLS-2005>
-374.103881835938

> <r_mmod_Solvation_Energy-OPLS-2005>
-251.505279541016

> <b_mmod_Minimization_Converged-OPLS-2005>
0

> <r_mmod_RMS_Derivative-OPLS-2005>
6.35829782485962

$$$$
33
                    3D
 Structure written by MMmdl.
154163  0  0  1  0            999 V2000
  -30.6018  -14.6495   20.4794 C   0  0  0  0  0  0
  -30.4427  -12.3982   19.4395 C   0  0  0  0  0  0
  -29.5049  -12.5115   18.2160 C   0  0  0  0  0  0
  -28.0287  -12.3411   18.6309 C   0  0  0  0  0  0
  -27.6502  -13.2099   19.8601 C   0  0  2  0  0  0
  -28.6991  -13.0600   20.9841 C   0  0  0  0  0  0
  -25.2568  -13.8160   20.5753 C   0  0  0  0  0  0
  -24.1822  -13.0421   20.9198 C   0  0  0  0  0  0
  -24.6375  -11.6890   20.8723 C   0  0  0  0  0  0
  -23.9043  -10.4276   21.0394 C   0  0  0  0  0  0
  -24.3599   -9.4197   21.9177 C   0  0  0  0  0  0
  -23.6277   -8.2232   22.0746 C   0  0  0  0  0  0
  -22.4261   -8.0270   21.3540 C   0  0  0  0  0  0
  -21.9889   -9.0235   20.4643 C   0  0  0  0  0  0
  -22.7207  -10.2119   20.3054 C   0  0  0  0  0  0
  -21.6851   -6.0733   22.5287 C   0  0  0  0  0  0
  -21.4016   -6.5634   23.8219 C   0  0  0  0  0  0
  -21.3659   -5.6785   24.9177 C   0  0  0  0  0  0
  -21.6044   -4.3047   24.7227 C   0  0  0  0  0  0
  -21.8820   -3.8144   23.4345 C   0  0  0  0  0  0
  -21.9189   -4.6964   22.3406 C   0  0  0  0  0  0
  -22.7852  -13.5234   21.1852 C   0  0  0  0  0  0
  -22.1660   -4.2153   21.0984 F   0  0  0  0  0  0
  -21.5623   -3.4530   25.7740 F   0  0  0  0  0  0
  -30.0105  -13.4147   20.4163 N   0  0  0  0  0  0
  -26.2974  -12.9323   20.3313 N   0  0  0  0  0  0
  -25.9302  -11.6475   20.5722 N   0  0  0  0  0  0
  -22.0485  -12.8213   22.0392 N   0  0  0  0  0  0
  -25.4223  -15.1910   20.4351 N   0  0  0  0  0  0
  -31.7823  -14.8188   20.1583 O   0  0  0  0  0  0
  -21.6633   -6.8868   21.4245 O   0  0  0  0  0  0
  -22.3530  -14.5543   20.6707 O   0  0  0  0  0  0
  -24.6293  -31.8604   23.2035 C   0  0  0  0  0  0
  -25.9132  -32.4801   23.8349 C   0  0  1  0  0  0
  -27.2097  -27.3014   20.1048 C   0  0  0  0  0  0
  -25.5957  -33.8590   24.2288 N   0  0  0  0  0  0
  -23.4217  -30.4894   21.5479 C   0  0  2  0  0  0
  -24.8641  -28.9545   20.1110 C   0  0  0  0  0  0
  -22.7484  -29.4629   22.4910 C   0  0  0  0  0  0
  -18.0287  -28.1358   22.8478 C   0  0  0  0  0  0
  -24.1500  -36.7279   23.2632 C   0  0  0  0  0  0
  -25.9677  -30.7892   21.3755 C   0  0  0  0  0  0
  -26.0410  -29.4168   20.7146 C   0  0  0  0  0  0
  -27.2183  -28.6047   20.7018 C   0  0  0  0  0  0
  -26.0010  -26.9097   19.4754 C   0  0  0  0  0  0
  -24.8477  -27.7061   19.4838 C   0  0  0  0  0  0
  -23.6363  -29.8373   20.1610 C   0  0  0  0  0  0
  -25.4119  -36.3082   24.0331 C   0  0  1  0  0  0
  -20.5889  -28.3668   23.1269 C   0  0  2  0  0  0
  -20.6779  -26.9392   22.5391 C   0  0  0  0  0  0
  -19.5760  -26.6347   21.5196 C   0  0  0  0  0  0
  -18.1933  -26.7900   22.1604 C   0  0  0  0  0  0
  -19.1540  -28.8824   23.2877 C   0  0  0  0  0  0
  -18.9475  -30.1423   23.8903 C   0  0  0  0  0  0
  -17.6478  -30.6569   24.0557 C   0  0  0  0  0  0
  -25.9052  -34.9465   23.5099 C   0  0  0  0  0  0
  -16.5369  -29.9060   23.6328 C   0  0  0  0  0  0
  -16.7273  -28.6471   23.0355 C   0  0  0  0  0  0
  -26.4498  -31.6592   25.0705 C   0  0  0  0  0  0
  -25.3702  -31.3761   26.1415 C   0  0  0  0  0  0
  -27.0305  -30.3008   24.6120 C   0  0  0  0  0  0
  -27.6087  -32.4277   25.7468 C   0  0  0  0  0  0
  -27.5596  -37.1782   24.8454 C   0  0  0  0  0  0
  -21.4188  -29.3046   22.3675 N   0  0  0  0  0  0
  -26.4286  -37.3785   23.9430 N   0  0  0  0  0  0
  -24.6933  -31.0608   22.1004 N   0  0  0  0  0  0
  -23.4217  -28.8132   23.2951 O   0  0  0  0  0  0
  -28.2992  -26.4013   20.1536 O   0  0  0  0  0  0
  -26.5601  -34.8949   22.4651 O   0  0  0  0  0  0
  -23.5450  -32.1392   23.7351 O   0  0  0  0  0  0
  -30.8317  -19.3761   20.9666 C   0  0  0  0  0  0
  -30.8915  -17.9486   21.0366 C   0  0  0  0  0  0
  -28.7104  -19.2530   19.8565 C   0  0  0  0  0  0
  -29.7382  -20.0924   20.3810 C   0  0  0  0  0  0
  -29.8470  -17.1366   20.5281 C   0  0  0  0  0  0
  -28.7609  -17.8265   19.9277 C   0  0  0  0  0  0
  -30.2873  -23.7756   20.1342 C   0  0  0  0  0  0
  -28.9561  -23.7836   20.1771 C   0  0  0  0  0  0
  -30.7606  -22.4025   20.2060 C   0  0  0  0  0  0
  -28.5555  -22.3707   20.3017 C   0  0  0  0  0  0
  -27.9445  -24.9636   19.9750 C   0  0  0  0  0  0
  -29.6796  -21.5840   20.3065 N   0  0  0  0  0  0
  -27.7242  -17.0797   19.3655 N   0  0  0  0  0  0
  -29.7419  -15.6890   20.6996 N   0  0  0  0  0  0
  -31.9430  -22.0467   20.1459 O   0  0  0  0  0  0
  -27.3943  -21.9555   20.3977 O   0  0  0  0  0  0
  -31.4822  -12.5364   19.1343 H   0  0  0  0  0  0
  -30.3879  -11.3997   19.8763 H   0  0  0  0  0  0
  -29.7703  -11.7634   17.4682 H   0  0  0  0  0  0
  -29.6361  -13.4839   17.7373 H   0  0  0  0  0  0
  -27.8733  -11.2868   18.8607 H   0  0  0  0  0  0
  -27.3697  -12.5679   17.7915 H   0  0  0  0  0  0
  -27.6621  -14.2434   19.5177 H   0  0  0  0  0  0
  -28.7127  -12.0343   21.3539 H   0  0  0  0  0  0
  -28.4493  -13.6833   21.8447 H   0  0  0  0  0  0
  -25.2752   -9.5688   22.4740 H   0  0  0  0  0  0
  -24.0001   -7.4637   22.7472 H   0  0  0  0  0  0
  -21.0817   -8.8744   19.8955 H   0  0  0  0  0  0
  -22.3657  -10.9656   19.6172 H   0  0  0  0  0  0
  -21.2015   -7.6144   23.9738 H   0  0  0  0  0  0
  -21.1476   -6.0506   25.9086 H   0  0  0  0  0  0
  -22.0599   -2.7609   23.2846 H   0  0  0  0  0  0
  -22.4094  -11.9853   22.4738 H   0  0  0  0  0  0
  -21.1119  -13.1243   22.2620 H   0  0  0  0  0  0
  -24.6556  -15.8297   20.6119 H   0  0  0  0  0  0
  -26.2696  -15.6813   20.1531 H   0  0  0  0  0  0
  -26.7205  -32.5491   23.1103 H   0  0  0  0  0  0
  -25.0190  -33.9746   25.0494 H   0  0  0  0  0  0
  -22.7161  -31.3107   21.4080 H   0  0  0  0  0  0
  -23.3796  -35.9571   23.3222 H   0  0  0  0  0  0
  -24.3623  -36.8940   22.2062 H   0  0  0  0  0  0
  -23.7196  -37.6441   23.6686 H   0  0  0  0  0  0
  -26.0911  -31.5539   20.6077 H   0  0  0  0  0  0
  -26.8542  -30.8424   21.9966 H   0  0  0  0  0  0
  -28.1189  -28.9561   21.1856 H   0  0  0  0  0  0
  -25.8858  -25.9645   18.9720 H   0  0  0  0  0  0
  -23.9468  -27.3434   19.0086 H   0  0  0  0  0  0
  -23.7631  -30.6212   19.4128 H   0  0  0  0  0  0
  -22.7546  -29.2729   19.8513 H   0  0  0  0  0  0
  -25.1285  -36.1935   25.0814 H   0  0  0  0  0  0
  -20.9986  -28.3235   24.1394 H   0  0  0  0  0  0
  -20.5649  -26.2283   23.3584 H   0  0  0  0  0  0
  -21.6649  -26.7391   22.1212 H   0  0  0  0  0  0
  -19.6932  -25.6247   21.1242 H   0  0  0  0  0  0
  -19.6732  -27.3147   20.6723 H   0  0  0  0  0  0
  -17.4212  -26.6651   21.4006 H   0  0  0  0  0  0
  -18.0347  -26.0027   22.8983 H   0  0  0  0  0  0
  -19.7960  -30.7221   24.2290 H   0  0  0  0  0  0
  -17.5041  -31.6270   24.5112 H   0  0  0  0  0  0
  -15.5374  -30.2979   23.7629 H   0  0  0  0  0  0
  -15.8667  -28.0791   22.7082 H   0  0  0  0  0  0
  -24.5935  -30.7036   25.7761 H   0  0  0  0  0  0
  -24.8842  -32.2947   26.4719 H   0  0  0  0  0  0
  -25.7993  -30.9051   27.0266 H   0  0  0  0  0  0
  -26.2867  -29.6782   24.1139 H   0  0  0  0  0  0
  -27.4023  -29.7231   25.4593 H   0  0  0  0  0  0
  -27.8731  -30.4302   23.9314 H   0  0  0  0  0  0
  -27.2767  -33.3623   26.2002 H   0  0  0  0  0  0
  -28.3941  -32.6721   25.0299 H   0  0  0  0  0  0
  -28.0693  -31.8390   26.5411 H   0  0  0  0  0  0
  -28.2548  -38.0147   24.7582 H   0  0  0  0  0  0
  -28.1151  -36.2674   24.6159 H   0  0  0  0  0  0
  -27.2332  -37.1279   25.8859 H   0  0  0  0  0  0
  -20.9331  -29.8860   21.6994 H   0  0  0  0  0  0
  -26.0158  -38.2836   24.1510 H   0  0  0  0  0  0
  -31.6586  -19.9191   21.4015 H   0  0  0  0  0  0
  -31.7388  -17.4826   21.5208 H   0  0  0  0  0  0
  -27.8580  -19.7078   19.3727 H   0  0  0  0  0  0
  -30.9151  -24.6405   19.9932 H   0  0  0  0  0  0
  -27.0938  -24.7431   20.6218 H   0  0  0  0  0  0
  -27.6156  -24.8205   18.9459 H   0  0  0  0  0  0
  -27.0829  -17.6158   18.7885 H   0  0  0  0  0  0
  -28.0503  -16.2731   18.8470 H   0  0  0  0  0  0
  -28.7851  -15.3847   20.7980 H   0  0  0  0  0  0
  1 25  1  0  0  0
  1 30  2  0  0  0
  1 84  1  0  0  0
  2  3  1  0  0  0
  2 25  1  0  0  0
  2 87  1  0  0  0
  2 88  1  0  0  0
  3  4  1  0  0  0
  3 89  1  0  0  0
  3 90  1  0  0  0
  4  5  1  0  0  0
  4 91  1  0  0  0
  4 92  1  0  0  0
  5  6  1  0  0  0
  5 26  1  0  0  0
  5 93  1  0  0  0
  6 25  1  0  0  0
  6 94  1  0  0  0
  6 95  1  0  0  0
  7  8  2  0  0  0
  7 26  1  0  0  0
  7 29  1  0  0  0
  8  9  1  0  0  0
  8 22  1  0  0  0
  9 10  1  0  0  0
  9 27  2  0  0  0
 10 11  2  0  0  0
 10 15  1  0  0  0
 11 12  1  0  0  0
 11 96  1  0  0  0
 12 13  2  0  0  0
 12 97  1  0  0  0
 13 14  1  0  0  0
 13 31  1  0  0  0
 14 15  2  0  0  0
 14 98  1  0  0  0
 15 99  1  0  0  0
 16 17  2  0  0  0
 16 21  1  0  0  0
 16 31  1  0  0  0
 17 18  1  0  0  0
 17100  1  0  0  0
 18 19  2  0  0  0
 18101  1  0  0  0
 19 20  1  0  0  0
 19 24  1  0  0  0
 20 21  2  0  0  0
 20102  1  0  0  0
 21 23  1  0  0  0
 22 28  1  0  0  0
 22 32  2  0  0  0
 26 27  1  0  0  0
 28103  1  0  0  0
 28104  1  0  0  0
 29105  1  0  0  0
 29106  1  0  0  0
 33 34  1  0  0  0
 33 66  1  0  0  0
 33 70  2  0  0  0
 34 36  1  0  0  0
 34 59  1  0  0  0
 34107  1  0  0  0
 35 44  2  0  0  0
 35 45  1  0  0  0
 35 68  1  0  0  0
 36 56  1  0  0  0
 36108  1  0  0  0
 37 39  1  0  0  0
 37 47  1  0  0  0
 37 66  1  0  0  0
 37109  1  0  0  0
 38 43  2  0  0  0
 38 46  1  0  0  0
 38 47  1  0  0  0
 39 64  1  0  0  0
 39 67  2  0  0  0
 40 52  1  0  0  0
 40 53  2  0  0  0
 40 58  1  0  0  0
 41110  1  0  0  0
 41111  1  0  0  0
 41112  1  0  0  0
 41 48  1  0  0  0
 42 43  1  0  0  0
 42 66  1  0  0  0
 42113  1  0  0  0
 42114  1  0  0  0
 43 44  1  0  0  0
 44115  1  0  0  0
 45 46  2  0  0  0
 45116  1  0  0  0
 46117  1  0  0  0
 47118  1  0  0  0
 47119  1  0  0  0
 48 56  1  0  0  0
 48 65  1  0  0  0
 48120  1  0  0  0
 49 50  1  0  0  0
 49 53  1  0  0  0
 49 64  1  0  0  0
 49121  1  0  0  0
 50 51  1  0  0  0
 50122  1  0  0  0
 50123  1  0  0  0
 51 52  1  0  0  0
 51124  1  0  0  0
 51125  1  0  0  0
 52126  1  0  0  0
 52127  1  0  0  0
 53 54  1  0  0  0
 54 55  2  0  0  0
 54128  1  0  0  0
 55 57  1  0  0  0
 55129  1  0  0  0
 56 69  2  0  0  0
 57 58  2  0  0  0
 57130  1  0  0  0
 58131  1  0  0  0
 59 60  1  0  0  0
 59 61  1  0  0  0
 59 62  1  0  0  0
 60132  1  0  0  0
 60133  1  0  0  0
 60134  1  0  0  0
 61135  1  0  0  0
 61136  1  0  0  0
 61137  1  0  0  0
 62138  1  0  0  0
 62139  1  0  0  0
 62140  1  0  0  0
 63 65  1  0  0  0
 63141  1  0  0  0
 63142  1  0  0  0
 63143  1  0  0  0
 64144  1  0  0  0
 65145  1  0  0  0
 68 81  1  0  0  0
 71 72  2  0  0  0
 71 74  1  0  0  0
 71146  1  0  0  0
 72 75  1  0  0  0
 72147  1  0  0  0
 73 74  2  0  0  0
 73 76  1  0  0  0
 73148  1  0  0  0
 74 82  1  0  0  0
 75 76  2  0  0  0
 75 84  1  0  0  0
 76 83  1  0  0  0
 77 78  2  0  0  0
 77 79  1  0  0  0
 77149  1  0  0  0
 78 80  1  0  0  0
 78 81  1  0  0  0
 79 82  1  0  0  0
 79 85  2  0  0  0
 80 82  1  0  0  0
 80 86  2  0  0  0
 81150  1  0  0  0
 81151  1  0  0  0
 83152  1  0  0  0
 83153  1  0  0  0
 84154  1  0  0  0
M  ISO  4   1 100  68 101  81 101  84 100
M  END
> <chiral flag>
0

> <version>
0

> <s_m_source_file>
/data/baiqing/PycharmProjects/Reinvent-master-3.2/result/LINK_invent/BTK/process_docking_weight1_custom_product_contain_oxygen_bond_distance_aromatic_linkinvent_7_9_3/rearranged_h_0088.sdf

> <i_m_source_file_index>
34

> <r_mmod_Potential_Energy-OPLS-2005>
4.27423620223999

> <r_mmod_Stretch_Energy-OPLS-2005>
87.2745895385742

> <r_mmod_Bend_Energy-OPLS-2005>
188.670684814453

> <r_mmod_Torsional_Energy-OPLS-2005>
256.870788574219

> <r_mmod_Improper_Torsional_Energy-OPLS-2005>
11.846996307373

> <r_mmod_Van_der_Waal_Energy-OPLS-2005>
155.035400390625

> <r_mmod_Electrostatic_Energy-OPLS-2005>
-518.645629882812

> <r_mmod_Solvation_Energy-OPLS-2005>
-235.068984985352

> <b_mmod_Minimization_Converged-OPLS-2005>
0

> <r_mmod_RMS_Derivative-OPLS-2005>
2.3071711063385

$$$$
34
                    3D
 Structure written by MMmdl.
156165  0  0  1  0            999 V2000
  -30.5759  -14.8275   20.4253 C   0  0  0  0  0  0
  -30.4422  -12.4893   19.5117 C   0  0  0  0  0  0
  -29.5265  -12.4602   18.2658 C   0  0  0  0  0  0
  -28.0448  -12.3250   18.6632 C   0  0  0  0  0  0
  -27.6423  -13.2406   19.8504 C   0  0  2  0  0  0
  -28.6820  -13.2069   20.9922 C   0  0  0  0  0  0
  -25.2502  -13.8220   20.5695 C   0  0  0  0  0  0
  -24.1799  -13.0452   20.9211 C   0  0  0  0  0  0
  -24.6399  -11.6935   20.8744 C   0  0  0  0  0  0
  -23.9077  -10.4301   21.0391 C   0  0  0  0  0  0
  -24.3622   -9.4214   21.9171 C   0  0  0  0  0  0
  -23.6293   -8.2249   22.0742 C   0  0  0  0  0  0
  -22.4279   -8.0282   21.3535 C   0  0  0  0  0  0
  -21.9919   -9.0257   20.4640 C   0  0  0  0  0  0
  -22.7247  -10.2138   20.3040 C   0  0  0  0  0  0
  -21.6852   -6.0737   22.5273 C   0  0  0  0  0  0
  -21.4013   -6.5639   23.8206 C   0  0  0  0  0  0
  -21.3665   -5.6793   24.9170 C   0  0  0  0  0  0
  -21.6050   -4.3056   24.7220 C   0  0  0  0  0  0
  -21.8819   -3.8147   23.4339 C   0  0  0  0  0  0
  -21.9191   -4.6965   22.3397 C   0  0  0  0  0  0
  -22.7819  -13.5217   21.1875 C   0  0  0  0  0  0
  -22.1654   -4.2155   21.0974 F   0  0  0  0  0  0
  -21.5639   -3.4540   25.7735 F   0  0  0  0  0  0
  -29.9796  -13.5770   20.4149 N   0  0  0  0  0  0
  -26.2940  -12.9447   20.3278 N   0  0  0  0  0  0
  -25.9337  -11.6584   20.5764 N   0  0  0  0  0  0
  -22.0483  -12.8189   22.0433 N   0  0  0  0  0  0
  -25.4196  -15.1946   20.4116 N   0  0  0  0  0  0
  -31.7534  -14.9230   20.0670 O   0  0  0  0  0  0
  -21.6638   -6.8883   21.4236 O   0  0  0  0  0  0
  -22.3488  -14.5520   20.6728 O   0  0  0  0  0  0
  -24.6359  -31.8524   23.1977 C   0  0  0  0  0  0
  -25.9171  -32.4740   23.8331 C   0  0  1  0  0  0
  -27.2111  -27.2076   20.1428 C   0  0  0  0  0  0
  -25.5958  -33.8547   24.2246 N   0  0  0  0  0  0
  -23.4354  -30.4755   21.5415 C   0  0  2  0  0  0
  -24.8845  -28.9212   20.1085 C   0  0  0  0  0  0
  -22.7531  -29.4581   22.4892 C   0  0  0  0  0  0
  -18.0298  -28.1389   22.8483 C   0  0  0  0  0  0
  -24.1490  -36.7269   23.2640 C   0  0  0  0  0  0
  -25.9865  -30.7453   21.3918 C   0  0  0  0  0  0
  -26.0565  -29.3633   20.7358 C   0  0  0  0  0  0
  -27.2190  -28.5164   20.7514 C   0  0  0  0  0  0
  -26.0292  -26.8768   19.4384 C   0  0  0  0  0  0
  -24.8789  -27.6872   19.4467 C   0  0  0  0  0  0
  -23.6585  -29.8145   20.1565 C   0  0  0  0  0  0
  -25.4120  -36.3058   24.0324 C   0  0  1  0  0  0
  -20.5906  -28.3708   23.1253 C   0  0  2  0  0  0
  -20.6781  -26.9419   22.5406 C   0  0  0  0  0  0
  -19.5753  -26.6378   21.5212 C   0  0  0  0  0  0
  -18.1937  -26.7930   22.1624 C   0  0  0  0  0  0
  -19.1554  -28.8866   23.2860 C   0  0  0  0  0  0
  -18.9473  -30.1467   23.8879 C   0  0  0  0  0  0
  -17.6470  -30.6589   24.0562 C   0  0  0  0  0  0
  -25.9069  -34.9433   23.5085 C   0  0  0  0  0  0
  -16.5361  -29.9084   23.6336 C   0  0  0  0  0  0
  -16.7283  -28.6501   23.0358 C   0  0  0  0  0  0
  -26.4520  -31.6583   25.0742 C   0  0  0  0  0  0
  -25.3717  -31.3756   26.1443 C   0  0  0  0  0  0
  -27.0388  -30.2993   24.6279 C   0  0  0  0  0  0
  -27.6066  -32.4337   25.7519 C   0  0  0  0  0  0
  -27.5582  -37.1787   24.8462 C   0  0  0  0  0  0
  -21.4232  -29.3048   22.3639 N   0  0  0  0  0  0
  -26.4283  -37.3770   23.9419 N   0  0  0  0  0  0
  -24.7048  -31.0442   22.0988 N   0  0  0  0  0  0
  -23.4209  -28.8122   23.3010 O   0  0  0  0  0  0
  -28.2640  -26.2423   20.2219 O   0  0  0  0  0  0
  -26.5639  -34.8914   22.4654 O   0  0  0  0  0  0
  -23.5496  -32.1378   23.7232 O   0  0  0  0  0  0
  -29.1389  -18.5211   17.9137 C   0  0  0  0  0  0
  -29.0741  -19.7613   18.5635 C   0  0  0  0  0  0
  -29.4468  -17.3190   18.5870 C   0  0  0  0  0  0
  -29.3129  -19.8897   19.9439 C   0  0  0  0  0  0
  -29.6939  -17.3073   19.9940 C   0  0  0  0  0  0
  -29.6182  -18.6309   20.6503 C   0  0  0  0  0  0
  -28.7425  -23.6622   20.3780 C   0  0  0  0  0  0
  -30.1665  -23.5403   20.6290 C   0  0  0  0  0  0
  -28.2587  -22.2453   20.2716 C   0  0  0  0  0  0
  -28.4761  -15.8129   16.8535 C   0  0  0  0  0  0
  -29.4250  -16.1045   17.7599 C   0  0  0  0  0  0
  -27.9659  -24.8225   20.2351 C   0  0  0  0  0  0
  -30.5268  -22.0445   20.7371 C   0  0  0  0  0  0
  -29.2805  -21.3112   20.4446 N   0  0  0  0  0  0
  -29.8097  -15.9708   20.6942 N   0  0  0  0  0  0
  -30.9892  -24.4535   20.7573 O   0  0  0  0  0  0
  -27.0855  -21.9171   20.0579 O   0  0  0  0  0  0
  -29.8264  -18.6881   21.9874 F   0  0  0  0  0  0
  -31.4812  -12.6224   19.2057 H   0  0  0  0  0  0
  -30.4091  -11.5302   20.0309 H   0  0  0  0  0  0
  -29.8088  -11.6298   17.6177 H   0  0  0  0  0  0
  -29.6745  -13.3543   17.6688 H   0  0  0  0  0  0
  -27.8806  -11.2815   18.9329 H   0  0  0  0  0  0
  -27.4029  -12.5188   17.8024 H   0  0  0  0  0  0
  -27.6296  -14.2572   19.4563 H   0  0  0  0  0  0
  -28.7298  -12.2173   21.4482 H   0  0  0  0  0  0
  -28.4007  -13.8964   21.7894 H   0  0  0  0  0  0
  -25.2768   -9.5686   22.4748 H   0  0  0  0  0  0
  -24.0000   -7.4639   22.7457 H   0  0  0  0  0  0
  -21.0848   -8.8778   19.8945 H   0  0  0  0  0  0
  -22.3701  -10.9672   19.6144 H   0  0  0  0  0  0
  -21.1998   -7.6146   23.9714 H   0  0  0  0  0  0
  -21.1492   -6.0521   25.9076 H   0  0  0  0  0  0
  -22.0594   -2.7607   23.2839 H   0  0  0  0  0  0
  -22.4113  -11.9841   22.4796 H   0  0  0  0  0  0
  -21.1106  -13.1201   22.2677 H   0  0  0  0  0  0
  -24.6517  -15.8491   20.5141 H   0  0  0  0  0  0
  -26.2649  -15.6292   20.0638 H   0  0  0  0  0  0
  -26.7237  -32.5371   23.1067 H   0  0  0  0  0  0
  -25.0125  -33.9685   25.0405 H   0  0  0  0  0  0
  -22.7341  -31.2993   21.3949 H   0  0  0  0  0  0
  -23.3767  -35.9583   23.3274 H   0  0  0  0  0  0
  -24.3586  -36.8921   22.2060 H   0  0  0  0  0  0
  -23.7216  -37.6449   23.6687 H   0  0  0  0  0  0
  -26.1359  -31.5025   20.6207 H   0  0  0  0  0  0
  -26.8597  -30.7934   22.0302 H   0  0  0  0  0  0
  -28.1078  -28.8428   21.2728 H   0  0  0  0  0  0
  -25.9566  -25.9572   18.8780 H   0  0  0  0  0  0
  -23.9915  -27.3527   18.9279 H   0  0  0  0  0  0
  -23.7898  -30.5937   19.4044 H   0  0  0  0  0  0
  -22.7752  -29.2534   19.8456 H   0  0  0  0  0  0
  -25.1298  -36.1897   25.0815 H   0  0  0  0  0  0
  -20.9996  -28.3282   24.1373 H   0  0  0  0  0  0
  -20.5671  -26.2323   23.3620 H   0  0  0  0  0  0
  -21.6648  -26.7428   22.1203 H   0  0  0  0  0  0
  -19.6912  -25.6281   21.1257 H   0  0  0  0  0  0
  -19.6688  -27.3174   20.6733 H   0  0  0  0  0  0
  -17.4207  -26.6686   21.4027 H   0  0  0  0  0  0
  -18.0332  -26.0071   22.9016 H   0  0  0  0  0  0
  -19.7951  -30.7292   24.2235 H   0  0  0  0  0  0
  -17.5025  -31.6269   24.5163 H   0  0  0  0  0  0
  -15.5362  -30.2980   23.7667 H   0  0  0  0  0  0
  -15.8685  -28.0814   22.7082 H   0  0  0  0  0  0
  -24.5911  -30.7089   25.7766 H   0  0  0  0  0  0
  -24.8892  -32.2934   26.4815 H   0  0  0  0  0  0
  -25.8008  -30.8971   27.0252 H   0  0  0  0  0  0
  -26.3004  -29.6722   24.1274 H   0  0  0  0  0  0
  -27.4019  -29.7283   25.4833 H   0  0  0  0  0  0
  -27.8901  -30.4261   23.9587 H   0  0  0  0  0  0
  -27.2678  -33.3661   26.2048 H   0  0  0  0  0  0
  -28.3904  -32.6851   25.0362 H   0  0  0  0  0  0
  -28.0701  -31.8490   26.5472 H   0  0  0  0  0  0
  -28.2568  -38.0116   24.7554 H   0  0  0  0  0  0
  -28.1110  -36.2648   24.6228 H   0  0  0  0  0  0
  -27.2310  -37.1357   25.8867 H   0  0  0  0  0  0
  -20.9426  -29.8792   21.6854 H   0  0  0  0  0  0
  -26.0152  -38.2834   24.1450 H   0  0  0  0  0  0
  -28.9509  -18.5027   16.8489 H   0  0  0  0  0  0
  -28.8522  -20.6351   17.9668 H   0  0  0  0  0  0
  -28.5344  -14.9153   16.2547 H   0  0  0  0  0  0
  -27.6253  -16.4604   16.6940 H   0  0  0  0  0  0
  -30.2636  -15.4353   17.8646 H   0  0  0  0  0  0
  -26.9125  -24.6426   20.1041 H   0  0  0  0  0  0
  -30.8837  -21.8133   21.7408 H   0  0  0  0  0  0
  -31.3046  -21.7905   20.0169 H   0  0  0  0  0  0
  -28.9988  -15.7620   21.2557 H   0  0  0  0  0  0
  1 25  1  0  0  0
  1 30  2  0  0  0
  1 85  1  0  0  0
  2  3  1  0  0  0
  2 25  1  0  0  0
  2 89  1  0  0  0
  2 90  1  0  0  0
  3  4  1  0  0  0
  3 91  1  0  0  0
  3 92  1  0  0  0
  4  5  1  0  0  0
  4 93  1  0  0  0
  4 94  1  0  0  0
  5  6  1  0  0  0
  5 26  1  0  0  0
  5 95  1  0  0  0
  6 25  1  0  0  0
  6 96  1  0  0  0
  6 97  1  0  0  0
  7  8  2  0  0  0
  7 26  1  0  0  0
  7 29  1  0  0  0
  8  9  1  0  0  0
  8 22  1  0  0  0
  9 10  1  0  0  0
  9 27  2  0  0  0
 10 11  2  0  0  0
 10 15  1  0  0  0
 11 12  1  0  0  0
 11 98  1  0  0  0
 12 13  2  0  0  0
 12 99  1  0  0  0
 13 14  1  0  0  0
 13 31  1  0  0  0
 14 15  2  0  0  0
 14100  1  0  0  0
 15101  1  0  0  0
 16 17  2  0  0  0
 16 21  1  0  0  0
 16 31  1  0  0  0
 17 18  1  0  0  0
 17102  1  0  0  0
 18 19  2  0  0  0
 18103  1  0  0  0
 19 20  1  0  0  0
 19 24  1  0  0  0
 20 21  2  0  0  0
 20104  1  0  0  0
 21 23  1  0  0  0
 22 28  1  0  0  0
 22 32  2  0  0  0
 26 27  1  0  0  0
 28105  1  0  0  0
 28106  1  0  0  0
 29107  1  0  0  0
 29108  1  0  0  0
 33 34  1  0  0  0
 33 66  1  0  0  0
 33 70  2  0  0  0
 34 36  1  0  0  0
 34 59  1  0  0  0
 34109  1  0  0  0
 35 44  2  0  0  0
 35 45  1  0  0  0
 35 68  1  0  0  0
 36 56  1  0  0  0
 36110  1  0  0  0
 37 39  1  0  0  0
 37 47  1  0  0  0
 37 66  1  0  0  0
 37111  1  0  0  0
 38 43  2  0  0  0
 38 46  1  0  0  0
 38 47  1  0  0  0
 39 64  1  0  0  0
 39 67  2  0  0  0
 40 52  1  0  0  0
 40 53  2  0  0  0
 40 58  1  0  0  0
 41112  1  0  0  0
 41113  1  0  0  0
 41114  1  0  0  0
 41 48  1  0  0  0
 42 43  1  0  0  0
 42 66  1  0  0  0
 42115  1  0  0  0
 42116  1  0  0  0
 43 44  1  0  0  0
 44117  1  0  0  0
 45 46  2  0  0  0
 45118  1  0  0  0
 46119  1  0  0  0
 47120  1  0  0  0
 47121  1  0  0  0
 48 56  1  0  0  0
 48 65  1  0  0  0
 48122  1  0  0  0
 49 50  1  0  0  0
 49 53  1  0  0  0
 49 64  1  0  0  0
 49123  1  0  0  0
 50 51  1  0  0  0
 50124  1  0  0  0
 50125  1  0  0  0
 51 52  1  0  0  0
 51126  1  0  0  0
 51127  1  0  0  0
 52128  1  0  0  0
 52129  1  0  0  0
 53 54  1  0  0  0
 54 55  2  0  0  0
 54130  1  0  0  0
 55 57  1  0  0  0
 55131  1  0  0  0
 56 69  2  0  0  0
 57 58  2  0  0  0
 57132  1  0  0  0
 58133  1  0  0  0
 59 60  1  0  0  0
 59 61  1  0  0  0
 59 62  1  0  0  0
 60134  1  0  0  0
 60135  1  0  0  0
 60136  1  0  0  0
 61137  1  0  0  0
 61138  1  0  0  0
 61139  1  0  0  0
 62140  1  0  0  0
 62141  1  0  0  0
 62142  1  0  0  0
 63 65  1  0  0  0
 63143  1  0  0  0
 63144  1  0  0  0
 63145  1  0  0  0
 64146  1  0  0  0
 65147  1  0  0  0
 68 82  1  0  0  0
 71 72  2  0  0  0
 71 73  1  0  0  0
 71148  1  0  0  0
 72 74  1  0  0  0
 72149  1  0  0  0
 73 75  2  0  0  0
 73 81  1  0  0  0
 74 76  2  0  0  0
 74 84  1  0  0  0
 75 76  1  0  0  0
 75 85  1  0  0  0
 76 88  1  0  0  0
 77 78  1  0  0  0
 77 79  1  0  0  0
 77 82  2  0  0  0
 78 83  1  0  0  0
 78 86  2  0  0  0
 79 84  1  0  0  0
 79 87  2  0  0  0
 80 81  2  0  0  0
 80150  1  0  0  0
 80151  1  0  0  0
 81152  1  0  0  0
 82153  1  0  0  0
 83 84  1  0  0  0
 83154  1  0  0  0
 83155  1  0  0  0
 85156  1  0  0  0
M  ISO  4   1 100  68 101  82 101  85 100
M  END
> <chiral flag>
0

> <version>
0

> <s_m_source_file>
/data/baiqing/PycharmProjects/Reinvent-master-3.2/result/LINK_invent/BTK/process_docking_weight1_custom_product_contain_oxygen_bond_distance_aromatic_linkinvent_7_9_3/rearranged_h_0088.sdf

> <i_m_source_file_index>
35

> <r_mmod_Potential_Energy-OPLS-2005>
345.632202148438

> <r_mmod_Stretch_Energy-OPLS-2005>
159.45964050293

> <r_mmod_Bend_Energy-OPLS-2005>
230.091781616211

> <r_mmod_Torsional_Energy-OPLS-2005>
335.041687011719

> <r_mmod_Improper_Torsional_Energy-OPLS-2005>
7.07776880264282

> <r_mmod_Van_der_Waal_Energy-OPLS-2005>
136.729461669922

> <r_mmod_Electrostatic_Energy-OPLS-2005>
-417.594055175781

> <r_mmod_Solvation_Energy-OPLS-2005>
-234.405624389648

> <b_mmod_Minimization_Converged-OPLS-2005>
0

> <r_mmod_RMS_Derivative-OPLS-2005>
1.02096605300903

$$$$
35
                    3D
 Structure written by MMmdl.
152160  0  0  1  0            999 V2000
  -30.5744  -14.8060   20.4025 C   0  0  0  0  0  0
  -30.4328  -12.4767   19.4941 C   0  0  0  0  0  0
  -29.5173  -12.4807   18.2507 C   0  0  0  0  0  0
  -28.0404  -12.3215   18.6596 C   0  0  0  0  0  0
  -27.6384  -13.2359   19.8487 C   0  0  2  0  0  0
  -28.6794  -13.1968   20.9882 C   0  0  0  0  0  0
  -25.2477  -13.8210   20.5677 C   0  0  0  0  0  0
  -24.1776  -13.0439   20.9199 C   0  0  0  0  0  0
  -24.6386  -11.6920   20.8736 C   0  0  0  0  0  0
  -23.9067  -10.4292   21.0389 C   0  0  0  0  0  0
  -24.3616   -9.4205   21.9166 C   0  0  0  0  0  0
  -23.6291   -8.2236   22.0742 C   0  0  0  0  0  0
  -22.4268   -8.0282   21.3542 C   0  0  0  0  0  0
  -21.9909   -9.0246   20.4632 C   0  0  0  0  0  0
  -22.7239  -10.2124   20.3040 C   0  0  0  0  0  0
  -21.6850   -6.0736   22.5285 C   0  0  0  0  0  0
  -21.4001   -6.5637   23.8221 C   0  0  0  0  0  0
  -21.3675   -5.6796   24.9185 C   0  0  0  0  0  0
  -21.6053   -4.3057   24.7233 C   0  0  0  0  0  0
  -21.8821   -3.8151   23.4349 C   0  0  0  0  0  0
  -21.9185   -4.6964   22.3403 C   0  0  0  0  0  0
  -22.7800  -13.5198   21.1892 C   0  0  0  0  0  0
  -22.1642   -4.2153   21.0979 F   0  0  0  0  0  0
  -21.5655   -3.4540   25.7750 F   0  0  0  0  0  0
  -29.9756  -13.5597   20.4018 N   0  0  0  0  0  0
  -26.2913  -12.9426   20.3275 N   0  0  0  0  0  0
  -25.9320  -11.6568   20.5758 N   0  0  0  0  0  0
  -22.0476  -12.8163   22.0462 N   0  0  0  0  0  0
  -25.4162  -15.1938   20.4105 N   0  0  0  0  0  0
  -31.7732  -14.8859   20.1150 O   0  0  0  0  0  0
  -21.6639   -6.8873   21.4245 O   0  0  0  0  0  0
  -22.3462  -14.5513   20.6783 O   0  0  0  0  0  0
  -24.6337  -31.8518   23.1953 C   0  0  0  0  0  0
  -25.9156  -32.4738   23.8314 C   0  0  1  0  0  0
  -27.2289  -27.2331   20.1270 C   0  0  0  0  0  0
  -25.5940  -33.8543   24.2236 N   0  0  0  0  0  0
  -23.4337  -30.4739   21.5358 C   0  0  2  0  0  0
  -24.8852  -28.9177   20.1055 C   0  0  0  0  0  0
  -22.7512  -29.4595   22.4862 C   0  0  0  0  0  0
  -18.0287  -28.1393   22.8488 C   0  0  0  0  0  0
  -24.1497  -36.7278   23.2644 C   0  0  0  0  0  0
  -25.9826  -30.7558   21.3814 C   0  0  0  0  0  0
  -26.0558  -29.3770   20.7203 C   0  0  0  0  0  0
  -27.2264  -28.5458   20.7226 C   0  0  0  0  0  0
  -26.0289  -26.8488   19.4855 C   0  0  0  0  0  0
  -24.8793  -27.6634   19.4768 C   0  0  0  0  0  0
  -23.6559  -29.8063   20.1522 C   0  0  0  0  0  0
  -25.4125  -36.3058   24.0326 C   0  0  1  0  0  0
  -20.5900  -28.3713   23.1246 C   0  0  2  0  0  0
  -20.6769  -26.9421   22.5403 C   0  0  0  0  0  0
  -19.5740  -26.6385   21.5212 C   0  0  0  0  0  0
  -18.1924  -26.7936   22.1622 C   0  0  0  0  0  0
  -19.1547  -28.8868   23.2870 C   0  0  0  0  0  0
  -18.9465  -30.1471   23.8893 C   0  0  0  0  0  0
  -17.6463  -30.6595   24.0567 C   0  0  0  0  0  0
  -25.9061  -34.9432   23.5083 C   0  0  0  0  0  0
  -16.5357  -29.9093   23.6335 C   0  0  0  0  0  0
  -16.7276  -28.6511   23.0360 C   0  0  0  0  0  0
  -26.4517  -31.6576   25.0714 C   0  0  0  0  0  0
  -25.3726  -31.3717   26.1416 C   0  0  0  0  0  0
  -27.0407  -30.3003   24.6237 C   0  0  0  0  0  0
  -27.6059  -32.4341   25.7477 C   0  0  0  0  0  0
  -27.5582  -37.1795   24.8468 C   0  0  0  0  0  0
  -21.4212  -29.3068   22.3628 N   0  0  0  0  0  0
  -26.4296  -37.3759   23.9409 N   0  0  0  0  0  0
  -24.7022  -31.0465   22.0936 N   0  0  0  0  0  0
  -23.4199  -28.8134   23.2969 O   0  0  0  0  0  0
  -28.3186  -26.3217   20.2218 O   0  0  0  0  0  0
  -26.5626  -34.8913   22.4649 O   0  0  0  0  0  0
  -23.5480  -32.1350   23.7233 O   0  0  0  0  0  0
  -30.1518  -18.6294   17.8157 C   0  0  0  0  0  0
  -29.8694  -19.8429   18.4569 C   0  0  0  0  0  0
  -29.5050  -18.6053   20.5122 C   0  0  0  0  0  0
  -30.0850  -17.3883   18.4805 C   0  0  0  0  0  0
  -29.4753  -19.9026   19.8099 C   0  0  0  0  0  0
  -29.8372  -17.3114   19.8838 C   0  0  0  0  0  0
  -28.7401  -23.7848   20.3578 C   0  0  0  0  0  0
  -28.2644  -24.9596   19.7628 C   0  0  0  0  0  0
  -28.6884  -22.4176   19.6983 C   0  0  0  0  0  0
  -30.1830  -16.1617   17.5918 C   0  0  0  0  0  0
  -29.1521  -21.2698   20.3644 N   0  0  0  0  0  0
  -29.7868  -15.9575   20.5535 N   0  0  0  0  0  0
  -28.2094  -22.3062   18.5669 O   0  0  0  0  0  0
  -31.4733  -12.6043   19.1902 H   0  0  0  0  0  0
  -30.3854  -11.5101   19.9978 H   0  0  0  0  0  0
  -29.8053  -11.6817   17.5680 H   0  0  0  0  0  0
  -29.6531  -13.4022   17.6907 H   0  0  0  0  0  0
  -27.8964  -11.2770   18.9393 H   0  0  0  0  0  0
  -27.3881  -12.4997   17.8031 H   0  0  0  0  0  0
  -27.6269  -14.2519   19.4548 H   0  0  0  0  0  0
  -28.7208  -12.2081   21.4484 H   0  0  0  0  0  0
  -28.4074  -13.8918   21.7847 H   0  0  0  0  0  0
  -25.2766   -9.5695   22.4738 H   0  0  0  0  0  0
  -24.0016   -7.4628   22.7456 H   0  0  0  0  0  0
  -21.0845   -8.8742   19.8930 H   0  0  0  0  0  0
  -22.3680  -10.9648   19.6144 H   0  0  0  0  0  0
  -21.1965   -7.6141   23.9723 H   0  0  0  0  0  0
  -21.1509   -6.0523   25.9088 H   0  0  0  0  0  0
  -22.0586   -2.7613   23.2857 H   0  0  0  0  0  0
  -22.4081  -11.9770   22.4759 H   0  0  0  0  0  0
  -21.1125  -13.1208   22.2763 H   0  0  0  0  0  0
  -24.6488  -15.8485   20.5216 H   0  0  0  0  0  0
  -26.2690  -15.6375   20.0942 H   0  0  0  0  0  0
  -26.7221  -32.5384   23.1052 H   0  0  0  0  0  0
  -25.0122  -33.9682   25.0406 H   0  0  0  0  0  0
  -22.7341  -31.2988   21.3846 H   0  0  0  0  0  0
  -23.3768  -35.9600   23.3288 H   0  0  0  0  0  0
  -24.3596  -36.8918   22.2067 H   0  0  0  0  0  0
  -23.7243  -37.6470   23.6686 H   0  0  0  0  0  0
  -26.1308  -31.5185   20.6164 H   0  0  0  0  0  0
  -26.8553  -30.8027   22.0203 H   0  0  0  0  0  0
  -28.1181  -28.8881   21.2295 H   0  0  0  0  0  0
  -25.9403  -25.8843   19.0109 H   0  0  0  0  0  0
  -23.9819  -27.3052   18.9915 H   0  0  0  0  0  0
  -23.7832  -30.5816   19.3953 H   0  0  0  0  0  0
  -22.7756  -29.2391   19.8454 H   0  0  0  0  0  0
  -25.1314  -36.1896   25.0822 H   0  0  0  0  0  0
  -21.0008  -28.3297   24.1362 H   0  0  0  0  0  0
  -20.5663  -26.2331   23.3624 H   0  0  0  0  0  0
  -21.6636  -26.7428   22.1201 H   0  0  0  0  0  0
  -19.6898  -25.6289   21.1253 H   0  0  0  0  0  0
  -19.6679  -27.3184   20.6735 H   0  0  0  0  0  0
  -17.4197  -26.6710   21.4021 H   0  0  0  0  0  0
  -18.0309  -26.0073   22.9010 H   0  0  0  0  0  0
  -19.7940  -30.7289   24.2262 H   0  0  0  0  0  0
  -17.5015  -31.6273   24.5165 H   0  0  0  0  0  0
  -15.5361  -30.2996   23.7656 H   0  0  0  0  0  0
  -15.8675  -28.0830   22.7079 H   0  0  0  0  0  0
  -24.5911  -30.7072   25.7709 H   0  0  0  0  0  0
  -24.8918  -32.2888   26.4834 H   0  0  0  0  0  0
  -25.8028  -30.8878   27.0192 H   0  0  0  0  0  0
  -26.3019  -29.6699   24.1280 H   0  0  0  0  0  0
  -27.4115  -29.7319   25.4775 H   0  0  0  0  0  0
  -27.8870  -30.4295   23.9485 H   0  0  0  0  0  0
  -27.2666  -33.3661   26.2005 H   0  0  0  0  0  0
  -28.3875  -32.6868   25.0301 H   0  0  0  0  0  0
  -28.0716  -31.8503   26.5424 H   0  0  0  0  0  0
  -28.2580  -38.0109   24.7529 H   0  0  0  0  0  0
  -28.1096  -36.2643   24.6274 H   0  0  0  0  0  0
  -27.2302  -37.1406   25.8868 H   0  0  0  0  0  0
  -20.9388  -29.8836   21.6875 H   0  0  0  0  0  0
  -26.0169  -38.2827   24.1413 H   0  0  0  0  0  0
  -30.3892  -18.6605   16.7606 H   0  0  0  0  0  0
  -29.9500  -20.7393   17.8605 H   0  0  0  0  0  0
  -29.2517  -18.5992   21.5620 H   0  0  0  0  0  0
  -29.1913  -23.8557   21.3352 H   0  0  0  0  0  0
  -27.8156  -24.9084   18.7804 H   0  0  0  0  0  0
  -30.1449  -16.4251   16.5345 H   0  0  0  0  0  0
  -29.3195  -15.5257   17.7780 H   0  0  0  0  0  0
  -31.1064  -15.6085   17.7517 H   0  0  0  0  0  0
  -29.3326  -21.3958   21.3509 H   0  0  0  0  0  0
  -28.9289  -15.7817   21.0552 H   0  0  0  0  0  0
  1 25  1  0  0  0
  1 30  2  0  0  0
  1 82  1  0  0  0
  2  3  1  0  0  0
  2 25  1  0  0  0
  2 84  1  0  0  0
  2 85  1  0  0  0
  3  4  1  0  0  0
  3 86  1  0  0  0
  3 87  1  0  0  0
  4  5  1  0  0  0
  4 88  1  0  0  0
  4 89  1  0  0  0
  5  6  1  0  0  0
  5 26  1  0  0  0
  5 90  1  0  0  0
  6 25  1  0  0  0
  6 91  1  0  0  0
  6 92  1  0  0  0
  7  8  2  0  0  0
  7 26  1  0  0  0
  7 29  1  0  0  0
  8  9  1  0  0  0
  8 22  1  0  0  0
  9 10  1  0  0  0
  9 27  2  0  0  0
 10 11  2  0  0  0
 10 15  1  0  0  0
 11 12  1  0  0  0
 11 93  1  0  0  0
 12 13  2  0  0  0
 12 94  1  0  0  0
 13 14  1  0  0  0
 13 31  1  0  0  0
 14 15  2  0  0  0
 14 95  1  0  0  0
 15 96  1  0  0  0
 16 17  2  0  0  0
 16 21  1  0  0  0
 16 31  1  0  0  0
 17 18  1  0  0  0
 17 97  1  0  0  0
 18 19  2  0  0  0
 18 98  1  0  0  0
 19 20  1  0  0  0
 19 24  1  0  0  0
 20 21  2  0  0  0
 20 99  1  0  0  0
 21 23  1  0  0  0
 22 28  1  0  0  0
 22 32  2  0  0  0
 26 27  1  0  0  0
 28100  1  0  0  0
 28101  1  0  0  0
 29102  1  0  0  0
 29103  1  0  0  0
 33 34  1  0  0  0
 33 66  1  0  0  0
 33 70  2  0  0  0
 34 36  1  0  0  0
 34 59  1  0  0  0
 34104  1  0  0  0
 35 44  2  0  0  0
 35 45  1  0  0  0
 35 68  1  0  0  0
 36 56  1  0  0  0
 36105  1  0  0  0
 37 39  1  0  0  0
 37 47  1  0  0  0
 37 66  1  0  0  0
 37106  1  0  0  0
 38 43  2  0  0  0
 38 46  1  0  0  0
 38 47  1  0  0  0
 39 64  1  0  0  0
 39 67  2  0  0  0
 40 52  1  0  0  0
 40 53  2  0  0  0
 40 58  1  0  0  0
 41107  1  0  0  0
 41108  1  0  0  0
 41109  1  0  0  0
 41 48  1  0  0  0
 42 43  1  0  0  0
 42 66  1  0  0  0
 42110  1  0  0  0
 42111  1  0  0  0
 43 44  1  0  0  0
 44112  1  0  0  0
 45 46  2  0  0  0
 45113  1  0  0  0
 46114  1  0  0  0
 47115  1  0  0  0
 47116  1  0  0  0
 48 56  1  0  0  0
 48 65  1  0  0  0
 48117  1  0  0  0
 49 50  1  0  0  0
 49 53  1  0  0  0
 49 64  1  0  0  0
 49118  1  0  0  0
 50 51  1  0  0  0
 50119  1  0  0  0
 50120  1  0  0  0
 51 52  1  0  0  0
 51121  1  0  0  0
 51122  1  0  0  0
 52123  1  0  0  0
 52124  1  0  0  0
 53 54  1  0  0  0
 54 55  2  0  0  0
 54125  1  0  0  0
 55 57  1  0  0  0
 55126  1  0  0  0
 56 69  2  0  0  0
 57 58  2  0  0  0
 57127  1  0  0  0
 58128  1  0  0  0
 59 60  1  0  0  0
 59 61  1  0  0  0
 59 62  1  0  0  0
 60129  1  0  0  0
 60130  1  0  0  0
 60131  1  0  0  0
 61132  1  0  0  0
 61133  1  0  0  0
 61134  1  0  0  0
 62135  1  0  0  0
 62136  1  0  0  0
 62137  1  0  0  0
 63 65  1  0  0  0
 63138  1  0  0  0
 63139  1  0  0  0
 63140  1  0  0  0
 64141  1  0  0  0
 65142  1  0  0  0
 68 78  1  0  0  0
 71 72  2  0  0  0
 71 74  1  0  0  0
 71143  1  0  0  0
 72 75  1  0  0  0
 72144  1  0  0  0
 73 75  2  0  0  0
 73 76  1  0  0  0
 73145  1  0  0  0
 74 76  2  0  0  0
 74 80  1  0  0  0
 75 81  1  0  0  0
 76 82  1  0  0  0
 77 78  2  0  0  0
 77 79  1  0  0  0
 77146  1  0  0  0
 78147  1  0  0  0
 79 81  1  0  0  0
 79 83  2  0  0  0
 80148  1  0  0  0
 80149  1  0  0  0
 80150  1  0  0  0
 81151  1  0  0  0
 82152  1  0  0  0
M  ISO  4   1 100  68 101  78 101  82 100
M  END
> <chiral flag>
0

> <version>
0

> <s_m_source_file>
/data/baiqing/PycharmProjects/Reinvent-master-3.2/result/LINK_invent/BTK/process_docking_weight1_custom_product_contain_oxygen_bond_distance_aromatic_linkinvent_7_9_3/rearranged_h_0088.sdf

> <i_m_source_file_index>
36

> <r_mmod_Potential_Energy-OPLS-2005>
219.323928833008

> <r_mmod_Stretch_Energy-OPLS-2005>
156.102005004883

> <r_mmod_Bend_Energy-OPLS-2005>
173.246215820312

> <r_mmod_Torsional_Energy-OPLS-2005>
260.843444824219

> <r_mmod_Improper_Torsional_Energy-OPLS-2005>
5.73012542724609

> <r_mmod_Van_der_Waal_Energy-OPLS-2005>
148.972320556641

> <r_mmod_Electrostatic_Energy-OPLS-2005>
-406.466217041016

> <r_mmod_Solvation_Energy-OPLS-2005>
-230.542221069336

> <b_mmod_Minimization_Converged-OPLS-2005>
0

> <r_mmod_RMS_Derivative-OPLS-2005>
2.04637885093689

$$$$
36
                    3D
 Structure written by MMmdl.
150159  0  0  1  0            999 V2000
  -30.5729  -14.7439   20.4846 C   0  0  0  0  0  0
  -30.4506  -12.4572   19.4680 C   0  0  0  0  0  0
  -29.5163  -12.5185   18.2365 C   0  0  0  0  0  0
  -28.0410  -12.3387   18.6486 C   0  0  0  0  0  0
  -27.6511  -13.2227   19.8625 C   0  0  2  0  0  0
  -28.6967  -13.1104   20.9949 C   0  0  0  0  0  0
  -25.2544  -13.8170   20.5678 C   0  0  0  0  0  0
  -24.1818  -13.0431   20.9182 C   0  0  0  0  0  0
  -24.6402  -11.6908   20.8743 C   0  0  0  0  0  0
  -23.9073  -10.4290   21.0407 C   0  0  0  0  0  0
  -24.3622   -9.4205   21.9183 C   0  0  0  0  0  0
  -23.6295   -8.2241   22.0754 C   0  0  0  0  0  0
  -22.4276   -8.0281   21.3546 C   0  0  0  0  0  0
  -21.9913   -9.0257   20.4649 C   0  0  0  0  0  0
  -22.7245  -10.2134   20.3059 C   0  0  0  0  0  0
  -21.6853   -6.0733   22.5279 C   0  0  0  0  0  0
  -21.4013   -6.5637   23.8211 C   0  0  0  0  0  0
  -21.3659   -5.6792   24.9175 C   0  0  0  0  0  0
  -21.6045   -4.3054   24.7227 C   0  0  0  0  0  0
  -21.8821   -3.8146   23.4349 C   0  0  0  0  0  0
  -21.9193   -4.6961   22.3404 C   0  0  0  0  0  0
  -22.7841  -13.5223   21.1847 C   0  0  0  0  0  0
  -22.1658   -4.2144   21.0983 F   0  0  0  0  0  0
  -21.5636   -3.4538   25.7742 F   0  0  0  0  0  0
  -30.0028  -13.4897   20.4304 N   0  0  0  0  0  0
  -26.2985  -12.9366   20.3328 N   0  0  0  0  0  0
  -25.9337  -11.6516   20.5772 N   0  0  0  0  0  0
  -22.0491  -12.8218   22.0413 N   0  0  0  0  0  0
  -25.4238  -15.1887   20.4079 N   0  0  0  0  0  0
  -31.7307  -14.9218   20.0917 O   0  0  0  0  0  0
  -21.6643   -6.8876   21.4241 O   0  0  0  0  0  0
  -22.3518  -14.5524   20.6694 O   0  0  0  0  0  0
  -24.6312  -31.8552   23.1981 C   0  0  0  0  0  0
  -25.9133  -32.4756   23.8332 C   0  0  1  0  0  0
  -27.2254  -27.2666   20.1305 C   0  0  0  0  0  0
  -25.5925  -33.8558   24.2251 N   0  0  0  0  0  0
  -23.4299  -30.4766   21.5411 C   0  0  2  0  0  0
  -24.8814  -28.9256   20.1086 C   0  0  0  0  0  0
  -22.7508  -29.4596   22.4906 C   0  0  0  0  0  0
  -18.0296  -28.1381   22.8488 C   0  0  0  0  0  0
  -24.1489  -36.7288   23.2640 C   0  0  0  0  0  0
  -25.9760  -30.7680   21.3805 C   0  0  0  0  0  0
  -26.0526  -29.3912   20.7222 C   0  0  0  0  0  0
  -27.2300  -28.5729   20.7259 C   0  0  0  0  0  0
  -26.0365  -26.8730   19.4798 C   0  0  0  0  0  0
  -24.8778  -27.6733   19.4756 C   0  0  0  0  0  0
  -23.6499  -29.8102   20.1576 C   0  0  0  0  0  0
  -25.4116  -36.3072   24.0324 C   0  0  1  0  0  0
  -20.5899  -28.3698   23.1263 C   0  0  2  0  0  0
  -20.6780  -26.9414   22.5406 C   0  0  0  0  0  0
  -19.5753  -26.6379   21.5212 C   0  0  0  0  0  0
  -18.1937  -26.7921   22.1632 C   0  0  0  0  0  0
  -19.1550  -28.8857   23.2869 C   0  0  0  0  0  0
  -18.9470  -30.1459   23.8886 C   0  0  0  0  0  0
  -17.6468  -30.6585   24.0562 C   0  0  0  0  0  0
  -25.9055  -34.9441   23.5092 C   0  0  0  0  0  0
  -16.5359  -29.9082   23.6329 C   0  0  0  0  0  0
  -16.7282  -28.6498   23.0354 C   0  0  0  0  0  0
  -26.4499  -31.6580   25.0723 C   0  0  0  0  0  0
  -25.3722  -31.3746   26.1445 C   0  0  0  0  0  0
  -27.0342  -30.2990   24.6221 C   0  0  0  0  0  0
  -27.6045  -32.4328   25.7501 C   0  0  0  0  0  0
  -27.5579  -37.1799   24.8466 C   0  0  0  0  0  0
  -21.4213  -29.3045   22.3650 N   0  0  0  0  0  0
  -26.4293  -37.3768   23.9407 N   0  0  0  0  0  0
  -24.6978  -31.0512   22.0961 N   0  0  0  0  0  0
  -23.4203  -28.8140   23.3013 O   0  0  0  0  0  0
  -28.2755  -26.3192   20.1831 O   0  0  0  0  0  0
  -26.5635  -34.8917   22.4666 O   0  0  0  0  0  0
  -23.5459  -32.1376   23.7270 O   0  0  0  0  0  0
  -30.3145  -19.5787   20.0086 C   0  0  0  0  0  0
  -30.5504  -18.1502   20.0558 C   0  0  0  0  0  0
  -28.3987  -19.3223   21.3474 C   0  0  0  0  0  0
  -29.2225  -20.2587   20.6507 C   0  0  0  0  0  0
  -29.6892  -17.2567   20.7605 C   0  0  0  0  0  0
  -28.6057  -17.9086   21.4006 C   0  0  0  0  0  0
  -28.4365  -23.7433   20.6153 C   0  0  0  0  0  0
  -27.9263  -22.5486   21.2796 C   0  0  0  0  0  0
  -27.9439  -25.0446   20.7333 C   0  0  0  0  0  0
  -29.5123  -22.8520   19.9215 C   0  0  0  0  0  0
  -28.8910  -21.7178   20.6722 N   0  0  0  0  0  0
  -29.7381  -15.7750   20.8724 N   0  0  0  0  0  0
  -26.9982  -22.4039   22.0491 O   0  0  0  0  0  0
  -27.7206  -17.1472   22.0893 F   0  0  0  0  0  0
  -31.4870  -12.6091   19.1613 H   0  0  0  0  0  0
  -30.4182  -11.4692   19.9296 H   0  0  0  0  0  0
  -29.7977  -11.7532   17.5117 H   0  0  0  0  0  0
  -29.6392  -13.4774   17.7308 H   0  0  0  0  0  0
  -27.8952  -11.2872   18.8979 H   0  0  0  0  0  0
  -27.3831  -12.5438   17.8033 H   0  0  0  0  0  0
  -27.6575  -14.2525   19.5042 H   0  0  0  0  0  0
  -28.7333  -12.0916   21.3832 H   0  0  0  0  0  0
  -28.4234  -13.7411   21.8422 H   0  0  0  0  0  0
  -25.2768   -9.5677   22.4757 H   0  0  0  0  0  0
  -24.0004   -7.4632   22.7473 H   0  0  0  0  0  0
  -21.0844   -8.8778   19.8955 H   0  0  0  0  0  0
  -22.3704  -10.9674   19.6171 H   0  0  0  0  0  0
  -21.2001   -7.6143   23.9713 H   0  0  0  0  0  0
  -21.1480   -6.0522   25.9078 H   0  0  0  0  0  0
  -22.0599   -2.7606   23.2853 H   0  0  0  0  0  0
  -22.4114  -11.9884   22.4802 H   0  0  0  0  0  0
  -21.1115  -13.1246   22.2635 H   0  0  0  0  0  0
  -24.6615  -15.8447   20.5357 H   0  0  0  0  0  0
  -26.2880  -15.6369   20.1328 H   0  0  0  0  0  0
  -26.7203  -32.5410   23.1078 H   0  0  0  0  0  0
  -25.0051  -33.9694   25.0382 H   0  0  0  0  0  0
  -22.7265  -31.2988   21.3937 H   0  0  0  0  0  0
  -23.3748  -35.9625   23.3305 H   0  0  0  0  0  0
  -24.3576  -36.8910   22.2054 H   0  0  0  0  0  0
  -23.7250  -37.6493   23.6663 H   0  0  0  0  0  0
  -26.1156  -31.5286   20.6111 H   0  0  0  0  0  0
  -26.8523  -30.8172   22.0149 H   0  0  0  0  0  0
  -28.1233  -28.9176   21.2275 H   0  0  0  0  0  0
  -25.9923  -25.9065   18.9975 H   0  0  0  0  0  0
  -23.9827  -27.3111   18.9883 H   0  0  0  0  0  0
  -23.7723  -30.5864   19.4013 H   0  0  0  0  0  0
  -22.7695  -29.2415   19.8526 H   0  0  0  0  0  0
  -25.1300  -36.1918   25.0817 H   0  0  0  0  0  0
  -20.9995  -28.3277   24.1382 H   0  0  0  0  0  0
  -20.5676  -26.2312   23.3615 H   0  0  0  0  0  0
  -21.6647  -26.7430   22.1201 H   0  0  0  0  0  0
  -19.6914  -25.6288   21.1247 H   0  0  0  0  0  0
  -19.6683  -27.3186   20.6740 H   0  0  0  0  0  0
  -17.4201  -26.6662   21.4041 H   0  0  0  0  0  0
  -18.0349  -26.0063   22.9032 H   0  0  0  0  0  0
  -19.7947  -30.7278   24.2245 H   0  0  0  0  0  0
  -17.5024  -31.6263   24.5169 H   0  0  0  0  0  0
  -15.5359  -30.2983   23.7654 H   0  0  0  0  0  0
  -15.8683  -28.0814   22.7072 H   0  0  0  0  0  0
  -24.5856  -30.7150   25.7767 H   0  0  0  0  0  0
  -24.8970  -32.2933   26.4897 H   0  0  0  0  0  0
  -25.8023  -30.8883   27.0209 H   0  0  0  0  0  0
  -26.2930  -29.6739   24.1226 H   0  0  0  0  0  0
  -27.3995  -29.7251   25.4750 H   0  0  0  0  0  0
  -27.8825  -30.4253   23.9487 H   0  0  0  0  0  0
  -27.2630  -33.3619   26.2078 H   0  0  0  0  0  0
  -28.3852  -32.6907   25.0332 H   0  0  0  0  0  0
  -28.0715  -31.8461   26.5420 H   0  0  0  0  0  0
  -28.2598  -38.0093   24.7499 H   0  0  0  0  0  0
  -28.1070  -36.2622   24.6306 H   0  0  0  0  0  0
  -27.2294  -37.1467   25.8869 H   0  0  0  0  0  0
  -20.9401  -29.8775   21.6860 H   0  0  0  0  0  0
  -26.0171  -38.2845   24.1396 H   0  0  0  0  0  0
  -31.0171  -20.1776   19.4465 H   0  0  0  0  0  0
  -31.4023  -17.7474   19.5268 H   0  0  0  0  0  0
  -27.5371  -19.6972   21.8789 H   0  0  0  0  0  0
  -27.1021  -25.1664   21.4035 H   0  0  0  0  0  0
  -30.5540  -23.0043   20.2088 H   0  0  0  0  0  0
  -29.4314  -22.7135   18.8421 H   0  0  0  0  0  0
  -28.8870  -15.4125   21.2766 H   0  0  0  0  0  0
  1 25  1  0  0  0
  1 30  2  0  0  0
  1 82  1  0  0  0
  2  3  1  0  0  0
  2 25  1  0  0  0
  2 85  1  0  0  0
  2 86  1  0  0  0
  3  4  1  0  0  0
  3 87  1  0  0  0
  3 88  1  0  0  0
  4  5  1  0  0  0
  4 89  1  0  0  0
  4 90  1  0  0  0
  5  6  1  0  0  0
  5 26  1  0  0  0
  5 91  1  0  0  0
  6 25  1  0  0  0
  6 92  1  0  0  0
  6 93  1  0  0  0
  7  8  2  0  0  0
  7 26  1  0  0  0
  7 29  1  0  0  0
  8  9  1  0  0  0
  8 22  1  0  0  0
  9 10  1  0  0  0
  9 27  2  0  0  0
 10 11  2  0  0  0
 10 15  1  0  0  0
 11 12  1  0  0  0
 11 94  1  0  0  0
 12 13  2  0  0  0
 12 95  1  0  0  0
 13 14  1  0  0  0
 13 31  1  0  0  0
 14 15  2  0  0  0
 14 96  1  0  0  0
 15 97  1  0  0  0
 16 17  2  0  0  0
 16 21  1  0  0  0
 16 31  1  0  0  0
 17 18  1  0  0  0
 17 98  1  0  0  0
 18 19  2  0  0  0
 18 99  1  0  0  0
 19 20  1  0  0  0
 19 24  1  0  0  0
 20 21  2  0  0  0
 20100  1  0  0  0
 21 23  1  0  0  0
 22 28  1  0  0  0
 22 32  2  0  0  0
 26 27  1  0  0  0
 28101  1  0  0  0
 28102  1  0  0  0
 29103  1  0  0  0
 29104  1  0  0  0
 33 34  1  0  0  0
 33 66  1  0  0  0
 33 70  2  0  0  0
 34 36  1  0  0  0
 34 59  1  0  0  0
 34105  1  0  0  0
 35 44  2  0  0  0
 35 45  1  0  0  0
 35 68  1  0  0  0
 36 56  1  0  0  0
 36106  1  0  0  0
 37 39  1  0  0  0
 37 47  1  0  0  0
 37 66  1  0  0  0
 37107  1  0  0  0
 38 43  2  0  0  0
 38 46  1  0  0  0
 38 47  1  0  0  0
 39 64  1  0  0  0
 39 67  2  0  0  0
 40 52  1  0  0  0
 40 53  2  0  0  0
 40 58  1  0  0  0
 41108  1  0  0  0
 41109  1  0  0  0
 41110  1  0  0  0
 41 48  1  0  0  0
 42 43  1  0  0  0
 42 66  1  0  0  0
 42111  1  0  0  0
 42112  1  0  0  0
 43 44  1  0  0  0
 44113  1  0  0  0
 45 46  2  0  0  0
 45114  1  0  0  0
 46115  1  0  0  0
 47116  1  0  0  0
 47117  1  0  0  0
 48 56  1  0  0  0
 48 65  1  0  0  0
 48118  1  0  0  0
 49 50  1  0  0  0
 49 53  1  0  0  0
 49 64  1  0  0  0
 49119  1  0  0  0
 50 51  1  0  0  0
 50120  1  0  0  0
 50121  1  0  0  0
 51 52  1  0  0  0
 51122  1  0  0  0
 51123  1  0  0  0
 52124  1  0  0  0
 52125  1  0  0  0
 53 54  1  0  0  0
 54 55  2  0  0  0
 54126  1  0  0  0
 55 57  1  0  0  0
 55127  1  0  0  0
 56 69  2  0  0  0
 57 58  2  0  0  0
 57128  1  0  0  0
 58129  1  0  0  0
 59 60  1  0  0  0
 59 61  1  0  0  0
 59 62  1  0  0  0
 60130  1  0  0  0
 60131  1  0  0  0
 60132  1  0  0  0
 61133  1  0  0  0
 61134  1  0  0  0
 61135  1  0  0  0
 62136  1  0  0  0
 62137  1  0  0  0
 62138  1  0  0  0
 63 65  1  0  0  0
 63139  1  0  0  0
 63140  1  0  0  0
 63141  1  0  0  0
 64142  1  0  0  0
 65143  1  0  0  0
 68 79  1  0  0  0
 71 72  2  0  0  0
 71 74  1  0  0  0
 71144  1  0  0  0
 72 75  1  0  0  0
 72145  1  0  0  0
 73 74  2  0  0  0
 73 76  1  0  0  0
 73146  1  0  0  0
 74 81  1  0  0  0
 75 76  2  0  0  0
 75 82  1  0  0  0
 76 84  1  0  0  0
 77 78  1  0  0  0
 77 79  2  0  0  0
 77 80  1  0  0  0
 78 81  1  0  0  0
 78 83  2  0  0  0
 79147  1  0  0  0
 80 81  1  0  0  0
 80148  1  0  0  0
 80149  1  0  0  0
 82150  1  0  0  0
M  ISO  4   1 100  68 101  79 101  82 100
M  END
> <chiral flag>
0

> <version>
0

> <s_m_source_file>
/data/baiqing/PycharmProjects/Reinvent-master-3.2/result/LINK_invent/BTK/process_docking_weight1_custom_product_contain_oxygen_bond_distance_aromatic_linkinvent_7_9_3/rearranged_h_0088.sdf

> <i_m_source_file_index>
37

> <r_mmod_Potential_Energy-OPLS-2005>
198.142578125

> <r_mmod_Stretch_Energy-OPLS-2005>
106.317687988281

> <r_mmod_Bend_Energy-OPLS-2005>
271.832885742188

> <r_mmod_Torsional_Energy-OPLS-2005>
219.378356933594

> <r_mmod_Improper_Torsional_Energy-OPLS-2005>
3.23730540275574

> <r_mmod_Van_der_Waal_Energy-OPLS-2005>
133.984222412109

> <r_mmod_Electrostatic_Energy-OPLS-2005>
-415.522491455078

> <r_mmod_Solvation_Energy-OPLS-2005>
-209.682037353516

> <b_mmod_Minimization_Converged-OPLS-2005>
0

> <r_mmod_RMS_Derivative-OPLS-2005>
0.625052928924561

$$$$
37
                    3D
 Structure written by MMmdl.
169179  0  0  1  0            999 V2000
  -30.7206  -14.4425   20.4637 C   0  0  0  0  0  0
  -30.4169  -12.2559   19.4020 C   0  0  0  0  0  0
  -29.4681  -12.3889   18.1910 C   0  0  0  0  0  0
  -27.9922  -12.3115   18.6223 C   0  0  0  0  0  0
  -27.6523  -13.1957   19.8527 C   0  0  2  0  0  0
  -28.7095  -13.0298   20.9664 C   0  0  0  0  0  0
  -25.2597  -13.8168   20.5693 C   0  0  0  0  0  0
  -24.1836  -13.0458   20.9191 C   0  0  0  0  0  0
  -24.6371  -11.6917   20.8771 C   0  0  0  0  0  0
  -23.9038  -10.4304   21.0428 C   0  0  0  0  0  0
  -24.3598   -9.4219   21.9198 C   0  0  0  0  0  0
  -23.6285   -8.2249   22.0761 C   0  0  0  0  0  0
  -22.4267   -8.0282   21.3552 C   0  0  0  0  0  0
  -21.9901   -9.0253   20.4652 C   0  0  0  0  0  0
  -22.7216  -10.2143   20.3071 C   0  0  0  0  0  0
  -21.6852   -6.0731   22.5273 C   0  0  0  0  0  0
  -21.4008   -6.5637   23.8204 C   0  0  0  0  0  0
  -21.3666   -5.6793   24.9170 C   0  0  0  0  0  0
  -21.6048   -4.3054   24.7221 C   0  0  0  0  0  0
  -21.8819   -3.8144   23.4342 C   0  0  0  0  0  0
  -21.9192   -4.6960   22.3399 C   0  0  0  0  0  0
  -22.7862  -13.5261   21.1844 C   0  0  0  0  0  0
  -22.1665   -4.2148   21.0978 F   0  0  0  0  0  0
  -21.5639   -3.4539   25.7737 F   0  0  0  0  0  0
  -30.0297  -13.2812   20.3724 N   0  0  0  0  0  0
  -26.3003  -12.9309   20.3363 N   0  0  0  0  0  0
  -25.9294  -11.6488   20.5837 N   0  0  0  0  0  0
  -22.0500  -12.8253   22.0395 N   0  0  0  0  0  0
  -25.4345  -15.1887   20.4090 N   0  0  0  0  0  0
  -31.9437  -14.5228   20.3438 O   0  0  0  0  0  0
  -21.6641   -6.8874   21.4237 O   0  0  0  0  0  0
  -22.3553  -14.5568   20.6690 O   0  0  0  0  0  0
  -24.6085  -31.8729   23.2164 C   0  0  0  0  0  0
  -25.8999  -32.4859   23.8437 C   0  0  1  0  0  0
  -27.2378  -27.4811   20.0723 C   0  0  0  0  0  0
  -25.5868  -33.8659   24.2353 N   0  0  0  0  0  0
  -23.3946  -30.4986   21.5559 C   0  0  2  0  0  0
  -24.8396  -28.9716   20.1195 C   0  0  0  0  0  0
  -22.7373  -29.4686   22.5015 C   0  0  0  0  0  0
  -18.0259  -28.1372   22.8513 C   0  0  0  0  0  0
  -24.1480  -36.7340   23.2638 C   0  0  0  0  0  0
  -25.9201  -30.8475   21.3670 C   0  0  0  0  0  0
  -25.9967  -29.4835   20.7191 C   0  0  0  0  0  0
  -27.1934  -28.7383   20.7076 C   0  0  0  0  0  0
  -26.0529  -26.9651   19.4949 C   0  0  0  0  0  0
  -24.8587  -27.7052   19.5143 C   0  0  0  0  0  0
  -23.6011  -29.8343   20.1691 C   0  0  0  0  0  0
  -25.4104  -36.3139   24.0329 C   0  0  1  0  0  0
  -20.5846  -28.3654   23.1342 C   0  0  2  0  0  0
  -20.6750  -26.9396   22.5428 C   0  0  0  0  0  0
  -19.5729  -26.6385   21.5223 C   0  0  0  0  0  0
  -18.1905  -26.7925   22.1633 C   0  0  0  0  0  0
  -19.1507  -28.8827   23.2929 C   0  0  0  0  0  0
  -18.9438  -30.1433   23.8940 C   0  0  0  0  0  0
  -17.6443  -30.6586   24.0574 C   0  0  0  0  0  0
  -25.9021  -34.9497   23.5137 C   0  0  0  0  0  0
  -16.5333  -29.9092   23.6327 C   0  0  0  0  0  0
  -16.7249  -28.6500   23.0363 C   0  0  0  0  0  0
  -26.4448  -31.6641   25.0757 C   0  0  0  0  0  0
  -25.3724  -31.3724   26.1512 C   0  0  0  0  0  0
  -27.0286  -30.3094   24.6118 C   0  0  0  0  0  0
  -27.6039  -32.4354   25.7506 C   0  0  0  0  0  0
  -27.5580  -37.1819   24.8459 C   0  0  0  0  0  0
  -21.4104  -29.3037   22.3754 N   0  0  0  0  0  0
  -26.4302  -37.3810   23.9394 N   0  0  0  0  0  0
  -24.6594  -31.0858   22.1056 N   0  0  0  0  0  0
  -23.4165  -28.8212   23.3027 O   0  0  0  0  0  0
  -28.4360  -26.8051   20.0458 O   0  0  0  0  0  0
  -26.5590  -34.8935   22.4703 O   0  0  0  0  0  0
  -23.5287  -32.1477   23.7573 O   0  0  0  0  0  0
  -30.7257  -15.9588   16.4375 C   0  0  0  0  0  0
  -29.7467  -16.8827   16.0570 C   0  0  0  0  0  0
  -30.8111  -15.5434   17.7760 C   0  0  0  0  0  0
  -27.7087  -22.7247   17.4835 C   0  0  0  0  0  0
  -26.6493  -22.6915   15.2956 C   0  0  0  0  0  0
  -27.1984  -21.9988   16.3893 C   0  0  0  0  0  0
  -27.7180  -24.1384   17.5138 C   0  0  0  0  0  0
  -28.8560  -17.3804   17.0269 C   0  0  0  0  0  0
  -29.8959  -15.9940   18.7738 C   0  0  0  0  0  0
  -27.1416  -24.8281   16.4002 C   0  0  0  0  0  0
  -26.6288  -24.0950   15.3052 C   0  0  0  0  0  0
  -28.9037  -16.9252   18.3648 C   0  0  0  0  0  0
  -26.3747  -19.6884   15.8281 C   0  0  0  0  0  0
  -27.2385  -20.5258   16.4153 C   0  0  0  0  0  0
  -26.8394  -18.3362   16.0077 C   0  0  0  0  0  0
  -28.3130  -19.7178   16.9496 C   0  0  0  0  0  0
  -28.3027  -24.7309   18.7701 C   0  0  0  0  0  0
  -29.4570  -16.3269   21.2588 C   0  0  0  0  0  0
  -28.7936  -26.1859   18.8075 C   0  0  0  0  0  0
  -27.9954  -18.4456   16.6792 N   0  0  0  0  0  0
  -27.0022  -26.2137   16.2945 N   0  0  0  0  0  0
  -29.9862  -15.5291   20.1463 N   0  0  0  0  0  0
  -26.3037  -17.2896   15.6259 O   0  0  0  0  0  0
  -29.3423  -20.0979   17.5232 O   0  0  0  0  0  0
  -28.4322  -24.0662   19.8070 O   0  0  0  0  0  0
  -26.0913  -24.7575   14.2506 F   0  0  0  0  0  0
  -27.9840  -17.4064   19.2370 F   0  0  0  0  0  0
  -31.4557  -12.3560   19.0810 H   0  0  0  0  0  0
  -30.3292  -11.2664   19.8529 H   0  0  0  0  0  0
  -29.6786  -11.5965   17.4718 H   0  0  0  0  0  0
  -29.6326  -13.3157   17.6525 H   0  0  0  0  0  0
  -27.7829  -11.2659   18.8509 H   0  0  0  0  0  0
  -27.3423  -12.5700   17.7860 H   0  0  0  0  0  0
  -27.6767  -14.2291   19.5111 H   0  0  0  0  0  0
  -28.6781  -12.0223   21.3833 H   0  0  0  0  0  0
  -28.5092  -13.7123   21.7938 H   0  0  0  0  0  0
  -25.2742   -9.5712   22.4766 H   0  0  0  0  0  0
  -24.0006   -7.4645   22.7475 H   0  0  0  0  0  0
  -21.0841   -8.8760   19.8950 H   0  0  0  0  0  0
  -22.3661  -10.9684   19.6184 H   0  0  0  0  0  0
  -21.1987   -7.6142   23.9704 H   0  0  0  0  0  0
  -21.1497   -6.0527   25.9076 H   0  0  0  0  0  0
  -22.0590   -2.7604   23.2840 H   0  0  0  0  0  0
  -22.4111  -11.9910   22.4780 H   0  0  0  0  0  0
  -21.1127  -13.1294   22.2609 H   0  0  0  0  0  0
  -24.6698  -15.8442   20.5247 H   0  0  0  0  0  0
  -26.2941  -15.6332   20.1111 H   0  0  0  0  0  0
  -26.7066  -32.5593   23.1208 H   0  0  0  0  0  0
  -25.0004  -33.9840   25.0484 H   0  0  0  0  0  0
  -22.6825  -31.3150   21.4210 H   0  0  0  0  0  0
  -23.3736  -35.9680   23.3322 H   0  0  0  0  0  0
  -24.3571  -36.8942   22.2050 H   0  0  0  0  0  0
  -23.7240  -37.6547   23.6654 H   0  0  0  0  0  0
  -26.0255  -31.6118   20.5954 H   0  0  0  0  0  0
  -26.8109  -30.9052   21.9807 H   0  0  0  0  0  0
  -28.0896  -29.1354   21.1641 H   0  0  0  0  0  0
  -26.0143  -25.9919   19.0341 H   0  0  0  0  0  0
  -23.9642  -27.2976   19.0635 H   0  0  0  0  0  0
  -23.7072  -30.6104   19.4102 H   0  0  0  0  0  0
  -22.7261  -29.2521   19.8732 H   0  0  0  0  0  0
  -25.1278  -36.2029   25.0821 H   0  0  0  0  0  0
  -20.9942  -28.3214   24.1461 H   0  0  0  0  0  0
  -20.5667  -26.2252   23.3605 H   0  0  0  0  0  0
  -21.6619  -26.7455   22.1215 H   0  0  0  0  0  0
  -19.6889  -25.6302   21.1233 H   0  0  0  0  0  0
  -19.6669  -27.3208   20.6764 H   0  0  0  0  0  0
  -17.4179  -26.6687   21.4027 H   0  0  0  0  0  0
  -18.0302  -26.0059   22.9020 H   0  0  0  0  0  0
  -19.7912  -30.7234   24.2332 H   0  0  0  0  0  0
  -17.5003  -31.6281   24.5154 H   0  0  0  0  0  0
  -15.5335  -30.3011   23.7624 H   0  0  0  0  0  0
  -15.8648  -28.0824   22.7073 H   0  0  0  0  0  0
  -24.5876  -30.7105   25.7833 H   0  0  0  0  0  0
  -24.8936  -32.2874   26.5015 H   0  0  0  0  0  0
  -25.8074  -30.8843   27.0244 H   0  0  0  0  0  0
  -26.2828  -29.6865   24.1172 H   0  0  0  0  0  0
  -27.4061  -29.7332   25.4576 H   0  0  0  0  0  0
  -27.8659  -30.4426   23.9266 H   0  0  0  0  0  0
  -27.2666  -33.3636   26.2136 H   0  0  0  0  0  0
  -28.3814  -32.6949   25.0308 H   0  0  0  0  0  0
  -28.0760  -31.8463   26.5381 H   0  0  0  0  0  0
  -28.2604  -38.0113   24.7512 H   0  0  0  0  0  0
  -28.1067  -36.2642   24.6284 H   0  0  0  0  0  0
  -27.2297  -37.1473   25.8863 H   0  0  0  0  0  0
  -20.9236  -29.8778   21.7013 H   0  0  0  0  0  0
  -26.0202  -38.2888   24.1408 H   0  0  0  0  0  0
  -31.4298  -15.5829   15.7079 H   0  0  0  0  0  0
  -29.7120  -17.2366   15.0354 H   0  0  0  0  0  0
  -31.6032  -14.8439   17.9932 H   0  0  0  0  0  0
  -28.1126  -22.1769   18.3242 H   0  0  0  0  0  0
  -26.2501  -22.1641   14.4421 H   0  0  0  0  0  0
  -25.4825  -19.9670   15.2916 H   0  0  0  0  0  0
  -29.6522  -17.3884   21.1045 H   0  0  0  0  0  0
  -29.9070  -16.0611   22.2182 H   0  0  0  0  0  0
  -28.3806  -16.1824   21.3553 H   0  0  0  0  0  0
  -28.4795  -26.8065   17.9781 H   0  0  0  0  0  0
  -29.8820  -26.1596   18.7529 H   0  0  0  0  0  0
  -26.6409  -26.7086   17.1003 H   0  0  0  0  0  0
  -26.4978  -26.4936   15.4579 H   0  0  0  0  0  0
  1 25  1  0  0  0
  1 30  2  0  0  0
  1 92  1  0  0  0
  2  3  1  0  0  0
  2 25  1  0  0  0
  2 98  1  0  0  0
  2 99  1  0  0  0
  3  4  1  0  0  0
  3100  1  0  0  0
  3101  1  0  0  0
  4  5  1  0  0  0
  4102  1  0  0  0
  4103  1  0  0  0
  5  6  1  0  0  0
  5 26  1  0  0  0
  5104  1  0  0  0
  6 25  1  0  0  0
  6105  1  0  0  0
  6106  1  0  0  0
  7  8  2  0  0  0
  7 26  1  0  0  0
  7 29  1  0  0  0
  8  9  1  0  0  0
  8 22  1  0  0  0
  9 10  1  0  0  0
  9 27  2  0  0  0
 10 11  2  0  0  0
 10 15  1  0  0  0
 11 12  1  0  0  0
 11107  1  0  0  0
 12 13  2  0  0  0
 12108  1  0  0  0
 13 14  1  0  0  0
 13 31  1  0  0  0
 14 15  2  0  0  0
 14109  1  0  0  0
 15110  1  0  0  0
 16 17  2  0  0  0
 16 21  1  0  0  0
 16 31  1  0  0  0
 17 18  1  0  0  0
 17111  1  0  0  0
 18 19  2  0  0  0
 18112  1  0  0  0
 19 20  1  0  0  0
 19 24  1  0  0  0
 20 21  2  0  0  0
 20113  1  0  0  0
 21 23  1  0  0  0
 22 28  1  0  0  0
 22 32  2  0  0  0
 26 27  1  0  0  0
 28114  1  0  0  0
 28115  1  0  0  0
 29116  1  0  0  0
 29117  1  0  0  0
 33 34  1  0  0  0
 33 66  1  0  0  0
 33 70  2  0  0  0
 34 36  1  0  0  0
 34 59  1  0  0  0
 34118  1  0  0  0
 35 44  2  0  0  0
 35 45  1  0  0  0
 35 68  1  0  0  0
 36 56  1  0  0  0
 36119  1  0  0  0
 37 39  1  0  0  0
 37 47  1  0  0  0
 37 66  1  0  0  0
 37120  1  0  0  0
 38 43  2  0  0  0
 38 46  1  0  0  0
 38 47  1  0  0  0
 39 64  1  0  0  0
 39 67  2  0  0  0
 40 52  1  0  0  0
 40 53  2  0  0  0
 40 58  1  0  0  0
 41121  1  0  0  0
 41122  1  0  0  0
 41123  1  0  0  0
 41 48  1  0  0  0
 42 43  1  0  0  0
 42 66  1  0  0  0
 42124  1  0  0  0
 42125  1  0  0  0
 43 44  1  0  0  0
 44126  1  0  0  0
 45 46  2  0  0  0
 45127  1  0  0  0
 46128  1  0  0  0
 47129  1  0  0  0
 47130  1  0  0  0
 48 56  1  0  0  0
 48 65  1  0  0  0
 48131  1  0  0  0
 49 50  1  0  0  0
 49 53  1  0  0  0
 49 64  1  0  0  0
 49132  1  0  0  0
 50 51  1  0  0  0
 50133  1  0  0  0
 50134  1  0  0  0
 51 52  1  0  0  0
 51135  1  0  0  0
 51136  1  0  0  0
 52137  1  0  0  0
 52138  1  0  0  0
 53 54  1  0  0  0
 54 55  2  0  0  0
 54139  1  0  0  0
 55 57  1  0  0  0
 55140  1  0  0  0
 56 69  2  0  0  0
 57 58  2  0  0  0
 57141  1  0  0  0
 58142  1  0  0  0
 59 60  1  0  0  0
 59 61  1  0  0  0
 59 62  1  0  0  0
 60143  1  0  0  0
 60144  1  0  0  0
 60145  1  0  0  0
 61146  1  0  0  0
 61147  1  0  0  0
 61148  1  0  0  0
 62149  1  0  0  0
 62150  1  0  0  0
 62151  1  0  0  0
 63 65  1  0  0  0
 63152  1  0  0  0
 63153  1  0  0  0
 63154  1  0  0  0
 64155  1  0  0  0
 65156  1  0  0  0
 68 89  1  0  0  0
 71 72  2  0  0  0
 71 73  1  0  0  0
 71157  1  0  0  0
 72 78  1  0  0  0
 72158  1  0  0  0
 73 79  2  0  0  0
 73159  1  0  0  0
 74 76  2  0  0  0
 74 77  1  0  0  0
 74160  1  0  0  0
 75 76  1  0  0  0
 75 81  2  0  0  0
 75161  1  0  0  0
 76 84  1  0  0  0
 77 80  2  0  0  0
 77 87  1  0  0  0
 78 82  2  0  0  0
 78 90  1  0  0  0
 79 82  1  0  0  0
 79 92  1  0  0  0
 80 81  1  0  0  0
 80 91  1  0  0  0
 81 96  1  0  0  0
 82 97  1  0  0  0
 83 84  2  0  0  0
 83 85  1  0  0  0
 83162  1  0  0  0
 84 86  1  0  0  0
 85 90  1  0  0  0
 85 93  2  0  0  0
 86 90  1  0  0  0
 86 94  2  0  0  0
 87 89  1  0  0  0
 87 95  2  0  0  0
 88 92  1  0  0  0
 88163  1  0  0  0
 88164  1  0  0  0
 88165  1  0  0  0
 89166  1  0  0  0
 89167  1  0  0  0
 91168  1  0  0  0
 91169  1  0  0  0
M  ISO  4   1 100  68 101  89 101  92 100
M  END
> <chiral flag>
0

> <version>
0

> <s_m_source_file>
/data/baiqing/PycharmProjects/Reinvent-master-3.2/result/LINK_invent/BTK/process_docking_weight1_custom_product_contain_oxygen_bond_distance_aromatic_linkinvent_7_9_3/rearranged_h_0088.sdf

> <i_m_source_file_index>
38

> <r_mmod_Potential_Energy-OPLS-2005>
271.592468261719

> <r_mmod_Stretch_Energy-OPLS-2005>
41.1551208496094

> <r_mmod_Bend_Energy-OPLS-2005>
152.715911865234

> <r_mmod_Torsional_Energy-OPLS-2005>
389.415222167969

> <r_mmod_Improper_Torsional_Energy-OPLS-2005>
22.4724597930908

> <r_mmod_Van_der_Waal_Energy-OPLS-2005>
193.265472412109

> <r_mmod_Electrostatic_Energy-OPLS-2005>
-318.926483154297

> <r_mmod_Solvation_Energy-OPLS-2005>
-238.310653686523

> <b_mmod_Minimization_Converged-OPLS-2005>
0

> <r_mmod_RMS_Derivative-OPLS-2005>
0.986603975296021

$$$$
38
                    3D
 Structure written by MMmdl.
152161  0  0  1  0            999 V2000
  -30.5768  -14.7405   20.4531 C   0  0  0  0  0  0
  -30.4480  -12.4493   19.4602 C   0  0  0  0  0  0
  -29.5123  -12.5100   18.2308 C   0  0  0  0  0  0
  -28.0375  -12.3316   18.6469 C   0  0  0  0  0  0
  -27.6465  -13.2207   19.8570 C   0  0  2  0  0  0
  -28.6972  -13.1242   20.9859 C   0  0  0  0  0  0
  -25.2522  -13.8154   20.5746 C   0  0  0  0  0  0
  -24.1801  -13.0398   20.9201 C   0  0  0  0  0  0
  -24.6394  -11.6883   20.8738 C   0  0  0  0  0  0
  -23.9069  -10.4270   21.0400 C   0  0  0  0  0  0
  -24.3618   -9.4190   21.9181 C   0  0  0  0  0  0
  -23.6288   -8.2230   22.0754 C   0  0  0  0  0  0
  -22.4270   -8.0272   21.3542 C   0  0  0  0  0  0
  -21.9907   -9.0245   20.4644 C   0  0  0  0  0  0
  -22.7239  -10.2120   20.3050 C   0  0  0  0  0  0
  -21.6849   -6.0732   22.5279 C   0  0  0  0  0  0
  -21.4012   -6.5638   23.8212 C   0  0  0  0  0  0
  -21.3660   -5.6792   24.9175 C   0  0  0  0  0  0
  -21.6044   -4.3054   24.7226 C   0  0  0  0  0  0
  -21.8820   -3.8145   23.4348 C   0  0  0  0  0  0
  -21.9191   -4.6960   22.3403 C   0  0  0  0  0  0
  -22.7823  -13.5189   21.1862 C   0  0  0  0  0  0
  -22.1659   -4.2146   21.0981 F   0  0  0  0  0  0
  -21.5629   -3.4539   25.7740 F   0  0  0  0  0  0
  -30.0005  -13.4907   20.4088 N   0  0  0  0  0  0
  -26.2963  -12.9358   20.3326 N   0  0  0  0  0  0
  -25.9325  -11.6502   20.5755 N   0  0  0  0  0  0
  -22.0473  -12.8185   22.0426 N   0  0  0  0  0  0
  -25.4082  -15.1896   20.4304 N   0  0  0  0  0  0
  -31.7626  -14.8996   20.1471 O   0  0  0  0  0  0
  -21.6631   -6.8873   21.4241 O   0  0  0  0  0  0
  -22.3501  -14.5495   20.6712 O   0  0  0  0  0  0
  -24.6304  -31.8546   23.1977 C   0  0  0  0  0  0
  -25.9130  -32.4751   23.8325 C   0  0  1  0  0  0
  -27.2332  -27.2724   20.1119 C   0  0  0  0  0  0
  -25.5926  -33.8554   24.2249 N   0  0  0  0  0  0
  -23.4274  -30.4762   21.5407 C   0  0  2  0  0  0
  -24.8757  -28.9232   20.1074 C   0  0  0  0  0  0
  -22.7500  -29.4595   22.4908 C   0  0  0  0  0  0
  -18.0291  -28.1387   22.8483 C   0  0  0  0  0  0
  -24.1490  -36.7284   23.2641 C   0  0  0  0  0  0
  -25.9721  -30.7688   21.3769 C   0  0  0  0  0  0
  -26.0452  -29.3923   20.7170 C   0  0  0  0  0  0
  -27.2204  -28.5763   20.7139 C   0  0  0  0  0  0
  -26.0306  -26.8595   19.4929 C   0  0  0  0  0  0
  -24.8727  -27.6635   19.4888 C   0  0  0  0  0  0
  -23.6452  -29.8086   20.1567 C   0  0  0  0  0  0
  -25.4117  -36.3068   24.0325 C   0  0  1  0  0  0
  -20.5894  -28.3697   23.1269 C   0  0  2  0  0  0
  -20.6777  -26.9413   22.5410 C   0  0  0  0  0  0
  -19.5754  -26.6382   21.5212 C   0  0  0  0  0  0
  -18.1935  -26.7929   22.1624 C   0  0  0  0  0  0
  -19.1545  -28.8859   23.2871 C   0  0  0  0  0  0
  -18.9466  -30.1460   23.8889 C   0  0  0  0  0  0
  -17.6465  -30.6587   24.0562 C   0  0  0  0  0  0
  -25.9055  -34.9437   23.5092 C   0  0  0  0  0  0
  -16.5356  -29.9085   23.6331 C   0  0  0  0  0  0
  -16.7278  -28.6503   23.0351 C   0  0  0  0  0  0
  -26.4499  -31.6582   25.0718 C   0  0  0  0  0  0
  -25.3720  -31.3736   26.1439 C   0  0  0  0  0  0
  -27.0354  -30.2999   24.6213 C   0  0  0  0  0  0
  -27.6050  -32.4328   25.7492 C   0  0  0  0  0  0
  -27.5578  -37.1800   24.8466 C   0  0  0  0  0  0
  -21.4207  -29.3041   22.3656 N   0  0  0  0  0  0
  -26.4293  -37.3766   23.9404 N   0  0  0  0  0  0
  -24.6956  -31.0513   22.0949 N   0  0  0  0  0  0
  -23.4201  -28.8139   23.3010 O   0  0  0  0  0  0
  -28.3487  -26.4063   20.2044 O   0  0  0  0  0  0
  -26.5631  -34.8913   22.4663 O   0  0  0  0  0  0
  -23.5455  -32.1366   23.7276 O   0  0  0  0  0  0
  -28.3722  -19.2978   19.8821 C   0  0  0  0  0  0
  -30.7207  -18.1885   20.8605 C   0  0  0  0  0  0
  -29.3406  -20.2591   20.2985 C   0  0  0  0  0  0
  -28.5493  -17.8774   19.9369 C   0  0  0  0  0  0
  -29.7203  -17.2625   20.4530 C   0  0  0  0  0  0
  -30.5348  -19.6178   20.7778 C   0  0  0  0  0  0
  -28.0138  -22.5687   19.8539 C   0  0  0  0  0  0
  -28.7438  -23.7125   19.8917 C   0  0  0  0  0  0
  -29.8016  -22.9314   20.2193 C   0  0  0  0  0  0
  -28.5320  -25.1974   19.3434 C   0  0  0  0  0  0
  -29.0880  -21.7263   20.2020 N   0  0  0  0  0  0
  -27.5428  -17.0496   19.4407 N   0  0  0  0  0  0
  -29.7016  -15.7913   20.6420 N   0  0  0  0  0  0
  -30.9793  -23.2447   20.3595 O   0  0  0  0  0  0
  -31.5509  -20.4052   21.2055 F   0  0  0  0  0  0
  -31.4847  -12.5975   19.1530 H   0  0  0  0  0  0
  -30.4099  -11.4651   19.9296 H   0  0  0  0  0  0
  -29.7907  -11.7434   17.5064 H   0  0  0  0  0  0
  -29.6350  -13.4682   17.7233 H   0  0  0  0  0  0
  -27.8930  -11.2809   18.9013 H   0  0  0  0  0  0
  -27.3782  -12.5322   17.8017 H   0  0  0  0  0  0
  -27.6419  -14.2447   19.4877 H   0  0  0  0  0  0
  -28.7332  -12.1134   21.3951 H   0  0  0  0  0  0
  -28.4342  -13.7772   21.8199 H   0  0  0  0  0  0
  -25.2764   -9.5663   22.4756 H   0  0  0  0  0  0
  -23.9992   -7.4622   22.7475 H   0  0  0  0  0  0
  -21.0836   -8.8768   19.8952 H   0  0  0  0  0  0
  -22.3701  -10.9661   19.6160 H   0  0  0  0  0  0
  -21.2006   -7.6147   23.9716 H   0  0  0  0  0  0
  -21.1481   -6.0522   25.9078 H   0  0  0  0  0  0
  -22.0599   -2.7607   23.2849 H   0  0  0  0  0  0
  -22.4095  -11.9848   22.4813 H   0  0  0  0  0  0
  -21.1094  -13.1211   22.2641 H   0  0  0  0  0  0
  -24.6283  -15.8214   20.5695 H   0  0  0  0  0  0
  -26.2557  -15.6899   20.1585 H   0  0  0  0  0  0
  -26.7194  -32.5399   23.1064 H   0  0  0  0  0  0
  -25.0064  -33.9690   25.0388 H   0  0  0  0  0  0
  -22.7236  -31.2982   21.3942 H   0  0  0  0  0  0
  -23.3748  -35.9620   23.3308 H   0  0  0  0  0  0
  -24.3576  -36.8904   22.2054 H   0  0  0  0  0  0
  -23.7249  -37.6488   23.6664 H   0  0  0  0  0  0
  -26.1113  -31.5307   20.6087 H   0  0  0  0  0  0
  -26.8492  -30.8164   22.0108 H   0  0  0  0  0  0
  -28.1145  -28.9304   21.2078 H   0  0  0  0  0  0
  -25.9345  -25.8827   19.0461 H   0  0  0  0  0  0
  -23.9714  -27.2915   19.0211 H   0  0  0  0  0  0
  -23.7678  -30.5847   19.4003 H   0  0  0  0  0  0
  -22.7640  -29.2408   19.8528 H   0  0  0  0  0  0
  -25.1301  -36.1916   25.0818 H   0  0  0  0  0  0
  -20.9987  -28.3277   24.1390 H   0  0  0  0  0  0
  -20.5674  -26.2307   23.3616 H   0  0  0  0  0  0
  -21.6646  -26.7433   22.1207 H   0  0  0  0  0  0
  -19.6916  -25.6290   21.1247 H   0  0  0  0  0  0
  -19.6694  -27.3187   20.6739 H   0  0  0  0  0  0
  -17.4204  -26.6674   21.4026 H   0  0  0  0  0  0
  -18.0337  -26.0073   22.9023 H   0  0  0  0  0  0
  -19.7942  -30.7278   24.2256 H   0  0  0  0  0  0
  -17.5019  -31.6266   24.5165 H   0  0  0  0  0  0
  -15.5357  -30.2984   23.7660 H   0  0  0  0  0  0
  -15.8679  -28.0821   22.7067 H   0  0  0  0  0  0
  -24.5898  -30.7082   25.7768 H   0  0  0  0  0  0
  -24.8909  -32.2907   26.4847 H   0  0  0  0  0  0
  -25.8034  -30.8925   27.0226 H   0  0  0  0  0  0
  -26.2944  -29.6738   24.1228 H   0  0  0  0  0  0
  -27.4025  -29.7271   25.4739 H   0  0  0  0  0  0
  -27.8823  -30.4274   23.9467 H   0  0  0  0  0  0
  -27.2653  -33.3632   26.2055 H   0  0  0  0  0  0
  -28.3865  -32.6885   25.0324 H   0  0  0  0  0  0
  -28.0712  -31.8465   26.5420 H   0  0  0  0  0  0
  -28.2601  -38.0090   24.7497 H   0  0  0  0  0  0
  -28.1067  -36.2619   24.6312 H   0  0  0  0  0  0
  -27.2292  -37.1471   25.8869 H   0  0  0  0  0  0
  -20.9393  -29.8761   21.6858 H   0  0  0  0  0  0
  -26.0171  -38.2842   24.1396 H   0  0  0  0  0  0
  -27.4430  -19.6772   19.4839 H   0  0  0  0  0  0
  -31.6422  -17.8138   21.2796 H   0  0  0  0  0  0
  -27.0451  -22.1546   19.5849 H   0  0  0  0  0  0
  -27.7948  -25.1432   18.5465 H   0  0  0  0  0  0
  -29.4528  -25.4083   18.7994 H   0  0  0  0  0  0
  -26.8101  -17.5370   18.9351 H   0  0  0  0  0  0
  -27.9009  -16.2963   18.8646 H   0  0  0  0  0  0
  -28.7569  -15.4576   20.7588 H   0  0  0  0  0  0
  1 25  1  0  0  0
  1 30  2  0  0  0
  1 83  1  0  0  0
  2  3  1  0  0  0
  2 25  1  0  0  0
  2 86  1  0  0  0
  2 87  1  0  0  0
  3  4  1  0  0  0
  3 88  1  0  0  0
  3 89  1  0  0  0
  4  5  1  0  0  0
  4 90  1  0  0  0
  4 91  1  0  0  0
  5  6  1  0  0  0
  5 26  1  0  0  0
  5 92  1  0  0  0
  6 25  1  0  0  0
  6 93  1  0  0  0
  6 94  1  0  0  0
  7  8  2  0  0  0
  7 26  1  0  0  0
  7 29  1  0  0  0
  8  9  1  0  0  0
  8 22  1  0  0  0
  9 10  1  0  0  0
  9 27  2  0  0  0
 10 11  2  0  0  0
 10 15  1  0  0  0
 11 12  1  0  0  0
 11 95  1  0  0  0
 12 13  2  0  0  0
 12 96  1  0  0  0
 13 14  1  0  0  0
 13 31  1  0  0  0
 14 15  2  0  0  0
 14 97  1  0  0  0
 15 98  1  0  0  0
 16 17  2  0  0  0
 16 21  1  0  0  0
 16 31  1  0  0  0
 17 18  1  0  0  0
 17 99  1  0  0  0
 18 19  2  0  0  0
 18100  1  0  0  0
 19 20  1  0  0  0
 19 24  1  0  0  0
 20 21  2  0  0  0
 20101  1  0  0  0
 21 23  1  0  0  0
 22 28  1  0  0  0
 22 32  2  0  0  0
 26 27  1  0  0  0
 28102  1  0  0  0
 28103  1  0  0  0
 29104  1  0  0  0
 29105  1  0  0  0
 33 34  1  0  0  0
 33 66  1  0  0  0
 33 70  2  0  0  0
 34 36  1  0  0  0
 34 59  1  0  0  0
 34106  1  0  0  0
 35 44  2  0  0  0
 35 45  1  0  0  0
 35 68  1  0  0  0
 36 56  1  0  0  0
 36107  1  0  0  0
 37 39  1  0  0  0
 37 47  1  0  0  0
 37 66  1  0  0  0
 37108  1  0  0  0
 38 43  2  0  0  0
 38 46  1  0  0  0
 38 47  1  0  0  0
 39 64  1  0  0  0
 39 67  2  0  0  0
 40 52  1  0  0  0
 40 53  2  0  0  0
 40 58  1  0  0  0
 41109  1  0  0  0
 41110  1  0  0  0
 41111  1  0  0  0
 41 48  1  0  0  0
 42 43  1  0  0  0
 42 66  1  0  0  0
 42112  1  0  0  0
 42113  1  0  0  0
 43 44  1  0  0  0
 44114  1  0  0  0
 45 46  2  0  0  0
 45115  1  0  0  0
 46116  1  0  0  0
 47117  1  0  0  0
 47118  1  0  0  0
 48 56  1  0  0  0
 48 65  1  0  0  0
 48119  1  0  0  0
 49 50  1  0  0  0
 49 53  1  0  0  0
 49 64  1  0  0  0
 49120  1  0  0  0
 50 51  1  0  0  0
 50121  1  0  0  0
 50122  1  0  0  0
 51 52  1  0  0  0
 51123  1  0  0  0
 51124  1  0  0  0
 52125  1  0  0  0
 52126  1  0  0  0
 53 54  1  0  0  0
 54 55  2  0  0  0
 54127  1  0  0  0
 55 57  1  0  0  0
 55128  1  0  0  0
 56 69  2  0  0  0
 57 58  2  0  0  0
 57129  1  0  0  0
 58130  1  0  0  0
 59 60  1  0  0  0
 59 61  1  0  0  0
 59 62  1  0  0  0
 60131  1  0  0  0
 60132  1  0  0  0
 60133  1  0  0  0
 61134  1  0  0  0
 61135  1  0  0  0
 61136  1  0  0  0
 62137  1  0  0  0
 62138  1  0  0  0
 62139  1  0  0  0
 63 65  1  0  0  0
 63140  1  0  0  0
 63141  1  0  0  0
 63142  1  0  0  0
 64143  1  0  0  0
 65144  1  0  0  0
 68 80  1  0  0  0
 71 73  2  0  0  0
 71 74  1  0  0  0
 71145  1  0  0  0
 72 75  1  0  0  0
 72 76  2  0  0  0
 72146  1  0  0  0
 73 76  1  0  0  0
 73 81  1  0  0  0
 74 75  2  0  0  0
 74 82  1  0  0  0
 75 83  1  0  0  0
 76 85  1  0  0  0
 77 78  2  0  0  0
 77 81  1  0  0  0
 77147  1  0  0  0
 78 79  1  0  0  0
 78 80  1  0  0  0
 79 81  1  0  0  0
 79 84  2  0  0  0
 80148  1  0  0  0
 80149  1  0  0  0
 82150  1  0  0  0
 82151  1  0  0  0
 83152  1  0  0  0
M  ISO  4   1 100  68 101  80 101  83 100
M  END
> <chiral flag>
0

> <version>
0

> <s_m_source_file>
/data/baiqing/PycharmProjects/Reinvent-master-3.2/result/LINK_invent/BTK/process_docking_weight1_custom_product_contain_oxygen_bond_distance_aromatic_linkinvent_7_9_3/rearranged_h_0088.sdf

> <i_m_source_file_index>
39

> <r_mmod_Potential_Energy-OPLS-2005>
142.155364990234

> <r_mmod_Stretch_Energy-OPLS-2005>
104.738433837891

> <r_mmod_Bend_Energy-OPLS-2005>
247.697357177734

> <r_mmod_Torsional_Energy-OPLS-2005>
238.809997558594

> <r_mmod_Improper_Torsional_Energy-OPLS-2005>
14.3709373474121

> <r_mmod_Van_der_Waal_Energy-OPLS-2005>
138.688491821289

> <r_mmod_Electrostatic_Energy-OPLS-2005>
-466.250671386719

> <r_mmod_Solvation_Energy-OPLS-2005>
-217.606063842773

> <b_mmod_Minimization_Converged-OPLS-2005>
0

> <r_mmod_RMS_Derivative-OPLS-2005>
0.254562526941299

$$$$
39
                    3D
 Structure written by MMmdl.
150158  0  0  1  0            999 V2000
  -30.6501  -14.5312   20.5536 C   0  0  0  0  0  0
  -30.4264  -12.3472   19.4165 C   0  0  0  0  0  0
  -29.4900  -12.5310   18.2019 C   0  0  0  0  0  0
  -28.0078  -12.3946   18.6086 C   0  0  0  0  0  0
  -27.6566  -13.2180   19.8761 C   0  0  2  0  0  0
  -28.6993  -12.9912   20.9920 C   0  0  0  0  0  0
  -25.2545  -13.8208   20.5714 C   0  0  0  0  0  0
  -24.1816  -13.0464   20.9202 C   0  0  0  0  0  0
  -24.6397  -11.6922   20.8752 C   0  0  0  0  0  0
  -23.9088  -10.4305   21.0410 C   0  0  0  0  0  0
  -24.3641   -9.4221   21.9192 C   0  0  0  0  0  0
  -23.6319   -8.2251   22.0747 C   0  0  0  0  0  0
  -22.4300   -8.0299   21.3550 C   0  0  0  0  0  0
  -21.9958   -9.0259   20.4630 C   0  0  0  0  0  0
  -22.7278  -10.2135   20.3044 C   0  0  0  0  0  0
  -21.6859   -6.0756   22.5291 C   0  0  0  0  0  0
  -21.3995   -6.5648   23.8223 C   0  0  0  0  0  0
  -21.3644   -5.6808   24.9187 C   0  0  0  0  0  0
  -21.6049   -4.3067   24.7236 C   0  0  0  0  0  0
  -21.8814   -3.8168   23.4349 C   0  0  0  0  0  0
  -21.9184   -4.6991   22.3402 C   0  0  0  0  0  0
  -22.7816  -13.5219   21.1903 C   0  0  0  0  0  0
  -22.1660   -4.2179   21.0981 F   0  0  0  0  0  0
  -21.5629   -3.4550   25.7745 F   0  0  0  0  0  0
  -30.0285  -13.3215   20.4478 N   0  0  0  0  0  0
  -26.2984  -12.9394   20.3384 N   0  0  0  0  0  0
  -25.9319  -11.6532   20.5765 N   0  0  0  0  0  0
  -22.0466  -12.8143   22.0411 N   0  0  0  0  0  0
  -25.4319  -15.1937   20.4110 N   0  0  0  0  0  0
  -31.7577  -14.7552   20.0539 O   0  0  0  0  0  0
  -21.6643   -6.8895   21.4248 O   0  0  0  0  0  0
  -22.3487  -14.5542   20.6798 O   0  0  0  0  0  0
  -24.6185  -31.8684   23.2052 C   0  0  0  0  0  0
  -25.9065  -32.4822   23.8384 C   0  0  1  0  0  0
  -27.2224  -27.4059   20.1336 C   0  0  0  0  0  0
  -25.5920  -33.8608   24.2345 N   0  0  0  0  0  0
  -23.4050  -30.4935   21.5444 C   0  0  2  0  0  0
  -24.8531  -28.9580   20.1097 C   0  0  0  0  0  0
  -22.7418  -29.4704   22.4959 C   0  0  0  0  0  0
  -18.0279  -28.1352   22.8500 C   0  0  0  0  0  0
  -24.1478  -36.7262   23.2634 C   0  0  0  0  0  0
  -25.9312  -30.8390   21.3469 C   0  0  0  0  0  0
  -26.0144  -29.4654   20.7076 C   0  0  0  0  0  0
  -27.2058  -28.6972   20.7161 C   0  0  0  0  0  0
  -26.0501  -26.9310   19.5084 C   0  0  0  0  0  0
  -24.8686  -27.6931   19.5014 C   0  0  0  0  0  0
  -23.6126  -29.8210   20.1605 C   0  0  0  0  0  0
  -25.4093  -36.3092   24.0355 C   0  0  1  0  0  0
  -20.5882  -28.3661   23.1280 C   0  0  2  0  0  0
  -20.6777  -26.9396   22.5382 C   0  0  0  0  0  0
  -19.5746  -26.6400   21.5175 C   0  0  0  0  0  0
  -18.1925  -26.7914   22.1601 C   0  0  0  0  0  0
  -19.1536  -28.8816   23.2905 C   0  0  0  0  0  0
  -18.9473  -30.1409   23.8931 C   0  0  0  0  0  0
  -17.6479  -30.6572   24.0564 C   0  0  0  0  0  0
  -25.9049  -34.9463   23.5154 C   0  0  0  0  0  0
  -16.5365  -29.9080   23.6329 C   0  0  0  0  0  0
  -16.7278  -28.6483   23.0387 C   0  0  0  0  0  0
  -26.4522  -31.6547   25.0670 C   0  0  0  0  0  0
  -25.3791  -31.3508   26.1391 C   0  0  0  0  0  0
  -27.0387  -30.3060   24.5888 C   0  0  0  0  0  0
  -27.6135  -32.4190   25.7462 C   0  0  0  0  0  0
  -27.5574  -37.1776   24.8459 C   0  0  0  0  0  0
  -21.4142  -29.3056   22.3692 N   0  0  0  0  0  0
  -26.4258  -37.3803   23.9462 N   0  0  0  0  0  0
  -24.6707  -31.0807   22.0938 N   0  0  0  0  0  0
  -23.4180  -28.8256   23.3009 O   0  0  0  0  0  0
  -28.3385  -26.5914   20.1905 O   0  0  0  0  0  0
  -26.5588  -34.8910   22.4700 O   0  0  0  0  0  0
  -23.5373  -32.1422   23.7471 O   0  0  0  0  0  0
  -29.9181  -19.0210   20.0648 C   0  0  0  0  0  0
  -30.0565  -17.6032   19.8614 C   0  0  0  0  0  0
  -29.7271  -19.3762   21.3780 C   0  0  0  0  0  0
  -29.9691  -16.8510   21.0146 C   0  0  0  0  0  0
  -29.5040  -20.6870   22.0773 C   0  0  0  0  0  0
  -29.0970  -23.0750   21.7519 C   0  0  0  0  0  0
  -29.2377  -24.2809   20.7817 C   0  0  0  0  0  0
  -28.1112  -25.3517   20.9154 C   0  0  0  0  0  0
  -29.9335  -15.4926   21.1803 N   0  0  0  0  0  0
  -29.4411  -21.8242   21.3338 N   0  0  0  0  0  0
  -29.3892  -20.6719   23.3102 O   0  0  0  0  0  0
  -28.6722  -23.3157   22.8881 O   0  0  0  0  0  0
  -29.7253  -17.9279   22.3784 S   0  0  0  0  0  0
  -31.4682  -12.4701   19.1121 H   0  0  0  0  0  0
  -30.3506  -11.3321   19.8082 H   0  0  0  0  0  0
  -29.7278  -11.8065   17.4227 H   0  0  0  0  0  0
  -29.6510  -13.5158   17.7593 H   0  0  0  0  0  0
  -27.7978  -11.3373   18.7740 H   0  0  0  0  0  0
  -27.3647  -12.7059   17.7834 H   0  0  0  0  0  0
  -27.6996  -14.2701   19.5917 H   0  0  0  0  0  0
  -28.6814  -11.9480   21.3134 H   0  0  0  0  0  0
  -28.4513  -13.5707   21.8824 H   0  0  0  0  0  0
  -25.2779   -9.5676   22.4785 H   0  0  0  0  0  0
  -24.0033   -7.4617   22.7447 H   0  0  0  0  0  0
  -21.0909   -8.8765   19.8894 H   0  0  0  0  0  0
  -22.3772  -10.9675   19.6137 H   0  0  0  0  0  0
  -21.1973   -7.6154   23.9738 H   0  0  0  0  0  0
  -21.1473   -6.0530   25.9086 H   0  0  0  0  0  0
  -22.0603   -2.7631   23.2848 H   0  0  0  0  0  0
  -22.4088  -11.9747   22.4689 H   0  0  0  0  0  0
  -21.1043  -13.1067   22.2596 H   0  0  0  0  0  0
  -24.6795  -15.8651   20.5208 H   0  0  0  0  0  0
  -26.2938  -15.6193   20.0912 H   0  0  0  0  0  0
  -26.7148  -32.5573   23.1178 H   0  0  0  0  0  0
  -25.0146  -33.9765   25.0542 H   0  0  0  0  0  0
  -22.6942  -31.3099   21.4012 H   0  0  0  0  0  0
  -23.3775  -35.9553   23.3253 H   0  0  0  0  0  0
  -24.3601  -36.8934   22.2067 H   0  0  0  0  0  0
  -23.7176  -37.6430   23.6656 H   0  0  0  0  0  0
  -26.0103  -31.5918   20.5606 H   0  0  0  0  0  0
  -26.8316  -30.9257   21.9427 H   0  0  0  0  0  0
  -28.0943  -29.0807   21.1974 H   0  0  0  0  0  0
  -26.0357  -25.9548   19.0475 H   0  0  0  0  0  0
  -23.9753  -27.2976   19.0375 H   0  0  0  0  0  0
  -23.7046  -30.5877   19.3910 H   0  0  0  0  0  0
  -22.7402  -29.2287   19.8804 H   0  0  0  0  0  0
  -25.1258  -36.1971   25.0856 H   0  0  0  0  0  0
  -20.9984  -28.3238   24.1397 H   0  0  0  0  0  0
  -20.5658  -26.2283   23.3582 H   0  0  0  0  0  0
  -21.6647  -26.7427   22.1179 H   0  0  0  0  0  0
  -19.6920  -25.6327   21.1169 H   0  0  0  0  0  0
  -19.6677  -27.3240   20.6733 H   0  0  0  0  0  0
  -17.4203  -26.6678   21.4001 H   0  0  0  0  0  0
  -18.0328  -26.0013   22.8962 H   0  0  0  0  0  0
  -19.7950  -30.7205   24.2325 H   0  0  0  0  0  0
  -17.5045  -31.6267   24.5135 H   0  0  0  0  0  0
  -15.5370  -30.3004   23.7621 H   0  0  0  0  0  0
  -15.8677  -28.0799   22.7122 H   0  0  0  0  0  0
  -24.6086  -30.6753   25.7653 H   0  0  0  0  0  0
  -24.8824  -32.2578   26.4844 H   0  0  0  0  0  0
  -25.8175  -30.8676   27.0137 H   0  0  0  0  0  0
  -26.2904  -29.6764   24.1069 H   0  0  0  0  0  0
  -27.4473  -29.7316   25.4209 H   0  0  0  0  0  0
  -27.8555  -30.4524   23.8821 H   0  0  0  0  0  0
  -27.2892  -33.3579   26.1939 H   0  0  0  0  0  0
  -28.4033  -32.6551   25.0323 H   0  0  0  0  0  0
  -28.0648  -31.8300   26.5457 H   0  0  0  0  0  0
  -28.2485  -38.0172   24.7678 H   0  0  0  0  0  0
  -28.1194  -36.2734   24.6085 H   0  0  0  0  0  0
  -27.2308  -37.1183   25.8851 H   0  0  0  0  0  0
  -20.9290  -29.8814   21.6953 H   0  0  0  0  0  0
  -26.0142  -38.2864   24.1538 H   0  0  0  0  0  0
  -29.9461  -19.7190   19.2388 H   0  0  0  0  0  0
  -30.1771  -17.2002   18.8649 H   0  0  0  0  0  0
  -29.3000  -23.9264   19.7540 H   0  0  0  0  0  0
  -30.1848  -24.7707   21.0097 H   0  0  0  0  0  0
  -27.9913  -25.6262   21.9653 H   0  0  0  0  0  0
  -27.1739  -24.8757   20.6225 H   0  0  0  0  0  0
  -29.1541  -15.1456   21.7204 H   0  0  0  0  0  0
  -29.6666  -21.7194   20.3570 H   0  0  0  0  0  0
  1 25  1  0  0  0
  1 30  2  0  0  0
  1 79  1  0  0  0
  2  3  1  0  0  0
  2 25  1  0  0  0
  2 84  1  0  0  0
  2 85  1  0  0  0
  3  4  1  0  0  0
  3 86  1  0  0  0
  3 87  1  0  0  0
  4  5  1  0  0  0
  4 88  1  0  0  0
  4 89  1  0  0  0
  5  6  1  0  0  0
  5 26  1  0  0  0
  5 90  1  0  0  0
  6 25  1  0  0  0
  6 91  1  0  0  0
  6 92  1  0  0  0
  7  8  2  0  0  0
  7 26  1  0  0  0
  7 29  1  0  0  0
  8  9  1  0  0  0
  8 22  1  0  0  0
  9 10  1  0  0  0
  9 27  2  0  0  0
 10 11  2  0  0  0
 10 15  1  0  0  0
 11 12  1  0  0  0
 11 93  1  0  0  0
 12 13  2  0  0  0
 12 94  1  0  0  0
 13 14  1  0  0  0
 13 31  1  0  0  0
 14 15  2  0  0  0
 14 95  1  0  0  0
 15 96  1  0  0  0
 16 17  2  0  0  0
 16 21  1  0  0  0
 16 31  1  0  0  0
 17 18  1  0  0  0
 17 97  1  0  0  0
 18 19  2  0  0  0
 18 98  1  0  0  0
 19 20  1  0  0  0
 19 24  1  0  0  0
 20 21  2  0  0  0
 20 99  1  0  0  0
 21 23  1  0  0  0
 22 28  1  0  0  0
 22 32  2  0  0  0
 26 27  1  0  0  0
 28100  1  0  0  0
 28101  1  0  0  0
 29102  1  0  0  0
 29103  1  0  0  0
 33 34  1  0  0  0
 33 66  1  0  0  0
 33 70  2  0  0  0
 34 36  1  0  0  0
 34 59  1  0  0  0
 34104  1  0  0  0
 35 44  2  0  0  0
 35 45  1  0  0  0
 35 68  1  0  0  0
 36 56  1  0  0  0
 36105  1  0  0  0
 37 39  1  0  0  0
 37 47  1  0  0  0
 37 66  1  0  0  0
 37106  1  0  0  0
 38 43  2  0  0  0
 38 46  1  0  0  0
 38 47  1  0  0  0
 39 64  1  0  0  0
 39 67  2  0  0  0
 40 52  1  0  0  0
 40 53  2  0  0  0
 40 58  1  0  0  0
 41107  1  0  0  0
 41108  1  0  0  0
 41109  1  0  0  0
 41 48  1  0  0  0
 42 43  1  0  0  0
 42 66  1  0  0  0
 42110  1  0  0  0
 42111  1  0  0  0
 43 44  1  0  0  0
 44112  1  0  0  0
 45 46  2  0  0  0
 45113  1  0  0  0
 46114  1  0  0  0
 47115  1  0  0  0
 47116  1  0  0  0
 48 56  1  0  0  0
 48 65  1  0  0  0
 48117  1  0  0  0
 49 50  1  0  0  0
 49 53  1  0  0  0
 49 64  1  0  0  0
 49118  1  0  0  0
 50 51  1  0  0  0
 50119  1  0  0  0
 50120  1  0  0  0
 51 52  1  0  0  0
 51121  1  0  0  0
 51122  1  0  0  0
 52123  1  0  0  0
 52124  1  0  0  0
 53 54  1  0  0  0
 54 55  2  0  0  0
 54125  1  0  0  0
 55 57  1  0  0  0
 55126  1  0  0  0
 56 69  2  0  0  0
 57 58  2  0  0  0
 57127  1  0  0  0
 58128  1  0  0  0
 59 60  1  0  0  0
 59 61  1  0  0  0
 59 62  1  0  0  0
 60129  1  0  0  0
 60130  1  0  0  0
 60131  1  0  0  0
 61132  1  0  0  0
 61133  1  0  0  0
 61134  1  0  0  0
 62135  1  0  0  0
 62136  1  0  0  0
 62137  1  0  0  0
 63 65  1  0  0  0
 63138  1  0  0  0
 63139  1  0  0  0
 63140  1  0  0  0
 64141  1  0  0  0
 65142  1  0  0  0
 68 78  1  0  0  0
 71 72  1  0  0  0
 71 73  2  0  0  0
 71143  1  0  0  0
 72 74  2  0  0  0
 72144  1  0  0  0
 73 75  1  0  0  0
 73 83  1  0  0  0
 74 79  1  0  0  0
 74 83  1  0  0  0
 75 80  1  0  0  0
 75 81  2  0  0  0
 76 77  1  0  0  0
 76 80  1  0  0  0
 76 82  2  0  0  0
 77 78  1  0  0  0
 77145  1  0  0  0
 77146  1  0  0  0
 78147  1  0  0  0
 78148  1  0  0  0
 79149  1  0  0  0
 80150  1  0  0  0
M  ISO  4   1 100  68 101  78 101  79 100
M  END
> <chiral flag>
0

> <version>
0

> <s_m_source_file>
/data/baiqing/PycharmProjects/Reinvent-master-3.2/result/LINK_invent/BTK/process_docking_weight1_custom_product_contain_oxygen_bond_distance_aromatic_linkinvent_7_9_3/rearranged_h_0088.sdf

> <i_m_source_file_index>
40

> <r_mmod_Potential_Energy-OPLS-2005>
-178.1318359375

> <r_mmod_Stretch_Energy-OPLS-2005>
44.1919364929199

> <r_mmod_Bend_Energy-OPLS-2005>
105.478286743164

> <r_mmod_Torsional_Energy-OPLS-2005>
254.174591064453

> <r_mmod_Improper_Torsional_Energy-OPLS-2005>
3.23879957199097

> <r_mmod_Van_der_Waal_Energy-OPLS-2005>
139.156387329102

> <r_mmod_Electrostatic_Energy-OPLS-2005>
-469.939025878906

> <r_mmod_Solvation_Energy-OPLS-2005>
-276.471588134766

> <b_mmod_Minimization_Converged-OPLS-2005>
0

> <r_mmod_RMS_Derivative-OPLS-2005>
4.25275325775146

$$$$
40
                    3D
 Structure written by MMmdl.
154163  0  0  1  0            999 V2000
  -30.5708  -14.7517   20.4591 C   0  0  0  0  0  0
  -30.4501  -12.4581   19.4616 C   0  0  0  0  0  0
  -29.5151  -12.5075   18.2310 C   0  0  0  0  0  0
  -28.0407  -12.3270   18.6474 C   0  0  0  0  0  0
  -27.6462  -13.2216   19.8523 C   0  0  2  0  0  0
  -28.6944  -13.1315   20.9833 C   0  0  0  0  0  0
  -25.2546  -13.8191   20.5697 C   0  0  0  0  0  0
  -24.1822  -13.0437   20.9191 C   0  0  0  0  0  0
  -24.6400  -11.6911   20.8734 C   0  0  0  0  0  0
  -23.9070  -10.4293   21.0402 C   0  0  0  0  0  0
  -24.3620   -9.4208   21.9182 C   0  0  0  0  0  0
  -23.6293   -8.2246   22.0755 C   0  0  0  0  0  0
  -22.4275   -8.0284   21.3545 C   0  0  0  0  0  0
  -21.9908   -9.0258   20.4648 C   0  0  0  0  0  0
  -22.7240  -10.2136   20.3054 C   0  0  0  0  0  0
  -21.6853   -6.0734   22.5278 C   0  0  0  0  0  0
  -21.4015   -6.5639   23.8212 C   0  0  0  0  0  0
  -21.3659   -5.6792   24.9175 C   0  0  0  0  0  0
  -21.6045   -4.3054   24.7225 C   0  0  0  0  0  0
  -21.8819   -3.8146   23.4346 C   0  0  0  0  0  0
  -21.9193   -4.6962   22.3401 C   0  0  0  0  0  0
  -22.7843  -13.5222   21.1857 C   0  0  0  0  0  0
  -22.1661   -4.2147   21.0977 F   0  0  0  0  0  0
  -21.5628   -3.4539   25.7738 F   0  0  0  0  0  0
  -29.9953  -13.5016   20.4052 N   0  0  0  0  0  0
  -26.2966  -12.9372   20.3285 N   0  0  0  0  0  0
  -25.9327  -11.6521   20.5744 N   0  0  0  0  0  0
  -22.0489  -12.8218   22.0420 N   0  0  0  0  0  0
  -25.4178  -15.1937   20.4176 N   0  0  0  0  0  0
  -31.7620  -14.9071   20.1730 O   0  0  0  0  0  0
  -21.6639   -6.8880   21.4241 O   0  0  0  0  0  0
  -22.3519  -14.5524   20.6706 O   0  0  0  0  0  0
  -24.6313  -31.8549   23.1982 C   0  0  0  0  0  0
  -25.9135  -32.4754   23.8333 C   0  0  1  0  0  0
  -27.2280  -27.2692   20.1317 C   0  0  0  0  0  0
  -25.5929  -33.8555   24.2258 N   0  0  0  0  0  0
  -23.4298  -30.4754   21.5410 C   0  0  2  0  0  0
  -24.8819  -28.9192   20.1148 C   0  0  0  0  0  0
  -22.7507  -29.4594   22.4913 C   0  0  0  0  0  0
  -18.0293  -28.1386   22.8482 C   0  0  0  0  0  0
  -24.1490  -36.7285   23.2641 C   0  0  0  0  0  0
  -25.9755  -30.7685   21.3795 C   0  0  0  0  0  0
  -26.0529  -29.3890   20.7266 C   0  0  0  0  0  0
  -27.2325  -28.5747   20.7285 C   0  0  0  0  0  0
  -26.0382  -26.8612   19.4987 C   0  0  0  0  0  0
  -24.8781  -27.6610   19.4914 C   0  0  0  0  0  0
  -23.6511  -29.8057   20.1589 C   0  0  0  0  0  0
  -25.4116  -36.3069   24.0326 C   0  0  1  0  0  0
  -20.5897  -28.3698   23.1267 C   0  0  2  0  0  0
  -20.6780  -26.9414   22.5408 C   0  0  0  0  0  0
  -19.5756  -26.6381   21.5210 C   0  0  0  0  0  0
  -18.1937  -26.7927   22.1623 C   0  0  0  0  0  0
  -19.1546  -28.8860   23.2869 C   0  0  0  0  0  0
  -18.9467  -30.1459   23.8889 C   0  0  0  0  0  0
  -17.6465  -30.6586   24.0560 C   0  0  0  0  0  0
  -25.9053  -34.9439   23.5096 C   0  0  0  0  0  0
  -16.5357  -29.9082   23.6329 C   0  0  0  0  0  0
  -16.7279  -28.6499   23.0353 C   0  0  0  0  0  0
  -26.4502  -31.6580   25.0723 C   0  0  0  0  0  0
  -25.3722  -31.3733   26.1441 C   0  0  0  0  0  0
  -27.0356  -30.2996   24.6214 C   0  0  0  0  0  0
  -27.6052  -32.4326   25.7497 C   0  0  0  0  0  0
  -27.5575  -37.1802   24.8467 C   0  0  0  0  0  0
  -21.4214  -29.3043   22.3655 N   0  0  0  0  0  0
  -26.4294  -37.3765   23.9401 N   0  0  0  0  0  0
  -24.6976  -31.0511   22.0959 N   0  0  0  0  0  0
  -23.4200  -28.8138   23.3020 O   0  0  0  0  0  0
  -28.2875  -26.3378   20.1207 O   0  0  0  0  0  0
  -26.5627  -34.8912   22.4666 O   0  0  0  0  0  0
  -23.5461  -32.1370   23.7274 O   0  0  0  0  0  0
  -28.4824  -19.4187   20.0489 C   0  0  0  0  0  0
  -30.7272  -18.1329   21.1312 C   0  0  0  0  0  0
  -29.4242  -20.2596   20.7081 C   0  0  0  0  0  0
  -28.6372  -17.9909   19.9733 C   0  0  0  0  0  0
  -29.7475  -17.2910   20.5345 C   0  0  0  0  0  0
  -30.5642  -19.5606   21.2233 C   0  0  0  0  0  0
  -28.5936  -23.9906   21.2480 C   0  0  0  0  0  0
  -28.5857  -23.4051   22.5814 C   0  0  0  0  0  0
  -28.9382  -22.8515   20.3316 C   0  0  0  0  0  0
  -28.3097  -25.3598   21.1416 C   0  0  0  0  0  0
  -29.0031  -21.9540   22.5057 C   0  0  0  0  0  0
  -29.1394  -21.6808   21.0742 N   0  0  0  0  0  0
  -27.6477  -17.2347   19.3453 N   0  0  0  0  0  0
  -29.6887  -15.8079   20.6014 N   0  0  0  0  0  0
  -28.3097  -23.9632   23.6501 O   0  0  0  0  0  0
  -29.0321  -22.9079   19.1004 O   0  0  0  0  0  0
  -31.5173  -20.2679   21.8760 F   0  0  0  0  0  0
  -31.4859  -12.6124   19.1539 H   0  0  0  0  0  0
  -30.4186  -11.4758   19.9354 H   0  0  0  0  0  0
  -29.7969  -11.7367   17.5125 H   0  0  0  0  0  0
  -29.6356  -13.4626   17.7172 H   0  0  0  0  0  0
  -27.9001  -11.2775   18.9083 H   0  0  0  0  0  0
  -27.3814  -12.5194   17.8002 H   0  0  0  0  0  0
  -27.6415  -14.2444   19.4774 H   0  0  0  0  0  0
  -28.7329  -12.1228   21.3971 H   0  0  0  0  0  0
  -28.4285  -13.7886   21.8132 H   0  0  0  0  0  0
  -25.2766   -9.5683   22.4754 H   0  0  0  0  0  0
  -24.0001   -7.4637   22.7475 H   0  0  0  0  0  0
  -21.0838   -8.8780   19.8953 H   0  0  0  0  0  0
  -22.3701  -10.9676   19.6163 H   0  0  0  0  0  0
  -21.2009   -7.6147   23.9715 H   0  0  0  0  0  0
  -21.1479   -6.0521   25.9077 H   0  0  0  0  0  0
  -22.0598   -2.7607   23.2848 H   0  0  0  0  0  0
  -22.4111  -11.9886   22.4814 H   0  0  0  0  0  0
  -21.1106  -13.1243   22.2624 H   0  0  0  0  0  0
  -24.6399  -15.8307   20.5454 H   0  0  0  0  0  0
  -26.2595  -15.6802   20.1159 H   0  0  0  0  0  0
  -26.7204  -32.5412   23.1079 H   0  0  0  0  0  0
  -25.0069  -33.9693   25.0398 H   0  0  0  0  0  0
  -22.7262  -31.2971   21.3920 H   0  0  0  0  0  0
  -23.3743  -35.9630   23.3323 H   0  0  0  0  0  0
  -24.3574  -36.8887   22.2051 H   0  0  0  0  0  0
  -23.7260  -37.6499   23.6653 H   0  0  0  0  0  0
  -26.1129  -31.5271   20.6077 H   0  0  0  0  0  0
  -26.8530  -30.8214   22.0123 H   0  0  0  0  0  0
  -28.1313  -28.9282   21.2140 H   0  0  0  0  0  0
  -26.0033  -25.8897   19.0258 H   0  0  0  0  0  0
  -23.9821  -27.2937   19.0103 H   0  0  0  0  0  0
  -23.7761  -30.5800   19.4011 H   0  0  0  0  0  0
  -22.7704  -29.2378   19.8538 H   0  0  0  0  0  0
  -25.1301  -36.1920   25.0820 H   0  0  0  0  0  0
  -20.9988  -28.3277   24.1388 H   0  0  0  0  0  0
  -20.5675  -26.2308   23.3613 H   0  0  0  0  0  0
  -21.6649  -26.7433   22.1205 H   0  0  0  0  0  0
  -19.6917  -25.6291   21.1244 H   0  0  0  0  0  0
  -19.6691  -27.3186   20.6735 H   0  0  0  0  0  0
  -17.4204  -26.6670   21.4028 H   0  0  0  0  0  0
  -18.0339  -26.0071   22.9021 H   0  0  0  0  0  0
  -19.7944  -30.7277   24.2255 H   0  0  0  0  0  0
  -17.5020  -31.6265   24.5163 H   0  0  0  0  0  0
  -15.5357  -30.2981   23.7658 H   0  0  0  0  0  0
  -15.8678  -28.0812   22.7077 H   0  0  0  0  0  0
  -24.5903  -30.7073   25.7772 H   0  0  0  0  0  0
  -24.8905  -32.2903   26.4846 H   0  0  0  0  0  0
  -25.8037  -30.8926   27.0230 H   0  0  0  0  0  0
  -26.2949  -29.6737   24.1224 H   0  0  0  0  0  0
  -27.4023  -29.7265   25.4740 H   0  0  0  0  0  0
  -27.8830  -30.4272   23.9474 H   0  0  0  0  0  0
  -27.2652  -33.3627   26.2066 H   0  0  0  0  0  0
  -28.3865  -32.6887   25.0328 H   0  0  0  0  0  0
  -28.0717  -31.8459   26.5420 H   0  0  0  0  0  0
  -28.2609  -38.0083   24.7488 H   0  0  0  0  0  0
  -28.1057  -36.2613   24.6328 H   0  0  0  0  0  0
  -27.2289  -37.1494   25.8871 H   0  0  0  0  0  0
  -20.9406  -29.8761   21.6851 H   0  0  0  0  0  0
  -26.0174  -38.2843   24.1385 H   0  0  0  0  0  0
  -27.5842  -19.8721   19.6550 H   0  0  0  0  0  0
  -31.5920  -17.6839   21.5962 H   0  0  0  0  0  0
  -28.0849  -25.8790   22.0645 H   0  0  0  0  0  0
  -28.2423  -21.3157   22.9548 H   0  0  0  0  0  0
  -29.9449  -21.8133   23.0351 H   0  0  0  0  0  0
  -26.9747  -17.7714   18.8083 H   0  0  0  0  0  0
  -28.0126  -16.4784   18.7778 H   0  0  0  0  0  0
  -28.7348  -15.4846   20.6466 H   0  0  0  0  0  0
  1 25  1  0  0  0
  1 30  2  0  0  0
  1 84  1  0  0  0
  2  3  1  0  0  0
  2 25  1  0  0  0
  2 88  1  0  0  0
  2 89  1  0  0  0
  3  4  1  0  0  0
  3 90  1  0  0  0
  3 91  1  0  0  0
  4  5  1  0  0  0
  4 92  1  0  0  0
  4 93  1  0  0  0
  5  6  1  0  0  0
  5 26  1  0  0  0
  5 94  1  0  0  0
  6 25  1  0  0  0
  6 95  1  0  0  0
  6 96  1  0  0  0
  7  8  2  0  0  0
  7 26  1  0  0  0
  7 29  1  0  0  0
  8  9  1  0  0  0
  8 22  1  0  0  0
  9 10  1  0  0  0
  9 27  2  0  0  0
 10 11  2  0  0  0
 10 15  1  0  0  0
 11 12  1  0  0  0
 11 97  1  0  0  0
 12 13  2  0  0  0
 12 98  1  0  0  0
 13 14  1  0  0  0
 13 31  1  0  0  0
 14 15  2  0  0  0
 14 99  1  0  0  0
 15100  1  0  0  0
 16 17  2  0  0  0
 16 21  1  0  0  0
 16 31  1  0  0  0
 17 18  1  0  0  0
 17101  1  0  0  0
 18 19  2  0  0  0
 18102  1  0  0  0
 19 20  1  0  0  0
 19 24  1  0  0  0
 20 21  2  0  0  0
 20103  1  0  0  0
 21 23  1  0  0  0
 22 28  1  0  0  0
 22 32  2  0  0  0
 26 27  1  0  0  0
 28104  1  0  0  0
 28105  1  0  0  0
 29106  1  0  0  0
 29107  1  0  0  0
 33 34  1  0  0  0
 33 66  1  0  0  0
 33 70  2  0  0  0
 34 36  1  0  0  0
 34 59  1  0  0  0
 34108  1  0  0  0
 35 44  2  0  0  0
 35 45  1  0  0  0
 35 68  1  0  0  0
 36 56  1  0  0  0
 36109  1  0  0  0
 37 39  1  0  0  0
 37 47  1  0  0  0
 37 66  1  0  0  0
 37110  1  0  0  0
 38 43  2  0  0  0
 38 46  1  0  0  0
 38 47  1  0  0  0
 39 64  1  0  0  0
 39 67  2  0  0  0
 40 52  1  0  0  0
 40 53  2  0  0  0
 40 58  1  0  0  0
 41111  1  0  0  0
 41112  1  0  0  0
 41113  1  0  0  0
 41 48  1  0  0  0
 42 43  1  0  0  0
 42 66  1  0  0  0
 42114  1  0  0  0
 42115  1  0  0  0
 43 44  1  0  0  0
 44116  1  0  0  0
 45 46  2  0  0  0
 45117  1  0  0  0
 46118  1  0  0  0
 47119  1  0  0  0
 47120  1  0  0  0
 48 56  1  0  0  0
 48 65  1  0  0  0
 48121  1  0  0  0
 49 50  1  0  0  0
 49 53  1  0  0  0
 49 64  1  0  0  0
 49122  1  0  0  0
 50 51  1  0  0  0
 50123  1  0  0  0
 50124  1  0  0  0
 51 52  1  0  0  0
 51125  1  0  0  0
 51126  1  0  0  0
 52127  1  0  0  0
 52128  1  0  0  0
 53 54  1  0  0  0
 54 55  2  0  0  0
 54129  1  0  0  0
 55 57  1  0  0  0
 55130  1  0  0  0
 56 69  2  0  0  0
 57 58  2  0  0  0
 57131  1  0  0  0
 58132  1  0  0  0
 59 60  1  0  0  0
 59 61  1  0  0  0
 59 62  1  0  0  0
 60133  1  0  0  0
 60134  1  0  0  0
 60135  1  0  0  0
 61136  1  0  0  0
 61137  1  0  0  0
 61138  1  0  0  0
 62139  1  0  0  0
 62140  1  0  0  0
 62141  1  0  0  0
 63 65  1  0  0  0
 63142  1  0  0  0
 63143  1  0  0  0
 63144  1  0  0  0
 64145  1  0  0  0
 65146  1  0  0  0
 68 80  1  0  0  0
 71 73  2  0  0  0
 71 74  1  0  0  0
 71147  1  0  0  0
 72 75  1  0  0  0
 72 76  2  0  0  0
 72148  1  0  0  0
 73 76  1  0  0  0
 73 82  1  0  0  0
 74 75  2  0  0  0
 74 83  1  0  0  0
 75 84  1  0  0  0
 76 87  1  0  0  0
 77 78  1  0  0  0
 77 79  1  0  0  0
 77 80  2  0  0  0
 78 81  1  0  0  0
 78 85  2  0  0  0
 79 82  1  0  0  0
 79 86  2  0  0  0
 80149  1  0  0  0
 81 82  1  0  0  0
 81150  1  0  0  0
 81151  1  0  0  0
 83152  1  0  0  0
 83153  1  0  0  0
 84154  1  0  0  0
M  ISO  4   1 100  68 101  80 101  84 100
M  END
> <chiral flag>
0

> <version>
0

> <s_m_source_file>
/data/baiqing/PycharmProjects/Reinvent-master-3.2/result/LINK_invent/BTK/process_docking_weight1_custom_product_contain_oxygen_bond_distance_aromatic_linkinvent_7_9_3/rearranged_h_0088.sdf

> <i_m_source_file_index>
41

> <r_mmod_Potential_Energy-OPLS-2005>
156.449661254883

> <r_mmod_Stretch_Energy-OPLS-2005>
110.94384765625

> <r_mmod_Bend_Energy-OPLS-2005>
252.850494384766

> <r_mmod_Torsional_Energy-OPLS-2005>
315.114074707031

> <r_mmod_Improper_Torsional_Energy-OPLS-2005>
13.561915397644

> <r_mmod_Van_der_Waal_Energy-OPLS-2005>
128.926284790039

> <r_mmod_Electrostatic_Energy-OPLS-2005>
-519.854370117188

> <r_mmod_Solvation_Energy-OPLS-2005>
-233.856201171875

> <b_mmod_Minimization_Converged-OPLS-2005>
0

> <r_mmod_RMS_Derivative-OPLS-2005>
0.366515159606934

$$$$
41
                    3D
 Structure written by MMmdl.
167177  0  0  1  0            999 V2000
  -30.5653  -14.7843   20.4595 C   0  0  0  0  0  0
  -30.4425  -12.4880   19.4689 C   0  0  0  0  0  0
  -29.5164  -12.4978   18.2360 C   0  0  0  0  0  0
  -28.0419  -12.3215   18.6504 C   0  0  0  0  0  0
  -27.6363  -13.2336   19.8395 C   0  0  2  0  0  0
  -28.6759  -13.1814   20.9765 C   0  0  0  0  0  0
  -25.2485  -13.8211   20.5632 C   0  0  0  0  0  0
  -24.1803  -13.0461   20.9209 C   0  0  0  0  0  0
  -24.6419  -11.6941   20.8799 C   0  0  0  0  0  0
  -23.9121  -10.4323   21.0467 C   0  0  0  0  0  0
  -24.3663   -9.4225   21.9234 C   0  0  0  0  0  0
  -23.6309   -8.2268   22.0763 C   0  0  0  0  0  0
  -22.4281   -8.0327   21.3533 C   0  0  0  0  0  0
  -21.9943   -9.0335   20.4645 C   0  0  0  0  0  0
  -22.7304  -10.2197   20.3092 C   0  0  0  0  0  0
  -21.6850   -6.0788   22.5297 C   0  0  0  0  0  0
  -21.4018   -6.5672   23.8242 C   0  0  0  0  0  0
  -21.3636   -5.6796   24.9181 C   0  0  0  0  0  0
  -21.6036   -4.3065   24.7225 C   0  0  0  0  0  0
  -21.8793   -3.8174   23.4339 C   0  0  0  0  0  0
  -21.9190   -4.7012   22.3410 C   0  0  0  0  0  0
  -22.7811  -13.5242   21.1855 C   0  0  0  0  0  0
  -22.1645   -4.2192   21.0984 F   0  0  0  0  0  0
  -21.5604   -3.4538   25.7737 F   0  0  0  0  0  0
  -29.9673  -13.5480   20.3873 N   0  0  0  0  0  0
  -26.2915  -12.9417   20.3226 N   0  0  0  0  0  0
  -25.9353  -11.6571   20.5814 N   0  0  0  0  0  0
  -22.0427  -12.8270   22.0410 N   0  0  0  0  0  0
  -25.4180  -15.1925   20.3903 N   0  0  0  0  0  0
  -31.7671  -14.8888   20.1919 O   0  0  0  0  0  0
  -21.6602   -6.8949   21.4260 O   0  0  0  0  0  0
  -22.3531  -14.5563   20.6708 O   0  0  0  0  0  0
  -24.6327  -31.8566   23.1967 C   0  0  0  0  0  0
  -25.9175  -32.4753   23.8296 C   0  0  1  0  0  0
  -27.2303  -27.2484   20.1500 C   0  0  0  0  0  0
  -25.5963  -33.8541   24.2256 N   0  0  0  0  0  0
  -23.4289  -30.4765   21.5404 C   0  0  2  0  0  0
  -24.8751  -28.9046   20.1294 C   0  0  0  0  0  0
  -22.7468  -29.4637   22.4929 C   0  0  0  0  0  0
  -18.0275  -28.1386   22.8499 C   0  0  0  0  0  0
  -24.1501  -36.7274   23.2633 C   0  0  0  0  0  0
  -25.9737  -30.7571   21.3847 C   0  0  0  0  0  0
  -26.0432  -29.3702   20.7472 C   0  0  0  0  0  0
  -27.2202  -28.5535   20.7509 C   0  0  0  0  0  0
  -26.0475  -26.8638   19.4865 C   0  0  0  0  0  0
  -24.8825  -27.6566   19.4880 C   0  0  0  0  0  0
  -23.6501  -29.8001   20.1603 C   0  0  0  0  0  0
  -25.4108  -36.3039   24.0325 C   0  0  1  0  0  0
  -20.5869  -28.3723   23.1266 C   0  0  2  0  0  0
  -20.6765  -26.9443   22.5404 C   0  0  0  0  0  0
  -19.5709  -26.6335   21.5242 C   0  0  0  0  0  0
  -18.1921  -26.7899   22.1679 C   0  0  0  0  0  0
  -19.1529  -28.8867   23.2882 C   0  0  0  0  0  0
  -18.9477  -30.1465   23.8893 C   0  0  0  0  0  0
  -17.6489  -30.6600   24.0567 C   0  0  0  0  0  0
  -25.9045  -34.9427   23.5088 C   0  0  0  0  0  0
  -16.5386  -29.9098   23.6329 C   0  0  0  0  0  0
  -16.7264  -28.6531   23.0337 C   0  0  0  0  0  0
  -26.4520  -31.6555   25.0686 C   0  0  0  0  0  0
  -25.3734  -31.3745   26.1406 C   0  0  0  0  0  0
  -27.0388  -30.2954   24.6224 C   0  0  0  0  0  0
  -27.6064  -32.4312   25.7466 C   0  0  0  0  0  0
  -27.5572  -37.1767   24.8457 C   0  0  0  0  0  0
  -21.4184  -29.3107   22.3656 N   0  0  0  0  0  0
  -26.4276  -37.3747   23.9412 N   0  0  0  0  0  0
  -24.6966  -31.0513   22.0959 N   0  0  0  0  0  0
  -23.4134  -28.8145   23.3043 O   0  0  0  0  0  0
  -28.3930  -26.4554   20.0082 O   0  0  0  0  0  0
  -26.5640  -34.8915   22.4658 O   0  0  0  0  0  0
  -23.5485  -32.1426   23.7244 O   0  0  0  0  0  0
  -31.5583  -19.0417   21.7281 C   0  0  0  0  0  0
  -30.6964  -20.1033   21.3808 C   0  0  0  0  0  0
  -31.2526  -17.7045   21.4171 C   0  0  0  0  0  0
  -29.4727  -19.8940   20.6985 C   0  0  0  0  0  0
  -30.0452  -17.3546   20.7804 C   0  0  0  0  0  0
  -29.1532  -18.4706   20.4530 C   0  0  0  0  0  0
  -28.3103  -23.8612   20.1581 C   0  0  0  0  0  0
  -26.2567  -22.8289   19.2323 C   0  0  0  0  0  0
  -28.6955  -25.1469   20.5212 C   0  0  0  0  0  0
  -29.0625  -22.5251   20.6652 C   0  0  0  0  0  0
  -24.8438  -23.3610   19.0703 C   0  0  0  0  0  0
  -23.7510  -22.3020   19.2545 C   0  0  0  0  0  0
  -24.2543  -21.1641   20.1317 C   0  0  0  0  0  0
  -25.4507  -20.5072   19.4508 C   0  0  0  0  0  0
  -27.8813  -20.9757   19.1242 C   0  0  0  0  0  0
  -28.6862  -21.0860   20.3266 N   0  0  0  0  0  0
  -26.5237  -21.4982   19.2969 N   0  0  0  0  0  0
  -27.1833  -23.8070   19.3471 N   0  3  0  0  0  0
  -29.7394  -15.9061   20.5681 N   0  0  0  0  0  0
  -27.9474  -18.1435   19.9269 F   0  0  0  0  0  0
  -31.4746  -12.6562   19.1557 H   0  0  0  0  0  0
  -30.4272  -11.5185   19.9649 H   0  0  0  0  0  0
  -29.8134  -11.7212   17.5290 H   0  0  0  0  0  0
  -29.6316  -13.4469   17.7138 H   0  0  0  0  0  0
  -27.8978  -11.2757   18.9237 H   0  0  0  0  0  0
  -27.3881  -12.5023   17.7983 H   0  0  0  0  0  0
  -27.6169  -14.2503   19.4447 H   0  0  0  0  0  0
  -28.7199  -12.1877   21.4259 H   0  0  0  0  0  0
  -28.4044  -13.8717   21.7791 H   0  0  0  0  0  0
  -25.2821   -9.5668   22.4810 H   0  0  0  0  0  0
  -23.9985   -7.4643   22.7478 H   0  0  0  0  0  0
  -21.0877   -8.8935   19.8943 H   0  0  0  0  0  0
  -22.3835  -10.9766   19.6202 H   0  0  0  0  0  0
  -21.2023   -7.6179   23.9769 H   0  0  0  0  0  0
  -21.1455   -6.0520   25.9089 H   0  0  0  0  0  0
  -22.0590   -2.7646   23.2834 H   0  0  0  0  0  0
  -22.3941  -11.9939   22.4867 H   0  0  0  0  0  0
  -21.1073  -13.1374   22.2586 H   0  0  0  0  0  0
  -24.6473  -15.8440   20.4938 H   0  0  0  0  0  0
  -26.2589  -15.6267   20.0368 H   0  0  0  0  0  0
  -26.7224  -32.5427   23.1005 H   0  0  0  0  0  0
  -25.0107  -33.9634   25.0409 H   0  0  0  0  0  0
  -22.7276  -31.2986   21.3840 H   0  0  0  0  0  0
  -23.3757  -35.9616   23.3292 H   0  0  0  0  0  0
  -24.3598  -36.8908   22.2049 H   0  0  0  0  0  0
  -23.7270  -37.6468   23.6678 H   0  0  0  0  0  0
  -26.1138  -31.5057   20.6039 H   0  0  0  0  0  0
  -26.8540  -30.8158   22.0137 H   0  0  0  0  0  0
  -28.1253  -28.9219   21.2149 H   0  0  0  0  0  0
  -26.0218  -25.9664   18.9010 H   0  0  0  0  0  0
  -24.0054  -27.3096   18.9596 H   0  0  0  0  0  0
  -23.7781  -30.5686   19.3964 H   0  0  0  0  0  0
  -22.7689  -29.2319   19.8575 H   0  0  0  0  0  0
  -25.1291  -36.1846   25.0818 H   0  0  0  0  0  0
  -20.9956  -28.3292   24.1394 H   0  0  0  0  0  0
  -20.5709  -26.2346   23.3619 H   0  0  0  0  0  0
  -21.6619  -26.7476   22.1155 H   0  0  0  0  0  0
  -19.6859  -25.6196   21.1368 H   0  0  0  0  0  0
  -19.6597  -27.3026   20.6669 H   0  0  0  0  0  0
  -17.4160  -26.6583   21.4118 H   0  0  0  0  0  0
  -18.0370  -26.0047   22.9099 H   0  0  0  0  0  0
  -19.7949  -30.7265   24.2284 H   0  0  0  0  0  0
  -17.5055  -31.6228   24.5248 H   0  0  0  0  0  0
  -15.5388  -30.3023   23.7681 H   0  0  0  0  0  0
  -15.8650  -28.0860   22.7044 H   0  0  0  0  0  0
  -24.5880  -30.7126   25.7739 H   0  0  0  0  0  0
  -24.8963  -32.2950   26.4784 H   0  0  0  0  0  0
  -25.8022  -30.8928   27.0207 H   0  0  0  0  0  0
  -26.3005  -29.6660   24.1240 H   0  0  0  0  0  0
  -27.4049  -29.7226   25.4758 H   0  0  0  0  0  0
  -27.8894  -30.4210   23.9520 H   0  0  0  0  0  0
  -27.2645  -33.3608   26.2033 H   0  0  0  0  0  0
  -28.3871  -32.6884   25.0295 H   0  0  0  0  0  0
  -28.0756  -31.8461   26.5385 H   0  0  0  0  0  0
  -28.2558  -38.0082   24.7499 H   0  0  0  0  0  0
  -28.1091  -36.2607   24.6282 H   0  0  0  0  0  0
  -27.2309  -37.1420   25.8863 H   0  0  0  0  0  0
  -20.9387  -29.8820   21.6846 H   0  0  0  0  0  0
  -26.0147  -38.2830   24.1368 H   0  0  0  0  0  0
  -32.4829  -19.2501   22.2512 H   0  0  0  0  0  0
  -31.0187  -21.0974   21.6509 H   0  0  0  0  0  0
  -31.9566  -16.9455   21.7232 H   0  0  0  0  0  0
  -29.5449  -25.2380   21.1837 H   0  0  0  0  0  0
  -29.1488  -22.6095   21.7483 H   0  0  0  0  0  0
  -30.0787  -22.6541   20.2855 H   0  0  0  0  0  0
  -24.7323  -23.8445   18.0964 H   0  0  0  0  0  0
  -24.6923  -24.1389   19.8206 H   0  0  0  0  0  0
  -23.4353  -21.9132   18.2849 H   0  0  0  0  0  0
  -22.8692  -22.7680   19.7009 H   0  0  0  0  0  0
  -23.4659  -20.4341   20.3137 H   0  0  0  0  0  0
  -24.5523  -21.5473   21.1095 H   0  0  0  0  0  0
  -25.1665  -20.1046   18.4793 H   0  0  0  0  0  0
  -25.8083  -19.6663   20.0455 H   0  0  0  0  0  0
  -27.8369  -19.9679   18.7252 H   0  0  0  0  0  0
  -28.3629  -21.5448   18.3296 H   0  0  0  0  0  0
  -26.8144  -24.6681   18.9740 H   0  0  0  0  0  0
  -28.7561  -15.6963   20.5030 H   0  0  0  0  0  0
  1 25  1  0  0  0
  1 30  2  0  0  0
  1 89  1  0  0  0
  2  3  1  0  0  0
  2 25  1  0  0  0
  2 91  1  0  0  0
  2 92  1  0  0  0
  3  4  1  0  0  0
  3 93  1  0  0  0
  3 94  1  0  0  0
  4  5  1  0  0  0
  4 95  1  0  0  0
  4 96  1  0  0  0
  5  6  1  0  0  0
  5 26  1  0  0  0
  5 97  1  0  0  0
  6 25  1  0  0  0
  6 98  1  0  0  0
  6 99  1  0  0  0
  7  8  2  0  0  0
  7 26  1  0  0  0
  7 29  1  0  0  0
  8  9  1  0  0  0
  8 22  1  0  0  0
  9 10  1  0  0  0
  9 27  2  0  0  0
 10 11  2  0  0  0
 10 15  1  0  0  0
 11 12  1  0  0  0
 11100  1  0  0  0
 12 13  2  0  0  0
 12101  1  0  0  0
 13 14  1  0  0  0
 13 31  1  0  0  0
 14 15  2  0  0  0
 14102  1  0  0  0
 15103  1  0  0  0
 16 17  2  0  0  0
 16 21  1  0  0  0
 16 31  1  0  0  0
 17 18  1  0  0  0
 17104  1  0  0  0
 18 19  2  0  0  0
 18105  1  0  0  0
 19 20  1  0  0  0
 19 24  1  0  0  0
 20 21  2  0  0  0
 20106  1  0  0  0
 21 23  1  0  0  0
 22 28  1  0  0  0
 22 32  2  0  0  0
 26 27  1  0  0  0
 28107  1  0  0  0
 28108  1  0  0  0
 29109  1  0  0  0
 29110  1  0  0  0
 33 34  1  0  0  0
 33 66  1  0  0  0
 33 70  2  0  0  0
 34 36  1  0  0  0
 34 59  1  0  0  0
 34111  1  0  0  0
 35 44  2  0  0  0
 35 45  1  0  0  0
 35 68  1  0  0  0
 36 56  1  0  0  0
 36112  1  0  0  0
 37 39  1  0  0  0
 37 47  1  0  0  0
 37 66  1  0  0  0
 37113  1  0  0  0
 38 43  2  0  0  0
 38 46  1  0  0  0
 38 47  1  0  0  0
 39 64  1  0  0  0
 39 67  2  0  0  0
 40 52  1  0  0  0
 40 53  2  0  0  0
 40 58  1  0  0  0
 41114  1  0  0  0
 41115  1  0  0  0
 41116  1  0  0  0
 41 48  1  0  0  0
 42 43  1  0  0  0
 42 66  1  0  0  0
 42117  1  0  0  0
 42118  1  0  0  0
 43 44  1  0  0  0
 44119  1  0  0  0
 45 46  2  0  0  0
 45120  1  0  0  0
 46121  1  0  0  0
 47122  1  0  0  0
 47123  1  0  0  0
 48 56  1  0  0  0
 48 65  1  0  0  0
 48124  1  0  0  0
 49 50  1  0  0  0
 49 53  1  0  0  0
 49 64  1  0  0  0
 49125  1  0  0  0
 50 51  1  0  0  0
 50126  1  0  0  0
 50127  1  0  0  0
 51 52  1  0  0  0
 51128  1  0  0  0
 51129  1  0  0  0
 52130  1  0  0  0
 52131  1  0  0  0
 53 54  1  0  0  0
 54 55  2  0  0  0
 54132  1  0  0  0
 55 57  1  0  0  0
 55133  1  0  0  0
 56 69  2  0  0  0
 57 58  2  0  0  0
 57134  1  0  0  0
 58135  1  0  0  0
 59 60  1  0  0  0
 59 61  1  0  0  0
 59 62  1  0  0  0
 60136  1  0  0  0
 60137  1  0  0  0
 60138  1  0  0  0
 61139  1  0  0  0
 61140  1  0  0  0
 61141  1  0  0  0
 62142  1  0  0  0
 62143  1  0  0  0
 62144  1  0  0  0
 63 65  1  0  0  0
 63145  1  0  0  0
 63146  1  0  0  0
 63147  1  0  0  0
 64148  1  0  0  0
 65149  1  0  0  0
 68 79  1  0  0  0
 71 72  2  0  0  0
 71 73  1  0  0  0
 71150  1  0  0  0
 72 74  1  0  0  0
 72151  1  0  0  0
 73 75  2  0  0  0
 73152  1  0  0  0
 74 76  2  0  0  0
 74 86  1  0  0  0
 75 76  1  0  0  0
 75 89  1  0  0  0
 76 90  1  0  0  0
 77 79  2  0  0  0
 77 80  1  0  0  0
 77 88  1  0  0  0
 78 81  1  0  0  0
 78 87  1  0  0  0
 78 88  2  0  0  0
 79153  1  0  0  0
 80 86  1  0  0  0
 80154  1  0  0  0
 80155  1  0  0  0
 81 82  1  0  0  0
 81156  1  0  0  0
 81157  1  0  0  0
 82 83  1  0  0  0
 82158  1  0  0  0
 82159  1  0  0  0
 83 84  1  0  0  0
 83160  1  0  0  0
 83161  1  0  0  0
 84 87  1  0  0  0
 84162  1  0  0  0
 84163  1  0  0  0
 85 86  1  0  0  0
 85 87  1  0  0  0
 85164  1  0  0  0
 85165  1  0  0  0
 88166  1  0  0  0
 89167  1  0  0  0
M  CHG  1  88   1
M  ISO  4   1 100  68 101  79 101  89 100
M  END
> <chiral flag>
0

> <version>
0

> <s_m_source_file>
/data/baiqing/PycharmProjects/Reinvent-master-3.2/result/LINK_invent/BTK/process_docking_weight1_custom_product_contain_oxygen_bond_distance_aromatic_linkinvent_7_9_3/rearranged_h_0088.sdf

> <i_m_source_file_index>
42

> <r_mmod_Potential_Energy-OPLS-2005>
325.621429443359

> <r_mmod_Stretch_Energy-OPLS-2005>
142.28466796875

> <r_mmod_Bend_Energy-OPLS-2005>
238.856231689453

> <r_mmod_Torsional_Energy-OPLS-2005>
284.376953125

> <r_mmod_Improper_Torsional_Energy-OPLS-2005>
10.6883535385132

> <r_mmod_Van_der_Waal_Energy-OPLS-2005>
142.789749145508

> <r_mmod_Electrostatic_Energy-OPLS-2005>
-181.567367553711

> <r_mmod_Solvation_Energy-OPLS-2005>
-402.953155517578

> <b_mmod_Minimization_Converged-OPLS-2005>
0

> <r_mmod_RMS_Derivative-OPLS-2005>
5.11687231063843

$$$$
42
                    3D
 Structure written by MMmdl.
149157  0  0  1  0            999 V2000
  -30.6170  -14.7891   20.4584 C   0  0  0  0  0  0
  -30.4250  -12.4826   19.4881 C   0  0  0  0  0  0
  -29.5057  -12.5140   18.2477 C   0  0  0  0  0  0
  -28.0364  -12.3231   18.6656 C   0  0  0  0  0  0
  -27.6356  -13.2395   19.8518 C   0  0  2  0  0  0
  -28.6797  -13.2078   20.9904 C   0  0  0  0  0  0
  -25.2478  -13.8220   20.5720 C   0  0  0  0  0  0
  -24.1785  -13.0443   20.9232 C   0  0  0  0  0  0
  -24.6388  -11.6925   20.8765 C   0  0  0  0  0  0
  -23.9065  -10.4292   21.0402 C   0  0  0  0  0  0
  -24.3618   -9.4207   21.9176 C   0  0  0  0  0  0
  -23.6292   -8.2236   22.0748 C   0  0  0  0  0  0
  -22.4271   -8.0265   21.3538 C   0  0  0  0  0  0
  -21.9913   -9.0237   20.4634 C   0  0  0  0  0  0
  -22.7238  -10.2118   20.3046 C   0  0  0  0  0  0
  -21.6858   -6.0725   22.5272 C   0  0  0  0  0  0
  -21.4015   -6.5633   23.8202 C   0  0  0  0  0  0
  -21.3661   -5.6792   24.9171 C   0  0  0  0  0  0
  -21.6046   -4.3050   24.7228 C   0  0  0  0  0  0
  -21.8822   -3.8136   23.4351 C   0  0  0  0  0  0
  -21.9197   -4.6951   22.3405 C   0  0  0  0  0  0
  -22.7797  -13.5198   21.1878 C   0  0  0  0  0  0
  -22.1667   -4.2128   21.0981 F   0  0  0  0  0  0
  -21.5631   -3.4530   25.7744 F   0  0  0  0  0  0
  -29.9768  -13.5647   20.4031 N   0  0  0  0  0  0
  -26.2906  -12.9430   20.3312 N   0  0  0  0  0  0
  -25.9318  -11.6565   20.5790 N   0  0  0  0  0  0
  -22.0467  -12.8168   22.0432 N   0  0  0  0  0  0
  -25.4160  -15.1938   20.4099 N   0  0  0  0  0  0
  -31.8097  -14.8247   20.1448 O   0  0  0  0  0  0
  -21.6642   -6.8854   21.4226 O   0  0  0  0  0  0
  -22.3463  -14.5493   20.6709 O   0  0  0  0  0  0
  -24.6325  -31.8507   23.1938 C   0  0  0  0  0  0
  -25.9133  -32.4731   23.8305 C   0  0  1  0  0  0
  -27.2269  -27.2312   20.1543 C   0  0  0  0  0  0
  -25.5915  -33.8532   24.2234 N   0  0  0  0  0  0
  -23.4325  -30.4683   21.5353 C   0  0  2  0  0  0
  -24.8827  -28.9064   20.1091 C   0  0  0  0  0  0
  -22.7522  -29.4559   22.4899 C   0  0  0  0  0  0
  -18.0309  -28.1360   22.8488 C   0  0  0  0  0  0
  -24.1485  -36.7291   23.2649 C   0  0  0  0  0  0
  -25.9774  -30.7574   21.3749 C   0  0  0  0  0  0
  -26.0508  -29.3745   20.7229 C   0  0  0  0  0  0
  -27.2200  -28.5474   20.7365 C   0  0  0  0  0  0
  -26.0324  -26.8309   19.5147 C   0  0  0  0  0  0
  -24.8808  -27.6447   19.4939 C   0  0  0  0  0  0
  -23.6529  -29.7940   20.1536 C   0  0  0  0  0  0
  -25.4120  -36.3062   24.0319 C   0  0  1  0  0  0
  -20.5906  -28.3693   23.1290 C   0  0  2  0  0  0
  -20.6771  -26.9413   22.5432 C   0  0  0  0  0  0
  -19.5766  -26.6383   21.5205 C   0  0  0  0  0  0
  -18.1943  -26.7912   22.1606 C   0  0  0  0  0  0
  -19.1563  -28.8843   23.2878 C   0  0  0  0  0  0
  -18.9468  -30.1444   23.8889 C   0  0  0  0  0  0
  -17.6453  -30.6561   24.0559 C   0  0  0  0  0  0
  -25.9048  -34.9422   23.5091 C   0  0  0  0  0  0
  -16.5355  -29.9045   23.6332 C   0  0  0  0  0  0
  -16.7291  -28.6463   23.0357 C   0  0  0  0  0  0
  -26.4489  -31.6579   25.0723 C   0  0  0  0  0  0
  -25.3717  -31.3731   26.1454 C   0  0  0  0  0  0
  -27.0350  -30.2993   24.6233 C   0  0  0  0  0  0
  -27.6033  -32.4329   25.7521 C   0  0  0  0  0  0
  -27.5559  -37.1832   24.8487 C   0  0  0  0  0  0
  -21.4214  -29.3042   22.3667 N   0  0  0  0  0  0
  -26.4310  -37.3746   23.9373 N   0  0  0  0  0  0
  -24.7000  -31.0458   22.0913 N   0  0  0  0  0  0
  -23.4208  -28.8107   23.3021 O   0  0  0  0  0  0
  -28.3334  -26.3528   20.2760 O   0  0  0  0  0  0
  -26.5638  -34.8890   22.4659 O   0  0  0  0  0  0
  -23.5471  -32.1324   23.7244 O   0  0  0  0  0  0
  -31.9643  -19.1617   20.2368 C   0  0  0  0  0  0
  -31.0418  -20.2159   20.3680 C   0  0  0  0  0  0
  -31.5710  -17.8112   20.3362 C   0  0  0  0  0  0
  -29.2917  -18.5509   20.7000 C   0  0  0  0  0  0
  -29.6747  -19.9657   20.6009 C   0  0  0  0  0  0
  -30.2270  -17.4244   20.5649 C   0  0  0  0  0  0
  -28.4251  -23.6004   20.5109 C   0  0  0  0  0  0
  -28.7487  -21.2064   20.8521 C   0  0  0  0  0  0
  -28.4353  -24.9762   19.6597 C   0  0  0  0  0  0
  -28.9667  -22.4436   20.1415 N   0  0  0  0  0  0
  -29.8719  -15.9618   20.6669 N   0  0  0  0  0  0
  -27.8459  -21.0458   21.6740 O   0  0  0  0  0  0
  -31.4652  -12.6008   19.1796 H   0  0  0  0  0  0
  -30.3682  -11.5152   19.9903 H   0  0  0  0  0  0
  -29.7975  -11.7414   17.5362 H   0  0  0  0  0  0
  -29.6191  -13.4679   17.7298 H   0  0  0  0  0  0
  -27.9119  -11.2776   18.9522 H   0  0  0  0  0  0
  -27.3731  -12.4872   17.8149 H   0  0  0  0  0  0
  -27.6199  -14.2540   19.4546 H   0  0  0  0  0  0
  -28.7278  -12.2212   21.4538 H   0  0  0  0  0  0
  -28.4090  -13.9071   21.7833 H   0  0  0  0  0  0
  -25.2752   -9.5687   22.4771 H   0  0  0  0  0  0
  -24.0001   -7.4622   22.7472 H   0  0  0  0  0  0
  -21.0847   -8.8748   19.8936 H   0  0  0  0  0  0
  -22.3684  -10.9659   19.6160 H   0  0  0  0  0  0
  -21.2014   -7.6135   23.9697 H   0  0  0  0  0  0
  -21.1481   -6.0524   25.9072 H   0  0  0  0  0  0
  -22.0608   -2.7593   23.2861 H   0  0  0  0  0  0
  -22.4112  -11.9821   22.4802 H   0  0  0  0  0  0
  -21.1075  -13.1163   22.2641 H   0  0  0  0  0  0
  -24.6458  -15.8475   20.5025 H   0  0  0  0  0  0
  -26.2583  -15.6267   20.0516 H   0  0  0  0  0  0
  -26.7225  -32.5372   23.1063 H   0  0  0  0  0  0
  -25.0026  -33.9651   25.0361 H   0  0  0  0  0  0
  -22.7290  -31.2903   21.3832 H   0  0  0  0  0  0
  -23.3717  -35.9662   23.3365 H   0  0  0  0  0  0
  -24.3565  -36.8869   22.2059 H   0  0  0  0  0  0
  -23.7292  -37.6522   23.6649 H   0  0  0  0  0  0
  -26.1146  -31.5106   20.5981 H   0  0  0  0  0  0
  -26.8563  -30.8147   22.0060 H   0  0  0  0  0  0
  -28.1104  -28.8976   21.2418 H   0  0  0  0  0  0
  -25.9373  -25.8557   19.0667 H   0  0  0  0  0  0
  -23.9836  -27.2764   19.0156 H   0  0  0  0  0  0
  -23.7793  -30.5643   19.3926 H   0  0  0  0  0  0
  -22.7728  -29.2225   19.8524 H   0  0  0  0  0  0
  -25.1321  -36.1920   25.0824 H   0  0  0  0  0  0
  -20.9991  -28.3267   24.1412 H   0  0  0  0  0  0
  -20.5636  -26.2310   23.3633 H   0  0  0  0  0  0
  -21.6647  -26.7398   22.1281 H   0  0  0  0  0  0
  -19.6955  -25.6283   21.1243 H   0  0  0  0  0  0
  -19.6717  -27.3218   20.6757 H   0  0  0  0  0  0
  -17.4243  -26.6698   21.3972 H   0  0  0  0  0  0
  -18.0314  -26.0015   22.8952 H   0  0  0  0  0  0
  -19.7920  -30.7286   24.2248 H   0  0  0  0  0  0
  -17.4994  -31.6245   24.5135 H   0  0  0  0  0  0
  -15.5348  -30.2923   23.7656 H   0  0  0  0  0  0
  -15.8701  -28.0780   22.7053 H   0  0  0  0  0  0
  -24.5897  -30.7059   25.7795 H   0  0  0  0  0  0
  -24.8891  -32.2901   26.4859 H   0  0  0  0  0  0
  -25.8044  -30.8940   27.0252 H   0  0  0  0  0  0
  -26.2937  -29.6738   24.1237 H   0  0  0  0  0  0
  -27.4002  -29.7258   25.4768 H   0  0  0  0  0  0
  -27.8827  -30.4262   23.9491 H   0  0  0  0  0  0
  -27.2627  -33.3654   26.2037 H   0  0  0  0  0  0
  -28.3886  -32.6853   25.0383 H   0  0  0  0  0  0
  -28.0641  -31.8490   26.5503 H   0  0  0  0  0  0
  -28.2666  -38.0031   24.7378 H   0  0  0  0  0  0
  -28.0957  -36.2557   24.6521 H   0  0  0  0  0  0
  -27.2248  -37.1741   25.8884 H   0  0  0  0  0  0
  -20.9404  -29.8767   21.6856 H   0  0  0  0  0  0
  -26.0190  -38.2842   24.1267 H   0  0  0  0  0  0
  -33.0077  -19.3957   20.0688 H   0  0  0  0  0  0
  -31.4032  -21.2349   20.3121 H   0  0  0  0  0  0
  -32.3574  -17.0845   20.2380 H   0  0  0  0  0  0
  -28.2549  -18.3274   20.8997 H   0  0  0  0  0  0
  -27.8846  -23.6985   21.4589 H   0  0  0  0  0  0
  -27.7385  -24.8596   18.8343 H   0  0  0  0  0  0
  -29.4048  -24.9892   19.1639 H   0  0  0  0  0  0
  -28.9039  -15.7762   20.8758 H   0  0  0  0  0  0
  1 25  1  0  0  0
  1 30  2  0  0  0
  1 81  1  0  0  0
  2  3  1  0  0  0
  2 25  1  0  0  0
  2 83  1  0  0  0
  2 84  1  0  0  0
  3  4  1  0  0  0
  3 85  1  0  0  0
  3 86  1  0  0  0
  4  5  1  0  0  0
  4 87  1  0  0  0
  4 88  1  0  0  0
  5  6  1  0  0  0
  5 26  1  0  0  0
  5 89  1  0  0  0
  6 25  1  0  0  0
  6 90  1  0  0  0
  6 91  1  0  0  0
  7  8  2  0  0  0
  7 26  1  0  0  0
  7 29  1  0  0  0
  8  9  1  0  0  0
  8 22  1  0  0  0
  9 10  1  0  0  0
  9 27  2  0  0  0
 10 11  2  0  0  0
 10 15  1  0  0  0
 11 12  1  0  0  0
 11 92  1  0  0  0
 12 13  2  0  0  0
 12 93  1  0  0  0
 13 14  1  0  0  0
 13 31  1  0  0  0
 14 15  2  0  0  0
 14 94  1  0  0  0
 15 95  1  0  0  0
 16 17  2  0  0  0
 16 21  1  0  0  0
 16 31  1  0  0  0
 17 18  1  0  0  0
 17 96  1  0  0  0
 18 19  2  0  0  0
 18 97  1  0  0  0
 19 20  1  0  0  0
 19 24  1  0  0  0
 20 21  2  0  0  0
 20 98  1  0  0  0
 21 23  1  0  0  0
 22 28  1  0  0  0
 22 32  2  0  0  0
 26 27  1  0  0  0
 28 99  1  0  0  0
 28100  1  0  0  0
 29101  1  0  0  0
 29102  1  0  0  0
 33 34  1  0  0  0
 33 66  1  0  0  0
 33 70  2  0  0  0
 34 36  1  0  0  0
 34 59  1  0  0  0
 34103  1  0  0  0
 35 44  2  0  0  0
 35 45  1  0  0  0
 35 68  1  0  0  0
 36 56  1  0  0  0
 36104  1  0  0  0
 37 39  1  0  0  0
 37 47  1  0  0  0
 37 66  1  0  0  0
 37105  1  0  0  0
 38 43  2  0  0  0
 38 46  1  0  0  0
 38 47  1  0  0  0
 39 64  1  0  0  0
 39 67  2  0  0  0
 40 52  1  0  0  0
 40 53  2  0  0  0
 40 58  1  0  0  0
 41106  1  0  0  0
 41107  1  0  0  0
 41108  1  0  0  0
 41 48  1  0  0  0
 42 43  1  0  0  0
 42 66  1  0  0  0
 42109  1  0  0  0
 42110  1  0  0  0
 43 44  1  0  0  0
 44111  1  0  0  0
 45 46  2  0  0  0
 45112  1  0  0  0
 46113  1  0  0  0
 47114  1  0  0  0
 47115  1  0  0  0
 48 56  1  0  0  0
 48 65  1  0  0  0
 48116  1  0  0  0
 49 50  1  0  0  0
 49 53  1  0  0  0
 49 64  1  0  0  0
 49117  1  0  0  0
 50 51  1  0  0  0
 50118  1  0  0  0
 50119  1  0  0  0
 51 52  1  0  0  0
 51120  1  0  0  0
 51121  1  0  0  0
 52122  1  0  0  0
 52123  1  0  0  0
 53 54  1  0  0  0
 54 55  2  0  0  0
 54124  1  0  0  0
 55 57  1  0  0  0
 55125  1  0  0  0
 56 69  2  0  0  0
 57 58  2  0  0  0
 57126  1  0  0  0
 58127  1  0  0  0
 59 60  1  0  0  0
 59 61  1  0  0  0
 59 62  1  0  0  0
 60128  1  0  0  0
 60129  1  0  0  0
 60130  1  0  0  0
 61131  1  0  0  0
 61132  1  0  0  0
 61133  1  0  0  0
 62134  1  0  0  0
 62135  1  0  0  0
 62136  1  0  0  0
 63 65  1  0  0  0
 63137  1  0  0  0
 63138  1  0  0  0
 63139  1  0  0  0
 64140  1  0  0  0
 65141  1  0  0  0
 68 79  1  0  0  0
 71 72  2  0  0  0
 71 73  1  0  0  0
 71142  1  0  0  0
 72 75  1  0  0  0
 72143  1  0  0  0
 73 76  2  0  0  0
 73144  1  0  0  0
 74 75  2  0  0  0
 74 76  1  0  0  0
 74145  1  0  0  0
 75 78  1  0  0  0
 76 81  1  0  0  0
 77 79  1  0  0  0
 77 80  2  0  0  0
 77146  1  0  0  0
 78 80  1  0  0  0
 78 82  2  0  0  0
 79147  1  0  0  0
 79148  1  0  0  0
 81149  1  0  0  0
M  ISO  4   1 100  68 101  79 101  81 100
M  END
> <chiral flag>
0

> <version>
0

> <s_m_source_file>
/data/baiqing/PycharmProjects/Reinvent-master-3.2/result/LINK_invent/BTK/process_docking_weight1_custom_product_contain_oxygen_bond_distance_aromatic_linkinvent_7_9_3/rearranged_h_0088.sdf

> <i_m_source_file_index>
43

> <r_mmod_Potential_Energy-OPLS-2005>
197.424713134766

> <r_mmod_Stretch_Energy-OPLS-2005>
150.405853271484

> <r_mmod_Bend_Energy-OPLS-2005>
187.024124145508

> <r_mmod_Torsional_Energy-OPLS-2005>
208.832473754883

> <r_mmod_Improper_Torsional_Energy-OPLS-2005>
4.95082712173462

> <r_mmod_Van_der_Waal_Energy-OPLS-2005>
147.212203979492

> <r_mmod_Electrostatic_Energy-OPLS-2005>
-395.593200683594

> <r_mmod_Solvation_Energy-OPLS-2005>
-210.38883972168

> <b_mmod_Minimization_Converged-OPLS-2005>
0

> <r_mmod_RMS_Derivative-OPLS-2005>
3.2891891002655

$$$$
43
                    3D
 Structure written by MMmdl.
151159  0  0  1  0            999 V2000
  -30.5170  -15.0182   20.3238 C   0  0  0  0  0  0
  -30.4509  -12.6130   19.4869 C   0  0  0  0  0  0
  -29.5220  -12.4349   18.2612 C   0  0  0  0  0  0
  -28.0516  -12.2576   18.6912 C   0  0  0  0  0  0
  -27.6194  -13.2199   19.8278 C   0  0  2  0  0  0
  -28.6764  -13.3272   20.9458 C   0  0  0  0  0  0
  -25.2489  -13.8139   20.5774 C   0  0  0  0  0  0
  -24.1765  -13.0412   20.9261 C   0  0  0  0  0  0
  -24.6340  -11.6883   20.8805 C   0  0  0  0  0  0
  -23.9021  -10.4272   21.0440 C   0  0  0  0  0  0
  -24.3587   -9.4183   21.9203 C   0  0  0  0  0  0
  -23.6270   -8.2214   22.0755 C   0  0  0  0  0  0
  -22.4252   -8.0258   21.3541 C   0  0  0  0  0  0
  -21.9886   -9.0232   20.4646 C   0  0  0  0  0  0
  -22.7207  -10.2117   20.3071 C   0  0  0  0  0  0
  -21.6840   -6.0723   22.5275 C   0  0  0  0  0  0
  -21.4010   -6.5633   23.8208 C   0  0  0  0  0  0
  -21.3658   -5.6786   24.9171 C   0  0  0  0  0  0
  -21.6043   -4.3050   24.7221 C   0  0  0  0  0  0
  -21.8823   -3.8140   23.4343 C   0  0  0  0  0  0
  -21.9190   -4.6954   22.3398 C   0  0  0  0  0  0
  -22.7792  -13.5215   21.1895 C   0  0  0  0  0  0
  -22.1663   -4.2145   21.0976 F   0  0  0  0  0  0
  -21.5624   -3.4536   25.7735 F   0  0  0  0  0  0
  -29.9319  -13.7445   20.3049 N   0  0  0  0  0  0
  -26.2861  -12.9293   20.3320 N   0  0  0  0  0  0
  -25.9264  -11.6464   20.5832 N   0  0  0  0  0  0
  -22.0427  -12.8212   22.0446 N   0  0  0  0  0  0
  -25.4240  -15.1860   20.4209 N   0  0  0  0  0  0
  -31.7518  -15.0533   20.2666 O   0  0  0  0  0  0
  -21.6620   -6.8858   21.4234 O   0  0  0  0  0  0
  -22.3495  -14.5522   20.6729 O   0  0  0  0  0  0
  -24.6434  -31.8425   23.1859 C   0  0  0  0  0  0
  -25.9201  -32.4687   23.8257 C   0  0  1  0  0  0
  -27.2264  -27.1312   20.1550 C   0  0  0  0  0  0
  -25.5944  -33.8494   24.2176 N   0  0  0  0  0  0
  -23.4483  -30.4591   21.5311 C   0  0  2  0  0  0
  -24.8999  -28.8811   20.1087 C   0  0  0  0  0  0
  -22.7570  -29.4534   22.4856 C   0  0  0  0  0  0
  -18.0307  -28.1396   22.8478 C   0  0  0  0  0  0
  -24.1488  -36.7252   23.2644 C   0  0  0  0  0  0
  -26.0033  -30.7143   21.3854 C   0  0  0  0  0  0
  -26.0752  -29.3241   20.7282 C   0  0  0  0  0  0
  -27.2374  -28.4649   20.7331 C   0  0  0  0  0  0
  -26.0264  -26.7878   19.4951 C   0  0  0  0  0  0
  -24.8890  -27.6273   19.4756 C   0  0  0  0  0  0
  -23.6751  -29.7831   20.1517 C   0  0  0  0  0  0
  -25.4122  -36.3029   24.0316 C   0  0  1  0  0  0
  -20.5920  -28.3723   23.1238 C   0  0  2  0  0  0
  -20.6788  -26.9425   22.5410 C   0  0  0  0  0  0
  -19.5761  -26.6380   21.5218 C   0  0  0  0  0  0
  -18.1944  -26.7935   22.1627 C   0  0  0  0  0  0
  -19.1563  -28.8878   23.2850 C   0  0  0  0  0  0
  -18.9478  -30.1474   23.8873 C   0  0  0  0  0  0
  -17.6473  -30.6591   24.0561 C   0  0  0  0  0  0
  -25.9073  -34.9405   23.5059 C   0  0  0  0  0  0
  -16.5366  -29.9082   23.6336 C   0  0  0  0  0  0
  -16.7291  -28.6503   23.0355 C   0  0  0  0  0  0
  -26.4521  -31.6563   25.0704 C   0  0  0  0  0  0
  -25.3704  -31.3753   26.1397 C   0  0  0  0  0  0
  -27.0395  -30.2960   24.6295 C   0  0  0  0  0  0
  -27.6045  -32.4337   25.7493 C   0  0  0  0  0  0
  -27.5574  -37.1784   24.8469 C   0  0  0  0  0  0
  -21.4264  -29.3044   22.3606 N   0  0  0  0  0  0
  -26.4286  -37.3743   23.9408 N   0  0  0  0  0  0
  -24.7181  -31.0272   22.0893 N   0  0  0  0  0  0
  -23.4209  -28.8095   23.3020 O   0  0  0  0  0  0
  -28.2920  -26.1607   20.2387 O   0  0  0  0  0  0
  -26.5666  -34.8908   22.4642 O   0  0  0  0  0  0
  -23.5551  -32.1306   23.7072 O   0  0  0  0  0  0
  -29.1256  -19.7924   21.5566 C   0  0  0  0  0  0
  -29.2980  -18.3474   21.4142 C   0  0  0  0  0  0
  -30.0189  -18.7062   19.2125 C   0  0  0  0  0  0
  -29.3672  -20.7910   20.5403 C   0  0  0  0  0  0
  -29.7666  -17.6967   20.2228 C   0  0  0  0  0  0
  -29.8406  -20.1468   19.3480 C   0  0  0  0  0  0
  -28.0303  -16.5675   18.2057 C   0  0  0  0  0  0
  -29.1545  -15.9717   18.6489 C   0  0  0  0  0  0
  -29.1721  -23.5463   20.7130 C   0  0  0  0  0  0
  -28.1030  -24.6177   20.0404 C   0  0  0  0  0  0
  -29.5398  -22.2423   20.8849 N   0  0  0  0  0  0
  -29.7484  -16.1721   19.9108 N   0  0  0  0  0  0
  -30.1954  -20.9303   18.3006 F   0  0  0  0  0  0
  -31.4731  -12.7971   19.1512 H   0  0  0  0  0  0
  -30.4877  -11.6993   20.0818 H   0  0  0  0  0  0
  -29.8398  -11.5624   17.6883 H   0  0  0  0  0  0
  -29.6140  -13.2710   17.5734 H   0  0  0  0  0  0
  -27.9445  -11.2274   19.0326 H   0  0  0  0  0  0
  -27.3891  -12.3600   17.8312 H   0  0  0  0  0  0
  -27.5328  -14.1895   19.3562 H   0  0  0  0  0  0
  -28.7926  -12.3809   21.4761 H   0  0  0  0  0  0
  -28.3718  -14.0700   21.6851 H   0  0  0  0  0  0
  -25.2729   -9.5666   22.4783 H   0  0  0  0  0  0
  -23.9983   -7.4600   22.7465 H   0  0  0  0  0  0
  -21.0823   -8.8750   19.8942 H   0  0  0  0  0  0
  -22.3668  -10.9662   19.6186 H   0  0  0  0  0  0
  -21.2009   -7.6143   23.9715 H   0  0  0  0  0  0
  -21.1474   -6.0515   25.9074 H   0  0  0  0  0  0
  -22.0606   -2.7603   23.2842 H   0  0  0  0  0  0
  -22.4043  -11.9875   22.4839 H   0  0  0  0  0  0
  -21.1040  -13.1233   22.2645 H   0  0  0  0  0  0
  -24.6667  -15.8494   20.5406 H   0  0  0  0  0  0
  -26.2881  -15.6160   20.1158 H   0  0  0  0  0  0
  -26.7267  -32.5295   23.0985 H   0  0  0  0  0  0
  -25.0057  -33.9605   25.0301 H   0  0  0  0  0  0
  -22.7514  -31.2849   21.3741 H   0  0  0  0  0  0
  -23.3756  -35.9579   23.3301 H   0  0  0  0  0  0
  -24.3569  -36.8891   22.2060 H   0  0  0  0  0  0
  -23.7243  -37.6444   23.6687 H   0  0  0  0  0  0
  -26.1600  -31.4678   20.6123 H   0  0  0  0  0  0
  -26.8725  -30.7652   22.0293 H   0  0  0  0  0  0
  -28.1324  -28.7987   21.2391 H   0  0  0  0  0  0
  -25.9413  -25.8276   19.0075 H   0  0  0  0  0  0
  -23.9922  -27.2844   18.9777 H   0  0  0  0  0  0
  -23.8102  -30.5548   19.3934 H   0  0  0  0  0  0
  -22.7905  -29.2228   19.8434 H   0  0  0  0  0  0
  -25.1315  -36.1854   25.0810 H   0  0  0  0  0  0
  -21.0016  -28.3314   24.1358 H   0  0  0  0  0  0
  -20.5682  -26.2339   23.3631 H   0  0  0  0  0  0
  -21.6655  -26.7428   22.1208 H   0  0  0  0  0  0
  -19.6924  -25.6284   21.1263 H   0  0  0  0  0  0
  -19.6698  -27.3178   20.6736 H   0  0  0  0  0  0
  -17.4216  -26.6682   21.4028 H   0  0  0  0  0  0
  -18.0339  -26.0083   22.9027 H   0  0  0  0  0  0
  -19.7953  -30.7299   24.2229 H   0  0  0  0  0  0
  -17.5025  -31.6267   24.5168 H   0  0  0  0  0  0
  -15.5364  -30.2974   23.7669 H   0  0  0  0  0  0
  -15.8695  -28.0810   22.7080 H   0  0  0  0  0  0
  -24.5886  -30.7102   25.7713 H   0  0  0  0  0  0
  -24.8889  -32.2936   26.4768 H   0  0  0  0  0  0
  -25.7980  -30.8957   27.0211 H   0  0  0  0  0  0
  -26.3019  -29.6675   24.1293 H   0  0  0  0  0  0
  -27.3998  -29.7268   25.4875 H   0  0  0  0  0  0
  -27.8929  -30.4198   23.9624 H   0  0  0  0  0  0
  -27.2628  -33.3656   26.2011 H   0  0  0  0  0  0
  -28.3882  -32.6870   25.0341 H   0  0  0  0  0  0
  -28.0685  -31.8506   26.5457 H   0  0  0  0  0  0
  -28.2592  -38.0078   24.7503 H   0  0  0  0  0  0
  -28.1067  -36.2608   24.6312 H   0  0  0  0  0  0
  -27.2289  -37.1451   25.8871 H   0  0  0  0  0  0
  -20.9479  -29.8745   21.6771 H   0  0  0  0  0  0
  -26.0153  -38.2814   24.1399 H   0  0  0  0  0  0
  -28.8246  -20.1486   22.5314 H   0  0  0  0  0  0
  -29.0330  -17.7275   22.2589 H   0  0  0  0  0  0
  -30.3629  -18.3682   18.2467 H   0  0  0  0  0  0
  -27.6607  -16.3677   17.2100 H   0  0  0  0  0  0
  -27.4610  -17.2541   18.8160 H   0  0  0  0  0  0
  -29.7059  -15.3044   18.0035 H   0  0  0  0  0  0
  -29.8289  -24.2081   21.2832 H   0  0  0  0  0  0
  -27.1176  -24.3506   20.4214 H   0  0  0  0  0  0
  -28.0712  -24.4247   18.9685 H   0  0  0  0  0  0
  1 25  1  0  0  0
  1 30  2  0  0  0
  1 82  1  0  0  0
  2  3  1  0  0  0
  2 25  1  0  0  0
  2 84  1  0  0  0
  2 85  1  0  0  0
  3  4  1  0  0  0
  3 86  1  0  0  0
  3 87  1  0  0  0
  4  5  1  0  0  0
  4 88  1  0  0  0
  4 89  1  0  0  0
  5  6  1  0  0  0
  5 26  1  0  0  0
  5 90  1  0  0  0
  6 25  1  0  0  0
  6 91  1  0  0  0
  6 92  1  0  0  0
  7  8  2  0  0  0
  7 26  1  0  0  0
  7 29  1  0  0  0
  8  9  1  0  0  0
  8 22  1  0  0  0
  9 10  1  0  0  0
  9 27  2  0  0  0
 10 11  2  0  0  0
 10 15  1  0  0  0
 11 12  1  0  0  0
 11 93  1  0  0  0
 12 13  2  0  0  0
 12 94  1  0  0  0
 13 14  1  0  0  0
 13 31  1  0  0  0
 14 15  2  0  0  0
 14 95  1  0  0  0
 15 96  1  0  0  0
 16 17  2  0  0  0
 16 21  1  0  0  0
 16 31  1  0  0  0
 17 18  1  0  0  0
 17 97  1  0  0  0
 18 19  2  0  0  0
 18 98  1  0  0  0
 19 20  1  0  0  0
 19 24  1  0  0  0
 20 21  2  0  0  0
 20 99  1  0  0  0
 21 23  1  0  0  0
 22 28  1  0  0  0
 22 32  2  0  0  0
 26 27  1  0  0  0
 28100  1  0  0  0
 28101  1  0  0  0
 29102  1  0  0  0
 29103  1  0  0  0
 33 34  1  0  0  0
 33 66  1  0  0  0
 33 70  2  0  0  0
 34 36  1  0  0  0
 34 59  1  0  0  0
 34104  1  0  0  0
 35 44  2  0  0  0
 35 45  1  0  0  0
 35 68  1  0  0  0
 36 56  1  0  0  0
 36105  1  0  0  0
 37 39  1  0  0  0
 37 47  1  0  0  0
 37 66  1  0  0  0
 37106  1  0  0  0
 38 43  2  0  0  0
 38 46  1  0  0  0
 38 47  1  0  0  0
 39 64  1  0  0  0
 39 67  2  0  0  0
 40 52  1  0  0  0
 40 53  2  0  0  0
 40 58  1  0  0  0
 41107  1  0  0  0
 41108  1  0  0  0
 41109  1  0  0  0
 41 48  1  0  0  0
 42 43  1  0  0  0
 42 66  1  0  0  0
 42110  1  0  0  0
 42111  1  0  0  0
 43 44  1  0  0  0
 44112  1  0  0  0
 45 46  2  0  0  0
 45113  1  0  0  0
 46114  1  0  0  0
 47115  1  0  0  0
 47116  1  0  0  0
 48 56  1  0  0  0
 48 65  1  0  0  0
 48117  1  0  0  0
 49 50  1  0  0  0
 49 53  1  0  0  0
 49 64  1  0  0  0
 49118  1  0  0  0
 50 51  1  0  0  0
 50119  1  0  0  0
 50120  1  0  0  0
 51 52  1  0  0  0
 51121  1  0  0  0
 51122  1  0  0  0
 52123  1  0  0  0
 52124  1  0  0  0
 53 54  1  0  0  0
 54 55  2  0  0  0
 54125  1  0  0  0
 55 57  1  0  0  0
 55126  1  0  0  0
 56 69  2  0  0  0
 57 58  2  0  0  0
 57127  1  0  0  0
 58128  1  0  0  0
 59 60  1  0  0  0
 59 61  1  0  0  0
 59 62  1  0  0  0
 60129  1  0  0  0
 60130  1  0  0  0
 60131  1  0  0  0
 61132  1  0  0  0
 61133  1  0  0  0
 61134  1  0  0  0
 62135  1  0  0  0
 62136  1  0  0  0
 62137  1  0  0  0
 63 65  1  0  0  0
 63138  1  0  0  0
 63139  1  0  0  0
 63140  1  0  0  0
 64141  1  0  0  0
 65142  1  0  0  0
 68 80  1  0  0  0
 71 72  2  0  0  0
 71 74  1  0  0  0
 71143  1  0  0  0
 72 75  1  0  0  0
 72144  1  0  0  0
 73 75  2  0  0  0
 73 76  1  0  0  0
 73145  1  0  0  0
 74 76  2  0  0  0
 74 81  1  0  0  0
 75 82  1  0  0  0
 76 83  1  0  0  0
 77 78  2  0  0  0
 77146  1  0  0  0
 77147  1  0  0  0
 78 82  1  0  0  0
 78148  1  0  0  0
 79 80  1  0  0  0
 79 81  2  0  0  0
 79149  1  0  0  0
 80150  1  0  0  0
 80151  1  0  0  0
M  ISO  4   1 100  68 101  80 101  82 100
M  END
> <chiral flag>
0

> <version>
0

> <s_m_source_file>
/data/baiqing/PycharmProjects/Reinvent-master-3.2/result/LINK_invent/BTK/process_docking_weight1_custom_product_contain_oxygen_bond_distance_aromatic_linkinvent_7_9_3/rearranged_h_0088.sdf

> <i_m_source_file_index>
44

> <r_mmod_Potential_Energy-OPLS-2005>
937.036682128906

> <r_mmod_Stretch_Energy-OPLS-2005>
257.237915039062

> <r_mmod_Bend_Energy-OPLS-2005>
391.369476318359

> <r_mmod_Torsional_Energy-OPLS-2005>
364.485107421875

> <r_mmod_Improper_Torsional_Energy-OPLS-2005>
24.1886463165283

> <r_mmod_Van_der_Waal_Energy-OPLS-2005>
143.836471557617

> <r_mmod_Electrostatic_Energy-OPLS-2005>
-274.237976074219

> <r_mmod_Solvation_Energy-OPLS-2005>
-201.048522949219

> <b_mmod_Minimization_Converged-OPLS-2005>
0

> <r_mmod_RMS_Derivative-OPLS-2005>
0.677685976028442

$$$$
44
                    3D
 Structure written by MMmdl.
153161  0  0  1  0            999 V2000
  -30.6743  -14.6220   20.4721 C   0  0  0  0  0  0
  -30.4137  -12.3766   19.4581 C   0  0  0  0  0  0
  -29.5001  -12.4975   18.2210 C   0  0  0  0  0  0
  -28.0241  -12.3454   18.6336 C   0  0  0  0  0  0
  -27.6480  -13.2261   19.8570 C   0  0  2  0  0  0
  -28.6930  -13.1183   20.9901 C   0  0  0  0  0  0
  -25.2543  -13.8188   20.5684 C   0  0  0  0  0  0
  -24.1815  -13.0439   20.9172 C   0  0  0  0  0  0
  -24.6403  -11.6917   20.8743 C   0  0  0  0  0  0
  -23.9076  -10.4294   21.0409 C   0  0  0  0  0  0
  -24.3628   -9.4210   21.9187 C   0  0  0  0  0  0
  -23.6300   -8.2248   22.0758 C   0  0  0  0  0  0
  -22.4281   -8.0283   21.3545 C   0  0  0  0  0  0
  -21.9921   -9.0260   20.4646 C   0  0  0  0  0  0
  -22.7253  -10.2135   20.3052 C   0  0  0  0  0  0
  -21.6852   -6.0734   22.5276 C   0  0  0  0  0  0
  -21.4014   -6.5639   23.8210 C   0  0  0  0  0  0
  -21.3666   -5.6795   24.9176 C   0  0  0  0  0  0
  -21.6046   -4.3057   24.7229 C   0  0  0  0  0  0
  -21.8823   -3.8140   23.4354 C   0  0  0  0  0  0
  -21.9199   -4.6959   22.3406 C   0  0  0  0  0  0
  -22.7849  -13.5232   21.1854 C   0  0  0  0  0  0
  -22.1661   -4.2136   21.0989 F   0  0  0  0  0  0
  -21.5643   -3.4546   25.7749 F   0  0  0  0  0  0
  -30.0059  -13.4284   20.4133 N   0  0  0  0  0  0
  -26.2978  -12.9388   20.3319 N   0  0  0  0  0  0
  -25.9332  -11.6536   20.5750 N   0  0  0  0  0  0
  -22.0514  -12.8192   22.0406 N   0  0  0  0  0  0
  -25.4238  -15.1916   20.4139 N   0  0  0  0  0  0
  -31.8488  -14.6789   20.1062 O   0  0  0  0  0  0
  -21.6647   -6.8876   21.4235 O   0  0  0  0  0  0
  -22.3533  -14.5544   20.6721 O   0  0  0  0  0  0
  -24.6237  -31.8615   23.2041 C   0  0  0  0  0  0
  -25.9108  -32.4786   23.8348 C   0  0  1  0  0  0
  -27.2159  -27.3434   20.1040 C   0  0  0  0  0  0
  -25.5938  -33.8581   24.2289 N   0  0  0  0  0  0
  -23.4168  -30.4900   21.5416 C   0  0  2  0  0  0
  -24.8628  -28.9526   20.1040 C   0  0  0  0  0  0
  -22.7474  -29.4650   22.4909 C   0  0  0  0  0  0
  -18.0305  -28.1422   22.8504 C   0  0  0  0  0  0
  -24.1493  -36.7305   23.2651 C   0  0  0  0  0  0
  -25.9580  -30.7995   21.3738 C   0  0  0  0  0  0
  -26.0279  -29.4285   20.7189 C   0  0  0  0  0  0
  -27.2056  -28.6297   20.7206 C   0  0  0  0  0  0
  -26.0342  -26.9199   19.4593 C   0  0  0  0  0  0
  -24.8683  -27.7059   19.4600 C   0  0  0  0  0  0
  -23.6351  -29.8338   20.1529 C   0  0  0  0  0  0
  -25.4121  -36.3084   24.0325 C   0  0  1  0  0  0
  -20.5903  -28.3675   23.1340 C   0  0  2  0  0  0
  -20.6786  -26.9413   22.5421 C   0  0  0  0  0  0
  -19.5760  -26.6413   21.5240 C   0  0  0  0  0  0
  -18.1937  -26.7975   22.1639 C   0  0  0  0  0  0
  -19.1559  -28.8874   23.2915 C   0  0  0  0  0  0
  -18.9460  -30.1497   23.8896 C   0  0  0  0  0  0
  -17.6452  -30.6605   24.0601 C   0  0  0  0  0  0
  -25.9052  -34.9456   23.5101 C   0  0  0  0  0  0
  -16.5353  -29.9107   23.6361 C   0  0  0  0  0  0
  -16.7287  -28.6558   23.0322 C   0  0  0  0  0  0
  -26.4498  -31.6578   25.0698 C   0  0  0  0  0  0
  -25.3742  -31.3633   26.1416 C   0  0  0  0  0  0
  -27.0313  -30.3035   24.6075 C   0  0  0  0  0  0
  -27.6116  -32.4253   25.7434 C   0  0  0  0  0  0
  -27.5584  -37.1804   24.8465 C   0  0  0  0  0  0
  -21.4184  -29.3012   22.3689 N   0  0  0  0  0  0
  -26.4297  -37.3783   23.9404 N   0  0  0  0  0  0
  -24.6848  -31.0666   22.0973 N   0  0  0  0  0  0
  -23.4217  -28.8228   23.3010 O   0  0  0  0  0  0
  -28.3037  -26.4752   20.2107 O   0  0  0  0  0  0
  -26.5615  -34.8938   22.4664 O   0  0  0  0  0  0
  -23.5409  -32.1408   23.7399 O   0  0  0  0  0  0
  -30.9836  -19.9408   20.2509 C   0  0  0  0  0  0
  -31.6488  -17.5930   20.3568 C   0  0  0  0  0  0
  -29.6439  -19.6115   20.5495 C   0  0  0  0  0  0
  -31.9728  -18.9501   20.1651 C   0  0  0  0  0  0
  -30.3147  -17.1730   20.6014 C   0  0  0  0  0  0
  -29.3226  -18.2102   20.7062 C   0  0  0  0  0  0
  -28.6309  -24.1493   19.2801 C   0  0  0  0  0  0
  -28.5367  -25.5192   19.2242 C   0  0  0  0  0  0
  -28.6688  -20.7697   20.8143 C   0  0  0  0  0  0
  -28.4166  -23.2167   20.4043 C   0  0  0  0  0  0
  -33.2900  -19.3222   19.9036 N   0  0  0  0  0  0
  -29.9512  -15.7557   20.7565 N   0  0  0  0  0  0
  -28.8648  -21.9463   20.1363 N   0  0  0  0  0  0
  -27.7533  -20.6119   21.6289 O   0  0  0  0  0  0
  -27.8721  -23.5430   21.4640 O   0  0  0  0  0  0
  -28.0461  -17.8298   20.9637 F   0  0  0  0  0  0
  -31.4612  -12.4540   19.1640 H   0  0  0  0  0  0
  -30.3045  -11.3918   19.9146 H   0  0  0  0  0  0
  -29.7611  -11.7383   17.4818 H   0  0  0  0  0  0
  -29.6489  -13.4621   17.7333 H   0  0  0  0  0  0
  -27.8618  -11.2929   18.8704 H   0  0  0  0  0  0
  -27.3686  -12.5710   17.7907 H   0  0  0  0  0  0
  -27.6556  -14.2556   19.5001 H   0  0  0  0  0  0
  -28.7027  -12.1129   21.4148 H   0  0  0  0  0  0
  -28.4482  -13.7950   21.8112 H   0  0  0  0  0  0
  -25.2782   -9.5688   22.4747 H   0  0  0  0  0  0
  -24.0016   -7.4643   22.7473 H   0  0  0  0  0  0
  -21.0856   -8.8779   19.8946 H   0  0  0  0  0  0
  -22.3724  -10.9671   19.6149 H   0  0  0  0  0  0
  -21.1988   -7.6143   23.9703 H   0  0  0  0  0  0
  -21.1489   -6.0529   25.9078 H   0  0  0  0  0  0
  -22.0592   -2.7596   23.2863 H   0  0  0  0  0  0
  -22.4155  -11.9837   22.4743 H   0  0  0  0  0  0
  -21.1137  -13.1194   22.2648 H   0  0  0  0  0  0
  -24.6573  -15.8444   20.5337 H   0  0  0  0  0  0
  -26.2856  -15.6438   20.1338 H   0  0  0  0  0  0
  -26.7162  -32.5463   23.1082 H   0  0  0  0  0  0
  -25.0030  -33.9699   25.0388 H   0  0  0  0  0  0
  -22.7125  -31.3113   21.3945 H   0  0  0  0  0  0
  -23.3745  -35.9645   23.3298 H   0  0  0  0  0  0
  -24.3621  -36.8937   22.2079 H   0  0  0  0  0  0
  -23.7234  -37.6502   23.6673 H   0  0  0  0  0  0
  -26.0835  -31.5598   20.6018 H   0  0  0  0  0  0
  -26.8496  -30.8544   21.9870 H   0  0  0  0  0  0
  -28.0961  -28.9784   21.2216 H   0  0  0  0  0  0
  -25.9879  -25.9606   18.9676 H   0  0  0  0  0  0
  -23.9807  -27.3442   18.9593 H   0  0  0  0  0  0
  -23.7724  -30.6139   19.4022 H   0  0  0  0  0  0
  -22.7554  -29.2713   19.8373 H   0  0  0  0  0  0
  -25.1298  -36.1943   25.0813 H   0  0  0  0  0  0
  -20.9984  -28.3196   24.1474 H   0  0  0  0  0  0
  -20.5724  -26.2248   23.3585 H   0  0  0  0  0  0
  -21.6643  -26.7469   22.1175 H   0  0  0  0  0  0
  -19.6888  -25.6318   21.1267 H   0  0  0  0  0  0
  -19.6734  -27.3248   20.6799 H   0  0  0  0  0  0
  -17.4206  -26.6767   21.4045 H   0  0  0  0  0  0
  -18.0317  -26.0134   22.9050 H   0  0  0  0  0  0
  -19.7917  -30.7359   24.2219 H   0  0  0  0  0  0
  -17.4989  -31.6286   24.5201 H   0  0  0  0  0  0
  -15.5348  -30.2993   23.7696 H   0  0  0  0  0  0
  -15.8698  -28.0913   22.6952 H   0  0  0  0  0  0
  -24.5993  -30.6901   25.7723 H   0  0  0  0  0  0
  -24.8831  -32.2740   26.4863 H   0  0  0  0  0  0
  -25.8107  -30.8808   27.0174 H   0  0  0  0  0  0
  -26.2813  -29.6782   24.1232 H   0  0  0  0  0  0
  -27.4199  -29.7304   25.4504 H   0  0  0  0  0  0
  -27.8620  -30.4371   23.9145 H   0  0  0  0  0  0
  -27.2842  -33.3634   26.1926 H   0  0  0  0  0  0
  -28.3971  -32.6655   25.0240 H   0  0  0  0  0  0
  -28.0717  -31.8370   26.5374 H   0  0  0  0  0  0
  -28.2601  -38.0107   24.7543 H   0  0  0  0  0  0
  -28.1071  -36.2642   24.6255 H   0  0  0  0  0  0
  -27.2301  -37.1429   25.8867 H   0  0  0  0  0  0
  -20.9336  -29.8732   21.6925 H   0  0  0  0  0  0
  -26.0170  -38.2846   24.1426 H   0  0  0  0  0  0
  -31.2684  -20.9755   20.1323 H   0  0  0  0  0  0
  -32.4609  -16.8878   20.3122 H   0  0  0  0  0  0
  -28.8698  -23.6852   18.3343 H   0  0  0  0  0  0
  -28.6825  -26.0153   18.2748 H   0  0  0  0  0  0
  -33.5704  -20.2972   19.9931 H   0  0  0  0  0  0
  -34.0445  -18.6683   20.0945 H   0  0  0  0  0  0
  -28.9882  -15.5970   21.0116 H   0  0  0  0  0  0
  -29.4535  -21.8634   19.3235 H   0  0  0  0  0  0
  1 25  1  0  0  0
  1 30  2  0  0  0
  1 82  1  0  0  0
  2  3  1  0  0  0
  2 25  1  0  0  0
  2 87  1  0  0  0
  2 88  1  0  0  0
  3  4  1  0  0  0
  3 89  1  0  0  0
  3 90  1  0  0  0
  4  5  1  0  0  0
  4 91  1  0  0  0
  4 92  1  0  0  0
  5  6  1  0  0  0
  5 26  1  0  0  0
  5 93  1  0  0  0
  6 25  1  0  0  0
  6 94  1  0  0  0
  6 95  1  0  0  0
  7  8  2  0  0  0
  7 26  1  0  0  0
  7 29  1  0  0  0
  8  9  1  0  0  0
  8 22  1  0  0  0
  9 10  1  0  0  0
  9 27  2  0  0  0
 10 11  2  0  0  0
 10 15  1  0  0  0
 11 12  1  0  0  0
 11 96  1  0  0  0
 12 13  2  0  0  0
 12 97  1  0  0  0
 13 14  1  0  0  0
 13 31  1  0  0  0
 14 15  2  0  0  0
 14 98  1  0  0  0
 15 99  1  0  0  0
 16 17  2  0  0  0
 16 21  1  0  0  0
 16 31  1  0  0  0
 17 18  1  0  0  0
 17100  1  0  0  0
 18 19  2  0  0  0
 18101  1  0  0  0
 19 20  1  0  0  0
 19 24  1  0  0  0
 20 21  2  0  0  0
 20102  1  0  0  0
 21 23  1  0  0  0
 22 28  1  0  0  0
 22 32  2  0  0  0
 26 27  1  0  0  0
 28103  1  0  0  0
 28104  1  0  0  0
 29105  1  0  0  0
 29106  1  0  0  0
 33 34  1  0  0  0
 33 66  1  0  0  0
 33 70  2  0  0  0
 34 36  1  0  0  0
 34 59  1  0  0  0
 34107  1  0  0  0
 35 44  2  0  0  0
 35 45  1  0  0  0
 35 68  1  0  0  0
 36 56  1  0  0  0
 36108  1  0  0  0
 37 39  1  0  0  0
 37 47  1  0  0  0
 37 66  1  0  0  0
 37109  1  0  0  0
 38 43  2  0  0  0
 38 46  1  0  0  0
 38 47  1  0  0  0
 39 64  1  0  0  0
 39 67  2  0  0  0
 40 52  1  0  0  0
 40 53  2  0  0  0
 40 58  1  0  0  0
 41110  1  0  0  0
 41111  1  0  0  0
 41112  1  0  0  0
 41 48  1  0  0  0
 42 43  1  0  0  0
 42 66  1  0  0  0
 42113  1  0  0  0
 42114  1  0  0  0
 43 44  1  0  0  0
 44115  1  0  0  0
 45 46  2  0  0  0
 45116  1  0  0  0
 46117  1  0  0  0
 47118  1  0  0  0
 47119  1  0  0  0
 48 56  1  0  0  0
 48 65  1  0  0  0
 48120  1  0  0  0
 49 50  1  0  0  0
 49 53  1  0  0  0
 49 64  1  0  0  0
 49121  1  0  0  0
 50 51  1  0  0  0
 50122  1  0  0  0
 50123  1  0  0  0
 51 52  1  0  0  0
 51124  1  0  0  0
 51125  1  0  0  0
 52126  1  0  0  0
 52127  1  0  0  0
 53 54  1  0  0  0
 54 55  2  0  0  0
 54128  1  0  0  0
 55 57  1  0  0  0
 55129  1  0  0  0
 56 69  2  0  0  0
 57 58  2  0  0  0
 57130  1  0  0  0
 58131  1  0  0  0
 59 60  1  0  0  0
 59 61  1  0  0  0
 59 62  1  0  0  0
 60132  1  0  0  0
 60133  1  0  0  0
 60134  1  0  0  0
 61135  1  0  0  0
 61136  1  0  0  0
 61137  1  0  0  0
 62138  1  0  0  0
 62139  1  0  0  0
 62140  1  0  0  0
 63 65  1  0  0  0
 63141  1  0  0  0
 63142  1  0  0  0
 63143  1  0  0  0
 64144  1  0  0  0
 65145  1  0  0  0
 68 78  1  0  0  0
 71 73  2  0  0  0
 71 74  1  0  0  0
 71146  1  0  0  0
 72 74  2  0  0  0
 72 75  1  0  0  0
 72147  1  0  0  0
 73 76  1  0  0  0
 73 79  1  0  0  0
 74 81  1  0  0  0
 75 76  2  0  0  0
 75 82  1  0  0  0
 76 86  1  0  0  0
 77 78  2  0  0  0
 77 80  1  0  0  0
 77148  1  0  0  0
 78149  1  0  0  0
 79 83  1  0  0  0
 79 84  2  0  0  0
 80 83  1  0  0  0
 80 85  2  0  0  0
 81150  1  0  0  0
 81151  1  0  0  0
 82152  1  0  0  0
 83153  1  0  0  0
M  ISO  4   1 100  68 101  78 101  82 100
M  END
> <chiral flag>
0

> <version>
0

> <s_m_source_file>
/data/baiqing/PycharmProjects/Reinvent-master-3.2/result/LINK_invent/BTK/process_docking_weight1_custom_product_contain_oxygen_bond_distance_aromatic_linkinvent_7_9_3/rearranged_h_0088.sdf

> <i_m_source_file_index>
45

> <r_mmod_Potential_Energy-OPLS-2005>
-128.467727661133

> <r_mmod_Stretch_Energy-OPLS-2005>
69.9239196777344

> <r_mmod_Bend_Energy-OPLS-2005>
148.496704101562

> <r_mmod_Torsional_Energy-OPLS-2005>
240.787261962891

> <r_mmod_Improper_Torsional_Energy-OPLS-2005>
7.39899349212646

> <r_mmod_Van_der_Waal_Energy-OPLS-2005>
156.1474609375

> <r_mmod_Electrostatic_Energy-OPLS-2005>
-516.720031738281

> <r_mmod_Solvation_Energy-OPLS-2005>
-282.777404785156

> <b_mmod_Minimization_Converged-OPLS-2005>
0

> <r_mmod_RMS_Derivative-OPLS-2005>
3.76660513877869

$$$$
45
                    3D
 Structure written by MMmdl.
158167  0  0  1  0            999 V2000
  -30.6185  -14.7268   20.3766 C   0  0  0  0  0  0
  -30.4393  -12.4129   19.4710 C   0  0  0  0  0  0
  -29.5105  -12.3904   18.2363 C   0  0  0  0  0  0
  -28.0251  -12.3004   18.6497 C   0  0  0  0  0  0
  -27.6370  -13.2169   19.8449 C   0  0  2  0  0  0
  -28.6939  -13.1834   20.9676 C   0  0  0  0  0  0
  -25.2530  -13.8167   20.5739 C   0  0  0  0  0  0
  -24.1798  -13.0433   20.9232 C   0  0  0  0  0  0
  -24.6369  -11.6905   20.8787 C   0  0  0  0  0  0
  -23.9045  -10.4289   21.0428 C   0  0  0  0  0  0
  -24.3605   -9.4201   21.9196 C   0  0  0  0  0  0
  -23.6287   -8.2234   22.0754 C   0  0  0  0  0  0
  -22.4271   -8.0275   21.3541 C   0  0  0  0  0  0
  -21.9904   -9.0251   20.4646 C   0  0  0  0  0  0
  -22.7225  -10.2134   20.3066 C   0  0  0  0  0  0
  -21.6849   -6.0734   22.5277 C   0  0  0  0  0  0
  -21.4010   -6.5639   23.8210 C   0  0  0  0  0  0
  -21.3655   -5.6793   24.9173 C   0  0  0  0  0  0
  -21.6044   -4.3056   24.7225 C   0  0  0  0  0  0
  -21.8820   -3.8147   23.4346 C   0  0  0  0  0  0
  -21.9193   -4.6963   22.3402 C   0  0  0  0  0  0
  -22.7823  -13.5232   21.1870 C   0  0  0  0  0  0
  -22.1664   -4.2146   21.0981 F   0  0  0  0  0  0
  -21.5628   -3.4541   25.7739 F   0  0  0  0  0  0
  -29.9866  -13.5060   20.3539 N   0  0  0  0  0  0
  -26.2933  -12.9330   20.3345 N   0  0  0  0  0  0
  -25.9299  -11.6497   20.5841 N   0  0  0  0  0  0
  -22.0461  -12.8225   22.0421 N   0  0  0  0  0  0
  -25.4256  -15.1889   20.4149 N   0  0  0  0  0  0
  -31.8472  -14.7863   20.2714 O   0  0  0  0  0  0
  -21.6635   -6.8873   21.4237 O   0  0  0  0  0  0
  -22.3516  -14.5537   20.6710 O   0  0  0  0  0  0
  -24.6256  -31.8597   23.2033 C   0  0  0  0  0  0
  -25.9105  -32.4779   23.8361 C   0  0  1  0  0  0
  -27.2183  -27.3022   20.1446 C   0  0  0  0  0  0
  -25.5921  -33.8581   24.2285 N   0  0  0  0  0  0
  -23.4211  -30.4816   21.5448 C   0  0  2  0  0  0
  -24.8703  -28.9302   20.1186 C   0  0  0  0  0  0
  -22.7477  -29.4620   22.4940 C   0  0  0  0  0  0
  -18.0289  -28.1383   22.8482 C   0  0  0  0  0  0
  -24.1489  -36.7297   23.2639 C   0  0  0  0  0  0
  -25.9620  -30.7822   21.3817 C   0  0  0  0  0  0
  -26.0349  -29.4029   20.7383 C   0  0  0  0  0  0
  -27.2127  -28.5965   20.7509 C   0  0  0  0  0  0
  -26.0510  -26.9030   19.4657 C   0  0  0  0  0  0
  -24.8795  -27.6835   19.4736 C   0  0  0  0  0  0
  -23.6394  -29.8135   20.1614 C   0  0  0  0  0  0
  -25.4113  -36.3085   24.0330 C   0  0  1  0  0  0
  -20.5888  -28.3690   23.1285 C   0  0  2  0  0  0
  -20.6783  -26.9415   22.5410 C   0  0  0  0  0  0
  -19.5760  -26.6388   21.5210 C   0  0  0  0  0  0
  -18.1940  -26.7925   22.1621 C   0  0  0  0  0  0
  -19.1538  -28.8853   23.2879 C   0  0  0  0  0  0
  -18.9457  -30.1454   23.8897 C   0  0  0  0  0  0
  -17.6455  -30.6582   24.0563 C   0  0  0  0  0  0
  -25.9048  -34.9453   23.5107 C   0  0  0  0  0  0
  -16.5349  -29.9079   23.6327 C   0  0  0  0  0  0
  -16.7275  -28.6499   23.0345 C   0  0  0  0  0  0
  -26.4493  -31.6587   25.0729 C   0  0  0  0  0  0
  -25.3726  -31.3725   26.1455 C   0  0  0  0  0  0
  -27.0340  -30.3010   24.6189 C   0  0  0  0  0  0
  -27.6051  -32.4323   25.7498 C   0  0  0  0  0  0
  -27.5579  -37.1806   24.8466 C   0  0  0  0  0  0
  -21.4189  -29.3045   22.3680 N   0  0  0  0  0  0
  -26.4293  -37.3778   23.9406 N   0  0  0  0  0  0
  -24.6879  -31.0594   22.0996 N   0  0  0  0  0  0
  -23.4196  -28.8161   23.3024 O   0  0  0  0  0  0
  -28.3283  -26.4496   20.0994 O   0  0  0  0  0  0
  -26.5617  -34.8919   22.4673 O   0  0  0  0  0  0
  -23.5418  -32.1405   23.7351 O   0  0  0  0  0  0
  -28.2638  -18.9362   21.3357 C   0  0  0  0  0  0
  -28.6536  -17.5662   21.2138 C   0  0  0  0  0  0
  -30.5114  -18.2556   19.8622 C   0  0  0  0  0  0
  -28.9304  -20.0083   20.6614 C   0  0  0  0  0  0
  -29.7586  -17.1746   20.4178 C   0  0  0  0  0  0
  -30.1102  -19.6267   19.9637 C   0  0  0  0  0  0
  -26.6844  -23.6379   20.3071 C   0  0  0  0  0  0
  -26.9341  -21.2661   20.1676 C   0  0  0  0  0  0
  -27.9874  -23.8392   20.5947 C   0  0  0  0  0  0
  -26.1383  -22.3341   20.0333 C   0  0  0  0  0  0
  -28.8750  -22.6079   20.7302 C   0  0  0  0  0  0
  -29.7587  -15.7962   18.4189 C   0  0  0  0  0  0
  -28.4364  -25.2940   21.0289 C   0  0  0  0  0  0
  -28.2928  -21.3458   20.5402 N   0  0  0  0  0  0
  -29.8750  -15.8002   19.8927 N   0  0  0  0  0  0
  -30.0655  -22.7054   21.0442 O   0  0  0  0  0  0
  -24.8635  -22.1837   19.6577 O   0  0  0  0  0  0
  -30.8133  -20.5553   19.2725 F   0  0  0  0  0  0
  -31.4767  -12.5417   19.1569 H   0  0  0  0  0  0
  -30.3988  -11.4607   20.0022 H   0  0  0  0  0  0
  -29.7607  -11.5320   17.6113 H   0  0  0  0  0  0
  -29.6867  -13.2533   17.6004 H   0  0  0  0  0  0
  -27.8420  -11.2601   18.9203 H   0  0  0  0  0  0
  -27.3808  -12.5031   17.7934 H   0  0  0  0  0  0
  -27.6047  -14.2314   19.4604 H   0  0  0  0  0  0
  -28.7282  -12.2048   21.4482 H   0  0  0  0  0  0
  -28.4490  -13.9094   21.7448 H   0  0  0  0  0  0
  -25.2749   -9.5681   22.4774 H   0  0  0  0  0  0
  -24.0000   -7.4623   22.7468 H   0  0  0  0  0  0
  -21.0838   -8.8770   19.8949 H   0  0  0  0  0  0
  -22.3684  -10.9681   19.6182 H   0  0  0  0  0  0
  -21.1997   -7.6147   23.9712 H   0  0  0  0  0  0
  -21.1476   -6.0524   25.9076 H   0  0  0  0  0  0
  -22.0603   -2.7609   23.2848 H   0  0  0  0  0  0
  -22.4080  -11.9887   22.4809 H   0  0  0  0  0  0
  -21.1075  -13.1243   22.2619 H   0  0  0  0  0  0
  -24.6614  -15.8468   20.5223 H   0  0  0  0  0  0
  -26.2812  -15.6239   20.0940 H   0  0  0  0  0  0
  -26.7170  -32.5457   23.1108 H   0  0  0  0  0  0
  -25.0064  -33.9727   25.0427 H   0  0  0  0  0  0
  -22.7154  -31.3020   21.3992 H   0  0  0  0  0  0
  -23.3748  -35.9633   23.3304 H   0  0  0  0  0  0
  -24.3581  -36.8915   22.2053 H   0  0  0  0  0  0
  -23.7247  -37.6503   23.6657 H   0  0  0  0  0  0
  -26.0926  -31.5367   20.6049 H   0  0  0  0  0  0
  -26.8437  -30.8388   22.0082 H   0  0  0  0  0  0
  -28.1082  -28.9553   21.2387 H   0  0  0  0  0  0
  -26.0464  -25.9790   18.9080 H   0  0  0  0  0  0
  -23.9965  -27.3269   18.9611 H   0  0  0  0  0  0
  -22.7597  -29.2428   19.8581 H   0  0  0  0  0  0
  -23.7622  -30.5879   19.4032 H   0  0  0  0  0  0
  -25.1294  -36.1939   25.0824 H   0  0  0  0  0  0
  -20.9983  -28.3267   24.1405 H   0  0  0  0  0  0
  -20.5694  -26.2294   23.3607 H   0  0  0  0  0  0
  -21.6651  -26.7460   22.1198 H   0  0  0  0  0  0
  -19.6927  -25.6302   21.1235 H   0  0  0  0  0  0
  -19.6697  -27.3199   20.6740 H   0  0  0  0  0  0
  -17.4210  -26.6660   21.4025 H   0  0  0  0  0  0
  -18.0347  -26.0068   22.9021 H   0  0  0  0  0  0
  -19.7929  -30.7273   24.2267 H   0  0  0  0  0  0
  -17.5008  -31.6260   24.5166 H   0  0  0  0  0  0
  -15.5348  -30.2978   23.7650 H   0  0  0  0  0  0
  -15.8679  -28.0817   22.7054 H   0  0  0  0  0  0
  -24.5901  -30.7072   25.7786 H   0  0  0  0  0  0
  -24.8913  -32.2890   26.4879 H   0  0  0  0  0  0
  -25.8051  -30.8906   27.0232 H   0  0  0  0  0  0
  -26.2918  -29.6759   24.1209 H   0  0  0  0  0  0
  -27.4030  -29.7267   25.4698 H   0  0  0  0  0  0
  -27.8791  -30.4294   23.9422 H   0  0  0  0  0  0
  -27.2659  -33.3622   26.2074 H   0  0  0  0  0  0
  -28.3860  -32.6886   25.0325 H   0  0  0  0  0  0
  -28.0719  -31.8449   26.5416 H   0  0  0  0  0  0
  -28.2601  -38.0099   24.7504 H   0  0  0  0  0  0
  -28.1071  -36.2630   24.6300 H   0  0  0  0  0  0
  -27.2295  -37.1464   25.8869 H   0  0  0  0  0  0
  -20.9369  -29.8768   21.6892 H   0  0  0  0  0  0
  -26.0176  -38.2855   24.1400 H   0  0  0  0  0  0
  -27.3607  -19.1502   21.8898 H   0  0  0  0  0  0
  -28.0178  -16.8075   21.6491 H   0  0  0  0  0  0
  -31.3534  -18.0297   19.2242 H   0  0  0  0  0  0
  -26.0056  -24.4716   20.3584 H   0  0  0  0  0  0
  -26.5738  -20.2694   19.9557 H   0  0  0  0  0  0
  -30.6536  -15.4081   17.9274 H   0  0  0  0  0  0
  -29.5798  -16.7830   17.9916 H   0  0  0  0  0  0
  -28.9078  -15.2076   18.0909 H   0  0  0  0  0  0
  -27.9059  -25.5403   21.9499 H   0  0  0  0  0  0
  -29.4861  -25.2450   21.3184 H   0  0  0  0  0  0
  -24.4635  -23.0441   19.6195 H   0  0  0  0  0  0
  1 25  1  0  0  0
  1 30  2  0  0  0
  1 85  1  0  0  0
  2  3  1  0  0  0
  2 25  1  0  0  0
  2 89  1  0  0  0
  2 90  1  0  0  0
  3  4  1  0  0  0
  3 91  1  0  0  0
  3 92  1  0  0  0
  4  5  1  0  0  0
  4 93  1  0  0  0
  4 94  1  0  0  0
  5  6  1  0  0  0
  5 26  1  0  0  0
  5 95  1  0  0  0
  6 25  1  0  0  0
  6 96  1  0  0  0
  6 97  1  0  0  0
  7  8  2  0  0  0
  7 26  1  0  0  0
  7 29  1  0  0  0
  8  9  1  0  0  0
  8 22  1  0  0  0
  9 10  1  0  0  0
  9 27  2  0  0  0
 10 11  2  0  0  0
 10 15  1  0  0  0
 11 12  1  0  0  0
 11 98  1  0  0  0
 12 13  2  0  0  0
 12 99  1  0  0  0
 13 14  1  0  0  0
 13 31  1  0  0  0
 14 15  2  0  0  0
 14100  1  0  0  0
 15101  1  0  0  0
 16 17  2  0  0  0
 16 21  1  0  0  0
 16 31  1  0  0  0
 17 18  1  0  0  0
 17102  1  0  0  0
 18 19  2  0  0  0
 18103  1  0  0  0
 19 20  1  0  0  0
 19 24  1  0  0  0
 20 21  2  0  0  0
 20104  1  0  0  0
 21 23  1  0  0  0
 22 28  1  0  0  0
 22 32  2  0  0  0
 26 27  1  0  0  0
 28105  1  0  0  0
 28106  1  0  0  0
 29107  1  0  0  0
 29108  1  0  0  0
 33 34  1  0  0  0
 33 66  1  0  0  0
 33 70  2  0  0  0
 34 36  1  0  0  0
 34 59  1  0  0  0
 34109  1  0  0  0
 35 44  2  0  0  0
 35 45  1  0  0  0
 35 68  1  0  0  0
 36 56  1  0  0  0
 36110  1  0  0  0
 37 39  1  0  0  0
 37 47  1  0  0  0
 37 66  1  0  0  0
 37111  1  0  0  0
 38 43  2  0  0  0
 38 46  1  0  0  0
 38 47  1  0  0  0
 39 64  1  0  0  0
 39 67  2  0  0  0
 40 52  1  0  0  0
 40 53  2  0  0  0
 40 58  1  0  0  0
 41112  1  0  0  0
 41113  1  0  0  0
 41114  1  0  0  0
 41 48  1  0  0  0
 42 43  1  0  0  0
 42 66  1  0  0  0
 42115  1  0  0  0
 42116  1  0  0  0
 43 44  1  0  0  0
 44117  1  0  0  0
 45 46  2  0  0  0
 45118  1  0  0  0
 46119  1  0  0  0
 47120  1  0  0  0
 47121  1  0  0  0
 48 56  1  0  0  0
 48 65  1  0  0  0
 48122  1  0  0  0
 49 50  1  0  0  0
 49 53  1  0  0  0
 49 64  1  0  0  0
 49123  1  0  0  0
 50 51  1  0  0  0
 50124  1  0  0  0
 50125  1  0  0  0
 51 52  1  0  0  0
 51126  1  0  0  0
 51127  1  0  0  0
 52128  1  0  0  0
 52129  1  0  0  0
 53 54  1  0  0  0
 54 55  2  0  0  0
 54130  1  0  0  0
 55 57  1  0  0  0
 55131  1  0  0  0
 56 69  2  0  0  0
 57 58  2  0  0  0
 57132  1  0  0  0
 58133  1  0  0  0
 59 60  1  0  0  0
 59 61  1  0  0  0
 59 62  1  0  0  0
 60134  1  0  0  0
 60135  1  0  0  0
 60136  1  0  0  0
 61137  1  0  0  0
 61138  1  0  0  0
 61139  1  0  0  0
 62140  1  0  0  0
 62141  1  0  0  0
 62142  1  0  0  0
 63 65  1  0  0  0
 63143  1  0  0  0
 63144  1  0  0  0
 63145  1  0  0  0
 64146  1  0  0  0
 65147  1  0  0  0
 68 83  1  0  0  0
 71 72  2  0  0  0
 71 74  1  0  0  0
 71148  1  0  0  0
 72 75  1  0  0  0
 72149  1  0  0  0
 73 75  2  0  0  0
 73 76  1  0  0  0
 73150  1  0  0  0
 74 76  2  0  0  0
 74 84  1  0  0  0
 75 85  1  0  0  0
 76 88  1  0  0  0
 77 79  2  0  0  0
 77 80  1  0  0  0
 77151  1  0  0  0
 78 80  2  0  0  0
 78 84  1  0  0  0
 78152  1  0  0  0
 79 81  1  0  0  0
 79 83  1  0  0  0
 80 87  1  0  0  0
 81 84  1  0  0  0
 81 86  2  0  0  0
 82 85  1  0  0  0
 82153  1  0  0  0
 82154  1  0  0  0
 82155  1  0  0  0
 83156  1  0  0  0
 83157  1  0  0  0
 87158  1  0  0  0
M  ISO  4   1 100  68 101  83 101  85 100
M  END
> <chiral flag>
0

> <version>
0

> <s_m_source_file>
/data/baiqing/PycharmProjects/Reinvent-master-3.2/result/LINK_invent/BTK/process_docking_weight1_custom_product_contain_oxygen_bond_distance_aromatic_linkinvent_7_9_3/rearranged_h_0088.sdf

> <i_m_source_file_index>
46

> <r_mmod_Potential_Energy-OPLS-2005>
435.913146972656

> <r_mmod_Stretch_Energy-OPLS-2005>
109.088676452637

> <r_mmod_Bend_Energy-OPLS-2005>
163.679336547852

> <r_mmod_Torsional_Energy-OPLS-2005>
403.100402832031

> <r_mmod_Improper_Torsional_Energy-OPLS-2005>
30.1770401000977

> <r_mmod_Van_der_Waal_Energy-OPLS-2005>
167.663803100586

> <r_mmod_Electrostatic_Energy-OPLS-2005>
-298.025726318359

> <r_mmod_Solvation_Energy-OPLS-2005>
-219.48828125

> <b_mmod_Minimization_Converged-OPLS-2005>
0

> <r_mmod_RMS_Derivative-OPLS-2005>
0.383574247360229

$$$$
46
                    3D
 Structure written by MMmdl.
147155  0  0  1  0            999 V2000
  -30.5868  -14.8110   20.4325 C   0  0  0  0  0  0
  -30.4340  -12.4913   19.4973 C   0  0  0  0  0  0
  -29.5176  -12.5112   18.2527 C   0  0  0  0  0  0
  -28.0453  -12.3276   18.6639 C   0  0  0  0  0  0
  -27.6401  -13.2395   19.8524 C   0  0  2  0  0  0
  -28.6810  -13.2002   20.9923 C   0  0  0  0  0  0
  -25.2491  -13.8203   20.5706 C   0  0  0  0  0  0
  -24.1791  -13.0439   20.9208 C   0  0  0  0  0  0
  -24.6388  -11.6923   20.8738 C   0  0  0  0  0  0
  -23.9061  -10.4299   21.0395 C   0  0  0  0  0  0
  -24.3617   -9.4212   21.9176 C   0  0  0  0  0  0
  -23.6296   -8.2242   22.0750 C   0  0  0  0  0  0
  -22.4277   -8.0277   21.3542 C   0  0  0  0  0  0
  -21.9906   -9.0244   20.4642 C   0  0  0  0  0  0
  -22.7225  -10.2131   20.3046 C   0  0  0  0  0  0
  -21.6854   -6.0737   22.5280 C   0  0  0  0  0  0
  -21.4011   -6.5639   23.8213 C   0  0  0  0  0  0
  -21.3663   -5.6792   24.9174 C   0  0  0  0  0  0
  -21.6047   -4.3056   24.7224 C   0  0  0  0  0  0
  -21.8812   -3.8149   23.4344 C   0  0  0  0  0  0
  -21.9188   -4.6965   22.3401 C   0  0  0  0  0  0
  -22.7812  -13.5219   21.1869 C   0  0  0  0  0  0
  -22.1659   -4.2145   21.0981 F   0  0  0  0  0  0
  -21.5631   -3.4540   25.7741 F   0  0  0  0  0  0
  -29.9793  -13.5678   20.4143 N   0  0  0  0  0  0
  -26.2927  -12.9433   20.3286 N   0  0  0  0  0  0
  -25.9324  -11.6566   20.5749 N   0  0  0  0  0  0
  -22.0470  -12.8210   22.0434 N   0  0  0  0  0  0
  -25.4150  -15.1928   20.4133 N   0  0  0  0  0  0
  -31.7773  -14.8904   20.1127 O   0  0  0  0  0  0
  -21.6644   -6.8876   21.4238 O   0  0  0  0  0  0
  -22.3493  -14.5522   20.6712 O   0  0  0  0  0  0
  -24.6345  -31.8512   23.1964 C   0  0  0  0  0  0
  -25.9150  -32.4738   23.8306 C   0  0  1  0  0  0
  -27.2149  -27.2146   20.1333 C   0  0  0  0  0  0
  -25.5925  -33.8541   24.2212 N   0  0  0  0  0  0
  -23.4331  -30.4746   21.5404 C   0  0  2  0  0  0
  -24.8841  -28.9173   20.1094 C   0  0  0  0  0  0
  -22.7502  -29.4581   22.4886 C   0  0  0  0  0  0
  -18.0282  -28.1391   22.8491 C   0  0  0  0  0  0
  -24.1489  -36.7278   23.2635 C   0  0  0  0  0  0
  -25.9846  -30.7469   21.3879 C   0  0  0  0  0  0
  -26.0576  -29.3649   20.7308 C   0  0  0  0  0  0
  -27.2256  -28.5258   20.7351 C   0  0  0  0  0  0
  -26.0245  -26.8620   19.4582 C   0  0  0  0  0  0
  -24.8749  -27.6743   19.4624 C   0  0  0  0  0  0
  -23.6562  -29.8092   20.1574 C   0  0  0  0  0  0
  -25.4116  -36.3060   24.0316 C   0  0  1  0  0  0
  -20.5889  -28.3702   23.1260 C   0  0  2  0  0  0
  -20.6777  -26.9413   22.5408 C   0  0  0  0  0  0
  -19.5757  -26.6378   21.5210 C   0  0  0  0  0  0
  -18.1937  -26.7936   22.1630 C   0  0  0  0  0  0
  -19.1540  -28.8865   23.2875 C   0  0  0  0  0  0
  -18.9466  -30.1466   23.8889 C   0  0  0  0  0  0
  -17.6469  -30.6599   24.0559 C   0  0  0  0  0  0
  -25.9061  -34.9430   23.5069 C   0  0  0  0  0  0
  -16.5351  -29.9093   23.6346 C   0  0  0  0  0  0
  -16.7273  -28.6510   23.0368 C   0  0  0  0  0  0
  -26.4486  -31.6596   25.0732 C   0  0  0  0  0  0
  -25.3679  -31.3792   26.1436 C   0  0  0  0  0  0
  -27.0343  -30.2995   24.6293 C   0  0  0  0  0  0
  -27.6002  -32.4362   25.7532 C   0  0  0  0  0  0
  -27.5570  -37.1799   24.8458 C   0  0  0  0  0  0
  -21.4205  -29.3043   22.3636 N   0  0  0  0  0  0
  -26.4284  -37.3766   23.9405 N   0  0  0  0  0  0
  -24.7031  -31.0435   22.0969 N   0  0  0  0  0  0
  -23.4177  -28.8102   23.2995 O   0  0  0  0  0  0
  -28.2650  -26.2485   20.1829 O   0  0  0  0  0  0
  -26.5651  -34.8912   22.4649 O   0  0  0  0  0  0
  -23.5487  -32.1348   23.7236 O   0  0  0  0  0  0
  -28.5234  -23.6348   20.1695 C   0  0  0  0  0  0
  -29.9884  -19.8991   18.6983 C   0  0  0  0  0  0
  -30.3612  -18.6939   18.0664 C   0  0  0  0  0  0
  -29.5017  -18.6123   20.7021 C   0  0  0  0  0  0
  -29.5296  -19.9251   20.0319 C   0  0  0  0  0  0
  -29.9069  -17.3403   20.0781 C   0  0  0  0  0  0
  -30.3117  -17.4480   18.7235 C   0  0  0  0  0  0
  -27.9311  -24.8505   20.3487 C   0  0  0  0  0  0
  -29.1690  -21.3260   20.6703 C   0  0  0  0  0  0
  -28.7926  -22.4500   19.8399 N   0  0  0  0  0  0
  -29.8284  -15.9623   20.6836 N   0  0  0  0  0  0
  -29.1838  -21.3817   21.8998 O   0  0  0  0  0  0
  -30.6117  -16.3417   18.0003 F   0  0  0  0  0  0
  -31.4749  -12.6176   19.1965 H   0  0  0  0  0  0
  -30.3880  -11.5227   19.9969 H   0  0  0  0  0  0
  -29.8108  -11.7266   17.5543 H   0  0  0  0  0  0
  -29.6375  -13.4569   17.7218 H   0  0  0  0  0  0
  -27.9168  -11.2814   18.9439 H   0  0  0  0  0  0
  -27.3858  -12.4995   17.8130 H   0  0  0  0  0  0
  -27.6284  -14.2562   19.4590 H   0  0  0  0  0  0
  -28.7261  -12.2069   21.4420 H   0  0  0  0  0  0
  -28.4039  -13.8867   21.7937 H   0  0  0  0  0  0
  -25.2753   -9.5701   22.4758 H   0  0  0  0  0  0
  -24.0007   -7.4629   22.7470 H   0  0  0  0  0  0
  -21.0834   -8.8740   19.8951 H   0  0  0  0  0  0
  -22.3656  -10.9660   19.6160 H   0  0  0  0  0  0
  -21.2002   -7.6148   23.9711 H   0  0  0  0  0  0
  -21.1501   -6.0533   25.9078 H   0  0  0  0  0  0
  -22.0590   -2.7606   23.2847 H   0  0  0  0  0  0
  -22.4114  -11.9884   22.4825 H   0  0  0  0  0  0
  -21.1080  -13.1204   22.2643 H   0  0  0  0  0  0
  -24.6440  -15.8426   20.5233 H   0  0  0  0  0  0
  -26.2597  -15.6337   20.0717 H   0  0  0  0  0  0
  -26.7201  -32.5377   23.1023 H   0  0  0  0  0  0
  -25.0017  -33.9665   25.0323 H   0  0  0  0  0  0
  -22.7327  -31.2991   21.3929 H   0  0  0  0  0  0
  -23.3749  -35.9612   23.3299 H   0  0  0  0  0  0
  -24.3558  -36.8916   22.2046 H   0  0  0  0  0  0
  -23.7258  -37.6478   23.6677 H   0  0  0  0  0  0
  -26.1325  -31.5046   20.6169 H   0  0  0  0  0  0
  -26.8574  -30.7938   22.0275 H   0  0  0  0  0  0
  -28.1198  -28.8603   21.2420 H   0  0  0  0  0  0
  -25.9578  -25.9146   18.9418 H   0  0  0  0  0  0
  -23.9793  -27.3283   18.9636 H   0  0  0  0  0  0
  -23.7807  -30.5842   19.4004 H   0  0  0  0  0  0
  -22.7743  -29.2434   19.8522 H   0  0  0  0  0  0
  -25.1305  -36.1886   25.0810 H   0  0  0  0  0  0
  -20.9989  -28.3297   24.1378 H   0  0  0  0  0  0
  -20.5679  -26.2301   23.3609 H   0  0  0  0  0  0
  -21.6650  -26.7443   22.1203 H   0  0  0  0  0  0
  -19.6916  -25.6280   21.1256 H   0  0  0  0  0  0
  -19.6711  -27.3164   20.6726 H   0  0  0  0  0  0
  -17.4199  -26.6662   21.4042 H   0  0  0  0  0  0
  -18.0361  -26.0074   22.9034 H   0  0  0  0  0  0
  -19.7935  -30.7291   24.2251 H   0  0  0  0  0  0
  -17.5019  -31.6288   24.5145 H   0  0  0  0  0  0
  -15.5353  -30.2995   23.7695 H   0  0  0  0  0  0
  -15.8664  -28.0831   22.7103 H   0  0  0  0  0  0
  -24.5836  -30.7166   25.7759 H   0  0  0  0  0  0
  -24.8890  -32.2986   26.4813 H   0  0  0  0  0  0
  -25.7947  -30.8986   27.0247 H   0  0  0  0  0  0
  -26.2961  -29.6748   24.1250 H   0  0  0  0  0  0
  -27.3901  -29.7269   25.4867 H   0  0  0  0  0  0
  -27.8888  -30.4234   23.9636 H   0  0  0  0  0  0
  -27.2554  -33.3647   26.2089 H   0  0  0  0  0  0
  -28.3822  -32.6954   25.0387 H   0  0  0  0  0  0
  -28.0652  -31.8517   26.5480 H   0  0  0  0  0  0
  -28.2585  -38.0099   24.7503 H   0  0  0  0  0  0
  -28.1072  -36.2627   24.6291 H   0  0  0  0  0  0
  -27.2281  -37.1455   25.8860 H   0  0  0  0  0  0
  -20.9372  -29.8767   21.6848 H   0  0  0  0  0  0
  -26.0154  -38.2835   24.1417 H   0  0  0  0  0  0
  -30.0575  -20.8173   18.1318 H   0  0  0  0  0  0
  -30.6825  -18.7208   17.0352 H   0  0  0  0  0  0
  -29.1659  -18.5860   21.7292 H   0  0  0  0  0  0
  -26.9136  -24.8015   20.7080 H   0  0  0  0  0  0
  -28.9749  -15.7812   21.1887 H   0  0  0  0  0  0
  1 25  1  0  0  0
  1 30  2  0  0  0
  1 81  1  0  0  0
  2  3  1  0  0  0
  2 25  1  0  0  0
  2 84  1  0  0  0
  2 85  1  0  0  0
  3  4  1  0  0  0
  3 86  1  0  0  0
  3 87  1  0  0  0
  4  5  1  0  0  0
  4 88  1  0  0  0
  4 89  1  0  0  0
  5  6  1  0  0  0
  5 26  1  0  0  0
  5 90  1  0  0  0
  6 25  1  0  0  0
  6 91  1  0  0  0
  6 92  1  0  0  0
  7  8  2  0  0  0
  7 26  1  0  0  0
  7 29  1  0  0  0
  8  9  1  0  0  0
  8 22  1  0  0  0
  9 10  1  0  0  0
  9 27  2  0  0  0
 10 11  2  0  0  0
 10 15  1  0  0  0
 11 12  1  0  0  0
 11 93  1  0  0  0
 12 13  2  0  0  0
 12 94  1  0  0  0
 13 14  1  0  0  0
 13 31  1  0  0  0
 14 15  2  0  0  0
 14 95  1  0  0  0
 15 96  1  0  0  0
 16 17  2  0  0  0
 16 21  1  0  0  0
 16 31  1  0  0  0
 17 18  1  0  0  0
 17 97  1  0  0  0
 18 19  2  0  0  0
 18 98  1  0  0  0
 19 20  1  0  0  0
 19 24  1  0  0  0
 20 21  2  0  0  0
 20 99  1  0  0  0
 21 23  1  0  0  0
 22 28  1  0  0  0
 22 32  2  0  0  0
 26 27  1  0  0  0
 28100  1  0  0  0
 28101  1  0  0  0
 29102  1  0  0  0
 29103  1  0  0  0
 33 34  1  0  0  0
 33 66  1  0  0  0
 33 70  2  0  0  0
 34 36  1  0  0  0
 34 59  1  0  0  0
 34104  1  0  0  0
 35 44  2  0  0  0
 35 45  1  0  0  0
 35 68  1  0  0  0
 36 56  1  0  0  0
 36105  1  0  0  0
 37 39  1  0  0  0
 37 47  1  0  0  0
 37 66  1  0  0  0
 37106  1  0  0  0
 38 43  2  0  0  0
 38 46  1  0  0  0
 38 47  1  0  0  0
 39 64  1  0  0  0
 39 67  2  0  0  0
 40 52  1  0  0  0
 40 53  2  0  0  0
 40 58  1  0  0  0
 41107  1  0  0  0
 41108  1  0  0  0
 41109  1  0  0  0
 41 48  1  0  0  0
 42 43  1  0  0  0
 42 66  1  0  0  0
 42110  1  0  0  0
 42111  1  0  0  0
 43 44  1  0  0  0
 44112  1  0  0  0
 45 46  2  0  0  0
 45113  1  0  0  0
 46114  1  0  0  0
 47115  1  0  0  0
 47116  1  0  0  0
 48 56  1  0  0  0
 48 65  1  0  0  0
 48117  1  0  0  0
 49 50  1  0  0  0
 49 53  1  0  0  0
 49 64  1  0  0  0
 49118  1  0  0  0
 50 51  1  0  0  0
 50119  1  0  0  0
 50120  1  0  0  0
 51 52  1  0  0  0
 51121  1  0  0  0
 51122  1  0  0  0
 52123  1  0  0  0
 52124  1  0  0  0
 53 54  1  0  0  0
 54 55  2  0  0  0
 54125  1  0  0  0
 55 57  1  0  0  0
 55126  1  0  0  0
 56 69  2  0  0  0
 57 58  2  0  0  0
 57127  1  0  0  0
 58128  1  0  0  0
 59 60  1  0  0  0
 59 61  1  0  0  0
 59 62  1  0  0  0
 60129  1  0  0  0
 60130  1  0  0  0
 60131  1  0  0  0
 61132  1  0  0  0
 61133  1  0  0  0
 61134  1  0  0  0
 62135  1  0  0  0
 62136  1  0  0  0
 62137  1  0  0  0
 63 65  1  0  0  0
 63138  1  0  0  0
 63139  1  0  0  0
 63140  1  0  0  0
 64141  1  0  0  0
 65142  1  0  0  0
 68 78  1  0  0  0
 71 78  2  0  0  0
 71 80  2  0  0  0
 72 73  2  0  0  0
 72 75  1  0  0  0
 72143  1  0  0  0
 73 77  1  0  0  0
 73144  1  0  0  0
 74 75  2  0  0  0
 74 76  1  0  0  0
 74145  1  0  0  0
 75 79  1  0  0  0
 76 77  2  0  0  0
 76 81  1  0  0  0
 77 83  1  0  0  0
 78146  1  0  0  0
 79 80  1  0  0  0
 79 82  2  0  0  0
 81147  1  0  0  0
M  ISO  4   1 100  68 101  78 101  81 100
M  END
> <chiral flag>
0

> <version>
0

> <s_m_source_file>
/data/baiqing/PycharmProjects/Reinvent-master-3.2/result/LINK_invent/BTK/process_docking_weight1_custom_product_contain_oxygen_bond_distance_aromatic_linkinvent_7_9_3/rearranged_h_0088.sdf

> <i_m_source_file_index>
47

> <r_mmod_Potential_Energy-OPLS-2005>
178.239059448242

> <r_mmod_Stretch_Energy-OPLS-2005>
149.850997924805

> <r_mmod_Bend_Energy-OPLS-2005>
175.350967407227

> <r_mmod_Torsional_Energy-OPLS-2005>
195.757568359375

> <r_mmod_Improper_Torsional_Energy-OPLS-2005>
4.19215440750122

> <r_mmod_Van_der_Waal_Energy-OPLS-2005>
144.771240234375

> <r_mmod_Electrostatic_Energy-OPLS-2005>
-406.486297607422

> <r_mmod_Solvation_Energy-OPLS-2005>
-205.530746459961

> <b_mmod_Minimization_Converged-OPLS-2005>
0

> <r_mmod_RMS_Derivative-OPLS-2005>
1.88179790973663

$$$$
47
                    3D
 Structure written by MMmdl.
155163  0  0  1  0            999 V2000
  -30.6711  -14.7540   20.4862 C   0  0  0  0  0  0
  -30.4158  -12.4705   19.4852 C   0  0  0  0  0  0
  -29.5004  -12.4970   18.2455 C   0  0  0  0  0  0
  -28.0308  -12.3115   18.6649 C   0  0  0  0  0  0
  -27.6315  -13.2412   19.8416 C   0  0  2  0  0  0
  -28.6781  -13.2242   20.9770 C   0  0  0  0  0  0
  -25.2453  -13.8208   20.5734 C   0  0  0  0  0  0
  -24.1761  -13.0406   20.9244 C   0  0  0  0  0  0
  -24.6389  -11.6899   20.8768 C   0  0  0  0  0  0
  -23.9089  -10.4264   21.0422 C   0  0  0  0  0  0
  -24.3614   -9.4167   21.9206 C   0  0  0  0  0  0
  -23.6267   -8.2215   22.0763 C   0  0  0  0  0  0
  -22.4246   -8.0288   21.3546 C   0  0  0  0  0  0
  -21.9897   -9.0261   20.4641 C   0  0  0  0  0  0
  -22.7256  -10.2127   20.3077 C   0  0  0  0  0  0
  -21.6837   -6.0758   22.5281 C   0  0  0  0  0  0
  -21.4017   -6.5647   23.8224 C   0  0  0  0  0  0
  -21.3650   -5.6781   24.9190 C   0  0  0  0  0  0
  -21.6047   -4.3052   24.7222 C   0  0  0  0  0  0
  -21.8793   -3.8151   23.4331 C   0  0  0  0  0  0
  -21.9167   -4.6980   22.3397 C   0  0  0  0  0  0
  -22.7778  -13.5182   21.1889 C   0  0  0  0  0  0
  -22.1638   -4.2168   21.0971 F   0  0  0  0  0  0
  -21.5623   -3.4534   25.7728 F   0  0  0  0  0  0
  -29.9787  -13.5622   20.3878 N   0  0  0  0  0  0
  -26.2891  -12.9444   20.3297 N   0  0  0  0  0  0
  -25.9324  -11.6564   20.5793 N   0  0  0  0  0  0
  -22.0393  -12.8206   22.0444 N   0  0  0  0  0  0
  -25.4067  -15.1952   20.4137 N   0  0  0  0  0  0
  -31.8608  -14.7637   20.1591 O   0  0  0  0  0  0
  -21.6602   -6.8896   21.4249 O   0  0  0  0  0  0
  -22.3453  -14.5464   20.6719 O   0  0  0  0  0  0
  -24.6272  -31.8595   23.2049 C   0  0  0  0  0  0
  -25.9128  -32.4791   23.8374 C   0  0  1  0  0  0
  -27.2193  -27.2848   20.1418 C   0  0  0  0  0  0
  -25.5953  -33.8588   24.2316 N   0  0  0  0  0  0
  -23.4248  -30.4855   21.5410 C   0  0  2  0  0  0
  -24.8812  -28.9422   20.1027 C   0  0  0  0  0  0
  -22.7490  -29.4651   22.4870 C   0  0  0  0  0  0
  -18.0296  -28.1406   22.8488 C   0  0  0  0  0  0
  -24.1487  -36.7256   23.2629 C   0  0  0  0  0  0
  -25.9725  -30.7826   21.3840 C   0  0  0  0  0  0
  -26.0498  -29.4078   20.7225 C   0  0  0  0  0  0
  -27.2252  -28.5900   20.7376 C   0  0  0  0  0  0
  -26.0412  -26.8950   19.4673 C   0  0  0  0  0  0
  -24.8837  -27.6927   19.4595 C   0  0  0  0  0  0
  -23.6478  -29.8237   20.1549 C   0  0  0  0  0  0
  -25.4117  -36.3080   24.0330 C   0  0  1  0  0  0
  -20.5908  -28.3733   23.1256 C   0  0  2  0  0  0
  -20.6790  -26.9449   22.5398 C   0  0  0  0  0  0
  -19.5753  -26.6412   21.5211 C   0  0  0  0  0  0
  -18.1939  -26.7949   22.1623 C   0  0  0  0  0  0
  -19.1556  -28.8874   23.2886 C   0  0  0  0  0  0
  -18.9468  -30.1465   23.8919 C   0  0  0  0  0  0
  -17.6465  -30.6606   24.0569 C   0  0  0  0  0  0
  -25.9060  -34.9445   23.5121 C   0  0  0  0  0  0
  -16.5361  -29.9111   23.6333 C   0  0  0  0  0  0
  -16.7289  -28.6520   23.0365 C   0  0  0  0  0  0
  -26.4533  -31.6585   25.0705 C   0  0  0  0  0  0
  -25.3772  -31.3709   26.1426 C   0  0  0  0  0  0
  -27.0372  -30.3003   24.6158 C   0  0  0  0  0  0
  -27.6101  -32.4300   25.7482 C   0  0  0  0  0  0
  -27.5586  -37.1785   24.8484 C   0  0  0  0  0  0
  -21.4204  -29.3086   22.3626 N   0  0  0  0  0  0
  -26.4291  -37.3766   23.9433 N   0  0  0  0  0  0
  -24.6933  -31.0579   22.1016 N   0  0  0  0  0  0
  -23.4228  -28.8167   23.2915 O   0  0  0  0  0  0
  -28.2212  -26.2999   20.2809 O   0  0  0  0  0  0
  -26.5601  -34.8930   22.4676 O   0  0  0  0  0  0
  -23.5428  -32.1407   23.7344 O   0  0  0  0  0  0
  -31.7966  -17.3192   21.5169 C   0  0  0  0  0  0
  -32.7559  -18.2499   21.6566 C   0  0  0  0  0  0
  -29.8448  -18.4932   20.7699 C   0  0  0  0  0  0
  -31.4781  -20.3051   20.7207 C   0  0  0  0  0  0
  -30.5521  -17.3050   20.9812 C   0  0  0  0  0  0
  -30.2000  -19.8506   20.7362 C   0  0  0  0  0  0
  -32.7046  -19.6193   21.1485 C   0  0  0  0  0  0
  -27.7892  -25.1669   21.0231 C   0  0  0  0  0  0
  -28.1587  -23.8386   21.2287 C   0  0  0  0  0  0
  -27.3256  -23.0414   22.2197 C   0  0  0  0  0  0
  -29.9963  -15.9565   20.7487 N   0  0  0  0  0  0
  -29.2143  -20.9511   20.6196 N   0  0  0  0  0  0
  -33.7579  -20.2637   21.1240 O   0  0  0  0  0  0
  -29.7247  -23.1092   19.1172 O   0  0  0  0  0  0
  -30.6623  -23.0100   21.4665 O   0  0  0  0  0  0
  -29.5456  -22.7638   20.5381 S   0  0  0  0  0  0
  -31.4521  -12.5671   19.1709 H   0  0  0  0  0  0
  -30.3522  -11.5125   20.0045 H   0  0  0  0  0  0
  -29.7878  -11.7140   17.5441 H   0  0  0  0  0  0
  -29.6211  -13.4451   17.7217 H   0  0  0  0  0  0
  -27.9029  -11.2704   18.9625 H   0  0  0  0  0  0
  -27.3680  -12.4674   17.8117 H   0  0  0  0  0  0
  -27.6068  -14.2512   19.4329 H   0  0  0  0  0  0
  -28.7168  -12.2460   21.4566 H   0  0  0  0  0  0
  -28.4093  -13.9359   21.7563 H   0  0  0  0  0  0
  -25.2768   -9.5612   22.4773 H   0  0  0  0  0  0
  -23.9945   -7.4604   22.7487 H   0  0  0  0  0  0
  -21.0816   -8.8805   19.8948 H   0  0  0  0  0  0
  -22.3739  -10.9671   19.6178 H   0  0  0  0  0  0
  -21.2039   -7.6157   23.9748 H   0  0  0  0  0  0
  -21.1501   -6.0522   25.9104 H   0  0  0  0  0  0
  -22.0581   -2.7612   23.2832 H   0  0  0  0  0  0
  -22.3988  -11.9893   22.4875 H   0  0  0  0  0  0
  -21.1037  -13.1311   22.2658 H   0  0  0  0  0  0
  -24.6284  -15.8371   20.5335 H   0  0  0  0  0  0
  -26.2520  -15.6497   20.0900 H   0  0  0  0  0  0
  -26.7179  -32.5485   23.1107 H   0  0  0  0  0  0
  -25.0142  -33.9777   25.0493 H   0  0  0  0  0  0
  -22.7177  -31.3057   21.3939 H   0  0  0  0  0  0
  -23.3773  -35.9562   23.3296 H   0  0  0  0  0  0
  -24.3556  -36.8860   22.2041 H   0  0  0  0  0  0
  -23.7223  -37.6450   23.6645 H   0  0  0  0  0  0
  -26.1066  -31.5448   20.6146 H   0  0  0  0  0  0
  -26.8521  -30.8382   22.0143 H   0  0  0  0  0  0
  -28.1077  -28.9220   21.2680 H   0  0  0  0  0  0
  -25.9977  -25.9210   18.9996 H   0  0  0  0  0  0
  -23.9924  -27.3330   18.9668 H   0  0  0  0  0  0
  -23.7715  -30.6042   19.4026 H   0  0  0  0  0  0
  -22.7675  -29.2572   19.8488 H   0  0  0  0  0  0
  -25.1285  -36.1902   25.0806 H   0  0  0  0  0  0
  -21.0025  -28.3322   24.1370 H   0  0  0  0  0  0
  -20.5664  -26.2362   23.3620 H   0  0  0  0  0  0
  -21.6655  -26.7465   22.1189 H   0  0  0  0  0  0
  -19.6915  -25.6316   21.1256 H   0  0  0  0  0  0
  -19.6669  -27.3198   20.6724 H   0  0  0  0  0  0
  -17.4200  -26.6702   21.4039 H   0  0  0  0  0  0
  -18.0355  -26.0095   22.9025 H   0  0  0  0  0  0
  -19.7938  -30.7288   24.2322 H   0  0  0  0  0  0
  -17.5019  -31.6289   24.5154 H   0  0  0  0  0  0
  -15.5353  -30.3022   23.7656 H   0  0  0  0  0  0
  -15.8697  -28.0848   22.7099 H   0  0  0  0  0  0
  -24.5993  -30.7001   25.7771 H   0  0  0  0  0  0
  -24.8897  -32.2858   26.4808 H   0  0  0  0  0  0
  -25.8094  -30.8932   27.0233 H   0  0  0  0  0  0
  -26.2947  -29.6753   24.1179 H   0  0  0  0  0  0
  -27.4093  -29.7245   25.4656 H   0  0  0  0  0  0
  -27.8820  -30.4293   23.9375 H   0  0  0  0  0  0
  -27.2753  -33.3636   26.2037 H   0  0  0  0  0  0
  -28.3950  -32.6816   25.0321 H   0  0  0  0  0  0
  -28.0752  -31.8418   26.5422 H   0  0  0  0  0  0
  -28.2602  -38.0088   24.7536 H   0  0  0  0  0  0
  -28.1081  -36.2623   24.6277 H   0  0  0  0  0  0
  -27.2304  -37.1376   25.8885 H   0  0  0  0  0  0
  -20.9376  -29.8780   21.6814 H   0  0  0  0  0  0
  -26.0164  -38.2822   24.1457 H   0  0  0  0  0  0
  -32.0739  -16.4000   22.0106 H   0  0  0  0  0  0
  -33.6457  -17.9320   22.1822 H   0  0  0  0  0  0
  -28.7928  -18.3263   20.5786 H   0  0  0  0  0  0
  -31.6505  -21.2167   20.1716 H   0  0  0  0  0  0
  -26.9313  -25.4685   21.6075 H   0  0  0  0  0  0
  -27.9349  -22.2653   22.6876 H   0  0  0  0  0  0
  -26.4897  -22.5601   21.7134 H   0  0  0  0  0  0
  -26.9368  -23.6681   23.0231 H   0  0  0  0  0  0
  -28.9909  -15.8828   20.7908 H   0  0  0  0  0  0
  -28.2080  -20.7754   20.6019 H   0  0  0  0  0  0
  1 25  1  0  0  0
  1 30  2  0  0  0
  1 81  1  0  0  0
  2  3  1  0  0  0
  2 25  1  0  0  0
  2 87  1  0  0  0
  2 88  1  0  0  0
  3  4  1  0  0  0
  3 89  1  0  0  0
  3 90  1  0  0  0
  4  5  1  0  0  0
  4 91  1  0  0  0
  4 92  1  0  0  0
  5  6  1  0  0  0
  5 26  1  0  0  0
  5 93  1  0  0  0
  6 25  1  0  0  0
  6 94  1  0  0  0
  6 95  1  0  0  0
  7  8  2  0  0  0
  7 26  1  0  0  0
  7 29  1  0  0  0
  8  9  1  0  0  0
  8 22  1  0  0  0
  9 10  1  0  0  0
  9 27  2  0  0  0
 10 11  2  0  0  0
 10 15  1  0  0  0
 11 12  1  0  0  0
 11 96  1  0  0  0
 12 13  2  0  0  0
 12 97  1  0  0  0
 13 14  1  0  0  0
 13 31  1  0  0  0
 14 15  2  0  0  0
 14 98  1  0  0  0
 15 99  1  0  0  0
 16 17  2  0  0  0
 16 21  1  0  0  0
 16 31  1  0  0  0
 17 18  1  0  0  0
 17100  1  0  0  0
 18 19  2  0  0  0
 18101  1  0  0  0
 19 20  1  0  0  0
 19 24  1  0  0  0
 20 21  2  0  0  0
 20102  1  0  0  0
 21 23  1  0  0  0
 22 28  1  0  0  0
 22 32  2  0  0  0
 26 27  1  0  0  0
 28103  1  0  0  0
 28104  1  0  0  0
 29105  1  0  0  0
 29106  1  0  0  0
 33 34  1  0  0  0
 33 66  1  0  0  0
 33 70  2  0  0  0
 34 36  1  0  0  0
 34 59  1  0  0  0
 34107  1  0  0  0
 35 44  2  0  0  0
 35 45  1  0  0  0
 35 68  1  0  0  0
 36 56  1  0  0  0
 36108  1  0  0  0
 37 39  1  0  0  0
 37 47  1  0  0  0
 37 66  1  0  0  0
 37109  1  0  0  0
 38 43  2  0  0  0
 38 46  1  0  0  0
 38 47  1  0  0  0
 39 64  1  0  0  0
 39 67  2  0  0  0
 40 52  1  0  0  0
 40 53  2  0  0  0
 40 58  1  0  0  0
 41110  1  0  0  0
 41111  1  0  0  0
 41112  1  0  0  0
 41 48  1  0  0  0
 42 43  1  0  0  0
 42 66  1  0  0  0
 42113  1  0  0  0
 42114  1  0  0  0
 43 44  1  0  0  0
 44115  1  0  0  0
 45 46  2  0  0  0
 45116  1  0  0  0
 46117  1  0  0  0
 47118  1  0  0  0
 47119  1  0  0  0
 48 56  1  0  0  0
 48 65  1  0  0  0
 48120  1  0  0  0
 49 50  1  0  0  0
 49 53  1  0  0  0
 49 64  1  0  0  0
 49121  1  0  0  0
 50 51  1  0  0  0
 50122  1  0  0  0
 50123  1  0  0  0
 51 52  1  0  0  0
 51124  1  0  0  0
 51125  1  0  0  0
 52126  1  0  0  0
 52127  1  0  0  0
 53 54  1  0  0  0
 54 55  2  0  0  0
 54128  1  0  0  0
 55 57  1  0  0  0
 55129  1  0  0  0
 56 69  2  0  0  0
 57 58  2  0  0  0
 57130  1  0  0  0
 58131  1  0  0  0
 59 60  1  0  0  0
 59 61  1  0  0  0
 59 62  1  0  0  0
 60132  1  0  0  0
 60133  1  0  0  0
 60134  1  0  0  0
 61135  1  0  0  0
 61136  1  0  0  0
 61137  1  0  0  0
 62138  1  0  0  0
 62139  1  0  0  0
 62140  1  0  0  0
 63 65  1  0  0  0
 63141  1  0  0  0
 63142  1  0  0  0
 63143  1  0  0  0
 64144  1  0  0  0
 65145  1  0  0  0
 68 78  1  0  0  0
 71 72  2  0  0  0
 71 75  1  0  0  0
 71146  1  0  0  0
 72 77  1  0  0  0
 72147  1  0  0  0
 73 75  2  0  0  0
 73 76  1  0  0  0
 73148  1  0  0  0
 74 76  2  0  0  0
 74 77  1  0  0  0
 74149  1  0  0  0
 75 81  1  0  0  0
 76 82  1  0  0  0
 77 83  2  0  0  0
 78 79  2  0  0  0
 78150  1  0  0  0
 79 80  1  0  0  0
 79 86  1  0  0  0
 80151  1  0  0  0
 80152  1  0  0  0
 80153  1  0  0  0
 81154  1  0  0  0
 82155  1  0  0  0
 82 86  1  0  0  0
 84 86  2  0  0  0
 85 86  2  0  0  0
M  ISO  4   1 100  68 101  78 101  81 100
M  END
> <chiral flag>
0

> <version>
0

> <s_m_source_file>
/data/baiqing/PycharmProjects/Reinvent-master-3.2/result/LINK_invent/BTK/process_docking_weight1_custom_product_contain_oxygen_bond_distance_aromatic_linkinvent_7_9_3/rearranged_h_0088.sdf

> <i_m_source_file_index>
48

> <r_mmod_Potential_Energy-OPLS-2005>
198.00358581543

> <r_mmod_Stretch_Energy-OPLS-2005>
132.9091796875

> <r_mmod_Bend_Energy-OPLS-2005>
237.368438720703

> <r_mmod_Torsional_Energy-OPLS-2005>
217.624938964844

> <r_mmod_Improper_Torsional_Energy-OPLS-2005>
5.38555431365967

> <r_mmod_Van_der_Waal_Energy-OPLS-2005>
152.381240844727

> <r_mmod_Electrostatic_Energy-OPLS-2005>
-379.843658447266

> <r_mmod_Solvation_Energy-OPLS-2005>
-267.178192138672

> <b_mmod_Minimization_Converged-OPLS-2005>
0

> <r_mmod_RMS_Derivative-OPLS-2005>
5.66948509216309

$$$$
48
                    3D
 Structure written by MMmdl.
146154  0  0  1  0            999 V2000
  -30.6368  -14.7613   20.4551 C   0  0  0  0  0  0
  -30.4221  -12.4702   19.4669 C   0  0  0  0  0  0
  -29.5019  -12.5019   18.2293 C   0  0  0  0  0  0
  -28.0307  -12.3244   18.6498 C   0  0  0  0  0  0
  -27.6331  -13.2376   19.8404 C   0  0  2  0  0  0
  -28.6810  -13.2071   20.9727 C   0  0  0  0  0  0
  -25.2475  -13.8210   20.5711 C   0  0  0  0  0  0
  -24.1781  -13.0441   20.9228 C   0  0  0  0  0  0
  -24.6382  -11.6924   20.8758 C   0  0  0  0  0  0
  -23.9065  -10.4296   21.0412 C   0  0  0  0  0  0
  -24.3618   -9.4210   21.9187 C   0  0  0  0  0  0
  -23.6296   -8.2241   22.0752 C   0  0  0  0  0  0
  -22.4280   -8.0277   21.3540 C   0  0  0  0  0  0
  -21.9915   -9.0253   20.4644 C   0  0  0  0  0  0
  -22.7241  -10.2133   20.3059 C   0  0  0  0  0  0
  -21.6852   -6.0734   22.5278 C   0  0  0  0  0  0
  -21.4013   -6.5639   23.8212 C   0  0  0  0  0  0
  -21.3662   -5.6790   24.9174 C   0  0  0  0  0  0
  -21.6045   -4.3053   24.7223 C   0  0  0  0  0  0
  -21.8816   -3.8145   23.4344 C   0  0  0  0  0  0
  -21.9193   -4.6963   22.3400 C   0  0  0  0  0  0
  -22.7803  -13.5220   21.1880 C   0  0  0  0  0  0
  -22.1662   -4.2150   21.0977 F   0  0  0  0  0  0
  -21.5630   -3.4536   25.7735 F   0  0  0  0  0  0
  -29.9728  -13.5550   20.3718 N   0  0  0  0  0  0
  -26.2897  -12.9428   20.3262 N   0  0  0  0  0  0
  -25.9311  -11.6564   20.5751 N   0  0  0  0  0  0
  -22.0450  -12.8208   22.0434 N   0  0  0  0  0  0
  -25.4133  -15.1938   20.4135 N   0  0  0  0  0  0
  -31.8458  -14.7698   20.2054 O   0  0  0  0  0  0
  -21.6640   -6.8876   21.4238 O   0  0  0  0  0  0
  -22.3491  -14.5526   20.6725 O   0  0  0  0  0  0
  -24.6323  -31.8542   23.1967 C   0  0  0  0  0  0
  -25.9143  -32.4750   23.8318 C   0  0  1  0  0  0
  -27.2165  -27.2574   20.1382 C   0  0  0  0  0  0
  -25.5937  -33.8552   24.2248 N   0  0  0  0  0  0
  -23.4294  -30.4755   21.5404 C   0  0  2  0  0  0
  -24.8771  -28.9176   20.1131 C   0  0  0  0  0  0
  -22.7506  -29.4596   22.4909 C   0  0  0  0  0  0
  -18.0291  -28.1389   22.8484 C   0  0  0  0  0  0
  -24.1488  -36.7282   23.2639 C   0  0  0  0  0  0
  -25.9745  -30.7678   21.3743 C   0  0  0  0  0  0
  -26.0496  -29.3879   20.7201 C   0  0  0  0  0  0
  -27.2273  -28.5717   20.7168 C   0  0  0  0  0  0
  -26.0247  -26.8504   19.5069 C   0  0  0  0  0  0
  -24.8698  -27.6576   19.4934 C   0  0  0  0  0  0
  -23.6484  -29.8065   20.1577 C   0  0  0  0  0  0
  -25.4115  -36.3067   24.0324 C   0  0  1  0  0  0
  -20.5895  -28.3703   23.1267 C   0  0  2  0  0  0
  -20.6778  -26.9419   22.5409 C   0  0  0  0  0  0
  -19.5754  -26.6387   21.5210 C   0  0  0  0  0  0
  -18.1935  -26.7931   22.1624 C   0  0  0  0  0  0
  -19.1544  -28.8862   23.2872 C   0  0  0  0  0  0
  -18.9465  -30.1461   23.8894 C   0  0  0  0  0  0
  -17.6464  -30.6590   24.0562 C   0  0  0  0  0  0
  -25.9057  -34.9438   23.5089 C   0  0  0  0  0  0
  -16.5355  -29.9088   23.6331 C   0  0  0  0  0  0
  -16.7278  -28.6505   23.0354 C   0  0  0  0  0  0
  -26.4506  -31.6574   25.0709 C   0  0  0  0  0  0
  -25.3728  -31.3727   26.1428 C   0  0  0  0  0  0
  -27.0350  -30.2990   24.6192 C   0  0  0  0  0  0
  -27.6057  -32.4311   25.7493 C   0  0  0  0  0  0
  -27.5576  -37.1798   24.8467 C   0  0  0  0  0  0
  -21.4211  -29.3046   22.3655 N   0  0  0  0  0  0
  -26.4290  -37.3768   23.9408 N   0  0  0  0  0  0
  -24.6981  -31.0503   22.0941 N   0  0  0  0  0  0
  -23.4200  -28.8139   23.3017 O   0  0  0  0  0  0
  -28.2946  -26.3464   20.1456 O   0  0  0  0  0  0
  -26.5629  -34.8916   22.4658 O   0  0  0  0  0  0
  -23.5472  -32.1361   23.7263 O   0  0  0  0  0  0
  -28.5491  -18.9447   19.6608 C   0  0  0  0  0  0
  -28.2200  -20.3693   19.6651 C   0  0  0  0  0  0
  -29.5758  -18.5566   20.5005 C   0  0  0  0  0  0
  -28.9648  -21.1713   20.5141 C   0  0  0  0  0  0
  -28.4242  -23.5909   20.2234 C   0  0  0  0  0  0
  -30.3937  -17.2464   20.7256 C   0  0  0  0  0  0
  -28.0998  -25.0373   20.8645 C   0  0  0  0  0  0
  -28.8807  -22.5491   20.8947 N   0  0  0  0  0  0
  -29.9069  -15.9496   20.5622 N   0  0  0  0  0  0
  -31.5594  -17.4257   21.0951 O   0  0  0  0  0  0
  -30.1301  -20.0627   21.3027 S   0  0  0  0  0  0
  -31.4622  -12.5837   19.1576 H   0  0  0  0  0  0
  -30.3637  -11.5037   19.9699 H   0  0  0  0  0  0
  -29.7865  -11.7190   17.5254 H   0  0  0  0  0  0
  -29.6239  -13.4490   17.7014 H   0  0  0  0  0  0
  -27.8948  -11.2782   18.9260 H   0  0  0  0  0  0
  -27.3696  -12.5013   17.8007 H   0  0  0  0  0  0
  -27.6157  -14.2519   19.4419 H   0  0  0  0  0  0
  -28.7250  -12.2225   21.4406 H   0  0  0  0  0  0
  -28.4167  -13.9143   21.7609 H   0  0  0  0  0  0
  -25.2757   -9.5689   22.4771 H   0  0  0  0  0  0
  -24.0005   -7.4631   22.7473 H   0  0  0  0  0  0
  -21.0844   -8.8774   19.8950 H   0  0  0  0  0  0
  -22.3697  -10.9675   19.6174 H   0  0  0  0  0  0
  -21.2004   -7.6146   23.9716 H   0  0  0  0  0  0
  -21.1489   -6.0518   25.9078 H   0  0  0  0  0  0
  -22.0595   -2.7606   23.2843 H   0  0  0  0  0  0
  -22.4077  -11.9874   22.4819 H   0  0  0  0  0  0
  -21.1063  -13.1226   22.2632 H   0  0  0  0  0  0
  -24.6398  -15.8407   20.5239 H   0  0  0  0  0  0
  -26.2507  -15.6380   20.0618 H   0  0  0  0  0  0
  -26.7213  -32.5405   23.1062 H   0  0  0  0  0  0
  -25.0084  -33.9682   25.0393 H   0  0  0  0  0  0
  -22.7262  -31.2978   21.3923 H   0  0  0  0  0  0
  -23.3749  -35.9616   23.3300 H   0  0  0  0  0  0
  -24.3578  -36.8907   22.2054 H   0  0  0  0  0  0
  -23.7241  -37.6482   23.6665 H   0  0  0  0  0  0
  -26.1082  -31.5260   20.6013 H   0  0  0  0  0  0
  -26.8533  -30.8218   22.0056 H   0  0  0  0  0  0
  -28.1290  -28.9279   21.1950 H   0  0  0  0  0  0
  -25.9796  -25.8796   19.0339 H   0  0  0  0  0  0
  -23.9726  -27.2925   19.0126 H   0  0  0  0  0  0
  -23.7748  -30.5808   19.4001 H   0  0  0  0  0  0
  -22.7659  -29.2413   19.8528 H   0  0  0  0  0  0
  -25.1296  -36.1913   25.0817 H   0  0  0  0  0  0
  -20.9988  -28.3285   24.1386 H   0  0  0  0  0  0
  -20.5672  -26.2315   23.3615 H   0  0  0  0  0  0
  -21.6647  -26.7439   22.1205 H   0  0  0  0  0  0
  -19.6917  -25.6296   21.1244 H   0  0  0  0  0  0
  -19.6690  -27.3192   20.6735 H   0  0  0  0  0  0
  -17.4202  -26.6673   21.4029 H   0  0  0  0  0  0
  -18.0342  -26.0073   22.9022 H   0  0  0  0  0  0
  -19.7941  -30.7277   24.2265 H   0  0  0  0  0  0
  -17.5019  -31.6269   24.5165 H   0  0  0  0  0  0
  -15.5356  -30.2990   23.7655 H   0  0  0  0  0  0
  -15.8677  -28.0822   22.7073 H   0  0  0  0  0  0
  -24.5914  -30.7059   25.7759 H   0  0  0  0  0  0
  -24.8905  -32.2896   26.4826 H   0  0  0  0  0  0
  -25.8046  -30.8928   27.0220 H   0  0  0  0  0  0
  -26.2935  -29.6743   24.1197 H   0  0  0  0  0  0
  -27.4007  -29.7245   25.4713 H   0  0  0  0  0  0
  -27.8822  -30.4255   23.9447 H   0  0  0  0  0  0
  -27.2662  -33.3616   26.2053 H   0  0  0  0  0  0
  -28.3886  -32.6859   25.0337 H   0  0  0  0  0  0
  -28.0703  -31.8443   26.5426 H   0  0  0  0  0  0
  -28.2595  -38.0094   24.7507 H   0  0  0  0  0  0
  -28.1070  -36.2623   24.6302 H   0  0  0  0  0  0
  -27.2294  -37.1459   25.8871 H   0  0  0  0  0  0
  -20.9402  -29.8770   21.6855 H   0  0  0  0  0  0
  -26.0167  -38.2841   24.1410 H   0  0  0  0  0  0
  -28.0272  -18.2593   19.0083 H   0  0  0  0  0  0
  -27.4169  -20.7433   19.0452 H   0  0  0  0  0  0
  -28.1668  -23.5124   19.1638 H   0  0  0  0  0  0
  -28.6947  -25.1167   21.7743 H   0  0  0  0  0  0
  -27.0716  -24.9861   21.2243 H   0  0  0  0  0  0
  -28.9090  -15.8681   20.4773 H   0  0  0  0  0  0
  1 25  1  0  0  0
  1 30  2  0  0  0
  1 79  1  0  0  0
  2  3  1  0  0  0
  2 25  1  0  0  0
  2 82  1  0  0  0
  2 83  1  0  0  0
  3  4  1  0  0  0
  3 84  1  0  0  0
  3 85  1  0  0  0
  4  5  1  0  0  0
  4 86  1  0  0  0
  4 87  1  0  0  0
  5  6  1  0  0  0
  5 26  1  0  0  0
  5 88  1  0  0  0
  6 25  1  0  0  0
  6 89  1  0  0  0
  6 90  1  0  0  0
  7  8  2  0  0  0
  7 26  1  0  0  0
  7 29  1  0  0  0
  8  9  1  0  0  0
  8 22  1  0  0  0
  9 10  1  0  0  0
  9 27  2  0  0  0
 10 11  2  0  0  0
 10 15  1  0  0  0
 11 12  1  0  0  0
 11 91  1  0  0  0
 12 13  2  0  0  0
 12 92  1  0  0  0
 13 14  1  0  0  0
 13 31  1  0  0  0
 14 15  2  0  0  0
 14 93  1  0  0  0
 15 94  1  0  0  0
 16 17  2  0  0  0
 16 21  1  0  0  0
 16 31  1  0  0  0
 17 18  1  0  0  0
 17 95  1  0  0  0
 18 19  2  0  0  0
 18 96  1  0  0  0
 19 20  1  0  0  0
 19 24  1  0  0  0
 20 21  2  0  0  0
 20 97  1  0  0  0
 21 23  1  0  0  0
 22 28  1  0  0  0
 22 32  2  0  0  0
 26 27  1  0  0  0
 28 98  1  0  0  0
 28 99  1  0  0  0
 29100  1  0  0  0
 29101  1  0  0  0
 33 34  1  0  0  0
 33 66  1  0  0  0
 33 70  2  0  0  0
 34 36  1  0  0  0
 34 59  1  0  0  0
 34102  1  0  0  0
 35 44  2  0  0  0
 35 45  1  0  0  0
 35 68  1  0  0  0
 36 56  1  0  0  0
 36103  1  0  0  0
 37 39  1  0  0  0
 37 47  1  0  0  0
 37 66  1  0  0  0
 37104  1  0  0  0
 38 43  2  0  0  0
 38 46  1  0  0  0
 38 47  1  0  0  0
 39 64  1  0  0  0
 39 67  2  0  0  0
 40 52  1  0  0  0
 40 53  2  0  0  0
 40 58  1  0  0  0
 41105  1  0  0  0
 41106  1  0  0  0
 41107  1  0  0  0
 41 48  1  0  0  0
 42 43  1  0  0  0
 42 66  1  0  0  0
 42108  1  0  0  0
 42109  1  0  0  0
 43 44  1  0  0  0
 44110  1  0  0  0
 45 46  2  0  0  0
 45111  1  0  0  0
 46112  1  0  0  0
 47113  1  0  0  0
 47114  1  0  0  0
 48 56  1  0  0  0
 48 65  1  0  0  0
 48115  1  0  0  0
 49 50  1  0  0  0
 49 53  1  0  0  0
 49 64  1  0  0  0
 49116  1  0  0  0
 50 51  1  0  0  0
 50117  1  0  0  0
 50118  1  0  0  0
 51 52  1  0  0  0
 51119  1  0  0  0
 51120  1  0  0  0
 52121  1  0  0  0
 52122  1  0  0  0
 53 54  1  0  0  0
 54 55  2  0  0  0
 54123  1  0  0  0
 55 57  1  0  0  0
 55124  1  0  0  0
 56 69  2  0  0  0
 57 58  2  0  0  0
 57125  1  0  0  0
 58126  1  0  0  0
 59 60  1  0  0  0
 59 61  1  0  0  0
 59 62  1  0  0  0
 60127  1  0  0  0
 60128  1  0  0  0
 60129  1  0  0  0
 61130  1  0  0  0
 61131  1  0  0  0
 61132  1  0  0  0
 62133  1  0  0  0
 62134  1  0  0  0
 62135  1  0  0  0
 63 65  1  0  0  0
 63136  1  0  0  0
 63137  1  0  0  0
 63138  1  0  0  0
 64139  1  0  0  0
 65140  1  0  0  0
 68 77  1  0  0  0
 71 72  1  0  0  0
 71 73  2  0  0  0
 71141  1  0  0  0
 72 74  2  0  0  0
 72142  1  0  0  0
 73 76  1  0  0  0
 73 81  1  0  0  0
 74 78  1  0  0  0
 74 81  1  0  0  0
 75 77  1  0  0  0
 75 78  2  0  0  0
 75143  1  0  0  0
 76 79  1  0  0  0
 76 80  2  0  0  0
 77144  1  0  0  0
 77145  1  0  0  0
 79146  1  0  0  0
M  ISO  4   1 100  68 101  77 101  79 100
M  END
> <chiral flag>
0

> <version>
0

> <s_m_source_file>
/data/baiqing/PycharmProjects/Reinvent-master-3.2/result/LINK_invent/BTK/process_docking_weight1_custom_product_contain_oxygen_bond_distance_aromatic_linkinvent_7_9_3/rearranged_h_0088.sdf

> <i_m_source_file_index>
49

> <r_mmod_Potential_Energy-OPLS-2005>
126.844299316406

> <r_mmod_Stretch_Energy-OPLS-2005>
120.134002685547

> <r_mmod_Bend_Energy-OPLS-2005>
184.676666259766

> <r_mmod_Torsional_Energy-OPLS-2005>
251.454238891602

> <r_mmod_Improper_Torsional_Energy-OPLS-2005>
6.86963796615601

> <r_mmod_Van_der_Waal_Energy-OPLS-2005>
121.925796508789

> <r_mmod_Electrostatic_Energy-OPLS-2005>
-410.7119140625

> <r_mmod_Solvation_Energy-OPLS-2005>
-240.931137084961

> <b_mmod_Minimization_Converged-OPLS-2005>
0

> <r_mmod_RMS_Derivative-OPLS-2005>
0.531997203826904

$$$$
49
                    3D
 Structure written by MMmdl.
152161  0  0  1  0            999 V2000
  -30.5745  -14.7448   20.4793 C   0  0  0  0  0  0
  -30.4484  -12.4544   19.4697 C   0  0  0  0  0  0
  -29.5163  -12.5187   18.2372 C   0  0  0  0  0  0
  -28.0406  -12.3387   18.6482 C   0  0  0  0  0  0
  -27.6497  -13.2242   19.8603 C   0  0  2  0  0  0
  -28.6953  -13.1151   20.9929 C   0  0  0  0  0  0
  -25.2541  -13.8181   20.5687 C   0  0  0  0  0  0
  -24.1814  -13.0432   20.9180 C   0  0  0  0  0  0
  -24.6397  -11.6909   20.8732 C   0  0  0  0  0  0
  -23.9068  -10.4292   21.0405 C   0  0  0  0  0  0
  -24.3620   -9.4206   21.9186 C   0  0  0  0  0  0
  -23.6293   -8.2241   22.0749 C   0  0  0  0  0  0
  -22.4275   -8.0283   21.3539 C   0  0  0  0  0  0
  -21.9913   -9.0257   20.4643 C   0  0  0  0  0  0
  -22.7240  -10.2138   20.3054 C   0  0  0  0  0  0
  -21.6851   -6.0738   22.5280 C   0  0  0  0  0  0
  -21.4013   -6.5641   23.8215 C   0  0  0  0  0  0
  -21.3658   -5.6790   24.9177 C   0  0  0  0  0  0
  -21.6045   -4.3052   24.7227 C   0  0  0  0  0  0
  -21.8817   -3.8147   23.4346 C   0  0  0  0  0  0
  -21.9191   -4.6965   22.3403 C   0  0  0  0  0  0
  -22.7837  -13.5222   21.1858 C   0  0  0  0  0  0
  -22.1661   -4.2150   21.0979 F   0  0  0  0  0  0
  -21.5627   -3.4537   25.7738 F   0  0  0  0  0  0
  -30.0011  -13.4917   20.4273 N   0  0  0  0  0  0
  -26.2976  -12.9378   20.3316 N   0  0  0  0  0  0
  -25.9332  -11.6523   20.5757 N   0  0  0  0  0  0
  -22.0482  -12.8217   22.0419 N   0  0  0  0  0  0
  -25.4241  -15.1908   20.4142 N   0  0  0  0  0  0
  -31.7385  -14.9088   20.1022 O   0  0  0  0  0  0
  -21.6636   -6.8883   21.4241 O   0  0  0  0  0  0
  -22.3515  -14.5528   20.6713 O   0  0  0  0  0  0
  -24.6324  -31.8541   23.1975 C   0  0  0  0  0  0
  -25.9146  -32.4748   23.8328 C   0  0  1  0  0  0
  -27.2258  -27.2627   20.1333 C   0  0  0  0  0  0
  -25.5939  -33.8547   24.2251 N   0  0  0  0  0  0
  -23.4309  -30.4757   21.5407 C   0  0  2  0  0  0
  -24.8821  -28.9216   20.1103 C   0  0  0  0  0  0
  -22.7513  -29.4591   22.4905 C   0  0  0  0  0  0
  -18.0297  -28.1386   22.8481 C   0  0  0  0  0  0
  -24.1491  -36.7280   23.2639 C   0  0  0  0  0  0
  -25.9774  -30.7665   21.3798 C   0  0  0  0  0  0
  -26.0538  -29.3888   20.7225 C   0  0  0  0  0  0
  -27.2319  -28.5714   20.7245 C   0  0  0  0  0  0
  -26.0350  -26.8640   19.4912 C   0  0  0  0  0  0
  -24.8777  -27.6663   19.4825 C   0  0  0  0  0  0
  -23.6515  -29.8084   20.1572 C   0  0  0  0  0  0
  -25.4116  -36.3062   24.0326 C   0  0  1  0  0  0
  -20.5903  -28.3701   23.1262 C   0  0  2  0  0  0
  -20.6783  -26.9416   22.5408 C   0  0  0  0  0  0
  -19.5760  -26.6381   21.5211 C   0  0  0  0  0  0
  -18.1938  -26.7926   22.1623 C   0  0  0  0  0  0
  -19.1551  -28.8863   23.2864 C   0  0  0  0  0  0
  -18.9470  -30.1463   23.8880 C   0  0  0  0  0  0
  -17.6468  -30.6583   24.0566 C   0  0  0  0  0  0
  -25.9058  -34.9435   23.5091 C   0  0  0  0  0  0
  -16.5360  -29.9079   23.6332 C   0  0  0  0  0  0
  -16.7284  -28.6502   23.0348 C   0  0  0  0  0  0
  -26.4510  -31.6573   25.0722 C   0  0  0  0  0  0
  -25.3733  -31.3750   26.1447 C   0  0  0  0  0  0
  -27.0343  -30.2974   24.6228 C   0  0  0  0  0  0
  -27.6059  -32.4323   25.7492 C   0  0  0  0  0  0
  -27.5580  -37.1793   24.8461 C   0  0  0  0  0  0
  -21.4221  -29.3040   22.3645 N   0  0  0  0  0  0
  -26.4287  -37.3765   23.9411 N   0  0  0  0  0  0
  -24.6988  -31.0499   22.0955 N   0  0  0  0  0  0
  -23.4206  -28.8133   23.3013 O   0  0  0  0  0  0
  -28.2812  -26.3210   20.1701 O   0  0  0  0  0  0
  -26.5631  -34.8914   22.4661 O   0  0  0  0  0  0
  -23.5472  -32.1363   23.7269 O   0  0  0  0  0  0
  -28.6469  -19.3717   21.5980 C   0  0  0  0  0  0
  -30.1257  -19.5436   19.7777 C   0  0  0  0  0  0
  -29.2435  -20.2644   20.6540 C   0  0  0  0  0  0
  -28.8657  -17.9576   21.6674 C   0  0  0  0  0  0
  -29.7266  -17.2654   20.7738 C   0  0  0  0  0  0
  -30.3606  -18.1152   19.8153 C   0  0  0  0  0  0
  -28.4565  -23.7539   20.6303 C   0  0  0  0  0  0
  -28.0313  -22.5765   21.3826 C   0  0  0  0  0  0
  -27.9940  -25.0640   20.7801 C   0  0  0  0  0  0
  -29.4287  -22.8383   19.8234 C   0  0  0  0  0  0
  -28.9048  -21.7246   20.6726 N   0  0  0  0  0  0
  -28.1952  -17.2213   22.6497 N   0  0  0  0  0  0
  -29.7451  -15.7804   20.8654 N   0  0  0  0  0  0
  -27.2140  -22.4561   22.2718 O   0  0  0  0  0  0
  -31.1717  -17.5678   18.8786 F   0  0  0  0  0  0
  -31.4859  -12.5987   19.1644 H   0  0  0  0  0  0
  -30.4085  -11.4672   19.9329 H   0  0  0  0  0  0
  -29.7960  -11.7538   17.5112 H   0  0  0  0  0  0
  -29.6412  -13.4784   17.7338 H   0  0  0  0  0  0
  -27.8944  -11.2872   18.8985 H   0  0  0  0  0  0
  -27.3839  -12.5417   17.8016 H   0  0  0  0  0  0
  -27.6548  -14.2532   19.5002 H   0  0  0  0  0  0
  -28.7307  -12.0979   21.3860 H   0  0  0  0  0  0
  -28.4228  -13.7500   21.8378 H   0  0  0  0  0  0
  -25.2768   -9.5680   22.4761 H   0  0  0  0  0  0
  -24.0000   -7.4632   22.7468 H   0  0  0  0  0  0
  -21.0838   -8.8785   19.8955 H   0  0  0  0  0  0
  -22.3702  -10.9679   19.6162 H   0  0  0  0  0  0
  -21.2005   -7.6149   23.9725 H   0  0  0  0  0  0
  -21.1482   -6.0517   25.9081 H   0  0  0  0  0  0
  -22.0597   -2.7606   23.2848 H   0  0  0  0  0  0
  -22.4092  -11.9875   22.4807 H   0  0  0  0  0  0
  -21.1105  -13.1255   22.2636 H   0  0  0  0  0  0
  -24.6682  -15.8500   20.5621 H   0  0  0  0  0  0
  -26.2990  -15.6423   20.1774 H   0  0  0  0  0  0
  -26.7217  -32.5398   23.1069 H   0  0  0  0  0  0
  -25.0078  -33.9678   25.0393 H   0  0  0  0  0  0
  -22.7276  -31.2979   21.3928 H   0  0  0  0  0  0
  -23.3750  -35.9614   23.3291 H   0  0  0  0  0  0
  -24.3580  -36.8913   22.2053 H   0  0  0  0  0  0
  -23.7249  -37.6480   23.6671 H   0  0  0  0  0  0
  -26.1191  -31.5273   20.6107 H   0  0  0  0  0  0
  -26.8536  -30.8142   22.0151 H   0  0  0  0  0  0
  -28.1281  -28.9193   21.2184 H   0  0  0  0  0  0
  -25.9910  -25.8941   19.0163 H   0  0  0  0  0  0
  -23.9818  -27.3024   18.9977 H   0  0  0  0  0  0
  -23.7763  -30.5840   19.4015 H   0  0  0  0  0  0
  -22.7698  -29.2421   19.8512 H   0  0  0  0  0  0
  -25.1297  -36.1900   25.0817 H   0  0  0  0  0  0
  -20.9999  -28.3285   24.1382 H   0  0  0  0  0  0
  -20.5669  -26.2318   23.3619 H   0  0  0  0  0  0
  -21.6655  -26.7419   22.1216 H   0  0  0  0  0  0
  -19.6918  -25.6288   21.1246 H   0  0  0  0  0  0
  -19.6691  -27.3188   20.6739 H   0  0  0  0  0  0
  -17.4209  -26.6675   21.4026 H   0  0  0  0  0  0
  -18.0332  -26.0066   22.9015 H   0  0  0  0  0  0
  -19.7946  -30.7291   24.2233 H   0  0  0  0  0  0
  -17.5017  -31.6256   24.5181 H   0  0  0  0  0  0
  -15.5359  -30.2976   23.7656 H   0  0  0  0  0  0
  -15.8688  -28.0817   22.7059 H   0  0  0  0  0  0
  -24.5900  -30.7098   25.7793 H   0  0  0  0  0  0
  -24.8937  -32.2934   26.4844 H   0  0  0  0  0  0
  -25.8050  -30.8951   27.0239 H   0  0  0  0  0  0
  -26.2924  -29.6725   24.1240 H   0  0  0  0  0  0
  -27.3983  -29.7239   25.4764 H   0  0  0  0  0  0
  -27.8827  -30.4220   23.9496 H   0  0  0  0  0  0
  -27.2653  -33.3624   26.2056 H   0  0  0  0  0  0
  -28.3870  -32.6886   25.0322 H   0  0  0  0  0  0
  -28.0723  -31.8460   26.5419 H   0  0  0  0  0  0
  -28.2599  -38.0092   24.7506 H   0  0  0  0  0  0
  -28.1079  -36.2622   24.6282 H   0  0  0  0  0  0
  -27.2304  -37.1436   25.8868 H   0  0  0  0  0  0
  -20.9412  -29.8758   21.6839 H   0  0  0  0  0  0
  -26.0160  -38.2837   24.1415 H   0  0  0  0  0  0
  -27.9640  -19.7995   22.3186 H   0  0  0  0  0  0
  -30.6385  -20.1036   19.0105 H   0  0  0  0  0  0
  -27.2418  -25.2167   21.5440 H   0  0  0  0  0  0
  -30.4995  -22.9853   19.9701 H   0  0  0  0  0  0
  -29.2085  -22.6754   18.7673 H   0  0  0  0  0  0
  -27.7393  -17.7509   23.3854 H   0  0  0  0  0  0
  -28.6963  -16.4283   23.0342 H   0  0  0  0  0  0
  -28.8902  -15.4387   21.2752 H   0  0  0  0  0  0
  1 25  1  0  0  0
  1 30  2  0  0  0
  1 83  1  0  0  0
  2  3  1  0  0  0
  2 25  1  0  0  0
  2 86  1  0  0  0
  2 87  1  0  0  0
  3  4  1  0  0  0
  3 88  1  0  0  0
  3 89  1  0  0  0
  4  5  1  0  0  0
  4 90  1  0  0  0
  4 91  1  0  0  0
  5  6  1  0  0  0
  5 26  1  0  0  0
  5 92  1  0  0  0
  6 25  1  0  0  0
  6 93  1  0  0  0
  6 94  1  0  0  0
  7  8  2  0  0  0
  7 26  1  0  0  0
  7 29  1  0  0  0
  8  9  1  0  0  0
  8 22  1  0  0  0
  9 10  1  0  0  0
  9 27  2  0  0  0
 10 11  2  0  0  0
 10 15  1  0  0  0
 11 12  1  0  0  0
 11 95  1  0  0  0
 12 13  2  0  0  0
 12 96  1  0  0  0
 13 14  1  0  0  0
 13 31  1  0  0  0
 14 15  2  0  0  0
 14 97  1  0  0  0
 15 98  1  0  0  0
 16 17  2  0  0  0
 16 21  1  0  0  0
 16 31  1  0  0  0
 17 18  1  0  0  0
 17 99  1  0  0  0
 18 19  2  0  0  0
 18100  1  0  0  0
 19 20  1  0  0  0
 19 24  1  0  0  0
 20 21  2  0  0  0
 20101  1  0  0  0
 21 23  1  0  0  0
 22 28  1  0  0  0
 22 32  2  0  0  0
 26 27  1  0  0  0
 28102  1  0  0  0
 28103  1  0  0  0
 29104  1  0  0  0
 29105  1  0  0  0
 33 34  1  0  0  0
 33 66  1  0  0  0
 33 70  2  0  0  0
 34 36  1  0  0  0
 34 59  1  0  0  0
 34106  1  0  0  0
 35 44  2  0  0  0
 35 45  1  0  0  0
 35 68  1  0  0  0
 36 56  1  0  0  0
 36107  1  0  0  0
 37 39  1  0  0  0
 37 47  1  0  0  0
 37 66  1  0  0  0
 37108  1  0  0  0
 38 43  2  0  0  0
 38 46  1  0  0  0
 38 47  1  0  0  0
 39 64  1  0  0  0
 39 67  2  0  0  0
 40 52  1  0  0  0
 40 53  2  0  0  0
 40 58  1  0  0  0
 41109  1  0  0  0
 41110  1  0  0  0
 41111  1  0  0  0
 41 48  1  0  0  0
 42 43  1  0  0  0
 42 66  1  0  0  0
 42112  1  0  0  0
 42113  1  0  0  0
 43 44  1  0  0  0
 44114  1  0  0  0
 45 46  2  0  0  0
 45115  1  0  0  0
 46116  1  0  0  0
 47117  1  0  0  0
 47118  1  0  0  0
 48 56  1  0  0  0
 48 65  1  0  0  0
 48119  1  0  0  0
 49 50  1  0  0  0
 49 53  1  0  0  0
 49 64  1  0  0  0
 49120  1  0  0  0
 50 51  1  0  0  0
 50121  1  0  0  0
 50122  1  0  0  0
 51 52  1  0  0  0
 51123  1  0  0  0
 51124  1  0  0  0
 52125  1  0  0  0
 52126  1  0  0  0
 53 54  1  0  0  0
 54 55  2  0  0  0
 54127  1  0  0  0
 55 57  1  0  0  0
 55128  1  0  0  0
 56 69  2  0  0  0
 57 58  2  0  0  0
 57129  1  0  0  0
 58130  1  0  0  0
 59 60  1  0  0  0
 59 61  1  0  0  0
 59 62  1  0  0  0
 60131  1  0  0  0
 60132  1  0  0  0
 60133  1  0  0  0
 61134  1  0  0  0
 61135  1  0  0  0
 61136  1  0  0  0
 62137  1  0  0  0
 62138  1  0  0  0
 62139  1  0  0  0
 63 65  1  0  0  0
 63140  1  0  0  0
 63141  1  0  0  0
 63142  1  0  0  0
 64143  1  0  0  0
 65144  1  0  0  0
 68 79  1  0  0  0
 71 73  2  0  0  0
 71 74  1  0  0  0
 71145  1  0  0  0
 72 73  1  0  0  0
 72 76  2  0  0  0
 72146  1  0  0  0
 73 81  1  0  0  0
 74 75  2  0  0  0
 74 82  1  0  0  0
 75 76  1  0  0  0
 75 83  1  0  0  0
 76 85  1  0  0  0
 77 78  1  0  0  0
 77 79  2  0  0  0
 77 80  1  0  0  0
 78 81  1  0  0  0
 78 84  2  0  0  0
 79147  1  0  0  0
 80 81  1  0  0  0
 80148  1  0  0  0
 80149  1  0  0  0
 82150  1  0  0  0
 82151  1  0  0  0
 83152  1  0  0  0
M  ISO  4   1 100  68 101  79 101  83 100
M  END
> <chiral flag>
0

> <version>
0

> <s_m_source_file>
/data/baiqing/PycharmProjects/Reinvent-master-3.2/result/LINK_invent/BTK/process_docking_weight1_custom_product_contain_oxygen_bond_distance_aromatic_linkinvent_7_9_3/rearranged_h_0088.sdf

> <i_m_source_file_index>
50

> <r_mmod_Potential_Energy-OPLS-2005>
163.201309204102

> <r_mmod_Stretch_Energy-OPLS-2005>
108.613357543945

> <r_mmod_Bend_Energy-OPLS-2005>
268.966613769531

> <r_mmod_Torsional_Energy-OPLS-2005>
232.407943725586

> <r_mmod_Improper_Torsional_Energy-OPLS-2005>
7.60624504089355

> <r_mmod_Van_der_Waal_Energy-OPLS-2005>
135.464874267578

> <r_mmod_Electrostatic_Energy-OPLS-2005>
-452.667205810547

> <r_mmod_Solvation_Energy-OPLS-2005>
-225.559310913086

> <b_mmod_Minimization_Converged-OPLS-2005>
0

> <r_mmod_RMS_Derivative-OPLS-2005>
1.04401421546936

$$$$
50
                    3D
 Structure written by MMmdl.
151159  0  0  1  0            999 V2000
  -30.6628  -14.6643   20.4833 C   0  0  0  0  0  0
  -30.4189  -12.4039   19.4726 C   0  0  0  0  0  0
  -29.5060  -12.4962   18.2326 C   0  0  0  0  0  0
  -28.0305  -12.3292   18.6433 C   0  0  0  0  0  0
  -27.6396  -13.2280   19.8474 C   0  0  2  0  0  0
  -28.6817  -13.1545   20.9852 C   0  0  0  0  0  0
  -25.2498  -13.8177   20.5733 C   0  0  0  0  0  0
  -24.1781  -13.0423   20.9226 C   0  0  0  0  0  0
  -24.6365  -11.6904   20.8742 C   0  0  0  0  0  0
  -23.9048  -10.4280   21.0390 C   0  0  0  0  0  0
  -24.3598   -9.4201   21.9167 C   0  0  0  0  0  0
  -23.6274   -8.2239   22.0742 C   0  0  0  0  0  0
  -22.4262   -8.0275   21.3537 C   0  0  0  0  0  0
  -21.9890   -9.0246   20.4645 C   0  0  0  0  0  0
  -22.7218  -10.2127   20.3044 C   0  0  0  0  0  0
  -21.6845   -6.0735   22.5284 C   0  0  0  0  0  0
  -21.4004   -6.5637   23.8217 C   0  0  0  0  0  0
  -21.3657   -5.6791   24.9178 C   0  0  0  0  0  0
  -21.6039   -4.3054   24.7230 C   0  0  0  0  0  0
  -21.8815   -3.8144   23.4348 C   0  0  0  0  0  0
  -21.9187   -4.6960   22.3408 C   0  0  0  0  0  0
  -22.7815  -13.5226   21.1882 C   0  0  0  0  0  0
  -22.1655   -4.2147   21.0982 F   0  0  0  0  0  0
  -21.5627   -3.4537   25.7742 F   0  0  0  0  0  0
  -29.9935  -13.4686   20.4052 N   0  0  0  0  0  0
  -26.2910  -12.9387   20.3258 N   0  0  0  0  0  0
  -25.9289  -11.6534   20.5728 N   0  0  0  0  0  0
  -22.0454  -12.8230   22.0457 N   0  0  0  0  0  0
  -25.4176  -15.1905   20.4232 N   0  0  0  0  0  0
  -31.8588  -14.7065   20.1844 O   0  0  0  0  0  0
  -21.6619   -6.8876   21.4248 O   0  0  0  0  0  0
  -22.3514  -14.5534   20.6725 O   0  0  0  0  0  0
  -24.6248  -31.8605   23.2048 C   0  0  0  0  0  0
  -25.9089  -32.4794   23.8377 C   0  0  1  0  0  0
  -27.2275  -27.3313   20.1301 C   0  0  0  0  0  0
  -25.5915  -33.8595   24.2309 N   0  0  0  0  0  0
  -23.4200  -30.4832   21.5450 C   0  0  2  0  0  0
  -24.8713  -28.9347   20.1206 C   0  0  0  0  0  0
  -22.7471  -29.4633   22.4933 C   0  0  0  0  0  0
  -18.0285  -28.1394   22.8503 C   0  0  0  0  0  0
  -24.1486  -36.7296   23.2638 C   0  0  0  0  0  0
  -25.9584  -30.7955   21.3753 C   0  0  0  0  0  0
  -26.0379  -29.4183   20.7306 C   0  0  0  0  0  0
  -27.2243  -28.6246   20.7331 C   0  0  0  0  0  0
  -26.0458  -26.8929   19.5045 C   0  0  0  0  0  0
  -24.8746  -27.6741   19.5020 C   0  0  0  0  0  0
  -23.6372  -29.8129   20.1626 C   0  0  0  0  0  0
  -25.4104  -36.3093   24.0342 C   0  0  1  0  0  0
  -20.5889  -28.3711   23.1275 C   0  0  2  0  0  0
  -20.6758  -26.9427   22.5400 C   0  0  0  0  0  0
  -19.5717  -26.6400   21.5224 C   0  0  0  0  0  0
  -18.1917  -26.7924   22.1681 C   0  0  0  0  0  0
  -19.1539  -28.8874   23.2877 C   0  0  0  0  0  0
  -18.9472  -30.1482   23.8884 C   0  0  0  0  0  0
  -17.6470  -30.6608   24.0562 C   0  0  0  0  0  0
  -25.9036  -34.9463   23.5126 C   0  0  0  0  0  0
  -16.5360  -29.9104   23.6340 C   0  0  0  0  0  0
  -16.7274  -28.6519   23.0364 C   0  0  0  0  0  0
  -26.4486  -31.6582   25.0728 C   0  0  0  0  0  0
  -25.3734  -31.3697   26.1467 C   0  0  0  0  0  0
  -27.0319  -30.3009   24.6144 C   0  0  0  0  0  0
  -27.6050  -32.4320   25.7489 C   0  0  0  0  0  0
  -27.5577  -37.1807   24.8467 C   0  0  0  0  0  0
  -21.4184  -29.3064   22.3660 N   0  0  0  0  0  0
  -26.4293  -37.3773   23.9413 N   0  0  0  0  0  0
  -24.6861  -31.0641   22.0986 N   0  0  0  0  0  0
  -23.4190  -28.8175   23.3017 O   0  0  0  0  0  0
  -28.3153  -26.4613   20.0571 O   0  0  0  0  0  0
  -26.5598  -34.8925   22.4690 O   0  0  0  0  0  0
  -23.5413  -32.1385   23.7397 O   0  0  0  0  0  0
  -27.1830  -19.0658   19.6496 C   0  0  0  0  0  0
  -28.0621  -18.0036   19.9212 C   0  0  0  0  0  0
  -27.5749  -20.3867   19.9275 C   0  0  0  0  0  0
  -29.3240  -18.2740   20.4868 C   0  0  0  0  0  0
  -28.8383  -20.6571   20.4899 C   0  0  0  0  0  0
  -28.6847  -25.7270   21.1784 C   0  0  0  0  0  0
  -30.3433  -17.1194   20.6699 C   0  0  0  0  0  0
  -28.9069  -24.3743   21.3608 C   0  0  0  0  0  0
  -28.6997  -23.2559   20.3938 C   0  0  0  0  0  0
  -29.6730  -19.5904   20.7639 N   0  0  0  0  0  0
  -29.1449  -22.0364   20.8623 N   0  0  0  0  0  0
  -29.9142  -15.8076   20.6604 N   0  0  0  0  0  0
  -31.5325  -17.4323   20.8233 O   0  0  0  0  0  0
  -28.1952  -23.3957   19.2760 O   0  0  0  0  0  0
  -29.3454  -24.0127   22.5796 O   0  0  0  0  0  0
  -31.4651  -12.4921   19.1771 H   0  0  0  0  0  0
  -30.3294  -11.4254   19.9482 H   0  0  0  0  0  0
  -29.7820  -11.7333   17.5039 H   0  0  0  0  0  0
  -29.6504  -13.4568   17.7358 H   0  0  0  0  0  0
  -27.8819  -11.2819   18.9087 H   0  0  0  0  0  0
  -27.3737  -12.5195   17.7938 H   0  0  0  0  0  0
  -27.6387  -14.2512   19.4729 H   0  0  0  0  0  0
  -28.6943  -12.1625   21.4373 H   0  0  0  0  0  0
  -28.4257  -13.8496   21.7872 H   0  0  0  0  0  0
  -25.2729   -9.5677   22.4771 H   0  0  0  0  0  0
  -23.9971   -7.4624   22.7456 H   0  0  0  0  0  0
  -21.0814   -8.8757   19.8964 H   0  0  0  0  0  0
  -22.3637  -10.9666   19.6171 H   0  0  0  0  0  0
  -21.1995   -7.6143   23.9722 H   0  0  0  0  0  0
  -21.1476   -6.0516   25.9077 H   0  0  0  0  0  0
  -22.0590   -2.7609   23.2852 H   0  0  0  0  0  0
  -22.4045  -11.9871   22.4817 H   0  0  0  0  0  0
  -21.1095  -13.1286   22.2674 H   0  0  0  0  0  0
  -24.6555  -15.8452   20.5650 H   0  0  0  0  0  0
  -26.2638  -15.6368   20.1035 H   0  0  0  0  0  0
  -26.7149  -32.5479   23.1123 H   0  0  0  0  0  0
  -25.0064  -33.9728   25.0455 H   0  0  0  0  0  0
  -22.7124  -31.3031   21.4029 H   0  0  0  0  0  0
  -23.3750  -35.9629   23.3305 H   0  0  0  0  0  0
  -24.3555  -36.8904   22.2048 H   0  0  0  0  0  0
  -23.7252  -37.6510   23.6643 H   0  0  0  0  0  0
  -26.0816  -31.5523   20.5987 H   0  0  0  0  0  0
  -26.8407  -30.8520   22.0005 H   0  0  0  0  0  0
  -28.1276  -28.9925   21.1999 H   0  0  0  0  0  0
  -26.0314  -25.9236   19.0246 H   0  0  0  0  0  0
  -23.9816  -27.2979   19.0214 H   0  0  0  0  0  0
  -23.7563  -30.5843   19.4021 H   0  0  0  0  0  0
  -22.7564  -29.2420   19.8606 H   0  0  0  0  0  0
  -25.1287  -36.1940   25.0836 H   0  0  0  0  0  0
  -20.9977  -28.3302   24.1394 H   0  0  0  0  0  0
  -20.5675  -26.2302   23.3594 H   0  0  0  0  0  0
  -21.6610  -26.7466   22.1148 H   0  0  0  0  0  0
  -19.6888  -25.6317   21.1239 H   0  0  0  0  0  0
  -19.6609  -27.3227   20.6765 H   0  0  0  0  0  0
  -17.4151  -26.6644   21.4127 H   0  0  0  0  0  0
  -18.0353  -26.0092   22.9110 H   0  0  0  0  0  0
  -19.7949  -30.7308   24.2232 H   0  0  0  0  0  0
  -17.5035  -31.6282   24.5168 H   0  0  0  0  0  0
  -15.5361  -30.3033   23.7661 H   0  0  0  0  0  0
  -15.8658  -28.0853   22.7106 H   0  0  0  0  0  0
  -24.5919  -30.7022   25.7804 H   0  0  0  0  0  0
  -24.8909  -32.2849   26.4906 H   0  0  0  0  0  0
  -25.8084  -30.8877   27.0230 H   0  0  0  0  0  0
  -26.2868  -29.6776   24.1178 H   0  0  0  0  0  0
  -27.4029  -29.7245   25.4629 H   0  0  0  0  0  0
  -27.8738  -30.4302   23.9339 H   0  0  0  0  0  0
  -27.2651  -33.3622   26.2054 H   0  0  0  0  0  0
  -28.3852  -32.6880   25.0307 H   0  0  0  0  0  0
  -28.0712  -31.8453   26.5410 H   0  0  0  0  0  0
  -28.2615  -38.0087   24.7497 H   0  0  0  0  0  0
  -28.1064  -36.2623   24.6318 H   0  0  0  0  0  0
  -27.2287  -37.1475   25.8869 H   0  0  0  0  0  0
  -20.9381  -29.8689   21.6776 H   0  0  0  0  0  0
  -26.0186  -38.2859   24.1386 H   0  0  0  0  0  0
  -26.2099  -18.8744   19.2212 H   0  0  0  0  0  0
  -27.7694  -16.9978   19.6621 H   0  0  0  0  0  0
  -26.8782  -21.1873   19.7203 H   0  0  0  0  0  0
  -28.8411  -26.4116   22.0003 H   0  0  0  0  0  0
  -29.7007  -22.1382   21.6993 H   0  0  0  0  0  0
  -28.9176  -15.6921   20.7026 H   0  0  0  0  0  0
  -29.4160  -24.7986   23.1058 H   0  0  0  0  0  0
  1 25  1  0  0  0
  1 30  2  0  0  0
  1 82  1  0  0  0
  2  3  1  0  0  0
  2 25  1  0  0  0
  2 86  1  0  0  0
  2 87  1  0  0  0
  3  4  1  0  0  0
  3 88  1  0  0  0
  3 89  1  0  0  0
  4  5  1  0  0  0
  4 90  1  0  0  0
  4 91  1  0  0  0
  5  6  1  0  0  0
  5 26  1  0  0  0
  5 92  1  0  0  0
  6 25  1  0  0  0
  6 93  1  0  0  0
  6 94  1  0  0  0
  7  8  2  0  0  0
  7 26  1  0  0  0
  7 29  1  0  0  0
  8  9  1  0  0  0
  8 22  1  0  0  0
  9 10  1  0  0  0
  9 27  2  0  0  0
 10 11  2  0  0  0
 10 15  1  0  0  0
 11 12  1  0  0  0
 11 95  1  0  0  0
 12 13  2  0  0  0
 12 96  1  0  0  0
 13 14  1  0  0  0
 13 31  1  0  0  0
 14 15  2  0  0  0
 14 97  1  0  0  0
 15 98  1  0  0  0
 16 17  2  0  0  0
 16 21  1  0  0  0
 16 31  1  0  0  0
 17 18  1  0  0  0
 17 99  1  0  0  0
 18 19  2  0  0  0
 18100  1  0  0  0
 19 20  1  0  0  0
 19 24  1  0  0  0
 20 21  2  0  0  0
 20101  1  0  0  0
 21 23  1  0  0  0
 22 28  1  0  0  0
 22 32  2  0  0  0
 26 27  1  0  0  0
 28102  1  0  0  0
 28103  1  0  0  0
 29104  1  0  0  0
 29105  1  0  0  0
 33 34  1  0  0  0
 33 66  1  0  0  0
 33 70  2  0  0  0
 34 36  1  0  0  0
 34 59  1  0  0  0
 34106  1  0  0  0
 35 44  2  0  0  0
 35 45  1  0  0  0
 35 68  1  0  0  0
 36 56  1  0  0  0
 36107  1  0  0  0
 37 39  1  0  0  0
 37 47  1  0  0  0
 37 66  1  0  0  0
 37108  1  0  0  0
 38 43  2  0  0  0
 38 46  1  0  0  0
 38 47  1  0  0  0
 39 64  1  0  0  0
 39 67  2  0  0  0
 40 52  1  0  0  0
 40 53  2  0  0  0
 40 58  1  0  0  0
 41109  1  0  0  0
 41110  1  0  0  0
 41111  1  0  0  0
 41 48  1  0  0  0
 42 43  1  0  0  0
 42 66  1  0  0  0
 42112  1  0  0  0
 42113  1  0  0  0
 43 44  1  0  0  0
 44114  1  0  0  0
 45 46  2  0  0  0
 45115  1  0  0  0
 46116  1  0  0  0
 47117  1  0  0  0
 47118  1  0  0  0
 48 56  1  0  0  0
 48 65  1  0  0  0
 48119  1  0  0  0
 49 50  1  0  0  0
 49 53  1  0  0  0
 49 64  1  0  0  0
 49120  1  0  0  0
 50 51  1  0  0  0
 50121  1  0  0  0
 50122  1  0  0  0
 51 52  1  0  0  0
 51123  1  0  0  0
 51124  1  0  0  0
 52125  1  0  0  0
 52126  1  0  0  0
 53 54  1  0  0  0
 54 55  2  0  0  0
 54127  1  0  0  0
 55 57  1  0  0  0
 55128  1  0  0  0
 56 69  2  0  0  0
 57 58  2  0  0  0
 57129  1  0  0  0
 58130  1  0  0  0
 59 60  1  0  0  0
 59 61  1  0  0  0
 59 62  1  0  0  0
 60131  1  0  0  0
 60132  1  0  0  0
 60133  1  0  0  0
 61134  1  0  0  0
 61135  1  0  0  0
 61136  1  0  0  0
 62137  1  0  0  0
 62138  1  0  0  0
 62139  1  0  0  0
 63 65  1  0  0  0
 63140  1  0  0  0
 63141  1  0  0  0
 63142  1  0  0  0
 64143  1  0  0  0
 65144  1  0  0  0
 68 76  1  0  0  0
 71 72  2  0  0  0
 71 73  1  0  0  0
 71145  1  0  0  0
 72 74  1  0  0  0
 72146  1  0  0  0
 73 75  2  0  0  0
 73147  1  0  0  0
 74 77  1  0  0  0
 74 80  2  0  0  0
 75 80  1  0  0  0
 75 81  1  0  0  0
 76 78  2  0  0  0
 76148  1  0  0  0
 77 82  1  0  0  0
 77 83  2  0  0  0
 78 79  1  0  0  0
 78 85  1  0  0  0
 79 81  1  0  0  0
 79 84  2  0  0  0
 81149  1  0  0  0
 82150  1  0  0  0
 85151  1  0  0  0
M  ISO  4   1 100  68 101  76 101  82 100
M  END
> <chiral flag>
0

> <version>
0

> <s_m_source_file>
/data/baiqing/PycharmProjects/Reinvent-master-3.2/result/LINK_invent/BTK/process_docking_weight1_custom_product_contain_oxygen_bond_distance_aromatic_linkinvent_7_9_3/rearranged_h_0088.sdf

> <i_m_source_file_index>
51

> <r_mmod_Potential_Energy-OPLS-2005>
-229.026077270508

> <r_mmod_Stretch_Energy-OPLS-2005>
78.5520172119141

> <r_mmod_Bend_Energy-OPLS-2005>
151.560104370117

> <r_mmod_Torsional_Energy-OPLS-2005>
243.368255615234

> <r_mmod_Improper_Torsional_Energy-OPLS-2005>
6.45608806610107

> <r_mmod_Van_der_Waal_Energy-OPLS-2005>
150.27717590332

> <r_mmod_Electrostatic_Energy-OPLS-2005>
-643.106628417969

> <r_mmod_Solvation_Energy-OPLS-2005>
-270.373687744141

> <b_mmod_Minimization_Converged-OPLS-2005>
0

> <r_mmod_RMS_Derivative-OPLS-2005>
2.15246248245239

$$$$
51
                    3D
 Structure written by MMmdl.
158167  0  0  1  0            999 V2000
  -30.6161  -14.6601   20.4977 C   0  0  0  0  0  0
  -30.4445  -12.4067   19.4518 C   0  0  0  0  0  0
  -29.5091  -12.5089   18.2256 C   0  0  0  0  0  0
  -28.0320  -12.3473   18.6388 C   0  0  0  0  0  0
  -27.6544  -13.2191   19.8666 C   0  0  2  0  0  0
  -28.7021  -13.0740   20.9932 C   0  0  0  0  0  0
  -25.2559  -13.8175   20.5719 C   0  0  0  0  0  0
  -24.1811  -13.0428   20.9148 C   0  0  0  0  0  0
  -24.6392  -11.6905   20.8720 C   0  0  0  0  0  0
  -23.9063  -10.4288   21.0395 C   0  0  0  0  0  0
  -24.3612   -9.4207   21.9178 C   0  0  0  0  0  0
  -23.6287   -8.2243   22.0755 C   0  0  0  0  0  0
  -22.4270   -8.0279   21.3546 C   0  0  0  0  0  0
  -21.9902   -9.0250   20.4645 C   0  0  0  0  0  0
  -22.7233  -10.2128   20.3048 C   0  0  0  0  0  0
  -21.6848   -6.0733   22.5281 C   0  0  0  0  0  0
  -21.4011   -6.5638   23.8213 C   0  0  0  0  0  0
  -21.3658   -5.6790   24.9177 C   0  0  0  0  0  0
  -21.6045   -4.3052   24.7226 C   0  0  0  0  0  0
  -21.8819   -3.8145   23.4346 C   0  0  0  0  0  0
  -21.9191   -4.6962   22.3405 C   0  0  0  0  0  0
  -22.7833  -13.5219   21.1827 C   0  0  0  0  0  0
  -22.1658   -4.2148   21.0981 F   0  0  0  0  0  0
  -21.5632   -3.4535   25.7738 F   0  0  0  0  0  0
  -30.0158  -13.4272   20.4295 N   0  0  0  0  0  0
  -26.3003  -12.9365   20.3369 N   0  0  0  0  0  0
  -25.9330  -11.6511   20.5767 N   0  0  0  0  0  0
  -22.0479  -12.8222   22.0399 N   0  0  0  0  0  0
  -25.4268  -15.1908   20.4284 N   0  0  0  0  0  0
  -31.7749  -14.8286   20.1064 O   0  0  0  0  0  0
  -21.6636   -6.8875   21.4242 O   0  0  0  0  0  0
  -22.3512  -14.5526   20.6683 O   0  0  0  0  0  0
  -24.6284  -31.8597   23.2047 C   0  0  0  0  0  0
  -25.9126  -32.4781   23.8374 C   0  0  1  0  0  0
  -27.2192  -27.2952   20.1147 C   0  0  0  0  0  0
  -25.5948  -33.8584   24.2302 N   0  0  0  0  0  0
  -23.4241  -30.4862   21.5476 C   0  0  2  0  0  0
  -24.8704  -28.9466   20.1104 C   0  0  0  0  0  0
  -22.7492  -29.4632   22.4930 C   0  0  0  0  0  0
  -18.0297  -28.1393   22.8486 C   0  0  0  0  0  0
  -24.1490  -36.7274   23.2639 C   0  0  0  0  0  0
  -25.9700  -30.7809   21.3844 C   0  0  0  0  0  0
  -26.0424  -29.4089   20.7223 C   0  0  0  0  0  0
  -27.2184  -28.5943   20.7200 C   0  0  0  0  0  0
  -26.0224  -26.9102   19.4590 C   0  0  0  0  0  0
  -24.8636  -27.7027   19.4700 C   0  0  0  0  0  0
  -23.6404  -29.8285   20.1613 C   0  0  0  0  0  0
  -25.4117  -36.3084   24.0338 C   0  0  1  0  0  0
  -20.5899  -28.3700   23.1273 C   0  0  2  0  0  0
  -20.6794  -26.9426   22.5402 C   0  0  0  0  0  0
  -19.5768  -26.6390   21.5211 C   0  0  0  0  0  0
  -18.1945  -26.7940   22.1621 C   0  0  0  0  0  0
  -19.1549  -28.8865   23.2876 C   0  0  0  0  0  0
  -18.9471  -30.1465   23.8894 C   0  0  0  0  0  0
  -17.6470  -30.6597   24.0565 C   0  0  0  0  0  0
  -25.9056  -34.9453   23.5115 C   0  0  0  0  0  0
  -16.5359  -29.9095   23.6337 C   0  0  0  0  0  0
  -16.7283  -28.6512   23.0359 C   0  0  0  0  0  0
  -26.4504  -31.6588   25.0740 C   0  0  0  0  0  0
  -25.3731  -31.3723   26.1458 C   0  0  0  0  0  0
  -27.0351  -30.3014   24.6199 C   0  0  0  0  0  0
  -27.6081  -32.4306   25.7496 C   0  0  0  0  0  0
  -27.5583  -37.1795   24.8469 C   0  0  0  0  0  0
  -21.4205  -29.3047   22.3662 N   0  0  0  0  0  0
  -26.4293  -37.3778   23.9415 N   0  0  0  0  0  0
  -24.6930  -31.0590   22.1016 N   0  0  0  0  0  0
  -23.4205  -28.8160   23.3012 O   0  0  0  0  0  0
  -28.3085  -26.3956   20.1844 O   0  0  0  0  0  0
  -26.5607  -34.8915   22.4670 O   0  0  0  0  0  0
  -23.5441  -32.1408   23.7354 O   0  0  0  0  0  0
  -28.7071  -19.3182   21.2217 C   0  0  0  0  0  0
  -30.8535  -17.9255   20.0842 C   0  0  0  0  0  0
  -29.7026  -20.0973   20.5721 C   0  0  0  0  0  0
  -28.7888  -17.8980   21.3184 C   0  0  0  0  0  0
  -29.8626  -17.1588   20.7568 C   0  0  0  0  0  0
  -30.7817  -19.3639   19.9842 C   0  0  0  0  0  0
  -30.1258  -23.7676   20.9166 C   0  0  0  0  0  0
  -28.9419  -23.7718   20.2998 C   0  0  0  0  0  0
  -30.5722  -22.3927   21.0922 C   0  0  0  0  0  0
  -28.6175  -22.3509   20.0629 C   0  0  0  0  0  0
  -32.7974  -19.4380   18.6658 C   0  0  0  0  0  0
  -28.0016  -24.9633   19.8944 C   0  0  0  0  0  0
  -29.6318  -21.5795   20.5547 N   0  0  0  0  0  0
  -27.7868  -17.2047   21.9994 N   0  0  0  0  0  0
  -29.8058  -15.6965   20.8793 N   0  0  0  0  0  0
  -31.6079  -22.0242   21.6585 O   0  0  0  0  0  0
  -27.6045  -21.9105   19.5079 O   0  0  0  0  0  0
  -31.7251  -20.1133   19.3111 O   0  0  0  0  0  0
  -31.4827  -12.5436   19.1441 H   0  0  0  0  0  0
  -30.3940  -11.4118   19.8966 H   0  0  0  0  0  0
  -29.7746  -11.7514   17.4869 H   0  0  0  0  0  0
  -29.6482  -13.4741   17.7361 H   0  0  0  0  0  0
  -27.8687  -11.2944   18.8702 H   0  0  0  0  0  0
  -27.3773  -12.5768   17.7974 H   0  0  0  0  0  0
  -27.6701  -14.2552   19.5272 H   0  0  0  0  0  0
  -28.7185  -12.0498   21.3688 H   0  0  0  0  0  0
  -28.4444  -13.6994   21.8492 H   0  0  0  0  0  0
  -25.2756   -9.5683   22.4754 H   0  0  0  0  0  0
  -23.9995   -7.4632   22.7473 H   0  0  0  0  0  0
  -21.0834   -8.8764   19.8949 H   0  0  0  0  0  0
  -22.3687  -10.9663   19.6156 H   0  0  0  0  0  0
  -21.2001   -7.6146   23.9717 H   0  0  0  0  0  0
  -21.1481   -6.0521   25.9080 H   0  0  0  0  0  0
  -22.0599   -2.7607   23.2846 H   0  0  0  0  0  0
  -22.4089  -11.9877   22.4781 H   0  0  0  0  0  0
  -21.1106  -13.1262   22.2623 H   0  0  0  0  0  0
  -24.6753  -15.8437   20.6193 H   0  0  0  0  0  0
  -26.3254  -15.6525   20.3379 H   0  0  0  0  0  0
  -26.7188  -32.5436   23.1116 H   0  0  0  0  0  0
  -25.0139  -33.9734   25.0477 H   0  0  0  0  0  0
  -22.7196  -31.3087   21.4068 H   0  0  0  0  0  0
  -23.3769  -35.9589   23.3297 H   0  0  0  0  0  0
  -24.3591  -36.8888   22.2054 H   0  0  0  0  0  0
  -23.7214  -37.6468   23.6651 H   0  0  0  0  0  0
  -26.1116  -31.5467   20.6208 H   0  0  0  0  0  0
  -26.8471  -30.8235   22.0182 H   0  0  0  0  0  0
  -28.1113  -28.9414   21.2215 H   0  0  0  0  0  0
  -25.9333  -25.9720   18.9342 H   0  0  0  0  0  0
  -23.9689  -27.3472   18.9777 H   0  0  0  0  0  0
  -23.7632  -30.6087   19.4090 H   0  0  0  0  0  0
  -22.7597  -29.2612   19.8551 H   0  0  0  0  0  0
  -25.1297  -36.1943   25.0831 H   0  0  0  0  0  0
  -20.9990  -28.3274   24.1395 H   0  0  0  0  0  0
  -20.5717  -26.2309   23.3600 H   0  0  0  0  0  0
  -21.6659  -26.7477   22.1176 H   0  0  0  0  0  0
  -19.6936  -25.6300   21.1247 H   0  0  0  0  0  0
  -19.6709  -27.3196   20.6737 H   0  0  0  0  0  0
  -17.4219  -26.6684   21.4020 H   0  0  0  0  0  0
  -18.0350  -26.0088   22.9022 H   0  0  0  0  0  0
  -19.7945  -30.7284   24.2258 H   0  0  0  0  0  0
  -17.5027  -31.6280   24.5163 H   0  0  0  0  0  0
  -15.5361  -30.2996   23.7672 H   0  0  0  0  0  0
  -15.8680  -28.0830   22.7078 H   0  0  0  0  0  0
  -24.5924  -30.7059   25.7774 H   0  0  0  0  0  0
  -24.8898  -32.2883   26.4865 H   0  0  0  0  0  0
  -25.8049  -30.8910   27.0241 H   0  0  0  0  0  0
  -26.2932  -29.6756   24.1226 H   0  0  0  0  0  0
  -27.4061  -29.7278   25.4700 H   0  0  0  0  0  0
  -27.8799  -30.4311   23.9432 H   0  0  0  0  0  0
  -27.2737  -33.3630   26.2053 H   0  0  0  0  0  0
  -28.3899  -32.6813   25.0313 H   0  0  0  0  0  0
  -28.0735  -31.8428   26.5417 H   0  0  0  0  0  0
  -28.2597  -38.0097   24.7535 H   0  0  0  0  0  0
  -28.1087  -36.2633   24.6280 H   0  0  0  0  0  0
  -27.2305  -37.1416   25.8872 H   0  0  0  0  0  0
  -20.9393  -29.8761   21.6858 H   0  0  0  0  0  0
  -26.0179  -38.2854   24.1426 H   0  0  0  0  0  0
  -27.8716  -19.8291   21.6790 H   0  0  0  0  0  0
  -31.6713  -17.3858   19.6334 H   0  0  0  0  0  0
  -30.6636  -24.6402   21.2513 H   0  0  0  0  0  0
  -33.4045  -18.8739   19.3749 H   0  0  0  0  0  0
  -33.4484  -20.1709   18.1895 H   0  0  0  0  0  0
  -32.4349  -18.7672   17.8856 H   0  0  0  0  0  0
  -27.0575  -24.7122   20.3810 H   0  0  0  0  0  0
  -27.8444  -24.8663   18.8193 H   0  0  0  0  0  0
  -27.1085  -17.7786   22.4886 H   0  0  0  0  0  0
  -28.1139  -16.4671   22.6117 H   0  0  0  0  0  0
  -28.9069  -15.3878   21.2164 H   0  0  0  0  0  0
  1 25  1  0  0  0
  1 30  2  0  0  0
  1 85  1  0  0  0
  2  3  1  0  0  0
  2 25  1  0  0  0
  2 89  1  0  0  0
  2 90  1  0  0  0
  3  4  1  0  0  0
  3 91  1  0  0  0
  3 92  1  0  0  0
  4  5  1  0  0  0
  4 93  1  0  0  0
  4 94  1  0  0  0
  5  6  1  0  0  0
  5 26  1  0  0  0
  5 95  1  0  0  0
  6 25  1  0  0  0
  6 96  1  0  0  0
  6 97  1  0  0  0
  7  8  2  0  0  0
  7 26  1  0  0  0
  7 29  1  0  0  0
  8  9  1  0  0  0
  8 22  1  0  0  0
  9 10  1  0  0  0
  9 27  2  0  0  0
 10 11  2  0  0  0
 10 15  1  0  0  0
 11 12  1  0  0  0
 11 98  1  0  0  0
 12 13  2  0  0  0
 12 99  1  0  0  0
 13 14  1  0  0  0
 13 31  1  0  0  0
 14 15  2  0  0  0
 14100  1  0  0  0
 15101  1  0  0  0
 16 17  2  0  0  0
 16 21  1  0  0  0
 16 31  1  0  0  0
 17 18  1  0  0  0
 17102  1  0  0  0
 18 19  2  0  0  0
 18103  1  0  0  0
 19 20  1  0  0  0
 19 24  1  0  0  0
 20 21  2  0  0  0
 20104  1  0  0  0
 21 23  1  0  0  0
 22 28  1  0  0  0
 22 32  2  0  0  0
 26 27  1  0  0  0
 28105  1  0  0  0
 28106  1  0  0  0
 29107  1  0  0  0
 29108  1  0  0  0
 33 34  1  0  0  0
 33 66  1  0  0  0
 33 70  2  0  0  0
 34 36  1  0  0  0
 34 59  1  0  0  0
 34109  1  0  0  0
 35 44  2  0  0  0
 35 45  1  0  0  0
 35 68  1  0  0  0
 36 56  1  0  0  0
 36110  1  0  0  0
 37 39  1  0  0  0
 37 47  1  0  0  0
 37 66  1  0  0  0
 37111  1  0  0  0
 38 43  2  0  0  0
 38 46  1  0  0  0
 38 47  1  0  0  0
 39 64  1  0  0  0
 39 67  2  0  0  0
 40 52  1  0  0  0
 40 53  2  0  0  0
 40 58  1  0  0  0
 41112  1  0  0  0
 41113  1  0  0  0
 41114  1  0  0  0
 41 48  1  0  0  0
 42 43  1  0  0  0
 42 66  1  0  0  0
 42115  1  0  0  0
 42116  1  0  0  0
 43 44  1  0  0  0
 44117  1  0  0  0
 45 46  2  0  0  0
 45118  1  0  0  0
 46119  1  0  0  0
 47120  1  0  0  0
 47121  1  0  0  0
 48 56  1  0  0  0
 48 65  1  0  0  0
 48122  1  0  0  0
 49 50  1  0  0  0
 49 53  1  0  0  0
 49 64  1  0  0  0
 49123  1  0  0  0
 50 51  1  0  0  0
 50124  1  0  0  0
 50125  1  0  0  0
 51 52  1  0  0  0
 51126  1  0  0  0
 51127  1  0  0  0
 52128  1  0  0  0
 52129  1  0  0  0
 53 54  1  0  0  0
 54 55  2  0  0  0
 54130  1  0  0  0
 55 57  1  0  0  0
 55131  1  0  0  0
 56 69  2  0  0  0
 57 58  2  0  0  0
 57132  1  0  0  0
 58133  1  0  0  0
 59 60  1  0  0  0
 59 61  1  0  0  0
 59 62  1  0  0  0
 60134  1  0  0  0
 60135  1  0  0  0
 60136  1  0  0  0
 61137  1  0  0  0
 61138  1  0  0  0
 61139  1  0  0  0
 62140  1  0  0  0
 62141  1  0  0  0
 62142  1  0  0  0
 63 65  1  0  0  0
 63143  1  0  0  0
 63144  1  0  0  0
 63145  1  0  0  0
 64146  1  0  0  0
 65147  1  0  0  0
 68 82  1  0  0  0
 71 73  2  0  0  0
 71 74  1  0  0  0
 71148  1  0  0  0
 72 75  1  0  0  0
 72 76  2  0  0  0
 72149  1  0  0  0
 73 76  1  0  0  0
 73 83  1  0  0  0
 74 75  2  0  0  0
 74 84  1  0  0  0
 75 85  1  0  0  0
 76 88  1  0  0  0
 77 78  2  0  0  0
 77 79  1  0  0  0
 77150  1  0  0  0
 78 80  1  0  0  0
 78 82  1  0  0  0
 79 83  1  0  0  0
 79 86  2  0  0  0
 80 83  1  0  0  0
 80 87  2  0  0  0
 81 88  1  0  0  0
 81151  1  0  0  0
 81152  1  0  0  0
 81153  1  0  0  0
 82154  1  0  0  0
 82155  1  0  0  0
 84156  1  0  0  0
 84157  1  0  0  0
 85158  1  0  0  0
M  ISO  4   1 100  68 101  82 101  85 100
M  END
> <chiral flag>
0

> <version>
0

> <s_m_source_file>
/data/baiqing/PycharmProjects/Reinvent-master-3.2/result/LINK_invent/BTK/process_docking_weight1_custom_product_contain_oxygen_bond_distance_aromatic_linkinvent_7_9_3/rearranged_h_0088.sdf

> <i_m_source_file_index>
52

> <r_mmod_Potential_Energy-OPLS-2005>
-48.289608001709

> <r_mmod_Stretch_Energy-OPLS-2005>
88.7865753173828

> <r_mmod_Bend_Energy-OPLS-2005>
196.929382324219

> <r_mmod_Torsional_Energy-OPLS-2005>
252.898422241211

> <r_mmod_Improper_Torsional_Energy-OPLS-2005>
9.17292594909668

> <r_mmod_Van_der_Waal_Energy-OPLS-2005>
152.518814086914

> <r_mmod_Electrostatic_Energy-OPLS-2005>
-564.685363769531

> <r_mmod_Solvation_Energy-OPLS-2005>
-244.252105712891

> <b_mmod_Minimization_Converged-OPLS-2005>
0

> <r_mmod_RMS_Derivative-OPLS-2005>
0.848336040973663

$$$$
52
                    3D
 Structure written by MMmdl.
155163  0  0  1  0            999 V2000
  -30.6624  -14.5604   20.4991 C   0  0  0  0  0  0
  -30.4258  -12.3394   19.4498 C   0  0  0  0  0  0
  -29.5027  -12.4960   18.2216 C   0  0  0  0  0  0
  -28.0234  -12.3509   18.6301 C   0  0  0  0  0  0
  -27.6556  -13.2141   19.8671 C   0  0  2  0  0  0
  -28.6985  -13.0520   20.9979 C   0  0  0  0  0  0
  -25.2566  -13.8174   20.5682 C   0  0  0  0  0  0
  -24.1830  -13.0442   20.9184 C   0  0  0  0  0  0
  -24.6396  -11.6912   20.8739 C   0  0  0  0  0  0
  -23.9063  -10.4295   21.0406 C   0  0  0  0  0  0
  -24.3615   -9.4210   21.9184 C   0  0  0  0  0  0
  -23.6291   -8.2244   22.0754 C   0  0  0  0  0  0
  -22.4273   -8.0281   21.3544 C   0  0  0  0  0  0
  -21.9908   -9.0254   20.4646 C   0  0  0  0  0  0
  -22.7237  -10.2134   20.3055 C   0  0  0  0  0  0
  -21.6853   -6.0734   22.5279 C   0  0  0  0  0  0
  -21.4015   -6.5639   23.8212 C   0  0  0  0  0  0
  -21.3658   -5.6792   24.9174 C   0  0  0  0  0  0
  -21.6045   -4.3055   24.7226 C   0  0  0  0  0  0
  -21.8818   -3.8146   23.4348 C   0  0  0  0  0  0
  -21.9193   -4.6962   22.3404 C   0  0  0  0  0  0
  -22.7849  -13.5232   21.1846 C   0  0  0  0  0  0
  -22.1661   -4.2147   21.0981 F   0  0  0  0  0  0
  -21.5628   -3.4539   25.7740 F   0  0  0  0  0  0
  -30.0226  -13.3567   20.4367 N   0  0  0  0  0  0
  -26.2998  -12.9355   20.3338 N   0  0  0  0  0  0
  -25.9327  -11.6512   20.5770 N   0  0  0  0  0  0
  -22.0492  -12.8223   22.0402 N   0  0  0  0  0  0
  -25.4276  -15.1895   20.4098 N   0  0  0  0  0  0
  -31.8252  -14.7032   20.1125 O   0  0  0  0  0  0
  -21.6640   -6.8878   21.4242 O   0  0  0  0  0  0
  -22.3533  -14.5539   20.6696 O   0  0  0  0  0  0
  -24.6200  -31.8641   23.2065 C   0  0  0  0  0  0
  -25.9073  -32.4795   23.8375 C   0  0  1  0  0  0
  -27.2288  -27.3738   20.1002 C   0  0  0  0  0  0
  -25.5910  -33.8594   24.2304 N   0  0  0  0  0  0
  -23.4105  -30.4894   21.5485 C   0  0  2  0  0  0
  -24.8544  -28.9507   20.1123 C   0  0  0  0  0  0
  -22.7438  -29.4648   22.4957 C   0  0  0  0  0  0
  -18.0271  -28.1385   22.8483 C   0  0  0  0  0  0
  -24.1484  -36.7302   23.2640 C   0  0  0  0  0  0
  -25.9460  -30.8116   21.3682 C   0  0  0  0  0  0
  -26.0200  -29.4426   20.7119 C   0  0  0  0  0  0
  -27.2070  -28.6628   20.7017 C   0  0  0  0  0  0
  -26.0357  -26.9149   19.4917 C   0  0  0  0  0  0
  -24.8604  -27.6879   19.4998 C   0  0  0  0  0  0
  -23.6212  -29.8264   20.1621 C   0  0  0  0  0  0
  -25.4104  -36.3095   24.0333 C   0  0  1  0  0  0
  -20.5866  -28.3679   23.1293 C   0  0  2  0  0  0
  -20.6757  -26.9406   22.5414 C   0  0  0  0  0  0
  -19.5738  -26.6386   21.5210 C   0  0  0  0  0  0
  -18.1916  -26.7926   22.1621 C   0  0  0  0  0  0
  -19.1522  -28.8845   23.2886 C   0  0  0  0  0  0
  -18.9452  -30.1447   23.8902 C   0  0  0  0  0  0
  -17.6456  -30.6586   24.0565 C   0  0  0  0  0  0
  -25.9041  -34.9461   23.5118 C   0  0  0  0  0  0
  -16.5345  -29.9088   23.6333 C   0  0  0  0  0  0
  -16.7260  -28.6507   23.0345 C   0  0  0  0  0  0
  -26.4485  -31.6584   25.0722 C   0  0  0  0  0  0
  -25.3746  -31.3699   26.1469 C   0  0  0  0  0  0
  -27.0324  -30.3017   24.6132 C   0  0  0  0  0  0
  -27.6059  -32.4313   25.7486 C   0  0  0  0  0  0
  -27.5571  -37.1800   24.8467 C   0  0  0  0  0  0
  -21.4155  -29.3045   22.3699 N   0  0  0  0  0  0
  -26.4285  -37.3784   23.9411 N   0  0  0  0  0  0
  -24.6776  -31.0703   22.0987 N   0  0  0  0  0  0
  -23.4184  -28.8179   23.3007 O   0  0  0  0  0  0
  -28.3859  -26.5962   20.1344 O   0  0  0  0  0  0
  -26.5610  -34.8921   22.4684 O   0  0  0  0  0  0
  -23.5381  -32.1418   23.7428 O   0  0  0  0  0  0
  -28.3355  -18.9333   23.1408 C   0  0  0  0  0  0
  -28.8442  -17.8973   22.3354 C   0  0  0  0  0  0
  -28.4885  -20.2795   22.7600 C   0  0  0  0  0  0
  -29.6546  -19.5644   20.7459 C   0  0  0  0  0  0
  -29.5180  -18.1866   21.1280 C   0  0  0  0  0  0
  -29.1352  -20.6225   21.5552 C   0  0  0  0  0  0
  -28.8719  -24.2607   20.6710 C   0  0  0  0  0  0
  -28.3344  -25.2258   19.8750 C   0  0  0  0  0  0
  -28.7751  -22.8191   20.3592 C   0  0  0  0  0  0
  -29.5862  -17.1293   18.8191 C   0  0  0  0  0  0
  -30.1059  -17.0328   20.2665 C   0  0  2  0  0  0
  -29.3280  -22.0309   21.3116 N   0  0  0  0  0  0
  -29.8730  -15.6384   20.7479 N   0  0  0  0  0  0
  -28.2631  -22.3535   19.3381 O   0  0  0  0  0  0
  -31.4715  -12.4373   19.1521 H   0  0  0  0  0  0
  -30.3310  -11.3406   19.8787 H   0  0  0  0  0  0
  -29.7546  -11.7531   17.4636 H   0  0  0  0  0  0
  -29.6625  -13.4717   17.7598 H   0  0  0  0  0  0
  -27.8436  -11.2975   18.8481 H   0  0  0  0  0  0
  -27.3738  -12.6009   17.7906 H   0  0  0  0  0  0
  -27.6807  -14.2521   19.5351 H   0  0  0  0  0  0
  -28.6873  -12.0330   21.3866 H   0  0  0  0  0  0
  -28.4614  -13.6978   21.8452 H   0  0  0  0  0  0
  -25.2762   -9.5684   22.4756 H   0  0  0  0  0  0
  -24.0000   -7.4636   22.7475 H   0  0  0  0  0  0
  -21.0838   -8.8772   19.8951 H   0  0  0  0  0  0
  -22.3696  -10.9671   19.6160 H   0  0  0  0  0  0
  -21.2008   -7.6147   23.9714 H   0  0  0  0  0  0
  -21.1481   -6.0523   25.9076 H   0  0  0  0  0  0
  -22.0599   -2.7608   23.2850 H   0  0  0  0  0  0
  -22.4109  -11.9883   22.4789 H   0  0  0  0  0  0
  -21.1110  -13.1248   22.2611 H   0  0  0  0  0  0
  -24.6600  -15.8427   20.5228 H   0  0  0  0  0  0
  -26.2758  -15.6321   20.0807 H   0  0  0  0  0  0
  -26.7144  -32.5482   23.1133 H   0  0  0  0  0  0
  -25.0061  -33.9747   25.0450 H   0  0  0  0  0  0
  -22.7017  -31.3081   21.4090 H   0  0  0  0  0  0
  -23.3737  -35.9646   23.3318 H   0  0  0  0  0  0
  -24.3583  -36.8905   22.2053 H   0  0  0  0  0  0
  -23.7241  -37.6509   23.6654 H   0  0  0  0  0  0
  -26.0700  -31.5766   20.6004 H   0  0  0  0  0  0
  -26.8297  -30.8606   21.9926 H   0  0  0  0  0  0
  -28.1047  -29.0390   21.1715 H   0  0  0  0  0  0
  -25.9780  -25.9493   19.0140 H   0  0  0  0  0  0
  -23.9634  -27.3007   19.0362 H   0  0  0  0  0  0
  -23.7372  -30.6047   19.4067 H   0  0  0  0  0  0
  -22.7414  -29.2555   19.8608 H   0  0  0  0  0  0
  -25.1283  -36.1954   25.0826 H   0  0  0  0  0  0
  -20.9959  -28.3248   24.1412 H   0  0  0  0  0  0
  -20.5651  -26.2290   23.3609 H   0  0  0  0  0  0
  -21.6626  -26.7440   22.1210 H   0  0  0  0  0  0
  -19.6905  -25.6302   21.1228 H   0  0  0  0  0  0
  -19.6672  -27.3204   20.6743 H   0  0  0  0  0  0
  -17.4185  -26.6665   21.4025 H   0  0  0  0  0  0
  -18.0317  -26.0070   22.9021 H   0  0  0  0  0  0
  -19.7931  -30.7254   24.2273 H   0  0  0  0  0  0
  -17.5015  -31.6265   24.5165 H   0  0  0  0  0  0
  -15.5346  -30.2993   23.7653 H   0  0  0  0  0  0
  -15.8657  -28.0833   22.7054 H   0  0  0  0  0  0
  -24.5932  -30.7028   25.7812 H   0  0  0  0  0  0
  -24.8931  -32.2858   26.4907 H   0  0  0  0  0  0
  -25.8102  -30.8884   27.0232 H   0  0  0  0  0  0
  -26.2878  -29.6760   24.1197 H   0  0  0  0  0  0
  -27.4085  -29.7269   25.4604 H   0  0  0  0  0  0
  -27.8720  -30.4315   23.9298 H   0  0  0  0  0  0
  -27.2675  -33.3611   26.2065 H   0  0  0  0  0  0
  -28.3864  -32.6862   25.0310 H   0  0  0  0  0  0
  -28.0729  -31.8435   26.5398 H   0  0  0  0  0  0
  -28.2599  -38.0087   24.7505 H   0  0  0  0  0  0
  -28.1052  -36.2613   24.6306 H   0  0  0  0  0  0
  -27.2294  -37.1477   25.8873 H   0  0  0  0  0  0
  -20.9310  -29.8789   21.6945 H   0  0  0  0  0  0
  -26.0167  -38.2861   24.1412 H   0  0  0  0  0  0
  -27.8350  -18.6946   24.0695 H   0  0  0  0  0  0
  -28.7183  -16.8787   22.6726 H   0  0  0  0  0  0
  -28.1063  -21.0536   23.4114 H   0  0  0  0  0  0
  -30.1872  -19.8145   19.8390 H   0  0  0  0  0  0
  -29.3787  -24.5720   21.5732 H   0  0  0  0  0  0
  -27.8324  -24.9932   18.9469 H   0  0  0  0  0  0
  -29.8359  -18.0861   18.3617 H   0  0  0  0  0  0
  -28.5021  -17.0191   18.7785 H   0  0  0  0  0  0
  -30.0207  -16.3558   18.1851 H   0  0  0  0  0  0
  -31.1842  -17.2027   20.2476 H   0  0  0  0  0  0
  -29.6952  -22.5500   22.0969 H   0  0  0  0  0  0
  -28.9384  -15.4283   21.0599 H   0  0  0  0  0  0
  1 25  1  0  0  0
  1 30  2  0  0  0
  1 83  1  0  0  0
  2  3  1  0  0  0
  2 25  1  0  0  0
  2 85  1  0  0  0
  2 86  1  0  0  0
  3  4  1  0  0  0
  3 87  1  0  0  0
  3 88  1  0  0  0
  4  5  1  0  0  0
  4 89  1  0  0  0
  4 90  1  0  0  0
  5  6  1  0  0  0
  5 26  1  0  0  0
  5 91  1  0  0  0
  6 25  1  0  0  0
  6 92  1  0  0  0
  6 93  1  0  0  0
  7  8  2  0  0  0
  7 26  1  0  0  0
  7 29  1  0  0  0
  8  9  1  0  0  0
  8 22  1  0  0  0
  9 10  1  0  0  0
  9 27  2  0  0  0
 10 11  2  0  0  0
 10 15  1  0  0  0
 11 12  1  0  0  0
 11 94  1  0  0  0
 12 13  2  0  0  0
 12 95  1  0  0  0
 13 14  1  0  0  0
 13 31  1  0  0  0
 14 15  2  0  0  0
 14 96  1  0  0  0
 15 97  1  0  0  0
 16 17  2  0  0  0
 16 21  1  0  0  0
 16 31  1  0  0  0
 17 18  1  0  0  0
 17 98  1  0  0  0
 18 19  2  0  0  0
 18 99  1  0  0  0
 19 20  1  0  0  0
 19 24  1  0  0  0
 20 21  2  0  0  0
 20100  1  0  0  0
 21 23  1  0  0  0
 22 28  1  0  0  0
 22 32  2  0  0  0
 26 27  1  0  0  0
 28101  1  0  0  0
 28102  1  0  0  0
 29103  1  0  0  0
 29104  1  0  0  0
 33 34  1  0  0  0
 33 66  1  0  0  0
 33 70  2  0  0  0
 34 36  1  0  0  0
 34 59  1  0  0  0
 34105  1  0  0  0
 35 44  2  0  0  0
 35 45  1  0  0  0
 35 68  1  0  0  0
 36 56  1  0  0  0
 36106  1  0  0  0
 37 39  1  0  0  0
 37 47  1  0  0  0
 37 66  1  0  0  0
 37107  1  0  0  0
 38 43  2  0  0  0
 38 46  1  0  0  0
 38 47  1  0  0  0
 39 64  1  0  0  0
 39 67  2  0  0  0
 40 52  1  0  0  0
 40 53  2  0  0  0
 40 58  1  0  0  0
 41108  1  0  0  0
 41109  1  0  0  0
 41110  1  0  0  0
 41 48  1  0  0  0
 42 43  1  0  0  0
 42 66  1  0  0  0
 42111  1  0  0  0
 42112  1  0  0  0
 43 44  1  0  0  0
 44113  1  0  0  0
 45 46  2  0  0  0
 45114  1  0  0  0
 46115  1  0  0  0
 47116  1  0  0  0
 47117  1  0  0  0
 48 56  1  0  0  0
 48 65  1  0  0  0
 48118  1  0  0  0
 49 50  1  0  0  0
 49 53  1  0  0  0
 49 64  1  0  0  0
 49119  1  0  0  0
 50 51  1  0  0  0
 50120  1  0  0  0
 50121  1  0  0  0
 51 52  1  0  0  0
 51122  1  0  0  0
 51123  1  0  0  0
 52124  1  0  0  0
 52125  1  0  0  0
 53 54  1  0  0  0
 54 55  2  0  0  0
 54126  1  0  0  0
 55 57  1  0  0  0
 55127  1  0  0  0
 56 69  2  0  0  0
 57 58  2  0  0  0
 57128  1  0  0  0
 58129  1  0  0  0
 59 60  1  0  0  0
 59 61  1  0  0  0
 59 62  1  0  0  0
 60130  1  0  0  0
 60131  1  0  0  0
 60132  1  0  0  0
 61133  1  0  0  0
 61134  1  0  0  0
 61135  1  0  0  0
 62136  1  0  0  0
 62137  1  0  0  0
 62138  1  0  0  0
 63 65  1  0  0  0
 63139  1  0  0  0
 63140  1  0  0  0
 63141  1  0  0  0
 64142  1  0  0  0
 65143  1  0  0  0
 68 78  1  0  0  0
 71 72  2  0  0  0
 71 73  1  0  0  0
 71144  1  0  0  0
 72 75  1  0  0  0
 72145  1  0  0  0
 73 76  2  0  0  0
 73146  1  0  0  0
 74 75  2  0  0  0
 74 76  1  0  0  0
 74147  1  0  0  0
 75 81  1  0  0  0
 76 82  1  0  0  0
 77 78  2  0  0  0
 77 79  1  0  0  0
 77148  1  0  0  0
 78149  1  0  0  0
 79 82  1  0  0  0
 79 84  2  0  0  0
 80150  1  0  0  0
 80151  1  0  0  0
 80152  1  0  0  0
 80 81  1  0  0  0
 81 83  1  0  0  0
 81153  1  0  0  0
 82154  1  0  0  0
 83155  1  0  0  0
M  ISO  4   1 100  68 101  78 101  83 100
M  END
> <chiral flag>
0

> <version>
0

> <s_m_source_file>
/data/baiqing/PycharmProjects/Reinvent-master-3.2/result/LINK_invent/BTK/process_docking_weight1_custom_product_contain_oxygen_bond_distance_aromatic_linkinvent_7_9_3/rearranged_h_0088.sdf

> <i_m_source_file_index>
53

> <r_mmod_Potential_Energy-OPLS-2005>
-92.3447265625

> <r_mmod_Stretch_Energy-OPLS-2005>
53.453784942627

> <r_mmod_Bend_Energy-OPLS-2005>
108.555572509766

> <r_mmod_Torsional_Energy-OPLS-2005>
234.032745361328

> <r_mmod_Improper_Torsional_Energy-OPLS-2005>
8.65883159637451

> <r_mmod_Van_der_Waal_Energy-OPLS-2005>
146.808395385742

> <r_mmod_Electrostatic_Energy-OPLS-2005>
-445.588989257812

> <r_mmod_Solvation_Energy-OPLS-2005>
-225.683303833008

> <b_mmod_Minimization_Converged-OPLS-2005>
0

> <r_mmod_RMS_Derivative-OPLS-2005>
0.842707335948944

$$$$
53
                    3D
 Structure written by MMmdl.
150158  0  0  1  0            999 V2000
  -30.6161  -14.8294   20.4379 C   0  0  0  0  0  0
  -30.4276  -12.5091   19.4894 C   0  0  0  0  0  0
  -29.5120  -12.5121   18.2461 C   0  0  0  0  0  0
  -28.0423  -12.3221   18.6631 C   0  0  0  0  0  0
  -27.6347  -13.2442   19.8428 C   0  0  2  0  0  0
  -28.6794  -13.2404   20.9803 C   0  0  0  0  0  0
  -25.2485  -13.8221   20.5714 C   0  0  0  0  0  0
  -24.1792  -13.0447   20.9220 C   0  0  0  0  0  0
  -24.6402  -11.6928   20.8752 C   0  0  0  0  0  0
  -23.9083  -10.4296   21.0405 C   0  0  0  0  0  0
  -24.3630   -9.4213   21.9184 C   0  0  0  0  0  0
  -23.6304   -8.2249   22.0756 C   0  0  0  0  0  0
  -22.4286   -8.0283   21.3546 C   0  0  0  0  0  0
  -21.9921   -9.0258   20.4647 C   0  0  0  0  0  0
  -22.7253  -10.2137   20.3056 C   0  0  0  0  0  0
  -21.6857   -6.0734   22.5282 C   0  0  0  0  0  0
  -21.4015   -6.5640   23.8211 C   0  0  0  0  0  0
  -21.3659   -5.6796   24.9175 C   0  0  0  0  0  0
  -21.6046   -4.3058   24.7227 C   0  0  0  0  0  0
  -21.8819   -3.8148   23.4348 C   0  0  0  0  0  0
  -21.9194   -4.6963   22.3405 C   0  0  0  0  0  0
  -22.7812  -13.5217   21.1873 C   0  0  0  0  0  0
  -22.1664   -4.2149   21.0981 F   0  0  0  0  0  0
  -21.5627   -3.4541   25.7737 F   0  0  0  0  0  0
  -29.9706  -13.6044   20.3856 N   0  0  0  0  0  0
  -26.2916  -12.9448   20.3273 N   0  0  0  0  0  0
  -25.9336  -11.6578   20.5761 N   0  0  0  0  0  0
  -22.0465  -12.8198   22.0424 N   0  0  0  0  0  0
  -25.4147  -15.1947   20.4132 N   0  0  0  0  0  0
  -31.8138  -14.8460   20.1448 O   0  0  0  0  0  0
  -21.6647   -6.8882   21.4243 O   0  0  0  0  0  0
  -22.3490  -14.5517   20.6717 O   0  0  0  0  0  0
  -24.6369  -31.8512   23.1947 C   0  0  0  0  0  0
  -25.9169  -32.4733   23.8314 C   0  0  1  0  0  0
  -27.2166  -27.2136   20.1392 C   0  0  0  0  0  0
  -25.5945  -33.8535   24.2235 N   0  0  0  0  0  0
  -23.4382  -30.4735   21.5375 C   0  0  2  0  0  0
  -24.8907  -28.9176   20.1050 C   0  0  0  0  0  0
  -22.7541  -29.4585   22.4872 C   0  0  0  0  0  0
  -18.0301  -28.1395   22.8488 C   0  0  0  0  0  0
  -24.1492  -36.7268   23.2641 C   0  0  0  0  0  0
  -25.9898  -30.7492   21.3842 C   0  0  0  0  0  0
  -26.0650  -29.3679   20.7249 C   0  0  0  0  0  0
  -27.2342  -28.5276   20.7351 C   0  0  0  0  0  0
  -26.0271  -26.8545   19.4702 C   0  0  0  0  0  0
  -24.8798  -27.6707   19.4631 C   0  0  0  0  0  0
  -23.6616  -29.8085   20.1541 C   0  0  0  0  0  0
  -25.4122  -36.3051   24.0324 C   0  0  1  0  0  0
  -20.5915  -28.3713   23.1251 C   0  0  2  0  0  0
  -20.6787  -26.9422   22.5404 C   0  0  0  0  0  0
  -19.5755  -26.6390   21.5214 C   0  0  0  0  0  0
  -18.1941  -26.7936   22.1630 C   0  0  0  0  0  0
  -19.1558  -28.8872   23.2868 C   0  0  0  0  0  0
  -18.9474  -30.1474   23.8888 C   0  0  0  0  0  0
  -17.6470  -30.6596   24.0566 C   0  0  0  0  0  0
  -25.9062  -34.9423   23.5083 C   0  0  0  0  0  0
  -16.5362  -29.9091   23.6336 C   0  0  0  0  0  0
  -16.7286  -28.6507   23.0362 C   0  0  0  0  0  0
  -26.4516  -31.6576   25.0722 C   0  0  0  0  0  0
  -25.3718  -31.3747   26.1428 C   0  0  0  0  0  0
  -27.0371  -30.2980   24.6247 C   0  0  0  0  0  0
  -27.6059  -32.4327   25.7500 C   0  0  0  0  0  0
  -27.5580  -37.1799   24.8469 C   0  0  0  0  0  0
  -21.4236  -29.3055   22.3626 N   0  0  0  0  0  0
  -26.4289  -37.3759   23.9408 N   0  0  0  0  0  0
  -24.7073  -31.0441   22.0940 N   0  0  0  0  0  0
  -23.4218  -28.8123   23.2988 O   0  0  0  0  0  0
  -28.2151  -26.1977   20.2265 O   0  0  0  0  0  0
  -26.5637  -34.8906   22.4656 O   0  0  0  0  0  0
  -23.5504  -32.1346   23.7208 O   0  0  0  0  0  0
  -32.0823  -19.1722   20.3118 C   0  0  0  0  0  0
  -31.1833  -20.2551   20.3308 C   0  0  0  0  0  0
  -31.6489  -17.8349   20.4037 C   0  0  0  0  0  0
  -29.7904  -20.0586   20.4504 C   0  0  0  0  0  0
  -30.2800  -17.4870   20.5137 C   0  0  0  0  0  0
  -29.3659  -18.6464   20.5470 C   0  0  0  0  0  0
  -27.7859  -24.9814   20.8649 C   0  0  0  0  0  0
  -28.0723  -23.5993   20.9404 C   0  0  0  0  0  0
  -29.0980  -22.6570   20.3255 C   0  0  0  0  0  0
  -28.9002  -21.2740   20.5511 N   0  0  0  0  0  0
  -29.8861  -16.0234   20.6045 N   0  0  0  0  0  0
  -30.0491  -23.0643   19.6581 O   0  0  0  0  0  0
  -27.2657  -22.9688   21.8109 O   0  0  0  0  0  0
  -28.0414  -18.3956   20.6828 F   0  0  0  0  0  0
  -31.4683  -12.6254   19.1829 H   0  0  0  0  0  0
  -30.3785  -11.5490   20.0055 H   0  0  0  0  0  0
  -29.8096  -11.7224   17.5549 H   0  0  0  0  0  0
  -29.6244  -13.4532   17.7057 H   0  0  0  0  0  0
  -27.9179  -11.2776   18.9525 H   0  0  0  0  0  0
  -27.3816  -12.4821   17.8103 H   0  0  0  0  0  0
  -27.6101  -14.2534   19.4312 H   0  0  0  0  0  0
  -28.7364  -12.2623   21.4603 H   0  0  0  0  0  0
  -28.4017  -13.9522   21.7596 H   0  0  0  0  0  0
  -25.2771   -9.5686   22.4764 H   0  0  0  0  0  0
  -24.0009   -7.4637   22.7476 H   0  0  0  0  0  0
  -21.0852   -8.8782   19.8951 H   0  0  0  0  0  0
  -22.3714  -10.9677   19.6165 H   0  0  0  0  0  0
  -21.2010   -7.6147   23.9714 H   0  0  0  0  0  0
  -21.1482   -6.0525   25.9077 H   0  0  0  0  0  0
  -22.0597   -2.7610   23.2851 H   0  0  0  0  0  0
  -22.4091  -11.9863   22.4807 H   0  0  0  0  0  0
  -21.1079  -13.1213   22.2632 H   0  0  0  0  0  0
  -24.6447  -15.8451   20.5277 H   0  0  0  0  0  0
  -26.2598  -15.6411   20.0810 H   0  0  0  0  0  0
  -26.7241  -32.5375   23.1057 H   0  0  0  0  0  0
  -25.0086  -33.9658   25.0378 H   0  0  0  0  0  0
  -22.7369  -31.2976   21.3894 H   0  0  0  0  0  0
  -23.3747  -35.9607   23.3301 H   0  0  0  0  0  0
  -24.3574  -36.8889   22.2054 H   0  0  0  0  0  0
  -23.7247  -37.6471   23.6666 H   0  0  0  0  0  0
  -26.1379  -31.5074   20.6140 H   0  0  0  0  0  0
  -26.8625  -30.7980   22.0233 H   0  0  0  0  0  0
  -28.1234  -28.8551   21.2544 H   0  0  0  0  0  0
  -25.9660  -25.8886   18.9885 H   0  0  0  0  0  0
  -23.9838  -27.3209   18.9682 H   0  0  0  0  0  0
  -23.7874  -30.5853   19.3990 H   0  0  0  0  0  0
  -22.7790  -29.2448   19.8464 H   0  0  0  0  0  0
  -25.1308  -36.1891   25.0819 H   0  0  0  0  0  0
  -21.0028  -28.3299   24.1365 H   0  0  0  0  0  0
  -20.5687  -26.2324   23.3615 H   0  0  0  0  0  0
  -21.6654  -26.7441   22.1201 H   0  0  0  0  0  0
  -19.6909  -25.6298   21.1252 H   0  0  0  0  0  0
  -19.6690  -27.3194   20.6737 H   0  0  0  0  0  0
  -17.4211  -26.6690   21.4028 H   0  0  0  0  0  0
  -18.0342  -26.0079   22.9026 H   0  0  0  0  0  0
  -19.7946  -30.7304   24.2250 H   0  0  0  0  0  0
  -17.5016  -31.6273   24.5173 H   0  0  0  0  0  0
  -15.5358  -30.2990   23.7661 H   0  0  0  0  0  0
  -15.8685  -28.0820   22.7084 H   0  0  0  0  0  0
  -24.5900  -30.7089   25.7756 H   0  0  0  0  0  0
  -24.8902  -32.2921   26.4824 H   0  0  0  0  0  0
  -25.8019  -30.8944   27.0226 H   0  0  0  0  0  0
  -26.2971  -29.6716   24.1250 H   0  0  0  0  0  0
  -27.4004  -29.7260   25.4798 H   0  0  0  0  0  0
  -27.8873  -30.4233   23.9533 H   0  0  0  0  0  0
  -27.2667  -33.3644   26.2042 H   0  0  0  0  0  0
  -28.3892  -32.6865   25.0344 H   0  0  0  0  0  0
  -28.0699  -31.8469   26.5445 H   0  0  0  0  0  0
  -28.2611  -38.0088   24.7509 H   0  0  0  0  0  0
  -28.1064  -36.2618   24.6307 H   0  0  0  0  0  0
  -27.2291  -37.1462   25.8872 H   0  0  0  0  0  0
  -20.9424  -29.8765   21.6817 H   0  0  0  0  0  0
  -26.0157  -38.2830   24.1400 H   0  0  0  0  0  0
  -33.1422  -19.3742   20.2368 H   0  0  0  0  0  0
  -31.5993  -21.2499   20.2802 H   0  0  0  0  0  0
  -32.4233  -17.0862   20.3970 H   0  0  0  0  0  0
  -26.9628  -25.2668   21.5091 H   0  0  0  0  0  0
  -27.9658  -21.0494   20.8619 H   0  0  0  0  0  0
  -28.9021  -15.8744   20.7680 H   0  0  0  0  0  0
  -27.7188  -22.1840   22.0913 H   0  0  0  0  0  0
  1 25  1  0  0  0
  1 30  2  0  0  0
  1 81  1  0  0  0
  2  3  1  0  0  0
  2 25  1  0  0  0
  2 85  1  0  0  0
  2 86  1  0  0  0
  3  4  1  0  0  0
  3 87  1  0  0  0
  3 88  1  0  0  0
  4  5  1  0  0  0
  4 89  1  0  0  0
  4 90  1  0  0  0
  5  6  1  0  0  0
  5 26  1  0  0  0
  5 91  1  0  0  0
  6 25  1  0  0  0
  6 92  1  0  0  0
  6 93  1  0  0  0
  7  8  2  0  0  0
  7 26  1  0  0  0
  7 29  1  0  0  0
  8  9  1  0  0  0
  8 22  1  0  0  0
  9 10  1  0  0  0
  9 27  2  0  0  0
 10 11  2  0  0  0
 10 15  1  0  0  0
 11 12  1  0  0  0
 11 94  1  0  0  0
 12 13  2  0  0  0
 12 95  1  0  0  0
 13 14  1  0  0  0
 13 31  1  0  0  0
 14 15  2  0  0  0
 14 96  1  0  0  0
 15 97  1  0  0  0
 16 17  2  0  0  0
 16 21  1  0  0  0
 16 31  1  0  0  0
 17 18  1  0  0  0
 17 98  1  0  0  0
 18 19  2  0  0  0
 18 99  1  0  0  0
 19 20  1  0  0  0
 19 24  1  0  0  0
 20 21  2  0  0  0
 20100  1  0  0  0
 21 23  1  0  0  0
 22 28  1  0  0  0
 22 32  2  0  0  0
 26 27  1  0  0  0
 28101  1  0  0  0
 28102  1  0  0  0
 29103  1  0  0  0
 29104  1  0  0  0
 33 34  1  0  0  0
 33 66  1  0  0  0
 33 70  2  0  0  0
 34 36  1  0  0  0
 34 59  1  0  0  0
 34105  1  0  0  0
 35 44  2  0  0  0
 35 45  1  0  0  0
 35 68  1  0  0  0
 36 56  1  0  0  0
 36106  1  0  0  0
 37 39  1  0  0  0
 37 47  1  0  0  0
 37 66  1  0  0  0
 37107  1  0  0  0
 38 43  2  0  0  0
 38 46  1  0  0  0
 38 47  1  0  0  0
 39 64  1  0  0  0
 39 67  2  0  0  0
 40 52  1  0  0  0
 40 53  2  0  0  0
 40 58  1  0  0  0
 41108  1  0  0  0
 41109  1  0  0  0
 41110  1  0  0  0
 41 48  1  0  0  0
 42 43  1  0  0  0
 42 66  1  0  0  0
 42111  1  0  0  0
 42112  1  0  0  0
 43 44  1  0  0  0
 44113  1  0  0  0
 45 46  2  0  0  0
 45114  1  0  0  0
 46115  1  0  0  0
 47116  1  0  0  0
 47117  1  0  0  0
 48 56  1  0  0  0
 48 65  1  0  0  0
 48118  1  0  0  0
 49 50  1  0  0  0
 49 53  1  0  0  0
 49 64  1  0  0  0
 49119  1  0  0  0
 50 51  1  0  0  0
 50120  1  0  0  0
 50121  1  0  0  0
 51 52  1  0  0  0
 51122  1  0  0  0
 51123  1  0  0  0
 52124  1  0  0  0
 52125  1  0  0  0
 53 54  1  0  0  0
 54 55  2  0  0  0
 54126  1  0  0  0
 55 57  1  0  0  0
 55127  1  0  0  0
 56 69  2  0  0  0
 57 58  2  0  0  0
 57128  1  0  0  0
 58129  1  0  0  0
 59 60  1  0  0  0
 59 61  1  0  0  0
 59 62  1  0  0  0
 60130  1  0  0  0
 60131  1  0  0  0
 60132  1  0  0  0
 61133  1  0  0  0
 61134  1  0  0  0
 61135  1  0  0  0
 62136  1  0  0  0
 62137  1  0  0  0
 62138  1  0  0  0
 63 65  1  0  0  0
 63139  1  0  0  0
 63140  1  0  0  0
 63141  1  0  0  0
 64142  1  0  0  0
 65143  1  0  0  0
 68 77  1  0  0  0
 71 72  2  0  0  0
 71 73  1  0  0  0
 71144  1  0  0  0
 72 74  1  0  0  0
 72145  1  0  0  0
 73 75  2  0  0  0
 73146  1  0  0  0
 74 76  2  0  0  0
 74 80  1  0  0  0
 75 76  1  0  0  0
 75 81  1  0  0  0
 76 84  1  0  0  0
 77 78  2  0  0  0
 77147  1  0  0  0
 78 79  1  0  0  0
 78 83  1  0  0  0
 79 80  1  0  0  0
 79 82  2  0  0  0
 80148  1  0  0  0
 81149  1  0  0  0
 83150  1  0  0  0
M  ISO  4   1 100  68 101  77 101  81 100
M  END
> <chiral flag>
0

> <version>
0

> <s_m_source_file>
/data/baiqing/PycharmProjects/Reinvent-master-3.2/result/LINK_invent/BTK/process_docking_weight1_custom_product_contain_oxygen_bond_distance_aromatic_linkinvent_7_9_3/rearranged_h_0088.sdf

> <i_m_source_file_index>
54

> <r_mmod_Potential_Energy-OPLS-2005>
288.502716064453

> <r_mmod_Stretch_Energy-OPLS-2005>
170.659576416016

> <r_mmod_Bend_Energy-OPLS-2005>
247.348831176758

> <r_mmod_Torsional_Energy-OPLS-2005>
235.529296875

> <r_mmod_Improper_Torsional_Energy-OPLS-2005>
5.15752077102661

> <r_mmod_Van_der_Waal_Energy-OPLS-2005>
151.780578613281

> <r_mmod_Electrostatic_Energy-OPLS-2005>
-425.03857421875

> <r_mmod_Solvation_Energy-OPLS-2005>
-231.537994384766

> <b_mmod_Minimization_Converged-OPLS-2005>
0

> <r_mmod_RMS_Derivative-OPLS-2005>
1.05966591835022

$$$$
54
                    3D
 Structure written by MMmdl.
154163  0  0  1  0            999 V2000
  -30.4814  -15.1411   20.4329 C   0  0  0  0  0  0
  -30.4441  -12.7277   19.5186 C   0  0  0  0  0  0
  -29.5333  -12.5689   18.2742 C   0  0  0  0  0  0
  -28.0718  -12.3168   18.6890 C   0  0  0  0  0  0
  -27.6238  -13.2607   19.8323 C   0  0  2  0  0  0
  -28.6598  -13.3267   20.9696 C   0  0  0  0  0  0
  -25.2458  -13.8233   20.5728 C   0  0  0  0  0  0
  -24.1790  -13.0439   20.9218 C   0  0  0  0  0  0
  -24.6417  -11.6930   20.8750 C   0  0  0  0  0  0
  -23.9111  -10.4295   21.0411 C   0  0  0  0  0  0
  -24.3655   -9.4204   21.9187 C   0  0  0  0  0  0
  -23.6305   -8.2253   22.0766 C   0  0  0  0  0  0
  -22.4288   -8.0300   21.3552 C   0  0  0  0  0  0
  -21.9933   -9.0282   20.4660 C   0  0  0  0  0  0
  -22.7283  -10.2145   20.3059 C   0  0  0  0  0  0
  -21.6853   -6.0745   22.5283 C   0  0  0  0  0  0
  -21.4013   -6.5646   23.8214 C   0  0  0  0  0  0
  -21.3652   -5.6797   24.9171 C   0  0  0  0  0  0
  -21.6041   -4.3062   24.7221 C   0  0  0  0  0  0
  -21.8814   -3.8155   23.4346 C   0  0  0  0  0  0
  -21.9191   -4.6972   22.3402 C   0  0  0  0  0  0
  -22.7810  -13.5207   21.1871 C   0  0  0  0  0  0
  -22.1658   -4.2164   21.0976 F   0  0  0  0  0  0
  -21.5626   -3.4538   25.7728 F   0  0  0  0  0  0
  -29.9082  -13.8432   20.3798 N   0  0  0  0  0  0
  -26.2867  -12.9473   20.3209 N   0  0  0  0  0  0
  -25.9347  -11.6592   20.5720 N   0  0  0  0  0  0
  -22.0462  -12.8197   22.0432 N   0  0  0  0  0  0
  -25.4116  -15.1966   20.4212 N   0  0  0  0  0  0
  -31.6708  -15.1661   20.0806 O   0  0  0  0  0  0
  -21.6644   -6.8903   21.4248 O   0  0  0  0  0  0
  -22.3482  -14.5502   20.6712 O   0  0  0  0  0  0
  -24.6516  -31.8296   23.1810 C   0  0  0  0  0  0
  -25.9251  -32.4607   23.8215 C   0  0  1  0  0  0
  -27.2105  -27.0117   20.1823 C   0  0  0  0  0  0
  -25.5968  -33.8420   24.2116 N   0  0  0  0  0  0
  -23.4612  -30.4490   21.5205 C   0  0  2  0  0  0
  -24.9132  -28.8454   20.1163 C   0  0  0  0  0  0
  -22.7592  -29.4506   22.4774 C   0  0  0  0  0  0
  -18.0314  -28.1412   22.8466 C   0  0  0  0  0  0
  -24.1477  -36.7190   23.2652 C   0  0  0  0  0  0
  -26.0244  -30.6637   21.4018 C   0  0  0  0  0  0
  -26.0905  -29.2587   20.7521 C   0  0  0  0  0  0
  -27.2345  -28.3595   20.7669 C   0  0  0  0  0  0
  -26.0074  -26.7247   19.5036 C   0  0  0  0  0  0
  -24.8899  -27.5960   19.4773 C   0  0  0  0  0  0
  -23.6981  -29.7646   20.1461 C   0  0  0  0  0  0
  -25.4116  -36.2965   24.0318 C   0  0  1  0  0  0
  -20.5923  -28.3751   23.1186 C   0  0  2  0  0  0
  -20.6782  -26.9439   22.5393 C   0  0  0  0  0  0
  -19.5761  -26.6376   21.5200 C   0  0  0  0  0  0
  -18.1940  -26.7952   22.1607 C   0  0  0  0  0  0
  -19.1573  -28.8902   23.2811 C   0  0  0  0  0  0
  -18.9501  -30.1489   23.8853 C   0  0  0  0  0  0
  -17.6498  -30.6602   24.0563 C   0  0  0  0  0  0
  -25.9078  -34.9357   23.5030 C   0  0  0  0  0  0
  -16.5383  -29.9096   23.6348 C   0  0  0  0  0  0
  -16.7294  -28.6513   23.0366 C   0  0  0  0  0  0
  -26.4561  -31.6549   25.0716 C   0  0  0  0  0  0
  -25.3735  -31.3784   26.1407 C   0  0  0  0  0  0
  -27.0481  -30.2935   24.6431 C   0  0  0  0  0  0
  -27.6049  -32.4379   25.7497 C   0  0  0  0  0  0
  -27.5549  -37.1729   24.8455 C   0  0  0  0  0  0
  -21.4269  -29.3061   22.3530 N   0  0  0  0  0  0
  -26.4236  -37.3715   23.9441 N   0  0  0  0  0  0
  -24.7318  -31.0072   22.0877 N   0  0  0  0  0  0
  -23.4196  -28.8029   23.2940 O   0  0  0  0  0  0
  -28.2632  -25.9888   20.1885 O   0  0  0  0  0  0
  -26.5643  -34.8891   22.4596 O   0  0  0  0  0  0
  -23.5609  -32.1213   23.6987 O   0  0  0  0  0  0
  -30.4590  -18.0152   18.8948 C   0  0  0  0  0  0
  -30.5258  -19.2559   18.2180 C   0  0  0  0  0  0
  -29.2035  -19.1934   20.6051 C   0  0  0  0  0  0
  -27.1453  -23.6800   20.9085 C   0  0  0  0  0  0
  -29.2644  -20.5622   19.9308 C   0  0  0  0  0  0
  -29.7971  -17.8636   20.1286 C   0  0  0  0  0  0
  -28.1717  -24.4834   20.3012 C   0  0  0  0  0  0
  -29.9588  -20.4614   18.6977 C   0  0  0  0  0  0
  -27.4432  -22.3133   20.8801 C   0  0  0  0  0  0
  -29.0647  -23.4083   19.9396 C   0  0  0  0  0  0
  -29.0660  -16.3824   22.0252 C   0  0  0  0  0  0
  -28.6633  -22.0020   20.2537 N   0  0  0  0  0  0
  -29.7594  -16.3948   20.7370 N   0  0  0  0  0  0
  -26.6602  -21.3121   21.3727 O   0  0  0  0  0  0
  -30.2699  -23.6079   19.3353 O   0  0  0  0  0  0
  -30.0702  -21.5456   17.8943 F   0  0  0  0  0  0
  -31.4691  -12.9144   19.1943 H   0  0  0  0  0  0
  -30.4922  -11.7941   20.0808 H   0  0  0  0  0  0
  -29.8909  -11.7513   17.6464 H   0  0  0  0  0  0
  -29.5918  -13.4733   17.6646 H   0  0  0  0  0  0
  -27.9973  -11.2806   19.0201 H   0  0  0  0  0  0
  -27.4087  -12.4114   17.8282 H   0  0  0  0  0  0
  -27.5718  -14.2567   19.3894 H   0  0  0  0  0  0
  -28.8090  -12.3450   21.4190 H   0  0  0  0  0  0
  -28.2880  -13.9546   21.7720 H   0  0  0  0  0  0
  -25.2805   -9.5664   22.4763 H   0  0  0  0  0  0
  -24.0005   -7.4641   22.7491 H   0  0  0  0  0  0
  -21.0857   -8.8818   19.8971 H   0  0  0  0  0  0
  -22.3758  -10.9688   19.6170 H   0  0  0  0  0  0
  -21.2002   -7.6153   23.9720 H   0  0  0  0  0  0
  -21.1471   -6.0522   25.9072 H   0  0  0  0  0  0
  -22.0593   -2.7618   23.2832 H   0  0  0  0  0  0
  -22.4093  -11.9863   22.4816 H   0  0  0  0  0  0
  -21.1079  -13.1223   22.2666 H   0  0  0  0  0  0
  -24.6448  -15.8473   20.5483 H   0  0  0  0  0  0
  -26.2645  -15.6438   20.1120 H   0  0  0  0  0  0
  -26.7289  -32.5166   23.0898 H   0  0  0  0  0  0
  -25.0171  -33.9499   25.0308 H   0  0  0  0  0  0
  -22.7715  -31.2793   21.3534 H   0  0  0  0  0  0
  -23.3760  -35.9492   23.3264 H   0  0  0  0  0  0
  -24.3569  -36.8876   22.2074 H   0  0  0  0  0  0
  -23.7210  -37.6362   23.6732 H   0  0  0  0  0  0
  -26.1985  -31.4063   20.6220 H   0  0  0  0  0  0
  -26.8876  -30.7163   22.0529 H   0  0  0  0  0  0
  -28.1301  -28.6746   21.2832 H   0  0  0  0  0  0
  -25.9114  -25.7688   19.0098 H   0  0  0  0  0  0
  -23.9922  -27.2772   18.9668 H   0  0  0  0  0  0
  -23.8566  -30.5305   19.3852 H   0  0  0  0  0  0
  -22.8109  -29.2153   19.8262 H   0  0  0  0  0  0
  -25.1315  -36.1735   25.0805 H   0  0  0  0  0  0
  -21.0031  -28.3360   24.1298 H   0  0  0  0  0  0
  -20.5646  -26.2368   23.3626 H   0  0  0  0  0  0
  -21.6643  -26.7396   22.1215 H   0  0  0  0  0  0
  -19.6918  -25.6275   21.1254 H   0  0  0  0  0  0
  -19.6710  -27.3159   20.6713 H   0  0  0  0  0  0
  -17.4204  -26.6685   21.4010 H   0  0  0  0  0  0
  -18.0352  -26.0104   22.9012 H   0  0  0  0  0  0
  -19.7981  -30.7301   24.2186 H   0  0  0  0  0  0
  -17.5069  -31.6284   24.5166 H   0  0  0  0  0  0
  -15.5391  -30.2993   23.7724 H   0  0  0  0  0  0
  -15.8677  -28.0823   22.7122 H   0  0  0  0  0  0
  -24.5909  -30.7129   25.7735 H   0  0  0  0  0  0
  -24.8942  -32.2994   26.4742 H   0  0  0  0  0  0
  -25.8026  -30.9012   27.0226 H   0  0  0  0  0  0
  -26.3164  -29.6587   24.1427 H   0  0  0  0  0  0
  -27.4018  -29.7322   25.5086 H   0  0  0  0  0  0
  -27.9093  -30.4131   23.9858 H   0  0  0  0  0  0
  -27.2603  -33.3718   26.1949 H   0  0  0  0  0  0
  -28.3927  -32.6880   25.0377 H   0  0  0  0  0  0
  -28.0654  -31.8600   26.5514 H   0  0  0  0  0  0
  -28.2513  -38.0072   24.7565 H   0  0  0  0  0  0
  -28.1087  -36.2604   24.6195 H   0  0  0  0  0  0
  -27.2268  -37.1275   25.8852 H   0  0  0  0  0  0
  -20.9488  -29.8755   21.6684 H   0  0  0  0  0  0
  -26.0066  -38.2738   24.1551 H   0  0  0  0  0  0
  -30.9144  -17.1608   18.4171 H   0  0  0  0  0  0
  -31.0240  -19.2865   17.2613 H   0  0  0  0  0  0
  -28.6611  -19.1648   21.5374 H   0  0  0  0  0  0
  -26.2442  -24.0805   21.3525 H   0  0  0  0  0  0
  -27.9891  -16.2982   21.8761 H   0  0  0  0  0  0
  -29.2595  -17.3022   22.5757 H   0  0  0  0  0  0
  -29.4025  -15.5852   22.6888 H   0  0  0  0  0  0
  -27.0798  -20.4804   21.1867 H   0  0  0  0  0  0
  -30.4226  -22.8602   18.7566 H   0  0  0  0  0  0
  1 25  1  0  0  0
  1 30  2  0  0  0
  1 83  1  0  0  0
  2  3  1  0  0  0
  2 25  1  0  0  0
  2 87  1  0  0  0
  2 88  1  0  0  0
  3  4  1  0  0  0
  3 89  1  0  0  0
  3 90  1  0  0  0
  4  5  1  0  0  0
  4 91  1  0  0  0
  4 92  1  0  0  0
  5  6  1  0  0  0
  5 26  1  0  0  0
  5 93  1  0  0  0
  6 25  1  0  0  0
  6 94  1  0  0  0
  6 95  1  0  0  0
  7  8  2  0  0  0
  7 26  1  0  0  0
  7 29  1  0  0  0
  8  9  1  0  0  0
  8 22  1  0  0  0
  9 10  1  0  0  0
  9 27  2  0  0  0
 10 11  2  0  0  0
 10 15  1  0  0  0
 11 12  1  0  0  0
 11 96  1  0  0  0
 12 13  2  0  0  0
 12 97  1  0  0  0
 13 14  1  0  0  0
 13 31  1  0  0  0
 14 15  2  0  0  0
 14 98  1  0  0  0
 15 99  1  0  0  0
 16 17  2  0  0  0
 16 21  1  0  0  0
 16 31  1  0  0  0
 17 18  1  0  0  0
 17100  1  0  0  0
 18 19  2  0  0  0
 18101  1  0  0  0
 19 20  1  0  0  0
 19 24  1  0  0  0
 20 21  2  0  0  0
 20102  1  0  0  0
 21 23  1  0  0  0
 22 28  1  0  0  0
 22 32  2  0  0  0
 26 27  1  0  0  0
 28103  1  0  0  0
 28104  1  0  0  0
 29105  1  0  0  0
 29106  1  0  0  0
 33 34  1  0  0  0
 33 66  1  0  0  0
 33 70  2  0  0  0
 34 36  1  0  0  0
 34 59  1  0  0  0
 34107  1  0  0  0
 35 44  2  0  0  0
 35 45  1  0  0  0
 35 68  1  0  0  0
 36 56  1  0  0  0
 36108  1  0  0  0
 37 39  1  0  0  0
 37 47  1  0  0  0
 37 66  1  0  0  0
 37109  1  0  0  0
 38 43  2  0  0  0
 38 46  1  0  0  0
 38 47  1  0  0  0
 39 64  1  0  0  0
 39 67  2  0  0  0
 40 52  1  0  0  0
 40 53  2  0  0  0
 40 58  1  0  0  0
 41110  1  0  0  0
 41111  1  0  0  0
 41112  1  0  0  0
 41 48  1  0  0  0
 42 43  1  0  0  0
 42 66  1  0  0  0
 42113  1  0  0  0
 42114  1  0  0  0
 43 44  1  0  0  0
 44115  1  0  0  0
 45 46  2  0  0  0
 45116  1  0  0  0
 46117  1  0  0  0
 47118  1  0  0  0
 47119  1  0  0  0
 48 56  1  0  0  0
 48 65  1  0  0  0
 48120  1  0  0  0
 49 50  1  0  0  0
 49 53  1  0  0  0
 49 64  1  0  0  0
 49121  1  0  0  0
 50 51  1  0  0  0
 50122  1  0  0  0
 50123  1  0  0  0
 51 52  1  0  0  0
 51124  1  0  0  0
 51125  1  0  0  0
 52126  1  0  0  0
 52127  1  0  0  0
 53 54  1  0  0  0
 54 55  2  0  0  0
 54128  1  0  0  0
 55 57  1  0  0  0
 55129  1  0  0  0
 56 69  2  0  0  0
 57 58  2  0  0  0
 57130  1  0  0  0
 58131  1  0  0  0
 59 60  1  0  0  0
 59 61  1  0  0  0
 59 62  1  0  0  0
 60132  1  0  0  0
 60133  1  0  0  0
 60134  1  0  0  0
 61135  1  0  0  0
 61136  1  0  0  0
 61137  1  0  0  0
 62138  1  0  0  0
 62139  1  0  0  0
 62140  1  0  0  0
 63 65  1  0  0  0
 63141  1  0  0  0
 63142  1  0  0  0
 63143  1  0  0  0
 64144  1  0  0  0
 65145  1  0  0  0
 68 77  1  0  0  0
 71 72  2  0  0  0
 71 76  1  0  0  0
 71146  1  0  0  0
 72 78  1  0  0  0
 72147  1  0  0  0
 73 75  1  0  0  0
 73 76  2  0  0  0
 73148  1  0  0  0
 74 77  1  0  0  0
 74 79  2  0  0  0
 74149  1  0  0  0
 75 78  2  0  0  0
 75 82  1  0  0  0
 76 83  1  0  0  0
 77 80  2  0  0  0
 78 86  1  0  0  0
 79 82  1  0  0  0
 79 84  1  0  0  0
 80 82  1  0  0  0
 80 85  1  0  0  0
 81 83  1  0  0  0
 81150  1  0  0  0
 81151  1  0  0  0
 81152  1  0  0  0
 84153  1  0  0  0
 85154  1  0  0  0
M  ISO  4   1 100  68 101  77 101  83 100
M  END
> <chiral flag>
0

> <version>
0

> <s_m_source_file>
/data/baiqing/PycharmProjects/Reinvent-master-3.2/result/LINK_invent/BTK/process_docking_weight1_custom_product_contain_oxygen_bond_distance_aromatic_linkinvent_7_9_3/rearranged_h_0088.sdf

> <i_m_source_file_index>
55

> <r_mmod_Potential_Energy-OPLS-2005>
931.405517578125

> <r_mmod_Stretch_Energy-OPLS-2005>
391.362548828125

> <r_mmod_Bend_Energy-OPLS-2005>
310.935241699219

> <r_mmod_Torsional_Energy-OPLS-2005>
273.973663330078

> <r_mmod_Improper_Torsional_Energy-OPLS-2005>
3.65699887275696

> <r_mmod_Van_der_Waal_Energy-OPLS-2005>
135.023315429688

> <r_mmod_Electrostatic_Energy-OPLS-2005>
-276.213989257812

> <r_mmod_Solvation_Energy-OPLS-2005>
-229.707946777344

> <b_mmod_Minimization_Converged-OPLS-2005>
0

> <r_mmod_RMS_Derivative-OPLS-2005>
2.94452905654907

$$$$
55
                    3D
 Structure written by MMmdl.
153161  0  0  1  0            999 V2000
  -30.5249  -14.8257   20.4642 C   0  0  0  0  0  0
  -30.4311  -12.5112   19.4733 C   0  0  0  0  0  0
  -29.4982  -12.5683   18.2383 C   0  0  0  0  0  0
  -28.0134  -12.4194   18.6303 C   0  0  0  0  0  0
  -27.6355  -13.2604   19.8748 C   0  0  2  0  0  0
  -28.6825  -13.1221   21.0007 C   0  0  0  0  0  0
  -25.2449  -13.8340   20.5839 C   0  0  0  0  0  0
  -24.1731  -13.0477   20.9235 C   0  0  0  0  0  0
  -24.6380  -11.6985   20.8788 C   0  0  0  0  0  0
  -23.9095  -10.4317   21.0444 C   0  0  0  0  0  0
  -24.3638   -9.4184   21.9199 C   0  0  0  0  0  0
  -23.6286   -8.2241   22.0762 C   0  0  0  0  0  0
  -22.4258   -8.0327   21.3558 C   0  0  0  0  0  0
  -21.9925   -9.0303   20.4661 C   0  0  0  0  0  0
  -22.7288  -10.2168   20.3047 C   0  0  0  0  0  0
  -21.6844   -6.0730   22.5280 C   0  0  0  0  0  0
  -21.4003   -6.5621   23.8205 C   0  0  0  0  0  0
  -21.3651   -5.6795   24.9167 C   0  0  0  0  0  0
  -21.6017   -4.3049   24.7237 C   0  0  0  0  0  0
  -21.8811   -3.8131   23.4365 C   0  0  0  0  0  0
  -21.9167   -4.6958   22.3399 C   0  0  0  0  0  0
  -22.7719  -13.5254   21.1873 C   0  0  0  0  0  0
  -22.1629   -4.2143   21.0987 F   0  0  0  0  0  0
  -21.5634   -3.4534   25.7747 F   0  0  0  0  0  0
  -29.9704  -13.5518   20.4370 N   0  0  0  0  0  0
  -26.2880  -12.9545   20.3404 N   0  0  0  0  0  0
  -25.9317  -11.6655   20.5799 N   0  0  0  0  0  0
  -22.0347  -12.8269   22.0467 N   0  0  0  0  0  0
  -25.4274  -15.2038   20.4376 N   0  0  0  0  0  0
  -31.6887  -14.9734   20.0792 O   0  0  0  0  0  0
  -21.6585   -6.8918   21.4265 O   0  0  0  0  0  0
  -22.3401  -14.5499   20.6657 O   0  0  0  0  0  0
  -24.6397  -31.8519   23.1954 C   0  0  0  0  0  0
  -25.9201  -32.4715   23.8344 C   0  0  1  0  0  0
  -27.2146  -27.1857   20.1386 C   0  0  0  0  0  0
  -25.5964  -33.8521   24.2259 N   0  0  0  0  0  0
  -23.4385  -30.4785   21.5333 C   0  0  2  0  0  0
  -24.8952  -28.9074   20.1193 C   0  0  0  0  0  0
  -22.7467  -29.4698   22.4835 C   0  0  0  0  0  0
  -18.0228  -28.1274   22.8470 C   0  0  0  0  0  0
  -24.1474  -36.7263   23.2640 C   0  0  0  0  0  0
  -25.9962  -30.7311   21.4001 C   0  0  0  0  0  0
  -26.0676  -29.3474   20.7390 C   0  0  0  0  0  0
  -27.2372  -28.5044   20.7315 C   0  0  0  0  0  0
  -26.0140  -26.8210   19.4978 C   0  0  0  0  0  0
  -24.8766  -27.6561   19.4875 C   0  0  0  0  0  0
  -23.6659  -29.7994   20.1570 C   0  0  0  0  0  0
  -25.4109  -36.3067   24.0327 C   0  0  1  0  0  0
  -20.5811  -28.3857   23.1166 C   0  0  2  0  0  0
  -20.6754  -26.9537   22.5265 C   0  0  0  0  0  0
  -19.5730  -26.6353   21.5082 C   0  0  0  0  0  0
  -18.1911  -26.7825   22.1597 C   0  0  0  0  0  0
  -19.1401  -28.8886   23.2826 C   0  0  0  0  0  0
  -18.9133  -30.1455   23.8894 C   0  0  0  0  0  0
  -17.6054  -30.6471   24.0470 C   0  0  0  0  0  0
  -25.9076  -34.9423   23.5103 C   0  0  0  0  0  0
  -16.5039  -29.8880   23.6120 C   0  0  0  0  0  0
  -16.7139  -28.6282   23.0222 C   0  0  0  0  0  0
  -26.4480  -31.6600   25.0802 C   0  0  0  0  0  0
  -25.3663  -31.3753   26.1498 C   0  0  0  0  0  0
  -27.0382  -30.3010   24.6428 C   0  0  0  0  0  0
  -27.6016  -32.4419   25.7535 C   0  0  0  0  0  0
  -27.5574  -37.1788   24.8462 C   0  0  0  0  0  0
  -21.4181  -29.3156   22.3518 N   0  0  0  0  0  0
  -26.4297  -37.3782   23.9404 N   0  0  0  0  0  0
  -24.7076  -31.0437   22.0951 N   0  0  0  0  0  0
  -23.4110  -28.8290   23.3025 O   0  0  0  0  0  0
  -28.2547  -26.2102   20.0840 O   0  0  0  0  0  0
  -26.5642  -34.8923   22.4670 O   0  0  0  0  0  0
  -23.5563  -32.1362   23.7264 O   0  0  0  0  0  0
  -29.4968  -18.5954   20.8311 C   0  0  0  0  0  0
  -28.8727  -17.2365   18.9207 C   0  0  0  0  0  0
  -29.0080  -19.8534   20.2269 C   0  0  0  0  0  0
  -29.4652  -17.2660   20.2002 C   0  0  0  0  0  0
  -28.2750  -18.3913   18.3508 C   0  0  0  0  0  0
  -28.3808  -19.6742   18.9606 C   0  0  0  0  0  0
  -28.4994  -23.7611   21.1615 C   0  0  0  0  0  0
  -28.2976  -25.1603   21.0524 C   0  0  0  0  0  0
  -29.0354  -21.2634   20.9668 C   0  0  0  0  0  0
  -27.4367  -18.2838   17.2279 N   0  0  0  0  0  0
  -27.7494  -20.7141   18.2727 N   0  0  0  0  0  0
  -29.7366  -15.9280   20.8482 N   0  0  0  0  0  0
  -28.7371  -22.5232   20.3854 N   0  0  0  0  0  0
  -29.3379  -21.2286   22.1673 O   0  0  0  0  0  0
  -31.4614  -12.6883   19.1652 H   0  0  0  0  0  0
  -30.4243  -11.5115   19.9111 H   0  0  0  0  0  0
  -29.7606  -11.7876   17.5193 H   0  0  0  0  0  0
  -29.6544  -13.5176   17.7183 H   0  0  0  0  0  0
  -27.8202  -11.3631   18.8275 H   0  0  0  0  0  0
  -27.3763  -12.7057   17.7958 H   0  0  0  0  0  0
  -27.6341  -14.2981   19.5419 H   0  0  0  0  0  0
  -28.7213  -12.0781   21.3130 H   0  0  0  0  0  0
  -28.4111  -13.6926   21.8895 H   0  0  0  0  0  0
  -25.2794   -9.5560   22.4801 H   0  0  0  0  0  0
  -23.9916   -7.4567   22.7476 H   0  0  0  0  0  0
  -21.0822   -8.8856   19.8987 H   0  0  0  0  0  0
  -22.3784  -10.9695   19.6130 H   0  0  0  0  0  0
  -21.2012   -7.6143   23.9720 H   0  0  0  0  0  0
  -21.1468   -6.0521   25.9081 H   0  0  0  0  0  0
  -22.0606   -2.7619   23.2855 H   0  0  0  0  0  0
  -22.3854  -11.9976   22.4980 H   0  0  0  0  0  0
  -21.0938  -13.1301   22.2528 H   0  0  0  0  0  0
  -24.6995  -15.8923   20.6009 H   0  0  0  0  0  0
  -26.3088  -15.6315   20.1877 H   0  0  0  0  0  0
  -26.7290  -32.5335   23.1123 H   0  0  0  0  0  0
  -25.0093  -33.9633   25.0398 H   0  0  0  0  0  0
  -22.7403  -31.3034   21.3809 H   0  0  0  0  0  0
  -23.3797  -35.9553   23.3324 H   0  0  0  0  0  0
  -24.3599  -36.8887   22.2063 H   0  0  0  0  0  0
  -23.7181  -37.6430   23.6685 H   0  0  0  0  0  0
  -26.1661  -31.4991   20.6442 H   0  0  0  0  0  0
  -26.8643  -30.7710   22.0470 H   0  0  0  0  0  0
  -28.1433  -28.8482   21.2111 H   0  0  0  0  0  0
  -25.9526  -25.8494   19.0271 H   0  0  0  0  0  0
  -23.9759  -27.3204   18.9921 H   0  0  0  0  0  0
  -23.7919  -30.5667   19.3934 H   0  0  0  0  0  0
  -22.7827  -29.2342   19.8508 H   0  0  0  0  0  0
  -25.1288  -36.1912   25.0834 H   0  0  0  0  0  0
  -20.9844  -28.3447   24.1357 H   0  0  0  0  0  0
  -20.5646  -26.2383   23.3444 H   0  0  0  0  0  0
  -21.6632  -26.7709   22.1038 H   0  0  0  0  0  0
  -19.7099  -25.6248   21.1130 H   0  0  0  0  0  0
  -19.6414  -27.3045   20.6511 H   0  0  0  0  0  0
  -17.4172  -26.6620   21.4021 H   0  0  0  0  0  0
  -18.0245  -25.9868   22.8889 H   0  0  0  0  0  0
  -19.7519  -30.7345   24.2316 H   0  0  0  0  0  0
  -17.4408  -31.6114   24.5046 H   0  0  0  0  0  0
  -15.4967  -30.2669   23.7208 H   0  0  0  0  0  0
  -15.8639  -28.0454   22.6932 H   0  0  0  0  0  0
  -24.5846  -30.7096   25.7773 H   0  0  0  0  0  0
  -24.8839  -32.2917   26.4919 H   0  0  0  0  0  0
  -25.7965  -30.8893   27.0276 H   0  0  0  0  0  0
  -26.3002  -29.6751   24.1381 H   0  0  0  0  0  0
  -27.3879  -29.7284   25.5023 H   0  0  0  0  0  0
  -27.8976  -30.4236   23.9842 H   0  0  0  0  0  0
  -27.2573  -33.3743   26.2030 H   0  0  0  0  0  0
  -28.3813  -32.6974   25.0340 H   0  0  0  0  0  0
  -28.0720  -31.8649   26.5505 H   0  0  0  0  0  0
  -28.2560  -38.0084   24.7523 H   0  0  0  0  0  0
  -28.1090  -36.2638   24.6300 H   0  0  0  0  0  0
  -27.2300  -37.1421   25.8852 H   0  0  0  0  0  0
  -20.9559  -29.8679   21.6470 H   0  0  0  0  0  0
  -26.0182  -38.2853   24.1474 H   0  0  0  0  0  0
  -29.8811  -18.6539   21.8379 H   0  0  0  0  0  0
  -28.7615  -16.2780   18.4374 H   0  0  0  0  0  0
  -28.4344  -23.4702   22.2004 H   0  0  0  0  0  0
  -28.1668  -25.6448   22.0076 H   0  0  0  0  0  0
  -26.7014  -18.9797   17.2624 H   0  0  0  0  0  0
  -26.9568  -17.4002   17.0778 H   0  0  0  0  0  0
  -26.8458  -20.9127   18.6876 H   0  0  0  0  0  0
  -27.5898  -20.4206   17.3108 H   0  0  0  0  0  0
  -28.9552  -15.6229   21.4097 H   0  0  0  0  0  0
  -28.5112  -22.4912   19.3945 H   0  0  0  0  0  0
  1 25  1  0  0  0
  1 30  2  0  0  0
  1 82  1  0  0  0
  2  3  1  0  0  0
  2 25  1  0  0  0
  2 85  1  0  0  0
  2 86  1  0  0  0
  3  4  1  0  0  0
  3 87  1  0  0  0
  3 88  1  0  0  0
  4  5  1  0  0  0
  4 89  1  0  0  0
  4 90  1  0  0  0
  5  6  1  0  0  0
  5 26  1  0  0  0
  5 91  1  0  0  0
  6 25  1  0  0  0
  6 92  1  0  0  0
  6 93  1  0  0  0
  7  8  2  0  0  0
  7 26  1  0  0  0
  7 29  1  0  0  0
  8  9  1  0  0  0
  8 22  1  0  0  0
  9 10  1  0  0  0
  9 27  2  0  0  0
 10 11  2  0  0  0
 10 15  1  0  0  0
 11 12  1  0  0  0
 11 94  1  0  0  0
 12 13  2  0  0  0
 12 95  1  0  0  0
 13 14  1  0  0  0
 13 31  1  0  0  0
 14 15  2  0  0  0
 14 96  1  0  0  0
 15 97  1  0  0  0
 16 17  2  0  0  0
 16 21  1  0  0  0
 16 31  1  0  0  0
 17 18  1  0  0  0
 17 98  1  0  0  0
 18 19  2  0  0  0
 18 99  1  0  0  0
 19 20  1  0  0  0
 19 24  1  0  0  0
 20 21  2  0  0  0
 20100  1  0  0  0
 21 23  1  0  0  0
 22 28  1  0  0  0
 22 32  2  0  0  0
 26 27  1  0  0  0
 28101  1  0  0  0
 28102  1  0  0  0
 29103  1  0  0  0
 29104  1  0  0  0
 33 34  1  0  0  0
 33 66  1  0  0  0
 33 70  2  0  0  0
 34 36  1  0  0  0
 34 59  1  0  0  0
 34105  1  0  0  0
 35 44  2  0  0  0
 35 45  1  0  0  0
 35 68  1  0  0  0
 36 56  1  0  0  0
 36106  1  0  0  0
 37 39  1  0  0  0
 37 47  1  0  0  0
 37 66  1  0  0  0
 37107  1  0  0  0
 38 43  2  0  0  0
 38 46  1  0  0  0
 38 47  1  0  0  0
 39 64  1  0  0  0
 39 67  2  0  0  0
 40 52  1  0  0  0
 40 53  2  0  0  0
 40 58  1  0  0  0
 41108  1  0  0  0
 41109  1  0  0  0
 41110  1  0  0  0
 41 48  1  0  0  0
 42 43  1  0  0  0
 42 66  1  0  0  0
 42111  1  0  0  0
 42112  1  0  0  0
 43 44  1  0  0  0
 44113  1  0  0  0
 45 46  2  0  0  0
 45114  1  0  0  0
 46115  1  0  0  0
 47116  1  0  0  0
 47117  1  0  0  0
 48 56  1  0  0  0
 48 65  1  0  0  0
 48118  1  0  0  0
 49 50  1  0  0  0
 49 53  1  0  0  0
 49 64  1  0  0  0
 49119  1  0  0  0
 50 51  1  0  0  0
 50120  1  0  0  0
 50121  1  0  0  0
 51 52  1  0  0  0
 51122  1  0  0  0
 51123  1  0  0  0
 52124  1  0  0  0
 52125  1  0  0  0
 53 54  1  0  0  0
 54 55  2  0  0  0
 54126  1  0  0  0
 55 57  1  0  0  0
 55127  1  0  0  0
 56 69  2  0  0  0
 57 58  2  0  0  0
 57128  1  0  0  0
 58129  1  0  0  0
 59 60  1  0  0  0
 59 61  1  0  0  0
 59 62  1  0  0  0
 60130  1  0  0  0
 60131  1  0  0  0
 60132  1  0  0  0
 61133  1  0  0  0
 61134  1  0  0  0
 61135  1  0  0  0
 62136  1  0  0  0
 62137  1  0  0  0
 62138  1  0  0  0
 63 65  1  0  0  0
 63139  1  0  0  0
 63140  1  0  0  0
 63141  1  0  0  0
 64142  1  0  0  0
 65143  1  0  0  0
 68 78  1  0  0  0
 71 73  2  0  0  0
 71 74  1  0  0  0
 71144  1  0  0  0
 72 74  2  0  0  0
 72 75  1  0  0  0
 72145  1  0  0  0
 73 76  1  0  0  0
 73 79  1  0  0  0
 74 82  1  0  0  0
 75 76  2  0  0  0
 75 80  1  0  0  0
 76 81  1  0  0  0
 77 78  2  0  0  0
 77 83  1  0  0  0
 77146  1  0  0  0
 78147  1  0  0  0
 79 83  1  0  0  0
 79 84  2  0  0  0
 80148  1  0  0  0
 80149  1  0  0  0
 81150  1  0  0  0
 81151  1  0  0  0
 82152  1  0  0  0
 83153  1  0  0  0
M  ISO  4   1 100  68 101  78 101  82 100
M  END
> <chiral flag>
0

> <version>
0

> <s_m_source_file>
/data/baiqing/PycharmProjects/Reinvent-master-3.2/result/LINK_invent/BTK/process_docking_weight1_custom_product_contain_oxygen_bond_distance_aromatic_linkinvent_7_9_3/rearranged_h_0088.sdf

> <i_m_source_file_index>
56

> <r_mmod_Potential_Energy-OPLS-2005>
321.958557128906

> <r_mmod_Stretch_Energy-OPLS-2005>
179.847686767578

> <r_mmod_Bend_Energy-OPLS-2005>
277.821868896484

> <r_mmod_Torsional_Energy-OPLS-2005>
319.514221191406

> <r_mmod_Improper_Torsional_Energy-OPLS-2005>
20.5241718292236

> <r_mmod_Van_der_Waal_Energy-OPLS-2005>
147.725402832031

> <r_mmod_Electrostatic_Energy-OPLS-2005>
-509.309295654297

> <r_mmod_Solvation_Energy-OPLS-2005>
-245.480438232422

> <b_mmod_Minimization_Converged-OPLS-2005>
0

> <r_mmod_RMS_Derivative-OPLS-2005>
11.3792867660522

$$$$
56
                    3D
 Structure written by MMmdl.
154163  0  0  1  0            999 V2000
  -30.5815  -14.8166   20.4342 C   0  0  0  0  0  0
  -30.4419  -12.4904   19.5001 C   0  0  0  0  0  0
  -29.5239  -12.4896   18.2555 C   0  0  0  0  0  0
  -28.0459  -12.3295   18.6601 C   0  0  0  0  0  0
  -27.6440  -13.2381   19.8525 C   0  0  2  0  0  0
  -28.6852  -13.1960   20.9933 C   0  0  0  0  0  0
  -25.2526  -13.8212   20.5697 C   0  0  0  0  0  0
  -24.1814  -13.0454   20.9200 C   0  0  0  0  0  0
  -24.6405  -11.6931   20.8737 C   0  0  0  0  0  0
  -23.9080  -10.4300   21.0398 C   0  0  0  0  0  0
  -24.3627   -9.4212   21.9175 C   0  0  0  0  0  0
  -23.6296   -8.2250   22.0749 C   0  0  0  0  0  0
  -22.4274   -8.0289   21.3545 C   0  0  0  0  0  0
  -21.9915   -9.0264   20.4647 C   0  0  0  0  0  0
  -22.7250  -10.2140   20.3053 C   0  0  0  0  0  0
  -21.6858   -6.0736   22.5272 C   0  0  0  0  0  0
  -21.4018   -6.5636   23.8205 C   0  0  0  0  0  0
  -21.3661   -5.6789   24.9167 C   0  0  0  0  0  0
  -21.6047   -4.3050   24.7217 C   0  0  0  0  0  0
  -21.8822   -3.8146   23.4334 C   0  0  0  0  0  0
  -21.9193   -4.6965   22.3392 C   0  0  0  0  0  0
  -22.7834  -13.5230   21.1863 C   0  0  0  0  0  0
  -22.1664   -4.2154   21.0969 F   0  0  0  0  0  0
  -21.5630   -3.4530   25.7726 F   0  0  0  0  0  0
  -29.9839  -13.5671   20.4171 N   0  0  0  0  0  0
  -26.2954  -12.9426   20.3287 N   0  0  0  0  0  0
  -25.9341  -11.6563   20.5757 N   0  0  0  0  0  0
  -22.0486  -12.8216   22.0421 N   0  0  0  0  0  0
  -25.4249  -15.1931   20.4109 N   0  0  0  0  0  0
  -31.7554  -14.9166   20.0661 O   0  0  0  0  0  0
  -21.6646   -6.8881   21.4232 O   0  0  0  0  0  0
  -22.3508  -14.5531   20.6708 O   0  0  0  0  0  0
  -24.6364  -31.8514   23.1973 C   0  0  0  0  0  0
  -25.9175  -32.4732   23.8323 C   0  0  1  0  0  0
  -27.2111  -27.2018   20.1378 C   0  0  0  0  0  0
  -25.5956  -33.8537   24.2240 N   0  0  0  0  0  0
  -23.4357  -30.4758   21.5407 C   0  0  2  0  0  0
  -24.8849  -28.9225   20.1068 C   0  0  0  0  0  0
  -22.7530  -29.4581   22.4877 C   0  0  0  0  0  0
  -18.0297  -28.1393   22.8470 C   0  0  0  0  0  0
  -24.1493  -36.7268   23.2636 C   0  0  0  0  0  0
  -25.9881  -30.7423   21.3933 C   0  0  0  0  0  0
  -26.0569  -29.3603   20.7364 C   0  0  0  0  0  0
  -27.2175  -28.5091   20.7517 C   0  0  0  0  0  0
  -26.0279  -26.8788   19.4307 C   0  0  0  0  0  0
  -24.8789  -27.6909   19.4416 C   0  0  0  0  0  0
  -23.6587  -29.8156   20.1556 C   0  0  0  0  0  0
  -25.4118  -36.3049   24.0319 C   0  0  1  0  0  0
  -20.5904  -28.3712   23.1243 C   0  0  2  0  0  0
  -20.6782  -26.9422   22.5398 C   0  0  0  0  0  0
  -19.5761  -26.6381   21.5198 C   0  0  0  0  0  0
  -18.1942  -26.7932   22.1613 C   0  0  0  0  0  0
  -19.1551  -28.8869   23.2853 C   0  0  0  0  0  0
  -18.9470  -30.1463   23.8886 C   0  0  0  0  0  0
  -17.6470  -30.6592   24.0555 C   0  0  0  0  0  0
  -25.9065  -34.9425   23.5080 C   0  0  0  0  0  0
  -16.5359  -29.9087   23.6333 C   0  0  0  0  0  0
  -16.7282  -28.6502   23.0356 C   0  0  0  0  0  0
  -26.4528  -31.6573   25.0733 C   0  0  0  0  0  0
  -25.3728  -31.3744   26.1436 C   0  0  0  0  0  0
  -27.0375  -30.2969   24.6279 C   0  0  0  0  0  0
  -27.6075  -32.4318   25.7509 C   0  0  0  0  0  0
  -27.5583  -37.1785   24.8459 C   0  0  0  0  0  0
  -21.4232  -29.3050   22.3621 N   0  0  0  0  0  0
  -26.4287  -37.3754   23.9414 N   0  0  0  0  0  0
  -24.7055  -31.0426   22.0989 N   0  0  0  0  0  0
  -23.4204  -28.8111   23.2989 O   0  0  0  0  0  0
  -28.2677  -26.2375   20.2143 O   0  0  0  0  0  0
  -26.5634  -34.8906   22.4648 O   0  0  0  0  0  0
  -23.5500  -32.1369   23.7229 O   0  0  0  0  0  0
  -29.0985  -19.6972   18.5264 C   0  0  0  0  0  0
  -29.1354  -18.4350   17.9122 C   0  0  0  0  0  0
  -29.6433  -18.6267   20.6407 C   0  0  0  0  0  0
  -29.3446  -19.8725   19.9048 C   0  0  0  0  0  0
  -29.4154  -17.2575   18.6304 C   0  0  0  0  0  0
  -29.6935  -17.2840   20.0243 C   0  0  0  0  0  0
  -28.7750  -23.6656   20.3502 C   0  0  0  0  0  0
  -28.3064  -22.2493   20.1548 C   0  0  0  0  0  0
  -30.4408  -21.9956   20.7106 C   0  0  0  0  0  0
  -27.9898  -24.8136   20.1658 C   0  0  0  0  0  0
  -30.2179  -23.5224   20.7369 C   0  0  0  0  0  0
  -29.3217  -21.3173   20.3640 N   0  0  0  0  0  0
  -29.3484  -16.0652   17.9142 N   0  0  0  0  0  0
  -29.8188  -15.9545   20.7271 N   0  0  0  0  0  0
  -27.1516  -21.9249   19.8529 O   0  0  0  0  0  0
  -31.5333  -21.4862   20.9871 O   0  0  0  0  0  0
  -31.4808  -12.6219   19.1945 H   0  0  0  0  0  0
  -30.4043  -11.5240   20.0041 H   0  0  0  0  0  0
  -29.8109  -11.6831   17.5792 H   0  0  0  0  0  0
  -29.6577  -13.4104   17.6906 H   0  0  0  0  0  0
  -27.8945  -11.2831   18.9273 H   0  0  0  0  0  0
  -27.3976  -12.5222   17.8045 H   0  0  0  0  0  0
  -27.6323  -14.2564   19.4629 H   0  0  0  0  0  0
  -28.7317  -12.2028   21.4425 H   0  0  0  0  0  0
  -28.4055  -13.8797   21.7960 H   0  0  0  0  0  0
  -25.2771   -9.5686   22.4751 H   0  0  0  0  0  0
  -24.0007   -7.4637   22.7464 H   0  0  0  0  0  0
  -21.0850   -8.8782   19.8947 H   0  0  0  0  0  0
  -22.3703  -10.9677   19.6165 H   0  0  0  0  0  0
  -21.2013   -7.6144   23.9706 H   0  0  0  0  0  0
  -21.1484   -6.0520   25.9070 H   0  0  0  0  0  0
  -22.0601   -2.7608   23.2831 H   0  0  0  0  0  0
  -22.4107  -11.9879   22.4804 H   0  0  0  0  0  0
  -21.1102  -13.1236   22.2627 H   0  0  0  0  0  0
  -24.6618  -15.8528   20.5132 H   0  0  0  0  0  0
  -26.2721  -15.6185   20.0544 H   0  0  0  0  0  0
  -26.7235  -32.5365   23.1050 H   0  0  0  0  0  0
  -25.0102  -33.9660   25.0386 H   0  0  0  0  0  0
  -22.7348  -31.3002   21.3951 H   0  0  0  0  0  0
  -23.3761  -35.9593   23.3275 H   0  0  0  0  0  0
  -24.3587  -36.8914   22.2055 H   0  0  0  0  0  0
  -23.7242  -37.6458   23.6680 H   0  0  0  0  0  0
  -26.1397  -31.5001   20.6229 H   0  0  0  0  0  0
  -26.8610  -30.7886   22.0326 H   0  0  0  0  0  0
  -28.1055  -28.8309   21.2770 H   0  0  0  0  0  0
  -25.9472  -25.9680   18.8588 H   0  0  0  0  0  0
  -23.9925  -27.3614   18.9172 H   0  0  0  0  0  0
  -23.7891  -30.5949   19.4035 H   0  0  0  0  0  0
  -22.7756  -29.2541   19.8456 H   0  0  0  0  0  0
  -25.1301  -36.1883   25.0810 H   0  0  0  0  0  0
  -20.9993  -28.3298   24.1365 H   0  0  0  0  0  0
  -20.5666  -26.2322   23.3607 H   0  0  0  0  0  0
  -21.6655  -26.7432   22.1207 H   0  0  0  0  0  0
  -19.6923  -25.6285   21.1250 H   0  0  0  0  0  0
  -19.6705  -27.3170   20.6711 H   0  0  0  0  0  0
  -17.4204  -26.6659   21.4026 H   0  0  0  0  0  0
  -18.0356  -26.0087   22.9027 H   0  0  0  0  0  0
  -19.7944  -30.7277   24.2263 H   0  0  0  0  0  0
  -17.5024  -31.6278   24.5148 H   0  0  0  0  0  0
  -15.5360  -30.2988   23.7665 H   0  0  0  0  0  0
  -15.8677  -28.0815   22.7093 H   0  0  0  0  0  0
  -24.5914  -30.7083   25.7763 H   0  0  0  0  0  0
  -24.8912  -32.2919   26.4828 H   0  0  0  0  0  0
  -25.8027  -30.8947   27.0238 H   0  0  0  0  0  0
  -26.2976  -29.6704   24.1285 H   0  0  0  0  0  0
  -27.3991  -29.7256   25.4840 H   0  0  0  0  0  0
  -27.8891  -30.4199   23.9582 H   0  0  0  0  0  0
  -27.2688  -33.3630   26.2063 H   0  0  0  0  0  0
  -28.3907  -32.6856   25.0351 H   0  0  0  0  0  0
  -28.0726  -31.8458   26.5447 H   0  0  0  0  0  0
  -28.2574  -38.0108   24.7537 H   0  0  0  0  0  0
  -28.1108  -36.2643   24.6245 H   0  0  0  0  0  0
  -27.2308  -37.1382   25.8861 H   0  0  0  0  0  0
  -20.9417  -29.8778   21.6830 H   0  0  0  0  0  0
  -26.0159  -38.2820   24.1431 H   0  0  0  0  0  0
  -28.8809  -20.5511   17.9004 H   0  0  0  0  0  0
  -28.9245  -18.3820   16.8527 H   0  0  0  0  0  0
  -29.8287  -18.6986   21.7027 H   0  0  0  0  0  0
  -26.9583  -24.6165   19.9307 H   0  0  0  0  0  0
  -30.3987  -23.9241   21.7332 H   0  0  0  0  0  0
  -30.8665  -24.0216   20.0178 H   0  0  0  0  0  0
  -29.3487  -16.1341   16.9027 H   0  0  0  0  0  0
  -29.9183  -15.2973   18.2403 H   0  0  0  0  0  0
  -28.9833  -15.7161   21.2386 H   0  0  0  0  0  0
  1 25  1  0  0  0
  1 30  2  0  0  0
  1 84  1  0  0  0
  2  3  1  0  0  0
  2 25  1  0  0  0
  2 87  1  0  0  0
  2 88  1  0  0  0
  3  4  1  0  0  0
  3 89  1  0  0  0
  3 90  1  0  0  0
  4  5  1  0  0  0
  4 91  1  0  0  0
  4 92  1  0  0  0
  5  6  1  0  0  0
  5 26  1  0  0  0
  5 93  1  0  0  0
  6 25  1  0  0  0
  6 94  1  0  0  0
  6 95  1  0  0  0
  7  8  2  0  0  0
  7 26  1  0  0  0
  7 29  1  0  0  0
  8  9  1  0  0  0
  8 22  1  0  0  0
  9 10  1  0  0  0
  9 27  2  0  0  0
 10 11  2  0  0  0
 10 15  1  0  0  0
 11 12  1  0  0  0
 11 96  1  0  0  0
 12 13  2  0  0  0
 12 97  1  0  0  0
 13 14  1  0  0  0
 13 31  1  0  0  0
 14 15  2  0  0  0
 14 98  1  0  0  0
 15 99  1  0  0  0
 16 17  2  0  0  0
 16 21  1  0  0  0
 16 31  1  0  0  0
 17 18  1  0  0  0
 17100  1  0  0  0
 18 19  2  0  0  0
 18101  1  0  0  0
 19 20  1  0  0  0
 19 24  1  0  0  0
 20 21  2  0  0  0
 20102  1  0  0  0
 21 23  1  0  0  0
 22 28  1  0  0  0
 22 32  2  0  0  0
 26 27  1  0  0  0
 28103  1  0  0  0
 28104  1  0  0  0
 29105  1  0  0  0
 29106  1  0  0  0
 33 34  1  0  0  0
 33 66  1  0  0  0
 33 70  2  0  0  0
 34 36  1  0  0  0
 34 59  1  0  0  0
 34107  1  0  0  0
 35 44  2  0  0  0
 35 45  1  0  0  0
 35 68  1  0  0  0
 36 56  1  0  0  0
 36108  1  0  0  0
 37 39  1  0  0  0
 37 47  1  0  0  0
 37 66  1  0  0  0
 37109  1  0  0  0
 38 43  2  0  0  0
 38 46  1  0  0  0
 38 47  1  0  0  0
 39 64  1  0  0  0
 39 67  2  0  0  0
 40 52  1  0  0  0
 40 53  2  0  0  0
 40 58  1  0  0  0
 41110  1  0  0  0
 41111  1  0  0  0
 41112  1  0  0  0
 41 48  1  0  0  0
 42 43  1  0  0  0
 42 66  1  0  0  0
 42113  1  0  0  0
 42114  1  0  0  0
 43 44  1  0  0  0
 44115  1  0  0  0
 45 46  2  0  0  0
 45116  1  0  0  0
 46117  1  0  0  0
 47118  1  0  0  0
 47119  1  0  0  0
 48 56  1  0  0  0
 48 65  1  0  0  0
 48120  1  0  0  0
 49 50  1  0  0  0
 49 53  1  0  0  0
 49 64  1  0  0  0
 49121  1  0  0  0
 50 51  1  0  0  0
 50122  1  0  0  0
 50123  1  0  0  0
 51 52  1  0  0  0
 51124  1  0  0  0
 51125  1  0  0  0
 52126  1  0  0  0
 52127  1  0  0  0
 53 54  1  0  0  0
 54 55  2  0  0  0
 54128  1  0  0  0
 55 57  1  0  0  0
 55129  1  0  0  0
 56 69  2  0  0  0
 57 58  2  0  0  0
 57130  1  0  0  0
 58131  1  0  0  0
 59 60  1  0  0  0
 59 61  1  0  0  0
 59 62  1  0  0  0
 60132  1  0  0  0
 60133  1  0  0  0
 60134  1  0  0  0
 61135  1  0  0  0
 61136  1  0  0  0
 61137  1  0  0  0
 62138  1  0  0  0
 62139  1  0  0  0
 62140  1  0  0  0
 63 65  1  0  0  0
 63141  1  0  0  0
 63142  1  0  0  0
 63143  1  0  0  0
 64144  1  0  0  0
 65145  1  0  0  0
 68 80  1  0  0  0
 71 72  2  0  0  0
 71 74  1  0  0  0
 71146  1  0  0  0
 72 75  1  0  0  0
 72147  1  0  0  0
 73 74  2  0  0  0
 73 76  1  0  0  0
 73148  1  0  0  0
 74 82  1  0  0  0
 75 76  2  0  0  0
 75 83  1  0  0  0
 76 84  1  0  0  0
 77 78  1  0  0  0
 77 80  2  0  0  0
 77 81  1  0  0  0
 78 82  1  0  0  0
 78 85  2  0  0  0
 79 81  1  0  0  0
 79 82  1  0  0  0
 79 86  2  0  0  0
 80149  1  0  0  0
 81150  1  0  0  0
 81151  1  0  0  0
 83152  1  0  0  0
 83153  1  0  0  0
 84154  1  0  0  0
M  ISO  4   1 100  68 101  80 101  84 100
M  END
> <chiral flag>
0

> <version>
0

> <s_m_source_file>
/data/baiqing/PycharmProjects/Reinvent-master-3.2/result/LINK_invent/BTK/process_docking_weight1_custom_product_contain_oxygen_bond_distance_aromatic_linkinvent_7_9_3/rearranged_h_0088.sdf

> <i_m_source_file_index>
57

> <r_mmod_Potential_Energy-OPLS-2005>
244.582534790039

> <r_mmod_Stretch_Energy-OPLS-2005>
161.070770263672

> <r_mmod_Bend_Energy-OPLS-2005>
229.990676879883

> <r_mmod_Torsional_Energy-OPLS-2005>
301.004333496094

> <r_mmod_Improper_Torsional_Energy-OPLS-2005>
10.5852909088135

> <r_mmod_Van_der_Waal_Energy-OPLS-2005>
141.678085327148

> <r_mmod_Electrostatic_Energy-OPLS-2005>
-486.493194580078

> <r_mmod_Solvation_Energy-OPLS-2005>
-239.455200195312

> <b_mmod_Minimization_Converged-OPLS-2005>
0

> <r_mmod_RMS_Derivative-OPLS-2005>
1.04206466674805

$$$$
57
                    3D
 Structure written by MMmdl.
153162  0  0  1  0            999 V2000
  -30.6190  -14.6620   20.4990 C   0  0  0  0  0  0
  -30.4469  -12.4109   19.4469 C   0  0  0  0  0  0
  -29.5096  -12.5140   18.2222 C   0  0  0  0  0  0
  -28.0333  -12.3508   18.6357 C   0  0  0  0  0  0
  -27.6559  -13.2189   19.8655 C   0  0  2  0  0  0
  -28.7050  -13.0754   20.9922 C   0  0  0  0  0  0
  -25.2565  -13.8168   20.5690 C   0  0  0  0  0  0
  -24.1827  -13.0431   20.9161 C   0  0  0  0  0  0
  -24.6398  -11.6905   20.8729 C   0  0  0  0  0  0
  -23.9065  -10.4292   21.0395 C   0  0  0  0  0  0
  -24.3616   -9.4205   21.9176 C   0  0  0  0  0  0
  -23.6293   -8.2239   22.0746 C   0  0  0  0  0  0
  -22.4275   -8.0278   21.3542 C   0  0  0  0  0  0
  -21.9897   -9.0258   20.4656 C   0  0  0  0  0  0
  -22.7226  -10.2141   20.3059 C   0  0  0  0  0  0
  -21.6849   -6.0728   22.5277 C   0  0  0  0  0  0
  -21.4009   -6.5636   23.8207 C   0  0  0  0  0  0
  -21.3662   -5.6789   24.9174 C   0  0  0  0  0  0
  -21.6044   -4.3052   24.7227 C   0  0  0  0  0  0
  -21.8826   -3.8139   23.4346 C   0  0  0  0  0  0
  -21.9195   -4.6954   22.3401 C   0  0  0  0  0  0
  -22.7852  -13.5235   21.1835 C   0  0  0  0  0  0
  -22.1667   -4.2144   21.0978 F   0  0  0  0  0  0
  -21.5631   -3.4533   25.7731 F   0  0  0  0  0  0
  -30.0178  -13.4293   20.4269 N   0  0  0  0  0  0
  -26.3011  -12.9359   20.3344 N   0  0  0  0  0  0
  -25.9334  -11.6511   20.5760 N   0  0  0  0  0  0
  -22.0490  -12.8253   22.0411 N   0  0  0  0  0  0
  -25.4257  -15.1889   20.4165 N   0  0  0  0  0  0
  -31.7806  -14.8277   20.1170 O   0  0  0  0  0  0
  -21.6639   -6.8876   21.4242 O   0  0  0  0  0  0
  -22.3532  -14.5538   20.6677 O   0  0  0  0  0  0
  -24.6286  -31.8599   23.2050 C   0  0  0  0  0  0
  -25.9128  -32.4776   23.8378 C   0  0  1  0  0  0
  -27.2111  -27.2971   20.1022 C   0  0  0  0  0  0
  -25.5928  -33.8581   24.2276 N   0  0  0  0  0  0
  -23.4225  -30.4885   21.5487 C   0  0  2  0  0  0
  -24.8660  -28.9524   20.1062 C   0  0  0  0  0  0
  -22.7487  -29.4627   22.4918 C   0  0  0  0  0  0
  -18.0292  -28.1384   22.8487 C   0  0  0  0  0  0
  -24.1496  -36.7303   23.2644 C   0  0  0  0  0  0
  -25.9713  -30.7786   21.3880 C   0  0  0  0  0  0
  -26.0397  -29.4104   20.7182 C   0  0  0  0  0  0
  -27.2149  -28.5947   20.7104 C   0  0  0  0  0  0
  -26.0108  -26.9144   19.4524 C   0  0  0  0  0  0
  -24.8547  -27.7090   19.4658 C   0  0  0  0  0  0
  -23.6377  -29.8364   20.1606 C   0  0  0  0  0  0
  -25.4120  -36.3085   24.0326 C   0  0  1  0  0  0
  -20.5895  -28.3690   23.1277 C   0  0  2  0  0  0
  -20.6762  -26.9401   22.5433 C   0  0  0  0  0  0
  -19.5751  -26.6369   21.5222 C   0  0  0  0  0  0
  -18.1926  -26.7929   22.1618 C   0  0  0  0  0  0
  -19.1546  -28.8851   23.2879 C   0  0  0  0  0  0
  -18.9467  -30.1451   23.8893 C   0  0  0  0  0  0
  -17.6466  -30.6587   24.0556 C   0  0  0  0  0  0
  -25.9061  -34.9452   23.5104 C   0  0  0  0  0  0
  -16.5357  -29.9081   23.6328 C   0  0  0  0  0  0
  -16.7279  -28.6500   23.0348 C   0  0  0  0  0  0
  -26.4483  -31.6606   25.0772 C   0  0  0  0  0  0
  -25.3702  -31.3823   26.1506 C   0  0  0  0  0  0
  -27.0285  -30.2982   24.6314 C   0  0  0  0  0  0
  -27.6070  -32.4337   25.7497 C   0  0  0  0  0  0
  -27.5592  -37.1801   24.8457 C   0  0  0  0  0  0
  -21.4199  -29.3035   22.3656 N   0  0  0  0  0  0
  -26.4301  -37.3775   23.9403 N   0  0  0  0  0  0
  -24.6929  -31.0595   22.1019 N   0  0  0  0  0  0
  -23.4208  -28.8155   23.2988 O   0  0  0  0  0  0
  -28.2961  -26.3932   20.1673 O   0  0  0  0  0  0
  -26.5633  -34.8917   22.4672 O   0  0  0  0  0  0
  -23.5439  -32.1413   23.7350 O   0  0  0  0  0  0
  -30.9247  -19.3579   20.2000 C   0  0  0  0  0  0
  -30.9863  -17.9296   20.2876 C   0  0  0  0  0  0
  -30.2997  -23.7888   20.6056 C   0  0  0  0  0  0
  -28.6549  -19.3316   20.9735 C   0  0  0  0  0  0
  -28.6157  -22.4100   20.1653 C   0  0  0  0  0  0
  -28.9302  -23.7705   20.2152 C   0  0  0  0  0  0
  -29.7633  -20.1098   20.5494 C   0  0  0  0  0  0
  -29.8733  -17.1626   20.7265 C   0  0  0  0  0  0
  -28.7113  -17.9087   21.0612 C   0  0  0  0  0  0
  -30.7301  -22.4934   20.7661 C   0  0  0  0  0  0
  -27.9778  -24.9674   19.8690 C   0  0  0  0  0  0
  -29.7097  -21.5817   20.4935 N   0  0  0  0  0  0
  -29.8024  -15.7021   20.8602 N   0  0  0  0  0  0
  -31.9654  -22.0742   21.1506 O   0  0  0  0  0  0
  -27.6137  -17.2334   21.4790 F   0  0  0  0  0  0
  -31.4834  -12.5540   19.1335 H   0  0  0  0  0  0
  -30.4025  -11.4139   19.8880 H   0  0  0  0  0  0
  -29.7753  -11.7603   17.4798 H   0  0  0  0  0  0
  -29.6464  -13.4822   17.7366 H   0  0  0  0  0  0
  -27.8686  -11.2974   18.8631 H   0  0  0  0  0  0
  -27.3792  -12.5848   17.7954 H   0  0  0  0  0  0
  -27.6712  -14.2543   19.5251 H   0  0  0  0  0  0
  -28.7240  -12.0529   21.3716 H   0  0  0  0  0  0
  -28.4484  -13.7038   21.8459 H   0  0  0  0  0  0
  -25.2765   -9.5684   22.4742 H   0  0  0  0  0  0
  -24.0012   -7.4625   22.7456 H   0  0  0  0  0  0
  -21.0814   -8.8786   19.8974 H   0  0  0  0  0  0
  -22.3675  -10.9683   19.6174 H   0  0  0  0  0  0
  -21.1998   -7.6142   23.9712 H   0  0  0  0  0  0
  -21.1479   -6.0514   25.9078 H   0  0  0  0  0  0
  -22.0602   -2.7602   23.2839 H   0  0  0  0  0  0
  -22.4090  -11.9934   22.4844 H   0  0  0  0  0  0
  -21.1122  -13.1325   22.2630 H   0  0  0  0  0  0
  -24.6665  -15.8434   20.5691 H   0  0  0  0  0  0
  -26.3028  -15.6500   20.2081 H   0  0  0  0  0  0
  -26.7200  -32.5419   23.1126 H   0  0  0  0  0  0
  -25.0023  -33.9723   25.0383 H   0  0  0  0  0  0
  -22.7175  -31.3112   21.4118 H   0  0  0  0  0  0
  -23.3720  -35.9685   23.3388 H   0  0  0  0  0  0
  -24.3573  -36.8828   22.2044 H   0  0  0  0  0  0
  -23.7309  -37.6559   23.6602 H   0  0  0  0  0  0
  -26.1259  -31.5503   20.6326 H   0  0  0  0  0  0
  -26.8424  -30.8073   22.0316 H   0  0  0  0  0  0
  -28.1100  -28.9385   21.2095 H   0  0  0  0  0  0
  -25.9135  -25.9758   18.9295 H   0  0  0  0  0  0
  -23.9581  -27.3539   18.9764 H   0  0  0  0  0  0
  -23.7616  -30.6208   19.4130 H   0  0  0  0  0  0
  -22.7548  -29.2739   19.8517 H   0  0  0  0  0  0
  -25.1306  -36.1945   25.0820 H   0  0  0  0  0  0
  -20.9998  -28.3277   24.1397 H   0  0  0  0  0  0
  -20.5627  -26.2313   23.3652 H   0  0  0  0  0  0
  -21.6641  -26.7400   22.1258 H   0  0  0  0  0  0
  -19.6905  -25.6273   21.1269 H   0  0  0  0  0  0
  -19.6696  -27.3170   20.6746 H   0  0  0  0  0  0
  -17.4206  -26.6697   21.4004 H   0  0  0  0  0  0
  -18.0299  -26.0072   22.9015 H   0  0  0  0  0  0
  -19.7942  -30.7263   24.2266 H   0  0  0  0  0  0
  -17.5023  -31.6271   24.5156 H   0  0  0  0  0  0
  -15.5353  -30.2974   23.7661 H   0  0  0  0  0  0
  -15.8686  -28.0820   22.7049 H   0  0  0  0  0  0
  -24.5864  -30.7164   25.7878 H   0  0  0  0  0  0
  -24.8903  -32.3019   26.4867 H   0  0  0  0  0  0
  -25.8009  -30.9066   27.0326 H   0  0  0  0  0  0
  -26.2865  -29.6758   24.1295 H   0  0  0  0  0  0
  -27.3837  -29.7241   25.4885 H   0  0  0  0  0  0
  -27.8822  -30.4181   23.9640 H   0  0  0  0  0  0
  -27.2694  -33.3610   26.2136 H   0  0  0  0  0  0
  -28.3817  -32.6948   25.0275 H   0  0  0  0  0  0
  -28.0820  -31.8441   26.5347 H   0  0  0  0  0  0
  -28.2653  -38.0056   24.7452 H   0  0  0  0  0  0
  -28.1039  -36.2590   24.6323 H   0  0  0  0  0  0
  -27.2327  -37.1518   25.8868 H   0  0  0  0  0  0
  -20.9369  -29.8771   21.6884 H   0  0  0  0  0  0
  -26.0190  -38.2863   24.1367 H   0  0  0  0  0  0
  -31.8010  -19.8853   19.8549 H   0  0  0  0  0  0
  -31.9059  -17.4350   20.0110 H   0  0  0  0  0  0
  -30.9035  -24.6747   20.7496 H   0  0  0  0  0  0
  -27.7377  -19.8271   21.2531 H   0  0  0  0  0  0
  -27.6762  -21.9424   19.9012 H   0  0  0  0  0  0
  -27.0414  -24.7067   20.3648 H   0  0  0  0  0  0
  -27.8017  -24.8897   18.7948 H   0  0  0  0  0  0
  -28.8974  -15.3886   21.1783 H   0  0  0  0  0  0
  -32.5136  -22.8469   21.2492 H   0  0  0  0  0  0
  1 25  1  0  0  0
  1 30  2  0  0  0
  1 83  1  0  0  0
  2  3  1  0  0  0
  2 25  1  0  0  0
  2 86  1  0  0  0
  2 87  1  0  0  0
  3  4  1  0  0  0
  3 88  1  0  0  0
  3 89  1  0  0  0
  4  5  1  0  0  0
  4 90  1  0  0  0
  4 91  1  0  0  0
  5  6  1  0  0  0
  5 26  1  0  0  0
  5 92  1  0  0  0
  6 25  1  0  0  0
  6 93  1  0  0  0
  6 94  1  0  0  0
  7  8  2  0  0  0
  7 26  1  0  0  0
  7 29  1  0  0  0
  8  9  1  0  0  0
  8 22  1  0  0  0
  9 10  1  0  0  0
  9 27  2  0  0  0
 10 11  2  0  0  0
 10 15  1  0  0  0
 11 12  1  0  0  0
 11 95  1  0  0  0
 12 13  2  0  0  0
 12 96  1  0  0  0
 13 14  1  0  0  0
 13 31  1  0  0  0
 14 15  2  0  0  0
 14 97  1  0  0  0
 15 98  1  0  0  0
 16 17  2  0  0  0
 16 21  1  0  0  0
 16 31  1  0  0  0
 17 18  1  0  0  0
 17 99  1  0  0  0
 18 19  2  0  0  0
 18100  1  0  0  0
 19 20  1  0  0  0
 19 24  1  0  0  0
 20 21  2  0  0  0
 20101  1  0  0  0
 21 23  1  0  0  0
 22 28  1  0  0  0
 22 32  2  0  0  0
 26 27  1  0  0  0
 28102  1  0  0  0
 28103  1  0  0  0
 29104  1  0  0  0
 29105  1  0  0  0
 33 34  1  0  0  0
 33 66  1  0  0  0
 33 70  2  0  0  0
 34 36  1  0  0  0
 34 59  1  0  0  0
 34106  1  0  0  0
 35 44  2  0  0  0
 35 45  1  0  0  0
 35 68  1  0  0  0
 36 56  1  0  0  0
 36107  1  0  0  0
 37 39  1  0  0  0
 37 47  1  0  0  0
 37 66  1  0  0  0
 37108  1  0  0  0
 38 43  2  0  0  0
 38 46  1  0  0  0
 38 47  1  0  0  0
 39 64  1  0  0  0
 39 67  2  0  0  0
 40 52  1  0  0  0
 40 53  2  0  0  0
 40 58  1  0  0  0
 41109  1  0  0  0
 41110  1  0  0  0
 41111  1  0  0  0
 41 48  1  0  0  0
 42 43  1  0  0  0
 42 66  1  0  0  0
 42112  1  0  0  0
 42113  1  0  0  0
 43 44  1  0  0  0
 44114  1  0  0  0
 45 46  2  0  0  0
 45115  1  0  0  0
 46116  1  0  0  0
 47117  1  0  0  0
 47118  1  0  0  0
 48 56  1  0  0  0
 48 65  1  0  0  0
 48119  1  0  0  0
 49 50  1  0  0  0
 49 53  1  0  0  0
 49 64  1  0  0  0
 49120  1  0  0  0
 50 51  1  0  0  0
 50121  1  0  0  0
 50122  1  0  0  0
 51 52  1  0  0  0
 51123  1  0  0  0
 51124  1  0  0  0
 52125  1  0  0  0
 52126  1  0  0  0
 53 54  1  0  0  0
 54 55  2  0  0  0
 54127  1  0  0  0
 55 57  1  0  0  0
 55128  1  0  0  0
 56 69  2  0  0  0
 57 58  2  0  0  0
 57129  1  0  0  0
 58130  1  0  0  0
 59 60  1  0  0  0
 59 61  1  0  0  0
 59 62  1  0  0  0
 60131  1  0  0  0
 60132  1  0  0  0
 60133  1  0  0  0
 61134  1  0  0  0
 61135  1  0  0  0
 61136  1  0  0  0
 62137  1  0  0  0
 62138  1  0  0  0
 62139  1  0  0  0
 63 65  1  0  0  0
 63140  1  0  0  0
 63141  1  0  0  0
 63142  1  0  0  0
 64143  1  0  0  0
 65144  1  0  0  0
 68 81  1  0  0  0
 71 72  2  0  0  0
 71 77  1  0  0  0
 71145  1  0  0  0
 72 78  1  0  0  0
 72146  1  0  0  0
 73 76  1  0  0  0
 73 80  2  0  0  0
 73147  1  0  0  0
 74 77  2  0  0  0
 74 79  1  0  0  0
 74148  1  0  0  0
 75 76  2  0  0  0
 75 82  1  0  0  0
 75149  1  0  0  0
 76 81  1  0  0  0
 77 82  1  0  0  0
 78 79  2  0  0  0
 78 83  1  0  0  0
 79 85  1  0  0  0
 80 82  1  0  0  0
 80 84  1  0  0  0
 81150  1  0  0  0
 81151  1  0  0  0
 83152  1  0  0  0
 84153  1  0  0  0
M  ISO  4   1 100  68 101  81 101  83 100
M  END
> <chiral flag>
0

> <version>
0

> <s_m_source_file>
/data/baiqing/PycharmProjects/Reinvent-master-3.2/result/LINK_invent/BTK/process_docking_weight1_custom_product_contain_oxygen_bond_distance_aromatic_linkinvent_7_9_3/rearranged_h_0088.sdf

> <i_m_source_file_index>
58

> <r_mmod_Potential_Energy-OPLS-2005>
13.3398418426514

> <r_mmod_Stretch_Energy-OPLS-2005>
83.3894958496094

> <r_mmod_Bend_Energy-OPLS-2005>
147.012298583984

> <r_mmod_Torsional_Energy-OPLS-2005>
218.234161376953

> <r_mmod_Improper_Torsional_Energy-OPLS-2005>
3.86583662033081

> <r_mmod_Van_der_Waal_Energy-OPLS-2005>
147.470352172852

> <r_mmod_Electrostatic_Energy-OPLS-2005>
-433.428344726562

> <r_mmod_Solvation_Energy-OPLS-2005>
-214.20964050293

> <b_mmod_Minimization_Converged-OPLS-2005>
0

> <r_mmod_RMS_Derivative-OPLS-2005>
1.62125205993652

$$$$
58
                    3D
 Structure written by MMmdl.
153162  0  0  1  0            999 V2000
  -30.6253  -14.8260   20.4331 C   0  0  0  0  0  0
  -30.4272  -12.5058   19.4915 C   0  0  0  0  0  0
  -29.5142  -12.5156   18.2472 C   0  0  0  0  0  0
  -28.0444  -12.3241   18.6624 C   0  0  0  0  0  0
  -27.6354  -13.2454   19.8432 C   0  0  2  0  0  0
  -28.6808  -13.2421   20.9810 C   0  0  0  0  0  0
  -25.2480  -13.8220   20.5706 C   0  0  0  0  0  0
  -24.1785  -13.0444   20.9206 C   0  0  0  0  0  0
  -24.6396  -11.6926   20.8739 C   0  0  0  0  0  0
  -23.9077  -10.4293   21.0394 C   0  0  0  0  0  0
  -24.3625   -9.4211   21.9177 C   0  0  0  0  0  0
  -23.6293   -8.2251   22.0751 C   0  0  0  0  0  0
  -22.4275   -8.0286   21.3542 C   0  0  0  0  0  0
  -21.9911   -9.0257   20.4644 C   0  0  0  0  0  0
  -22.7244  -10.2133   20.3047 C   0  0  0  0  0  0
  -21.6856   -6.0731   22.5278 C   0  0  0  0  0  0
  -21.4020   -6.5636   23.8209 C   0  0  0  0  0  0
  -21.3660   -5.6792   24.9170 C   0  0  0  0  0  0
  -21.6045   -4.3052   24.7225 C   0  0  0  0  0  0
  -21.8819   -3.8140   23.4346 C   0  0  0  0  0  0
  -21.9193   -4.6958   22.3399 C   0  0  0  0  0  0
  -22.7803  -13.5215   21.1860 C   0  0  0  0  0  0
  -22.1662   -4.2140   21.0974 F   0  0  0  0  0  0
  -21.5626   -3.4535   25.7741 F   0  0  0  0  0  0
  -29.9734  -13.6038   20.3864 N   0  0  0  0  0  0
  -26.2917  -12.9449   20.3269 N   0  0  0  0  0  0
  -25.9336  -11.6581   20.5744 N   0  0  0  0  0  0
  -22.0448  -12.8206   22.0415 N   0  0  0  0  0  0
  -25.4149  -15.1951   20.4150 N   0  0  0  0  0  0
  -31.8252  -14.8300   20.1517 O   0  0  0  0  0  0
  -21.6641   -6.8879   21.4238 O   0  0  0  0  0  0
  -22.3479  -14.5512   20.6698 O   0  0  0  0  0  0
  -24.6381  -31.8499   23.1955 C   0  0  0  0  0  0
  -25.9187  -32.4722   23.8313 C   0  0  1  0  0  0
  -27.2188  -27.2125   20.1379 C   0  0  0  0  0  0
  -25.5969  -33.8525   24.2253 N   0  0  0  0  0  0
  -23.4385  -30.4721   21.5386 C   0  0  2  0  0  0
  -24.8912  -28.9172   20.1052 C   0  0  0  0  0  0
  -22.7539  -29.4572   22.4875 C   0  0  0  0  0  0
  -18.0305  -28.1386   22.8470 C   0  0  0  0  0  0
  -24.1490  -36.7260   23.2631 C   0  0  0  0  0  0
  -25.9892  -30.7476   21.3847 C   0  0  0  0  0  0
  -26.0650  -29.3659   20.7269 C   0  0  0  0  0  0
  -27.2339  -28.5250   20.7373 C   0  0  0  0  0  0
  -26.0297  -26.8581   19.4647 C   0  0  0  0  0  0
  -24.8812  -27.6723   19.4608 C   0  0  0  0  0  0
  -23.6618  -29.8072   20.1551 C   0  0  0  0  0  0
  -25.4116  -36.3049   24.0323 C   0  0  1  0  0  0
  -20.5908  -28.3709   23.1237 C   0  0  2  0  0  0
  -20.6793  -26.9418   22.5396 C   0  0  0  0  0  0
  -19.5772  -26.6383   21.5193 C   0  0  0  0  0  0
  -18.1951  -26.7928   22.1608 C   0  0  0  0  0  0
  -19.1559  -28.8866   23.2847 C   0  0  0  0  0  0
  -18.9479  -30.1461   23.8875 C   0  0  0  0  0  0
  -17.6476  -30.6583   24.0556 C   0  0  0  0  0  0
  -25.9064  -34.9419   23.5092 C   0  0  0  0  0  0
  -16.5368  -29.9073   23.6330 C   0  0  0  0  0  0
  -16.7289  -28.6491   23.0350 C   0  0  0  0  0  0
  -26.4547  -31.6542   25.0704 C   0  0  0  0  0  0
  -25.3770  -31.3715   26.1426 C   0  0  0  0  0  0
  -27.0375  -30.2939   24.6212 C   0  0  0  0  0  0
  -27.6110  -32.4263   25.7483 C   0  0  0  0  0  0
  -27.5576  -37.1793   24.8466 C   0  0  0  0  0  0
  -21.4240  -29.3044   22.3614 N   0  0  0  0  0  0
  -26.4289  -37.3754   23.9401 N   0  0  0  0  0  0
  -24.7077  -31.0414   22.0959 N   0  0  0  0  0  0
  -23.4210  -28.8117   23.3001 O   0  0  0  0  0  0
  -28.2225  -26.1997   20.2202 O   0  0  0  0  0  0
  -26.5614  -34.8902   22.4646 O   0  0  0  0  0  0
  -23.5513  -32.1345   23.7206 O   0  0  0  0  0  0
  -32.0476  -19.1441   19.8733 C   0  0  0  0  0  0
  -31.1717  -20.2352   20.0182 C   0  0  0  0  0  0
  -31.6283  -17.8149   20.0645 C   0  0  0  0  0  0
  -29.8119  -20.0650   20.3673 C   0  0  0  0  0  0
  -30.2958  -17.4854   20.4133 C   0  0  0  0  0  0
  -29.4035  -18.6520   20.5621 C   0  0  0  0  0  0
  -28.1056  -23.5639   20.7693 C   0  0  0  0  0  0
  -29.1795  -22.6737   20.2071 C   0  0  0  0  0  0
  -27.7760  -24.9369   20.7524 C   0  0  0  0  0  0
  -27.1883  -22.6313   21.5234 C   0  0  0  0  0  0
  -27.6924  -21.2058   21.2537 C   0  0  0  0  0  0
  -28.9675  -21.3173   20.5526 N   0  0  0  0  0  0
  -29.9067  -16.0279   20.5923 N   0  0  0  0  0  0
  -30.1197  -23.0776   19.5163 O   0  0  0  0  0  0
  -28.1185  -18.3887   20.8991 F   0  0  0  0  0  0
  -31.4689  -12.6168   19.1862 H   0  0  0  0  0  0
  -30.3725  -11.5451   20.0066 H   0  0  0  0  0  0
  -29.8141  -11.7338   17.5484 H   0  0  0  0  0  0
  -29.6276  -13.4627   17.7166 H   0  0  0  0  0  0
  -27.9219  -11.2793   18.9511 H   0  0  0  0  0  0
  -27.3854  -12.4827   17.8082 H   0  0  0  0  0  0
  -27.6103  -14.2546   19.4320 H   0  0  0  0  0  0
  -28.7358  -12.2633   21.4599 H   0  0  0  0  0  0
  -28.4040  -13.9530   21.7610 H   0  0  0  0  0  0
  -25.2766   -9.5687   22.4753 H   0  0  0  0  0  0
  -23.9999   -7.4645   22.7478 H   0  0  0  0  0  0
  -21.0837   -8.8775   19.8953 H   0  0  0  0  0  0
  -22.3699  -10.9669   19.6155 H   0  0  0  0  0  0
  -21.2016   -7.6149   23.9712 H   0  0  0  0  0  0
  -21.1482   -6.0519   25.9074 H   0  0  0  0  0  0
  -22.0599   -2.7602   23.2851 H   0  0  0  0  0  0
  -22.4066  -11.9877   22.4820 H   0  0  0  0  0  0
  -21.1055  -13.1216   22.2591 H   0  0  0  0  0  0
  -24.6481  -15.8477   20.5340 H   0  0  0  0  0  0
  -26.2658  -15.6439   20.1013 H   0  0  0  0  0  0
  -26.7240  -32.5372   23.1038 H   0  0  0  0  0  0
  -25.0165  -33.9654   25.0433 H   0  0  0  0  0  0
  -22.7376  -31.2962   21.3897 H   0  0  0  0  0  0
  -23.3753  -35.9592   23.3308 H   0  0  0  0  0  0
  -24.3580  -36.8858   22.2042 H   0  0  0  0  0  0
  -23.7246  -37.6469   23.6640 H   0  0  0  0  0  0
  -26.1320  -31.5057   20.6132 H   0  0  0  0  0  0
  -26.8649  -30.8000   22.0196 H   0  0  0  0  0  0
  -28.1239  -28.8533   21.2556 H   0  0  0  0  0  0
  -25.9692  -25.8977   18.9730 H   0  0  0  0  0  0
  -23.9861  -27.3236   18.9647 H   0  0  0  0  0  0
  -23.7883  -30.5846   19.4008 H   0  0  0  0  0  0
  -22.7797  -29.2428   19.8470 H   0  0  0  0  0  0
  -25.1294  -36.1901   25.0816 H   0  0  0  0  0  0
  -21.0000  -28.3300   24.1359 H   0  0  0  0  0  0
  -20.5680  -26.2319   23.3606 H   0  0  0  0  0  0
  -21.6666  -26.7426   22.1203 H   0  0  0  0  0  0
  -19.6942  -25.6291   21.1228 H   0  0  0  0  0  0
  -19.6711  -27.3188   20.6716 H   0  0  0  0  0  0
  -17.4221  -26.6662   21.4014 H   0  0  0  0  0  0
  -18.0358  -26.0066   22.8998 H   0  0  0  0  0  0
  -19.7957  -30.7281   24.2235 H   0  0  0  0  0  0
  -17.5031  -31.6262   24.5153 H   0  0  0  0  0  0
  -15.5369  -30.2971   23.7666 H   0  0  0  0  0  0
  -15.8686  -28.0803   22.7081 H   0  0  0  0  0  0
  -24.5968  -30.7022   25.7785 H   0  0  0  0  0  0
  -24.8941  -32.2886   26.4803 H   0  0  0  0  0  0
  -25.8098  -30.8951   27.0229 H   0  0  0  0  0  0
  -26.2952  -29.6686   24.1233 H   0  0  0  0  0  0
  -27.4031  -29.7203   25.4742 H   0  0  0  0  0  0
  -27.8854  -30.4184   23.9473 H   0  0  0  0  0  0
  -27.2749  -33.3591   26.2026 H   0  0  0  0  0  0
  -28.3960  -32.6756   25.0329 H   0  0  0  0  0  0
  -28.0728  -31.8384   26.5430 H   0  0  0  0  0  0
  -28.2607  -38.0076   24.7486 H   0  0  0  0  0  0
  -28.1059  -36.2607   24.6322 H   0  0  0  0  0  0
  -27.2291  -37.1476   25.8869 H   0  0  0  0  0  0
  -20.9435  -29.8750   21.6796 H   0  0  0  0  0  0
  -26.0170  -38.2831   24.1384 H   0  0  0  0  0  0
  -33.0804  -19.3326   19.6128 H   0  0  0  0  0  0
  -31.5936  -21.2175   19.8747 H   0  0  0  0  0  0
  -32.3852  -17.0616   19.9287 H   0  0  0  0  0  0
  -26.8855  -25.1468   21.3303 H   0  0  0  0  0  0
  -26.1540  -22.7549   21.1987 H   0  0  0  0  0  0
  -27.2358  -22.8585   22.5895 H   0  0  0  0  0  0
  -26.9834  -20.6660   20.6243 H   0  0  0  0  0  0
  -27.8084  -20.6475   22.1832 H   0  0  0  0  0  0
  -28.9316  -15.8920   20.8124 H   0  0  0  0  0  0
  1 25  1  0  0  0
  1 30  2  0  0  0
  1 83  1  0  0  0
  2  3  1  0  0  0
  2 25  1  0  0  0
  2 86  1  0  0  0
  2 87  1  0  0  0
  3  4  1  0  0  0
  3 88  1  0  0  0
  3 89  1  0  0  0
  4  5  1  0  0  0
  4 90  1  0  0  0
  4 91  1  0  0  0
  5  6  1  0  0  0
  5 26  1  0  0  0
  5 92  1  0  0  0
  6 25  1  0  0  0
  6 93  1  0  0  0
  6 94  1  0  0  0
  7  8  2  0  0  0
  7 26  1  0  0  0
  7 29  1  0  0  0
  8  9  1  0  0  0
  8 22  1  0  0  0
  9 10  1  0  0  0
  9 27  2  0  0  0
 10 11  2  0  0  0
 10 15  1  0  0  0
 11 12  1  0  0  0
 11 95  1  0  0  0
 12 13  2  0  0  0
 12 96  1  0  0  0
 13 14  1  0  0  0
 13 31  1  0  0  0
 14 15  2  0  0  0
 14 97  1  0  0  0
 15 98  1  0  0  0
 16 17  2  0  0  0
 16 21  1  0  0  0
 16 31  1  0  0  0
 17 18  1  0  0  0
 17 99  1  0  0  0
 18 19  2  0  0  0
 18100  1  0  0  0
 19 20  1  0  0  0
 19 24  1  0  0  0
 20 21  2  0  0  0
 20101  1  0  0  0
 21 23  1  0  0  0
 22 28  1  0  0  0
 22 32  2  0  0  0
 26 27  1  0  0  0
 28102  1  0  0  0
 28103  1  0  0  0
 29104  1  0  0  0
 29105  1  0  0  0
 33 34  1  0  0  0
 33 66  1  0  0  0
 33 70  2  0  0  0
 34 36  1  0  0  0
 34 59  1  0  0  0
 34106  1  0  0  0
 35 44  2  0  0  0
 35 45  1  0  0  0
 35 68  1  0  0  0
 36 56  1  0  0  0
 36107  1  0  0  0
 37 39  1  0  0  0
 37 47  1  0  0  0
 37 66  1  0  0  0
 37108  1  0  0  0
 38 43  2  0  0  0
 38 46  1  0  0  0
 38 47  1  0  0  0
 39 64  1  0  0  0
 39 67  2  0  0  0
 40 52  1  0  0  0
 40 53  2  0  0  0
 40 58  1  0  0  0
 41109  1  0  0  0
 41110  1  0  0  0
 41111  1  0  0  0
 41 48  1  0  0  0
 42 43  1  0  0  0
 42 66  1  0  0  0
 42112  1  0  0  0
 42113  1  0  0  0
 43 44  1  0  0  0
 44114  1  0  0  0
 45 46  2  0  0  0
 45115  1  0  0  0
 46116  1  0  0  0
 47117  1  0  0  0
 47118  1  0  0  0
 48 56  1  0  0  0
 48 65  1  0  0  0
 48119  1  0  0  0
 49 50  1  0  0  0
 49 53  1  0  0  0
 49 64  1  0  0  0
 49120  1  0  0  0
 50 51  1  0  0  0
 50121  1  0  0  0
 50122  1  0  0  0
 51 52  1  0  0  0
 51123  1  0  0  0
 51124  1  0  0  0
 52125  1  0  0  0
 52126  1  0  0  0
 53 54  1  0  0  0
 54 55  2  0  0  0
 54127  1  0  0  0
 55 57  1  0  0  0
 55128  1  0  0  0
 56 69  2  0  0  0
 57 58  2  0  0  0
 57129  1  0  0  0
 58130  1  0  0  0
 59 60  1  0  0  0
 59 61  1  0  0  0
 59 62  1  0  0  0
 60131  1  0  0  0
 60132  1  0  0  0
 60133  1  0  0  0
 61134  1  0  0  0
 61135  1  0  0  0
 61136  1  0  0  0
 62137  1  0  0  0
 62138  1  0  0  0
 62139  1  0  0  0
 63 65  1  0  0  0
 63140  1  0  0  0
 63141  1  0  0  0
 63142  1  0  0  0
 64143  1  0  0  0
 65144  1  0  0  0
 68 79  1  0  0  0
 71 72  2  0  0  0
 71 73  1  0  0  0
 71145  1  0  0  0
 72 74  1  0  0  0
 72146  1  0  0  0
 73 75  2  0  0  0
 73147  1  0  0  0
 74 76  2  0  0  0
 74 82  1  0  0  0
 75 76  1  0  0  0
 75 83  1  0  0  0
 76 85  1  0  0  0
 77 78  1  0  0  0
 77 79  2  0  0  0
 77 80  1  0  0  0
 78 82  1  0  0  0
 78 84  2  0  0  0
 79148  1  0  0  0
 80 81  1  0  0  0
 80149  1  0  0  0
 80150  1  0  0  0
 81 82  1  0  0  0
 81151  1  0  0  0
 81152  1  0  0  0
 83153  1  0  0  0
M  ISO  4   1 100  68 101  79 101  83 100
M  END
> <chiral flag>
0

> <version>
0

> <s_m_source_file>
/data/baiqing/PycharmProjects/Reinvent-master-3.2/result/LINK_invent/BTK/process_docking_weight1_custom_product_contain_oxygen_bond_distance_aromatic_linkinvent_7_9_3/rearranged_h_0088.sdf

> <i_m_source_file_index>
59

> <r_mmod_Potential_Energy-OPLS-2005>
413.037658691406

> <r_mmod_Stretch_Energy-OPLS-2005>
173.132263183594

> <r_mmod_Bend_Energy-OPLS-2005>
268.947967529297

> <r_mmod_Torsional_Energy-OPLS-2005>
258.597137451172

> <r_mmod_Improper_Torsional_Energy-OPLS-2005>
4.46314859390259

> <r_mmod_Van_der_Waal_Energy-OPLS-2005>
147.602508544922

> <r_mmod_Electrostatic_Energy-OPLS-2005>
-365.751892089844

> <r_mmod_Solvation_Energy-OPLS-2005>
-207.254547119141

> <b_mmod_Minimization_Converged-OPLS-2005>
0

> <r_mmod_RMS_Derivative-OPLS-2005>
1.27008092403412

$$$$
59
                    3D
 Structure written by MMmdl.
150158  0  0  1  0            999 V2000
  -30.3638  -15.4723   20.3579 C   0  0  0  0  0  0
  -30.4511  -12.9717   19.4980 C   0  0  0  0  0  0
  -29.5386  -12.6168   18.2902 C   0  0  0  0  0  0
  -28.1040  -12.2832   18.7401 C   0  0  0  0  0  0
  -27.6125  -13.2591   19.8327 C   0  0  2  0  0  0
  -28.6693  -13.4704   20.9461 C   0  0  0  0  0  0
  -25.2329  -13.8125   20.5745 C   0  0  0  0  0  0
  -24.1698  -13.0337   20.9269 C   0  0  0  0  0  0
  -24.6383  -11.6856   20.8802 C   0  0  0  0  0  0
  -23.9080  -10.4238   21.0420 C   0  0  0  0  0  0
  -24.3625   -9.4155   21.9195 C   0  0  0  0  0  0
  -23.6286   -8.2203   22.0759 C   0  0  0  0  0  0
  -22.4271   -8.0263   21.3542 C   0  0  0  0  0  0
  -21.9913   -9.0240   20.4645 C   0  0  0  0  0  0
  -22.7257  -10.2104   20.3055 C   0  0  0  0  0  0
  -21.6846   -6.0728   22.5276 C   0  0  0  0  0  0
  -21.4013   -6.5632   23.8211 C   0  0  0  0  0  0
  -21.3654   -5.6786   24.9171 C   0  0  0  0  0  0
  -21.6042   -4.3047   24.7226 C   0  0  0  0  0  0
  -21.8821   -3.8141   23.4347 C   0  0  0  0  0  0
  -21.9188   -4.6957   22.3402 C   0  0  0  0  0  0
  -22.7717  -13.5118   21.1894 C   0  0  0  0  0  0
  -22.1656   -4.2141   21.0983 F   0  0  0  0  0  0
  -21.5624   -3.4531   25.7740 F   0  0  0  0  0  0
  -29.8369  -14.1172   20.2910 N   0  0  0  0  0  0
  -26.2831  -12.9412   20.3354 N   0  0  0  0  0  0
  -25.9339  -11.6531   20.5828 N   0  0  0  0  0  0
  -22.0370  -12.8133   22.0466 N   0  0  0  0  0  0
  -25.3742  -15.1845   20.4079 N   0  0  0  0  0  0
  -31.5984  -15.4359   20.2048 O   0  0  0  0  0  0
  -21.6623   -6.8871   21.4242 O   0  0  0  0  0  0
  -22.3405  -14.5419   20.6722 O   0  0  0  0  0  0
  -24.6712  -31.8147   23.1641 C   0  0  0  0  0  0
  -25.9353  -32.4541   23.8135 C   0  0  1  0  0  0
  -27.2345  -26.8391   20.1948 C   0  0  0  0  0  0
  -25.5989  -33.8360   24.2029 N   0  0  0  0  0  0
  -23.4924  -30.4223   21.5139 C   0  0  2  0  0  0
  -24.9523  -28.7940   20.1157 C   0  0  0  0  0  0
  -22.7712  -29.4394   22.4741 C   0  0  0  0  0  0
  -18.0333  -28.1415   22.8464 C   0  0  0  0  0  0
  -24.1495  -36.7188   23.2649 C   0  0  0  0  0  0
  -26.0672  -30.5889   21.4141 C   0  0  0  0  0  0
  -26.1362  -29.1684   20.7638 C   0  0  0  0  0  0
  -27.2644  -28.2125   20.7847 C   0  0  0  0  0  0
  -26.0260  -26.6563   19.4762 C   0  0  0  0  0  0
  -24.9273  -27.5579   19.4521 C   0  0  0  0  0  0
  -23.7408  -29.7311   20.1443 C   0  0  0  0  0  0
  -25.4138  -36.2938   24.0290 C   0  0  1  0  0  0
  -20.5962  -28.3769   23.1163 C   0  0  2  0  0  0
  -20.6804  -26.9439   22.5399 C   0  0  0  0  0  0
  -19.5776  -26.6376   21.5215 C   0  0  0  0  0  0
  -18.1960  -26.7946   22.1624 C   0  0  0  0  0  0
  -19.1597  -28.8913   23.2801 C   0  0  0  0  0  0
  -18.9503  -30.1500   23.8839 C   0  0  0  0  0  0
  -17.6495  -30.6601   24.0552 C   0  0  0  0  0  0
  -25.9110  -34.9324   23.4985 C   0  0  0  0  0  0
  -16.5385  -29.9085   23.6347 C   0  0  0  0  0  0
  -16.7315  -28.6507   23.0367 C   0  0  0  0  0  0
  -26.4576  -31.6524   25.0701 C   0  0  0  0  0  0
  -25.3671  -31.3812   26.1334 C   0  0  0  0  0  0
  -27.0493  -30.2875   24.6519 C   0  0  0  0  0  0
  -27.6044  -32.4362   25.7512 C   0  0  0  0  0  0
  -27.5563  -37.1753   24.8467 C   0  0  0  0  0  0
  -21.4369  -29.3045   22.3498 N   0  0  0  0  0  0
  -26.4277  -37.3680   23.9402 N   0  0  0  0  0  0
  -24.7651  -30.9716   22.0833 N   0  0  0  0  0  0
  -23.4216  -28.7972   23.3023 O   0  0  0  0  0  0
  -28.2064  -25.6664   20.2491 O   0  0  0  0  0  0
  -26.5730  -34.8877   22.4589 O   0  0  0  0  0  0
  -23.5757  -32.1165   23.6673 O   0  0  0  0  0  0
  -30.6197  -21.4136   20.4629 C   0  0  0  0  0  0
  -28.9276  -19.7256   20.2962 C   0  0  0  0  0  0
  -31.1795  -18.9255   20.5005 C   0  0  0  0  0  0
  -29.2193  -21.2651   20.3338 C   0  0  0  0  0  0
  -31.5367  -20.3145   20.5438 C   0  0  0  0  0  0
  -29.8503  -18.4533   20.3776 C   0  0  0  0  0  0
  -28.2097  -22.6807   20.2715 C   0  0  0  0  0  0
  -27.8320  -24.1509   20.2441 C   0  0  0  0  0  0
  -28.1404  -16.6051   20.3320 C   0  0  0  0  0  0
  -32.8896  -20.6248   20.6886 N   0  0  0  0  0  0
  -29.5815  -16.8041   20.3734 N   0  0  0  0  0  0
  -31.4361  -13.2455   19.1178 H   0  0  0  0  0  0
  -30.6275  -12.0978   20.1271 H   0  0  0  0  0  0
  -29.9604  -11.7824   17.7278 H   0  0  0  0  0  0
  -29.5113  -13.4646   17.6032 H   0  0  0  0  0  0
  -28.1034  -11.2673   19.1368 H   0  0  0  0  0  0
  -27.4247  -12.2814   17.8867 H   0  0  0  0  0  0
  -27.4952  -14.1916   19.2928 H   0  0  0  0  0  0
  -28.9285  -12.5168   21.4080 H   0  0  0  0  0  0
  -28.2969  -14.0678   21.7751 H   0  0  0  0  0  0
  -25.2771   -9.5622   22.4776 H   0  0  0  0  0  0
  -23.9979   -7.4591   22.7487 H   0  0  0  0  0  0
  -21.0837   -8.8773   19.8960 H   0  0  0  0  0  0
  -22.3729  -10.9650   19.6165 H   0  0  0  0  0  0
  -21.2011   -7.6140   23.9713 H   0  0  0  0  0  0
  -21.1472   -6.0515   25.9074 H   0  0  0  0  0  0
  -22.0607   -2.7605   23.2849 H   0  0  0  0  0  0
  -22.3999  -11.9811   22.4873 H   0  0  0  0  0  0
  -21.0989  -13.1167   22.2673 H   0  0  0  0  0  0
  -24.5994  -15.8264   20.5360 H   0  0  0  0  0  0
  -26.2243  -15.6430   20.1104 H   0  0  0  0  0  0
  -26.7426  -32.5055   23.0848 H   0  0  0  0  0  0
  -25.0065  -33.9415   25.0131 H   0  0  0  0  0  0
  -22.8111  -31.2565   21.3346 H   0  0  0  0  0  0
  -23.3761  -35.9513   23.3286 H   0  0  0  0  0  0
  -24.3570  -36.8865   22.2069 H   0  0  0  0  0  0
  -23.7252  -37.6365   23.6732 H   0  0  0  0  0  0
  -26.2582  -31.3210   20.6285 H   0  0  0  0  0  0
  -26.9225  -30.6521   22.0742 H   0  0  0  0  0  0
  -28.1529  -28.4990   21.3291 H   0  0  0  0  0  0
  -25.8899  -25.7281   18.9412 H   0  0  0  0  0  0
  -24.0353  -27.2660   18.9146 H   0  0  0  0  0  0
  -23.9044  -30.4963   19.3847 H   0  0  0  0  0  0
  -22.8493  -29.1889   19.8235 H   0  0  0  0  0  0
  -25.1343  -36.1719   25.0780 H   0  0  0  0  0  0
  -21.0055  -28.3382   24.1284 H   0  0  0  0  0  0
  -20.5677  -26.2388   23.3649 H   0  0  0  0  0  0
  -21.6664  -26.7398   22.1207 H   0  0  0  0  0  0
  -19.6930  -25.6271   21.1283 H   0  0  0  0  0  0
  -19.6713  -27.3149   20.6717 H   0  0  0  0  0  0
  -17.4227  -26.6688   21.4031 H   0  0  0  0  0  0
  -18.0356  -26.0103   22.9035 H   0  0  0  0  0  0
  -19.7977  -30.7336   24.2180 H   0  0  0  0  0  0
  -17.5044  -31.6275   24.5167 H   0  0  0  0  0  0
  -15.5383  -30.2969   23.7702 H   0  0  0  0  0  0
  -15.8716  -28.0807   22.7114 H   0  0  0  0  0  0
  -24.5860  -30.7160   25.7636 H   0  0  0  0  0  0
  -24.8851  -32.3025   26.4609 H   0  0  0  0  0  0
  -25.7864  -30.9066   27.0213 H   0  0  0  0  0  0
  -26.3187  -29.6517   24.1504 H   0  0  0  0  0  0
  -27.3956  -29.7288   25.5224 H   0  0  0  0  0  0
  -27.9157  -30.4030   24.0006 H   0  0  0  0  0  0
  -27.2590  -33.3715   26.1933 H   0  0  0  0  0  0
  -28.3933  -32.6840   25.0400 H   0  0  0  0  0  0
  -28.0625  -31.8595   26.5556 H   0  0  0  0  0  0
  -28.2566  -38.0061   24.7497 H   0  0  0  0  0  0
  -28.1073  -36.2582   24.6318 H   0  0  0  0  0  0
  -27.2277  -37.1424   25.8870 H   0  0  0  0  0  0
  -20.9641  -29.8727   21.6606 H   0  0  0  0  0  0
  -26.0115  -38.2735   24.1402 H   0  0  0  0  0  0
  -31.0074  -22.4223   20.5127 H   0  0  0  0  0  0
  -27.8724  -19.5258   20.1944 H   0  0  0  0  0  0
  -31.9644  -18.1864   20.5766 H   0  0  0  0  0  0
  -27.2374  -22.2077   20.2355 H   0  0  0  0  0  0
  -26.7532  -24.1894   20.2140 H   0  0  0  0  0  0
  -27.8042  -15.9359   21.1123 H   0  0  0  0  0  0
  -27.8439  -16.2592   19.3438 H   0  0  0  0  0  0
  -27.5661  -17.5051   20.5217 H   0  0  0  0  0  0
  -33.2121  -21.5718   20.5097 H   0  0  0  0  0  0
  -33.5947  -19.9165   20.5066 H   0  0  0  0  0  0
  1 25  1  0  0  0
  1 30  2  0  0  0
  1 81  1  0  0  0
  2  3  1  0  0  0
  2 25  1  0  0  0
  2 82  1  0  0  0
  2 83  1  0  0  0
  3  4  1  0  0  0
  3 84  1  0  0  0
  3 85  1  0  0  0
  4  5  1  0  0  0
  4 86  1  0  0  0
  4 87  1  0  0  0
  5  6  1  0  0  0
  5 26  1  0  0  0
  5 88  1  0  0  0
  6 25  1  0  0  0
  6 89  1  0  0  0
  6 90  1  0  0  0
  7  8  2  0  0  0
  7 26  1  0  0  0
  7 29  1  0  0  0
  8  9  1  0  0  0
  8 22  1  0  0  0
  9 10  1  0  0  0
  9 27  2  0  0  0
 10 11  2  0  0  0
 10 15  1  0  0  0
 11 12  1  0  0  0
 11 91  1  0  0  0
 12 13  2  0  0  0
 12 92  1  0  0  0
 13 14  1  0  0  0
 13 31  1  0  0  0
 14 15  2  0  0  0
 14 93  1  0  0  0
 15 94  1  0  0  0
 16 17  2  0  0  0
 16 21  1  0  0  0
 16 31  1  0  0  0
 17 18  1  0  0  0
 17 95  1  0  0  0
 18 19  2  0  0  0
 18 96  1  0  0  0
 19 20  1  0  0  0
 19 24  1  0  0  0
 20 21  2  0  0  0
 20 97  1  0  0  0
 21 23  1  0  0  0
 22 28  1  0  0  0
 22 32  2  0  0  0
 26 27  1  0  0  0
 28 98  1  0  0  0
 28 99  1  0  0  0
 29100  1  0  0  0
 29101  1  0  0  0
 33 34  1  0  0  0
 33 66  1  0  0  0
 33 70  2  0  0  0
 34 36  1  0  0  0
 34 59  1  0  0  0
 34102  1  0  0  0
 35 44  2  0  0  0
 35 45  1  0  0  0
 35 68  1  0  0  0
 36 56  1  0  0  0
 36103  1  0  0  0
 37 39  1  0  0  0
 37 47  1  0  0  0
 37 66  1  0  0  0
 37104  1  0  0  0
 38 43  2  0  0  0
 38 46  1  0  0  0
 38 47  1  0  0  0
 39 64  1  0  0  0
 39 67  2  0  0  0
 40 52  1  0  0  0
 40 53  2  0  0  0
 40 58  1  0  0  0
 41105  1  0  0  0
 41106  1  0  0  0
 41107  1  0  0  0
 41 48  1  0  0  0
 42 43  1  0  0  0
 42 66  1  0  0  0
 42108  1  0  0  0
 42109  1  0  0  0
 43 44  1  0  0  0
 44110  1  0  0  0
 45 46  2  0  0  0
 45111  1  0  0  0
 46112  1  0  0  0
 47113  1  0  0  0
 47114  1  0  0  0
 48 56  1  0  0  0
 48 65  1  0  0  0
 48115  1  0  0  0
 49 50  1  0  0  0
 49 53  1  0  0  0
 49 64  1  0  0  0
 49116  1  0  0  0
 50 51  1  0  0  0
 50117  1  0  0  0
 50118  1  0  0  0
 51 52  1  0  0  0
 51119  1  0  0  0
 51120  1  0  0  0
 52121  1  0  0  0
 52122  1  0  0  0
 53 54  1  0  0  0
 54 55  2  0  0  0
 54123  1  0  0  0
 55 57  1  0  0  0
 55124  1  0  0  0
 56 69  2  0  0  0
 57 58  2  0  0  0
 57125  1  0  0  0
 58126  1  0  0  0
 59 60  1  0  0  0
 59 61  1  0  0  0
 59 62  1  0  0  0
 60127  1  0  0  0
 60128  1  0  0  0
 60129  1  0  0  0
 61130  1  0  0  0
 61131  1  0  0  0
 61132  1  0  0  0
 62133  1  0  0  0
 62134  1  0  0  0
 62135  1  0  0  0
 63 65  1  0  0  0
 63136  1  0  0  0
 63137  1  0  0  0
 63138  1  0  0  0
 64139  1  0  0  0
 65140  1  0  0  0
 68 78  1  0  0  0
 71 74  2  0  0  0
 71 75  1  0  0  0
 71141  1  0  0  0
 72 74  1  0  0  0
 72 76  2  0  0  0
 72142  1  0  0  0
 73 75  2  0  0  0
 73 76  1  0  0  0
 73143  1  0  0  0
 74 77  1  0  0  0
 75 80  1  0  0  0
 76 81  1  0  0  0
 77 78  2  0  0  0
 77144  1  0  0  0
 78145  1  0  0  0
 79 81  1  0  0  0
 79146  1  0  0  0
 79147  1  0  0  0
 79148  1  0  0  0
 80149  1  0  0  0
 80150  1  0  0  0
M  ISO  4   1 100  68 101  78 101  81 100
M  END
> <chiral flag>
0

> <version>
0

> <s_m_source_file>
/data/baiqing/PycharmProjects/Reinvent-master-3.2/result/LINK_invent/BTK/process_docking_weight1_custom_product_contain_oxygen_bond_distance_aromatic_linkinvent_7_9_3/rearranged_h_0088.sdf

> <i_m_source_file_index>
60

> <r_mmod_Potential_Energy-OPLS-2005>
1915.06921386719

> <r_mmod_Stretch_Energy-OPLS-2005>
726.212463378906

> <r_mmod_Bend_Energy-OPLS-2005>
594.51416015625

> <r_mmod_Torsional_Energy-OPLS-2005>
261.144622802734

> <r_mmod_Improper_Torsional_Energy-OPLS-2005>
6.67976188659668

> <r_mmod_Van_der_Waal_Energy-OPLS-2005>
147.306976318359

> <r_mmod_Electrostatic_Energy-OPLS-2005>
-266.545837402344

> <r_mmod_Solvation_Energy-OPLS-2005>
-204.001922607422

> <b_mmod_Minimization_Converged-OPLS-2005>
0

> <r_mmod_RMS_Derivative-OPLS-2005>
0.857961475849152

$$$$
60
                    3D
 Structure written by MMmdl.
152160  0  0  1  0            999 V2000
  -30.7142  -14.6511   20.5016 C   0  0  0  0  0  0
  -30.4116  -12.4109   19.4561 C   0  0  0  0  0  0
  -29.4946  -12.4959   18.2213 C   0  0  0  0  0  0
  -28.0237  -12.3316   18.6436 C   0  0  0  0  0  0
  -27.6410  -13.2339   19.8481 C   0  0  2  0  0  0
  -28.6911  -13.1735   20.9797 C   0  0  0  0  0  0
  -25.2514  -13.8205   20.5706 C   0  0  0  0  0  0
  -24.1809  -13.0447   20.9218 C   0  0  0  0  0  0
  -24.6401  -11.6925   20.8757 C   0  0  0  0  0  0
  -23.9081  -10.4298   21.0414 C   0  0  0  0  0  0
  -24.3627   -9.4210   21.9190 C   0  0  0  0  0  0
  -23.6296   -8.2246   22.0757 C   0  0  0  0  0  0
  -22.4281   -8.0287   21.3544 C   0  0  0  0  0  0
  -21.9923   -9.0264   20.4647 C   0  0  0  0  0  0
  -22.7256  -10.2140   20.3060 C   0  0  0  0  0  0
  -21.6853   -6.0741   22.5277 C   0  0  0  0  0  0
  -21.4014   -6.5643   23.8212 C   0  0  0  0  0  0
  -21.3658   -5.6796   24.9173 C   0  0  0  0  0  0
  -21.6044   -4.3057   24.7223 C   0  0  0  0  0  0
  -21.8819   -3.8152   23.4343 C   0  0  0  0  0  0
  -21.9193   -4.6970   22.3399 C   0  0  0  0  0  0
  -22.7829  -13.5227   21.1869 C   0  0  0  0  0  0
  -22.1662   -4.2154   21.0977 F   0  0  0  0  0  0
  -21.5628   -3.4542   25.7736 F   0  0  0  0  0  0
  -29.9945  -13.4868   20.3835 N   0  0  0  0  0  0
  -26.2946  -12.9422   20.3304 N   0  0  0  0  0  0
  -25.9334  -11.6560   20.5775 N   0  0  0  0  0  0
  -22.0469  -12.8211   22.0412 N   0  0  0  0  0  0
  -25.4198  -15.1928   20.4099 N   0  0  0  0  0  0
  -31.9045  -14.6400   20.1776 O   0  0  0  0  0  0
  -21.6642   -6.8888   21.4241 O   0  0  0  0  0  0
  -22.3516  -14.5532   20.6714 O   0  0  0  0  0  0
  -24.6283  -31.8604   23.2053 C   0  0  0  0  0  0
  -25.9131  -32.4781   23.8367 C   0  0  1  0  0  0
  -27.2084  -27.3028   20.1118 C   0  0  0  0  0  0
  -25.5947  -33.8581   24.2291 N   0  0  0  0  0  0
  -23.4202  -30.4882   21.5497 C   0  0  2  0  0  0
  -24.8641  -28.9526   20.1082 C   0  0  0  0  0  0
  -22.7478  -29.4633   22.4947 C   0  0  0  0  0  0
  -18.0282  -28.1388   22.8488 C   0  0  0  0  0  0
  -24.1488  -36.7288   23.2635 C   0  0  0  0  0  0
  -25.9652  -30.7871   21.3793 C   0  0  0  0  0  0
  -26.0370  -29.4154   20.7184 C   0  0  0  0  0  0
  -27.2129  -28.6018   20.7148 C   0  0  0  0  0  0
  -26.0123  -26.9165   19.4568 C   0  0  0  0  0  0
  -24.8554  -27.7094   19.4677 C   0  0  0  0  0  0
  -23.6332  -29.8318   20.1624 C   0  0  0  0  0  0
  -25.4112  -36.3081   24.0327 C   0  0  1  0  0  0
  -20.5884  -28.3692   23.1285 C   0  0  2  0  0  0
  -20.6776  -26.9416   22.5405 C   0  0  0  0  0  0
  -19.5748  -26.6387   21.5210 C   0  0  0  0  0  0
  -18.1927  -26.7933   22.1621 C   0  0  0  0  0  0
  -19.1535  -28.8857   23.2880 C   0  0  0  0  0  0
  -18.9458  -30.1461   23.8895 C   0  0  0  0  0  0
  -17.6459  -30.6591   24.0561 C   0  0  0  0  0  0
  -25.9054  -34.9452   23.5104 C   0  0  0  0  0  0
  -16.5350  -29.9087   23.6338 C   0  0  0  0  0  0
  -16.7269  -28.6504   23.0360 C   0  0  0  0  0  0
  -26.4515  -31.6587   25.0734 C   0  0  0  0  0  0
  -25.3743  -31.3709   26.1452 C   0  0  0  0  0  0
  -27.0367  -30.3017   24.6185 C   0  0  0  0  0  0
  -27.6072  -32.4321   25.7506 C   0  0  0  0  0  0
  -27.5580  -37.1795   24.8460 C   0  0  0  0  0  0
  -21.4189  -29.3049   22.3687 N   0  0  0  0  0  0
  -26.4284  -37.3781   23.9416 N   0  0  0  0  0  0
  -24.6905  -31.0612   22.1015 N   0  0  0  0  0  0
  -23.4199  -28.8156   23.3013 O   0  0  0  0  0  0
  -28.2907  -26.4001   20.1841 O   0  0  0  0  0  0
  -26.5611  -34.8918   22.4663 O   0  0  0  0  0  0
  -23.5447  -32.1407   23.7380 O   0  0  0  0  0  0
  -30.9119  -19.5777   20.6341 C   0  0  0  0  0  0
  -30.4384  -20.9156   20.5055 C   0  0  0  0  0  0
  -28.6667  -18.7416   20.8252 C   0  0  0  0  0  0
  -30.0539  -18.4467   20.7953 C   0  0  0  0  0  0
  -29.0547  -21.2072   20.5316 C   0  0  0  0  0  0
  -28.1858  -20.0856   20.6992 C   0  0  0  0  0  0
  -30.6802  -17.0480   21.0287 C   0  0  0  0  0  0
  -28.9592  -23.8224   20.3598 C   0  0  0  0  0  0
  -27.9494  -24.9671   19.9492 C   0  0  0  0  0  0
  -26.8108  -20.3108   20.7607 N   0  0  0  0  0  0
  -28.4730  -22.5365   20.3312 N   0  0  0  0  0  0
  -30.0624  -15.8482   20.7382 N   0  0  0  0  0  0
  -31.8309  -17.0718   21.4844 O   0  0  0  0  0  0
  -30.1178  -24.0989   20.6824 O   0  0  0  0  0  0
  -31.4556  -12.4883   19.1473 H   0  0  0  0  0  0
  -30.3200  -11.4362   19.9386 H   0  0  0  0  0  0
  -29.7637  -11.7279   17.4946 H   0  0  0  0  0  0
  -29.6328  -13.4553   17.7204 H   0  0  0  0  0  0
  -27.8764  -11.2837   18.9075 H   0  0  0  0  0  0
  -27.3626  -12.5269   17.7986 H   0  0  0  0  0  0
  -27.6355  -14.2551   19.4666 H   0  0  0  0  0  0
  -28.7114  -12.1848   21.4402 H   0  0  0  0  0  0
  -28.4441  -13.8788   21.7747 H   0  0  0  0  0  0
  -25.2769   -9.5681   22.4772 H   0  0  0  0  0  0
  -24.0002   -7.4638   22.7480 H   0  0  0  0  0  0
  -21.0856   -8.8789   19.8950 H   0  0  0  0  0  0
  -22.3722  -10.9683   19.6171 H   0  0  0  0  0  0
  -21.2005   -7.6151   23.9715 H   0  0  0  0  0  0
  -21.1481   -6.0526   25.9075 H   0  0  0  0  0  0
  -22.0599   -2.7615   23.2841 H   0  0  0  0  0  0
  -22.4082  -11.9866   22.4790 H   0  0  0  0  0  0
  -21.1083  -13.1233   22.2608 H   0  0  0  0  0  0
  -24.6484  -15.8437   20.5107 H   0  0  0  0  0  0
  -26.2586  -15.6284   20.0494 H   0  0  0  0  0  0
  -26.7196  -32.5447   23.1111 H   0  0  0  0  0  0
  -25.0109  -33.9727   25.0449 H   0  0  0  0  0  0
  -22.7141  -31.3097   21.4114 H   0  0  0  0  0  0
  -23.3757  -35.9611   23.3279 H   0  0  0  0  0  0
  -24.3584  -36.8930   22.2053 H   0  0  0  0  0  0
  -23.7233  -37.6481   23.6670 H   0  0  0  0  0  0
  -26.0972  -31.5512   20.6117 H   0  0  0  0  0  0
  -26.8462  -30.8354   22.0074 H   0  0  0  0  0  0
  -28.1074  -28.9480   21.2138 H   0  0  0  0  0  0
  -25.9197  -25.9770   18.9347 H   0  0  0  0  0  0
  -23.9602  -27.3534   18.9768 H   0  0  0  0  0  0
  -23.7496  -30.6116   19.4091 H   0  0  0  0  0  0
  -22.7527  -29.2619   19.8596 H   0  0  0  0  0  0
  -25.1292  -36.1924   25.0818 H   0  0  0  0  0  0
  -20.9969  -28.3258   24.1409 H   0  0  0  0  0  0
  -20.5690  -26.2293   23.3599 H   0  0  0  0  0  0
  -21.6646  -26.7457   22.1190 H   0  0  0  0  0  0
  -19.6912  -25.6297   21.1240 H   0  0  0  0  0  0
  -19.6689  -27.3197   20.6740 H   0  0  0  0  0  0
  -17.4198  -26.6684   21.4021 H   0  0  0  0  0  0
  -18.0327  -26.0070   22.9014 H   0  0  0  0  0  0
  -19.7932  -30.7280   24.2263 H   0  0  0  0  0  0
  -17.5011  -31.6276   24.5156 H   0  0  0  0  0  0
  -15.5352  -30.2988   23.7670 H   0  0  0  0  0  0
  -15.8664  -28.0821   22.7090 H   0  0  0  0  0  0
  -24.5939  -30.7035   25.7774 H   0  0  0  0  0  0
  -24.8906  -32.2862   26.4870 H   0  0  0  0  0  0
  -25.8071  -30.8896   27.0229 H   0  0  0  0  0  0
  -26.2948  -29.6753   24.1217 H   0  0  0  0  0  0
  -27.4087  -29.7285   25.4687 H   0  0  0  0  0  0
  -27.8805  -30.4315   23.9401 H   0  0  0  0  0  0
  -27.2699  -33.3638   26.2055 H   0  0  0  0  0  0
  -28.3904  -32.6845   25.0345 H   0  0  0  0  0  0
  -28.0709  -31.8452   26.5445 H   0  0  0  0  0  0
  -28.2573  -38.0118   24.7552 H   0  0  0  0  0  0
  -28.1106  -36.2654   24.6233 H   0  0  0  0  0  0
  -27.2301  -37.1377   25.8861 H   0  0  0  0  0  0
  -20.9363  -29.8782   21.6910 H   0  0  0  0  0  0
  -26.0159  -38.2846   24.1444 H   0  0  0  0  0  0
  -31.9827  -19.4263   20.6157 H   0  0  0  0  0  0
  -31.1562  -21.7129   20.3747 H   0  0  0  0  0  0
  -27.9677  -17.9303   20.9697 H   0  0  0  0  0  0
  -27.0230  -24.7285   20.4750 H   0  0  0  0  0  0
  -27.7672  -24.8304   18.8825 H   0  0  0  0  0  0
  -26.2478  -19.5366   21.0966 H   0  0  0  0  0  0
  -26.5211  -21.1767   21.2007 H   0  0  0  0  0  0
  -27.4907  -22.4852   20.0995 H   0  0  0  0  0  0
  -29.0631  -15.8588   20.6316 H   0  0  0  0  0  0
  1 25  1  0  0  0
  1 30  2  0  0  0
  1 82  1  0  0  0
  2  3  1  0  0  0
  2 25  1  0  0  0
  2 85  1  0  0  0
  2 86  1  0  0  0
  3  4  1  0  0  0
  3 87  1  0  0  0
  3 88  1  0  0  0
  4  5  1  0  0  0
  4 89  1  0  0  0
  4 90  1  0  0  0
  5  6  1  0  0  0
  5 26  1  0  0  0
  5 91  1  0  0  0
  6 25  1  0  0  0
  6 92  1  0  0  0
  6 93  1  0  0  0
  7  8  2  0  0  0
  7 26  1  0  0  0
  7 29  1  0  0  0
  8  9  1  0  0  0
  8 22  1  0  0  0
  9 10  1  0  0  0
  9 27  2  0  0  0
 10 11  2  0  0  0
 10 15  1  0  0  0
 11 12  1  0  0  0
 11 94  1  0  0  0
 12 13  2  0  0  0
 12 95  1  0  0  0
 13 14  1  0  0  0
 13 31  1  0  0  0
 14 15  2  0  0  0
 14 96  1  0  0  0
 15 97  1  0  0  0
 16 17  2  0  0  0
 16 21  1  0  0  0
 16 31  1  0  0  0
 17 18  1  0  0  0
 17 98  1  0  0  0
 18 19  2  0  0  0
 18 99  1  0  0  0
 19 20  1  0  0  0
 19 24  1  0  0  0
 20 21  2  0  0  0
 20100  1  0  0  0
 21 23  1  0  0  0
 22 28  1  0  0  0
 22 32  2  0  0  0
 26 27  1  0  0  0
 28101  1  0  0  0
 28102  1  0  0  0
 29103  1  0  0  0
 29104  1  0  0  0
 33 34  1  0  0  0
 33 66  1  0  0  0
 33 70  2  0  0  0
 34 36  1  0  0  0
 34 59  1  0  0  0
 34105  1  0  0  0
 35 44  2  0  0  0
 35 45  1  0  0  0
 35 68  1  0  0  0
 36 56  1  0  0  0
 36106  1  0  0  0
 37 39  1  0  0  0
 37 47  1  0  0  0
 37 66  1  0  0  0
 37107  1  0  0  0
 38 43  2  0  0  0
 38 46  1  0  0  0
 38 47  1  0  0  0
 39 64  1  0  0  0
 39 67  2  0  0  0
 40 52  1  0  0  0
 40 53  2  0  0  0
 40 58  1  0  0  0
 41108  1  0  0  0
 41109  1  0  0  0
 41110  1  0  0  0
 41 48  1  0  0  0
 42 43  1  0  0  0
 42 66  1  0  0  0
 42111  1  0  0  0
 42112  1  0  0  0
 43 44  1  0  0  0
 44113  1  0  0  0
 45 46  2  0  0  0
 45114  1  0  0  0
 46115  1  0  0  0
 47116  1  0  0  0
 47117  1  0  0  0
 48 56  1  0  0  0
 48 65  1  0  0  0
 48118  1  0  0  0
 49 50  1  0  0  0
 49 53  1  0  0  0
 49 64  1  0  0  0
 49119  1  0  0  0
 50 51  1  0  0  0
 50120  1  0  0  0
 50121  1  0  0  0
 51 52  1  0  0  0
 51122  1  0  0  0
 51123  1  0  0  0
 52124  1  0  0  0
 52125  1  0  0  0
 53 54  1  0  0  0
 54 55  2  0  0  0
 54126  1  0  0  0
 55 57  1  0  0  0
 55127  1  0  0  0
 56 69  2  0  0  0
 57 58  2  0  0  0
 57128  1  0  0  0
 58129  1  0  0  0
 59 60  1  0  0  0
 59 61  1  0  0  0
 59 62  1  0  0  0
 60130  1  0  0  0
 60131  1  0  0  0
 60132  1  0  0  0
 61133  1  0  0  0
 61134  1  0  0  0
 61135  1  0  0  0
 62136  1  0  0  0
 62137  1  0  0  0
 62138  1  0  0  0
 63 65  1  0  0  0
 63139  1  0  0  0
 63140  1  0  0  0
 63141  1  0  0  0
 64142  1  0  0  0
 65143  1  0  0  0
 68 79  1  0  0  0
 71 72  2  0  0  0
 71 74  1  0  0  0
 71144  1  0  0  0
 72 75  1  0  0  0
 72145  1  0  0  0
 73 74  2  0  0  0
 73 76  1  0  0  0
 73146  1  0  0  0
 74 77  1  0  0  0
 75 76  2  0  0  0
 75 81  1  0  0  0
 76 80  1  0  0  0
 77 82  1  0  0  0
 77 83  2  0  0  0
 78 79  1  0  0  0
 78 81  1  0  0  0
 78 84  2  0  0  0
 79147  1  0  0  0
 79148  1  0  0  0
 80149  1  0  0  0
 80150  1  0  0  0
 81151  1  0  0  0
 82152  1  0  0  0
M  ISO  4   1 100  68 101  79 101  82 100
M  END
> <chiral flag>
0

> <version>
0

> <s_m_source_file>
/data/baiqing/PycharmProjects/Reinvent-master-3.2/result/LINK_invent/BTK/process_docking_weight1_custom_product_contain_oxygen_bond_distance_aromatic_linkinvent_7_9_3/rearranged_h_0088.sdf

> <i_m_source_file_index>
61

> <r_mmod_Potential_Energy-OPLS-2005>
-94.3634033203125

> <r_mmod_Stretch_Energy-OPLS-2005>
85.0827026367188

> <r_mmod_Bend_Energy-OPLS-2005>
160.320205688477

> <r_mmod_Torsional_Energy-OPLS-2005>
240.028686523438

> <r_mmod_Improper_Torsional_Energy-OPLS-2005>
10.4859418869019

> <r_mmod_Van_der_Waal_Energy-OPLS-2005>
165.871932983398

> <r_mmod_Electrostatic_Energy-OPLS-2005>
-550.525451660156

> <r_mmod_Solvation_Energy-OPLS-2005>
-270.326599121094

> <b_mmod_Minimization_Converged-OPLS-2005>
0

> <r_mmod_RMS_Derivative-OPLS-2005>
0.7093545794487

$$$$
61
                    3D
 Structure written by MMmdl.
147155  0  0  1  0            999 V2000
  -30.5753  -14.7267   20.4829 C   0  0  0  0  0  0
  -30.4494  -12.4419   19.4713 C   0  0  0  0  0  0
  -29.5162  -12.4990   18.2392 C   0  0  0  0  0  0
  -28.0415  -12.3170   18.6528 C   0  0  0  0  0  0
  -27.6482  -13.2153   19.8542 C   0  0  2  0  0  0
  -28.6905  -13.1111   20.9903 C   0  0  0  0  0  0
  -25.2554  -13.8158   20.5666 C   0  0  0  0  0  0
  -24.1821  -13.0437   20.9198 C   0  0  0  0  0  0
  -24.6384  -11.6910   20.8757 C   0  0  0  0  0  0
  -23.9057  -10.4300   21.0422 C   0  0  0  0  0  0
  -24.3618   -9.4214   21.9186 C   0  0  0  0  0  0
  -23.6298   -8.2250   22.0754 C   0  0  0  0  0  0
  -22.4281   -8.0286   21.3547 C   0  0  0  0  0  0
  -21.9909   -9.0264   20.4658 C   0  0  0  0  0  0
  -22.7232  -10.2143   20.3071 C   0  0  0  0  0  0
  -21.6854   -6.0734   22.5278 C   0  0  0  0  0  0
  -21.4021   -6.5642   23.8210 C   0  0  0  0  0  0
  -21.3658   -5.6793   24.9172 C   0  0  0  0  0  0
  -21.6040   -4.3057   24.7222 C   0  0  0  0  0  0
  -21.8818   -3.8150   23.4347 C   0  0  0  0  0  0
  -21.9192   -4.6963   22.3403 C   0  0  0  0  0  0
  -22.7849  -13.5241   21.1860 C   0  0  0  0  0  0
  -22.1650   -4.2148   21.0982 F   0  0  0  0  0  0
  -21.5633   -3.4540   25.7736 F   0  0  0  0  0  0
  -29.9985  -13.4783   20.4253 N   0  0  0  0  0  0
  -26.2966  -12.9332   20.3273 N   0  0  0  0  0  0
  -25.9303  -11.6502   20.5745 N   0  0  0  0  0  0
  -22.0500  -12.8244   22.0428 N   0  0  0  0  0  0
  -25.4282  -15.1879   20.4052 N   0  0  0  0  0  0
  -31.7477  -14.8935   20.1314 O   0  0  0  0  0  0
  -21.6650   -6.8875   21.4240 O   0  0  0  0  0  0
  -22.3534  -14.5543   20.6700 O   0  0  0  0  0  0
  -24.6273  -31.8586   23.1995 C   0  0  0  0  0  0
  -25.9097  -32.4784   23.8348 C   0  0  1  0  0  0
  -27.2301  -27.2940   20.1369 C   0  0  0  0  0  0
  -25.5890  -33.8586   24.2268 N   0  0  0  0  0  0
  -23.4264  -30.4776   21.5423 C   0  0  2  0  0  0
  -24.8786  -28.9279   20.1115 C   0  0  0  0  0  0
  -22.7502  -29.4596   22.4927 C   0  0  0  0  0  0
  -18.0294  -28.1369   22.8494 C   0  0  0  0  0  0
  -24.1484  -36.7316   23.2630 C   0  0  0  0  0  0
  -25.9684  -30.7818   21.3747 C   0  0  0  0  0  0
  -26.0468  -29.4038   20.7233 C   0  0  0  0  0  0
  -27.2281  -28.5981   20.7279 C   0  0  0  0  0  0
  -26.0451  -26.8786   19.4934 C   0  0  0  0  0  0
  -24.8803  -27.6711   19.4861 C   0  0  0  0  0  0
  -23.6464  -29.8110   20.1585 C   0  0  0  0  0  0
  -25.4105  -36.3106   24.0334 C   0  0  1  0  0  0
  -20.5895  -28.3688   23.1288 C   0  0  2  0  0  0
  -20.6772  -26.9400   22.5437 C   0  0  0  0  0  0
  -19.5759  -26.6376   21.5230 C   0  0  0  0  0  0
  -18.1940  -26.7913   22.1634 C   0  0  0  0  0  0
  -19.1544  -28.8845   23.2884 C   0  0  0  0  0  0
  -18.9461  -30.1443   23.8909 C   0  0  0  0  0  0
  -17.6459  -30.6576   24.0560 C   0  0  0  0  0  0
  -25.9045  -34.9467   23.5115 C   0  0  0  0  0  0
  -16.5353  -29.9088   23.6299 C   0  0  0  0  0  0
  -16.7280  -28.6495   23.0341 C   0  0  0  0  0  0
  -26.4455  -31.6594   25.0724 C   0  0  0  0  0  0
  -25.3676  -31.3802   26.1463 C   0  0  0  0  0  0
  -27.0231  -30.2991   24.6171 C   0  0  0  0  0  0
  -27.6052  -32.4286   25.7459 C   0  0  0  0  0  0
  -27.5597  -37.1794   24.8448 C   0  0  0  0  0  0
  -21.4206  -29.3042   22.3687 N   0  0  0  0  0  0
  -26.4294  -37.3798   23.9416 N   0  0  0  0  0  0
  -24.6929  -31.0568   22.0958 N   0  0  0  0  0  0
  -23.4218  -28.8134   23.3011 O   0  0  0  0  0  0
  -28.3105  -26.3910   20.1724 O   0  0  0  0  0  0
  -26.5642  -34.8934   22.4698 O   0  0  0  0  0  0
  -23.5423  -32.1388   23.7299 O   0  0  0  0  0  0
  -28.5346  -23.8451   20.3861 C   0  0  0  0  0  0
  -28.4954  -19.4159   21.0222 C   0  0  0  0  0  0
  -28.5684  -17.9839   21.0271 C   0  0  0  0  0  0
  -30.8506  -18.0704   20.3163 C   0  0  0  0  0  0
  -29.6059  -20.2343   20.6795 C   0  0  0  0  0  0
  -29.7474  -17.2521   20.6946 C   0  0  0  0  0  0
  -30.7833  -19.5077   20.3112 C   0  0  0  0  0  0
  -28.0518  -25.0771   20.6486 C   0  0  0  0  0  0
  -29.6043  -21.7832   20.8679 C   0  0  0  0  0  0
  -28.6759  -22.6196   20.1865 N   0  0  0  0  0  0
  -29.7135  -15.7697   20.7749 N   0  0  0  0  0  0
  -30.4773  -22.2268   21.6191 O   0  0  0  0  0  0
  -31.9010  -20.1953   19.9709 F   0  0  0  0  0  0
  -31.4864  -12.5911   19.1664 H   0  0  0  0  0  0
  -30.4137  -11.4570   19.9386 H   0  0  0  0  0  0
  -29.8001  -11.7314   17.5178 H   0  0  0  0  0  0
  -29.6368  -13.4562   17.7292 H   0  0  0  0  0  0
  -27.9078  -11.2681   18.9206 H   0  0  0  0  0  0
  -27.3801  -12.4982   17.8051 H   0  0  0  0  0  0
  -27.6530  -14.2399   19.4813 H   0  0  0  0  0  0
  -28.7207  -12.0975   21.3936 H   0  0  0  0  0  0
  -28.4177  -13.7566   21.8268 H   0  0  0  0  0  0
  -25.2767   -9.5689   22.4749 H   0  0  0  0  0  0
  -24.0013   -7.4635   22.7468 H   0  0  0  0  0  0
  -21.0841   -8.8780   19.8966 H   0  0  0  0  0  0
  -22.3688  -10.9682   19.6195 H   0  0  0  0  0  0
  -21.2017   -7.6153   23.9712 H   0  0  0  0  0  0
  -21.1480   -6.0530   25.9075 H   0  0  0  0  0  0
  -22.0599   -2.7616   23.2845 H   0  0  0  0  0  0
  -22.4125  -11.9932   22.4853 H   0  0  0  0  0  0
  -21.1120  -13.1272   22.2642 H   0  0  0  0  0  0
  -24.6593  -15.8411   20.5091 H   0  0  0  0  0  0
  -26.2651  -15.6220   20.0371 H   0  0  0  0  0  0
  -26.7170  -32.5448   23.1102 H   0  0  0  0  0  0
  -24.9970  -33.9729   25.0368 H   0  0  0  0  0  0
  -22.7206  -31.2968   21.3952 H   0  0  0  0  0  0
  -23.3753  -35.9643   23.3284 H   0  0  0  0  0  0
  -24.3586  -36.8940   22.2049 H   0  0  0  0  0  0
  -23.7226  -37.6517   23.6644 H   0  0  0  0  0  0
  -26.0950  -31.5380   20.5995 H   0  0  0  0  0  0
  -26.8497  -30.8416   22.0012 H   0  0  0  0  0  0
  -28.1219  -28.9552   21.2195 H   0  0  0  0  0  0
  -26.0112  -25.9095   19.0142 H   0  0  0  0  0  0
  -23.9883  -27.3008   19.0004 H   0  0  0  0  0  0
  -23.7697  -30.5869   19.4028 H   0  0  0  0  0  0
  -22.7665  -29.2423   19.8515 H   0  0  0  0  0  0
  -25.1277  -36.1972   25.0830 H   0  0  0  0  0  0
  -20.9981  -28.3260   24.1411 H   0  0  0  0  0  0
  -20.5657  -26.2298   23.3651 H   0  0  0  0  0  0
  -21.6644  -26.7408   22.1243 H   0  0  0  0  0  0
  -19.6922  -25.6288   21.1261 H   0  0  0  0  0  0
  -19.6697  -27.3184   20.6764 H   0  0  0  0  0  0
  -17.4208  -26.6655   21.4036 H   0  0  0  0  0  0
  -18.0336  -26.0054   22.9033 H   0  0  0  0  0  0
  -19.7937  -30.7251   24.2298 H   0  0  0  0  0  0
  -17.5012  -31.6255   24.5167 H   0  0  0  0  0  0
  -15.5353  -30.2996   23.7606 H   0  0  0  0  0  0
  -15.8680  -28.0817   22.7047 H   0  0  0  0  0  0
  -24.5834  -30.7147   25.7830 H   0  0  0  0  0  0
  -24.8874  -32.2996   26.4821 H   0  0  0  0  0  0
  -25.7985  -30.9042   27.0279 H   0  0  0  0  0  0
  -26.2786  -29.6813   24.1132 H   0  0  0  0  0  0
  -27.3828  -29.7186   25.4678 H   0  0  0  0  0  0
  -27.8714  -30.4240   23.9439 H   0  0  0  0  0  0
  -27.2694  -33.3561   26.2098 H   0  0  0  0  0  0
  -28.3812  -32.6875   25.0247 H   0  0  0  0  0  0
  -28.0764  -31.8362   26.5309 H   0  0  0  0  0  0
  -28.2606  -38.0101   24.7523 H   0  0  0  0  0  0
  -28.1104  -36.2645   24.6217 H   0  0  0  0  0  0
  -27.2337  -37.1379   25.8855 H   0  0  0  0  0  0
  -20.9395  -29.8799   21.6917 H   0  0  0  0  0  0
  -26.0193  -38.2876   24.1443 H   0  0  0  0  0  0
  -27.5723  -19.8908   21.3262 H   0  0  0  0  0  0
  -27.6806  -17.4393   21.3174 H   0  0  0  0  0  0
  -31.7843  -17.6053   20.0382 H   0  0  0  0  0  0
  -27.2729  -25.1460   21.3968 H   0  0  0  0  0  0
  -28.8114  -15.4082   21.0414 H   0  0  0  0  0  0
  1 25  1  0  0  0
  1 30  2  0  0  0
  1 81  1  0  0  0
  2  3  1  0  0  0
  2 25  1  0  0  0
  2 84  1  0  0  0
  2 85  1  0  0  0
  3  4  1  0  0  0
  3 86  1  0  0  0
  3 87  1  0  0  0
  4  5  1  0  0  0
  4 88  1  0  0  0
  4 89  1  0  0  0
  5  6  1  0  0  0
  5 26  1  0  0  0
  5 90  1  0  0  0
  6 25  1  0  0  0
  6 91  1  0  0  0
  6 92  1  0  0  0
  7  8  2  0  0  0
  7 26  1  0  0  0
  7 29  1  0  0  0
  8  9  1  0  0  0
  8 22  1  0  0  0
  9 10  1  0  0  0
  9 27  2  0  0  0
 10 11  2  0  0  0
 10 15  1  0  0  0
 11 12  1  0  0  0
 11 93  1  0  0  0
 12 13  2  0  0  0
 12 94  1  0  0  0
 13 14  1  0  0  0
 13 31  1  0  0  0
 14 15  2  0  0  0
 14 95  1  0  0  0
 15 96  1  0  0  0
 16 17  2  0  0  0
 16 21  1  0  0  0
 16 31  1  0  0  0
 17 18  1  0  0  0
 17 97  1  0  0  0
 18 19  2  0  0  0
 18 98  1  0  0  0
 19 20  1  0  0  0
 19 24  1  0  0  0
 20 21  2  0  0  0
 20 99  1  0  0  0
 21 23  1  0  0  0
 22 28  1  0  0  0
 22 32  2  0  0  0
 26 27  1  0  0  0
 28100  1  0  0  0
 28101  1  0  0  0
 29102  1  0  0  0
 29103  1  0  0  0
 33 34  1  0  0  0
 33 66  1  0  0  0
 33 70  2  0  0  0
 34 36  1  0  0  0
 34 59  1  0  0  0
 34104  1  0  0  0
 35 44  2  0  0  0
 35 45  1  0  0  0
 35 68  1  0  0  0
 36 56  1  0  0  0
 36105  1  0  0  0
 37 39  1  0  0  0
 37 47  1  0  0  0
 37 66  1  0  0  0
 37106  1  0  0  0
 38 43  2  0  0  0
 38 46  1  0  0  0
 38 47  1  0  0  0
 39 64  1  0  0  0
 39 67  2  0  0  0
 40 52  1  0  0  0
 40 53  2  0  0  0
 40 58  1  0  0  0
 41107  1  0  0  0
 41108  1  0  0  0
 41109  1  0  0  0
 41 48  1  0  0  0
 42 43  1  0  0  0
 42 66  1  0  0  0
 42110  1  0  0  0
 42111  1  0  0  0
 43 44  1  0  0  0
 44112  1  0  0  0
 45 46  2  0  0  0
 45113  1  0  0  0
 46114  1  0  0  0
 47115  1  0  0  0
 47116  1  0  0  0
 48 56  1  0  0  0
 48 65  1  0  0  0
 48117  1  0  0  0
 49 50  1  0  0  0
 49 53  1  0  0  0
 49 64  1  0  0  0
 49118  1  0  0  0
 50 51  1  0  0  0
 50119  1  0  0  0
 50120  1  0  0  0
 51 52  1  0  0  0
 51121  1  0  0  0
 51122  1  0  0  0
 52123  1  0  0  0
 52124  1  0  0  0
 53 54  1  0  0  0
 54 55  2  0  0  0
 54125  1  0  0  0
 55 57  1  0  0  0
 55126  1  0  0  0
 56 69  2  0  0  0
 57 58  2  0  0  0
 57127  1  0  0  0
 58128  1  0  0  0
 59 60  1  0  0  0
 59 61  1  0  0  0
 59 62  1  0  0  0
 60129  1  0  0  0
 60130  1  0  0  0
 60131  1  0  0  0
 61132  1  0  0  0
 61133  1  0  0  0
 61134  1  0  0  0
 62135  1  0  0  0
 62136  1  0  0  0
 62137  1  0  0  0
 63 65  1  0  0  0
 63138  1  0  0  0
 63139  1  0  0  0
 63140  1  0  0  0
 64141  1  0  0  0
 65142  1  0  0  0
 68 78  1  0  0  0
 71 78  2  0  0  0
 71 80  2  0  0  0
 72 73  2  0  0  0
 72 75  1  0  0  0
 72143  1  0  0  0
 73 76  1  0  0  0
 73144  1  0  0  0
 74 76  2  0  0  0
 74 77  1  0  0  0
 74145  1  0  0  0
 75 77  2  0  0  0
 75 79  1  0  0  0
 76 81  1  0  0  0
 77 83  1  0  0  0
 78146  1  0  0  0
 79 80  1  0  0  0
 79 82  2  0  0  0
 81147  1  0  0  0
M  ISO  4   1 100  68 101  78 101  81 100
M  END
> <chiral flag>
0

> <version>
0

> <s_m_source_file>
/data/baiqing/PycharmProjects/Reinvent-master-3.2/result/LINK_invent/BTK/process_docking_weight1_custom_product_contain_oxygen_bond_distance_aromatic_linkinvent_7_9_3/rearranged_h_0088.sdf

> <i_m_source_file_index>
62

> <r_mmod_Potential_Energy-OPLS-2005>
97.0610122680664

> <r_mmod_Stretch_Energy-OPLS-2005>
93.8885345458984

> <r_mmod_Bend_Energy-OPLS-2005>
154.494064331055

> <r_mmod_Torsional_Energy-OPLS-2005>
175.175521850586

> <r_mmod_Improper_Torsional_Energy-OPLS-2005>
5.05797052383423

> <r_mmod_Van_der_Waal_Energy-OPLS-2005>
140.044418334961

> <r_mmod_Electrostatic_Energy-OPLS-2005>
-344.949249267578

> <r_mmod_Solvation_Energy-OPLS-2005>
-202.269989013672

> <b_mmod_Minimization_Converged-OPLS-2005>
0

> <r_mmod_RMS_Derivative-OPLS-2005>
2.00100302696228

$$$$
62
                    3D
 Structure written by MMmdl.
148156  0  0  1  0            999 V2000
  -30.6167  -14.8129   20.4434 C   0  0  0  0  0  0
  -30.4281  -12.4985   19.4862 C   0  0  0  0  0  0
  -29.5107  -12.5114   18.2442 C   0  0  0  0  0  0
  -28.0403  -12.3249   18.6606 C   0  0  0  0  0  0
  -27.6358  -13.2429   19.8450 C   0  0  2  0  0  0
  -28.6810  -13.2262   20.9821 C   0  0  0  0  0  0
  -25.2483  -13.8216   20.5709 C   0  0  0  0  0  0
  -24.1789  -13.0441   20.9214 C   0  0  0  0  0  0
  -24.6399  -11.6925   20.8754 C   0  0  0  0  0  0
  -23.9080  -10.4294   21.0406 C   0  0  0  0  0  0
  -24.3627   -9.4207   21.9182 C   0  0  0  0  0  0
  -23.6300   -8.2244   22.0753 C   0  0  0  0  0  0
  -22.4282   -8.0281   21.3542 C   0  0  0  0  0  0
  -21.9918   -9.0256   20.4643 C   0  0  0  0  0  0
  -22.7250  -10.2134   20.3053 C   0  0  0  0  0  0
  -21.6856   -6.0736   22.5277 C   0  0  0  0  0  0
  -21.4016   -6.5640   23.8210 C   0  0  0  0  0  0
  -21.3659   -5.6794   24.9173 C   0  0  0  0  0  0
  -21.6043   -4.3056   24.7225 C   0  0  0  0  0  0
  -21.8820   -3.8145   23.4347 C   0  0  0  0  0  0
  -21.9195   -4.6963   22.3403 C   0  0  0  0  0  0
  -22.7808  -13.5210   21.1870 C   0  0  0  0  0  0
  -22.1662   -4.2149   21.0980 F   0  0  0  0  0  0
  -21.5629   -3.4541   25.7738 F   0  0  0  0  0  0
  -29.9739  -13.5881   20.3895 N   0  0  0  0  0  0
  -26.2915  -12.9444   20.3278 N   0  0  0  0  0  0
  -25.9332  -11.6574   20.5758 N   0  0  0  0  0  0
  -22.0462  -12.8197   22.0430 N   0  0  0  0  0  0
  -25.4143  -15.1945   20.4134 N   0  0  0  0  0  0
  -31.8130  -14.8395   20.1450 O   0  0  0  0  0  0
  -21.6645   -6.8880   21.4238 O   0  0  0  0  0  0
  -22.3486  -14.5512   20.6717 O   0  0  0  0  0  0
  -24.6364  -31.8522   23.1955 C   0  0  0  0  0  0
  -25.9173  -32.4738   23.8316 C   0  0  1  0  0  0
  -27.2136  -27.2216   20.1378 C   0  0  0  0  0  0
  -25.5952  -33.8540   24.2239 N   0  0  0  0  0  0
  -23.4362  -30.4745   21.5390 C   0  0  2  0  0  0
  -24.8877  -28.9214   20.1047 C   0  0  0  0  0  0
  -22.7540  -29.4587   22.4883 C   0  0  0  0  0  0
  -18.0304  -28.1395   22.8489 C   0  0  0  0  0  0
  -24.1489  -36.7268   23.2639 C   0  0  0  0  0  0
  -25.9871  -30.7518   21.3848 C   0  0  0  0  0  0
  -26.0615  -29.3719   20.7246 C   0  0  0  0  0  0
  -27.2306  -28.5337   20.7348 C   0  0  0  0  0  0
  -26.0249  -26.8605   19.4688 C   0  0  0  0  0  0
  -24.8770  -27.6751   19.4621 C   0  0  0  0  0  0
  -23.6590  -29.8113   20.1547 C   0  0  0  0  0  0
  -25.4117  -36.3056   24.0322 C   0  0  1  0  0  0
  -20.5915  -28.3716   23.1256 C   0  0  2  0  0  0
  -20.6784  -26.9428   22.5407 C   0  0  0  0  0  0
  -19.5756  -26.6391   21.5213 C   0  0  0  0  0  0
  -18.1940  -26.7937   22.1628 C   0  0  0  0  0  0
  -19.1559  -28.8875   23.2867 C   0  0  0  0  0  0
  -18.9474  -30.1472   23.8887 C   0  0  0  0  0  0
  -17.6468  -30.6592   24.0569 C   0  0  0  0  0  0
  -25.9064  -34.9429   23.5084 C   0  0  0  0  0  0
  -16.5362  -29.9086   23.6337 C   0  0  0  0  0  0
  -16.7288  -28.6507   23.0357 C   0  0  0  0  0  0
  -26.4518  -31.6576   25.0724 C   0  0  0  0  0  0
  -25.3718  -31.3754   26.1434 C   0  0  0  0  0  0
  -27.0363  -30.2977   24.6251 C   0  0  0  0  0  0
  -27.6066  -32.4322   25.7500 C   0  0  0  0  0  0
  -27.5576  -37.1792   24.8467 C   0  0  0  0  0  0
  -21.4239  -29.3050   22.3630 N   0  0  0  0  0  0
  -26.4287  -37.3762   23.9412 N   0  0  0  0  0  0
  -24.7056  -31.0448   22.0954 N   0  0  0  0  0  0
  -23.4218  -28.8130   23.3002 O   0  0  0  0  0  0
  -28.2166  -26.2133   20.2200 O   0  0  0  0  0  0
  -26.5638  -34.8912   22.4654 O   0  0  0  0  0  0
  -23.5501  -32.1366   23.7219 O   0  0  0  0  0  0
  -32.0454  -19.1693   20.3958 C   0  0  0  0  0  0
  -31.6295  -17.8251   20.4615 C   0  0  0  0  0  0
  -31.1293  -20.2380   20.4143 C   0  0  0  0  0  0
  -30.2633  -17.4610   20.5397 C   0  0  0  0  0  0
  -29.7360  -20.0223   20.5005 C   0  0  0  0  0  0
  -29.3330  -18.6034   20.5609 C   0  0  0  0  0  0
  -28.0914  -23.6038   20.8322 C   0  0  0  0  0  0
  -27.7880  -24.9784   20.8195 C   0  0  0  0  0  0
  -29.0863  -22.5923   20.2208 C   0  0  0  0  0  0
  -29.8790  -15.9979   20.6169 N   0  0  0  0  0  0
  -30.0106  -22.9548   19.4904 O   0  0  0  0  0  0
  -28.8469  -21.1590   20.5951 O   0  0  0  0  0  0
  -28.0105  -18.3230   20.6572 F   0  0  0  0  0  0
  -31.4684  -12.6166   19.1780 H   0  0  0  0  0  0
  -30.3775  -11.5349   19.9953 H   0  0  0  0  0  0
  -29.8043  -11.7251   17.5470 H   0  0  0  0  0  0
  -29.6260  -13.4556   17.7099 H   0  0  0  0  0  0
  -27.9128  -11.2800   18.9454 H   0  0  0  0  0  0
  -27.3796  -12.4901   17.8085 H   0  0  0  0  0  0
  -27.6146  -14.2547   19.4393 H   0  0  0  0  0  0
  -28.7332  -12.2433   21.4530 H   0  0  0  0  0  0
  -28.4058  -13.9318   21.7677 H   0  0  0  0  0  0
  -25.2769   -9.5688   22.4761 H   0  0  0  0  0  0
  -24.0008   -7.4639   22.7475 H   0  0  0  0  0  0
  -21.0848   -8.8775   19.8952 H   0  0  0  0  0  0
  -22.3705  -10.9673   19.6166 H   0  0  0  0  0  0
  -21.2008   -7.6148   23.9712 H   0  0  0  0  0  0
  -21.1480   -6.0525   25.9076 H   0  0  0  0  0  0
  -22.0599   -2.7606   23.2849 H   0  0  0  0  0  0
  -22.4090  -11.9861   22.4812 H   0  0  0  0  0  0
  -21.1077  -13.1209   22.2636 H   0  0  0  0  0  0
  -24.6440  -15.8440   20.5286 H   0  0  0  0  0  0
  -26.2592  -15.6421   20.0824 H   0  0  0  0  0  0
  -26.7244  -32.5382   23.1058 H   0  0  0  0  0  0
  -25.0098  -33.9666   25.0385 H   0  0  0  0  0  0
  -22.7348  -31.2981   21.3912 H   0  0  0  0  0  0
  -23.3752  -35.9599   23.3299 H   0  0  0  0  0  0
  -24.3576  -36.8895   22.2054 H   0  0  0  0  0  0
  -23.7244  -37.6467   23.6665 H   0  0  0  0  0  0
  -26.1341  -31.5114   20.6158 H   0  0  0  0  0  0
  -26.8605  -30.7998   22.0233 H   0  0  0  0  0  0
  -28.1207  -28.8619   21.2528 H   0  0  0  0  0  0
  -25.9651  -25.8956   18.9852 H   0  0  0  0  0  0
  -23.9820  -27.3257   18.9659 H   0  0  0  0  0  0
  -23.7863  -30.5891   19.4008 H   0  0  0  0  0  0
  -22.7767  -29.2472   19.8472 H   0  0  0  0  0  0
  -25.1299  -36.1897   25.0813 H   0  0  0  0  0  0
  -21.0013  -28.3301   24.1376 H   0  0  0  0  0  0
  -20.5680  -26.2326   23.3615 H   0  0  0  0  0  0
  -21.6648  -26.7439   22.1201 H   0  0  0  0  0  0
  -19.6909  -25.6299   21.1249 H   0  0  0  0  0  0
  -19.6685  -27.3193   20.6737 H   0  0  0  0  0  0
  -17.4206  -26.6696   21.4033 H   0  0  0  0  0  0
  -18.0336  -26.0073   22.9019 H   0  0  0  0  0  0
  -19.7946  -30.7302   24.2241 H   0  0  0  0  0  0
  -17.5018  -31.6269   24.5177 H   0  0  0  0  0  0
  -15.5360  -30.2982   23.7666 H   0  0  0  0  0  0
  -15.8689  -28.0823   22.7072 H   0  0  0  0  0  0
  -24.5913  -30.7078   25.7770 H   0  0  0  0  0  0
  -24.8887  -32.2927   26.4805 H   0  0  0  0  0  0
  -25.8020  -30.8981   27.0247 H   0  0  0  0  0  0
  -26.2960  -29.6722   24.1254 H   0  0  0  0  0  0
  -27.3992  -29.7258   25.4801 H   0  0  0  0  0  0
  -27.8862  -30.4222   23.9540 H   0  0  0  0  0  0
  -27.2677  -33.3641   26.2037 H   0  0  0  0  0  0
  -28.3896  -32.6854   25.0337 H   0  0  0  0  0  0
  -28.0704  -31.8472   26.5449 H   0  0  0  0  0  0
  -28.2601  -38.0084   24.7508 H   0  0  0  0  0  0
  -28.1068  -36.2618   24.6296 H   0  0  0  0  0  0
  -27.2295  -37.1449   25.8871 H   0  0  0  0  0  0
  -20.9435  -29.8761   21.6819 H   0  0  0  0  0  0
  -26.0162  -38.2834   24.1410 H   0  0  0  0  0  0
  -33.1029  -19.3898   20.3445 H   0  0  0  0  0  0
  -32.4123  -17.0843   20.4637 H   0  0  0  0  0  0
  -31.5331  -21.2383   20.3939 H   0  0  0  0  0  0
  -27.4152  -23.0734   21.4871 H   0  0  0  0  0  0
  -26.9572  -25.2195   21.4700 H   0  0  0  0  0  0
  -28.8961  -15.8418   20.7793 H   0  0  0  0  0  0
  1 25  1  0  0  0
  1 30  2  0  0  0
  1 80  1  0  0  0
  2  3  1  0  0  0
  2 25  1  0  0  0
  2 84  1  0  0  0
  2 85  1  0  0  0
  3  4  1  0  0  0
  3 86  1  0  0  0
  3 87  1  0  0  0
  4  5  1  0  0  0
  4 88  1  0  0  0
  4 89  1  0  0  0
  5  6  1  0  0  0
  5 26  1  0  0  0
  5 90  1  0  0  0
  6 25  1  0  0  0
  6 91  1  0  0  0
  6 92  1  0  0  0
  7  8  2  0  0  0
  7 26  1  0  0  0
  7 29  1  0  0  0
  8  9  1  0  0  0
  8 22  1  0  0  0
  9 10  1  0  0  0
  9 27  2  0  0  0
 10 11  2  0  0  0
 10 15  1  0  0  0
 11 12  1  0  0  0
 11 93  1  0  0  0
 12 13  2  0  0  0
 12 94  1  0  0  0
 13 14  1  0  0  0
 13 31  1  0  0  0
 14 15  2  0  0  0
 14 95  1  0  0  0
 15 96  1  0  0  0
 16 17  2  0  0  0
 16 21  1  0  0  0
 16 31  1  0  0  0
 17 18  1  0  0  0
 17 97  1  0  0  0
 18 19  2  0  0  0
 18 98  1  0  0  0
 19 20  1  0  0  0
 19 24  1  0  0  0
 20 21  2  0  0  0
 20 99  1  0  0  0
 21 23  1  0  0  0
 22 28  1  0  0  0
 22 32  2  0  0  0
 26 27  1  0  0  0
 28100  1  0  0  0
 28101  1  0  0  0
 29102  1  0  0  0
 29103  1  0  0  0
 33 34  1  0  0  0
 33 66  1  0  0  0
 33 70  2  0  0  0
 34 36  1  0  0  0
 34 59  1  0  0  0
 34104  1  0  0  0
 35 44  2  0  0  0
 35 45  1  0  0  0
 35 68  1  0  0  0
 36 56  1  0  0  0
 36105  1  0  0  0
 37 39  1  0  0  0
 37 47  1  0  0  0
 37 66  1  0  0  0
 37106  1  0  0  0
 38 43  2  0  0  0
 38 46  1  0  0  0
 38 47  1  0  0  0
 39 64  1  0  0  0
 39 67  2  0  0  0
 40 52  1  0  0  0
 40 53  2  0  0  0
 40 58  1  0  0  0
 41107  1  0  0  0
 41108  1  0  0  0
 41109  1  0  0  0
 41 48  1  0  0  0
 42 43  1  0  0  0
 42 66  1  0  0  0
 42110  1  0  0  0
 42111  1  0  0  0
 43 44  1  0  0  0
 44112  1  0  0  0
 45 46  2  0  0  0
 45113  1  0  0  0
 46114  1  0  0  0
 47115  1  0  0  0
 47116  1  0  0  0
 48 56  1  0  0  0
 48 65  1  0  0  0
 48117  1  0  0  0
 49 50  1  0  0  0
 49 53  1  0  0  0
 49 64  1  0  0  0
 49118  1  0  0  0
 50 51  1  0  0  0
 50119  1  0  0  0
 50120  1  0  0  0
 51 52  1  0  0  0
 51121  1  0  0  0
 51122  1  0  0  0
 52123  1  0  0  0
 52124  1  0  0  0
 53 54  1  0  0  0
 54 55  2  0  0  0
 54125  1  0  0  0
 55 57  1  0  0  0
 55126  1  0  0  0
 56 69  2  0  0  0
 57 58  2  0  0  0
 57127  1  0  0  0
 58128  1  0  0  0
 59 60  1  0  0  0
 59 61  1  0  0  0
 59 62  1  0  0  0
 60129  1  0  0  0
 60130  1  0  0  0
 60131  1  0  0  0
 61132  1  0  0  0
 61133  1  0  0  0
 61134  1  0  0  0
 62135  1  0  0  0
 62136  1  0  0  0
 62137  1  0  0  0
 63 65  1  0  0  0
 63138  1  0  0  0
 63139  1  0  0  0
 63140  1  0  0  0
 64141  1  0  0  0
 65142  1  0  0  0
 68 78  1  0  0  0
 71 72  2  0  0  0
 71 73  1  0  0  0
 71143  1  0  0  0
 72 74  1  0  0  0
 72144  1  0  0  0
 73 75  2  0  0  0
 73145  1  0  0  0
 74 76  2  0  0  0
 74 80  1  0  0  0
 75 76  1  0  0  0
 75 82  1  0  0  0
 76 83  1  0  0  0
 77 78  2  0  0  0
 77 79  1  0  0  0
 77146  1  0  0  0
 78147  1  0  0  0
 79 81  2  0  0  0
 79 82  1  0  0  0
 80148  1  0  0  0
M  ISO  4   1 100  68 101  78 101  80 100
M  END
> <chiral flag>
0

> <version>
0

> <s_m_source_file>
/data/baiqing/PycharmProjects/Reinvent-master-3.2/result/LINK_invent/BTK/process_docking_weight1_custom_product_contain_oxygen_bond_distance_aromatic_linkinvent_7_9_3/rearranged_h_0088.sdf

> <i_m_source_file_index>
63

> <r_mmod_Potential_Energy-OPLS-2005>
316.535949707031

> <r_mmod_Stretch_Energy-OPLS-2005>
171.49365234375

> <r_mmod_Bend_Energy-OPLS-2005>
246.545349121094

> <r_mmod_Torsional_Energy-OPLS-2005>
215.392944335938

> <r_mmod_Improper_Torsional_Energy-OPLS-2005>
4.97372198104858

> <r_mmod_Van_der_Waal_Energy-OPLS-2005>
146.439468383789

> <r_mmod_Electrostatic_Energy-OPLS-2005>
-384.415557861328

> <r_mmod_Solvation_Energy-OPLS-2005>
-210.331817626953

> <b_mmod_Minimization_Converged-OPLS-2005>
0

> <r_mmod_RMS_Derivative-OPLS-2005>
0.712198972702026

$$$$
63
                    3D
 Structure written by MMmdl.
154163  0  0  1  0            999 V2000
  -30.5707  -14.7516   20.4591 C   0  0  0  0  0  0
  -30.4501  -12.4581   19.4616 C   0  0  0  0  0  0
  -29.5151  -12.5076   18.2310 C   0  0  0  0  0  0
  -28.0406  -12.3271   18.6474 C   0  0  0  0  0  0
  -27.6462  -13.2217   19.8523 C   0  0  2  0  0  0
  -28.6944  -13.1314   20.9833 C   0  0  0  0  0  0
  -25.2546  -13.8191   20.5697 C   0  0  0  0  0  0
  -24.1822  -13.0437   20.9191 C   0  0  0  0  0  0
  -24.6400  -11.6911   20.8734 C   0  0  0  0  0  0
  -23.9070  -10.4293   21.0402 C   0  0  0  0  0  0
  -24.3620   -9.4208   21.9182 C   0  0  0  0  0  0
  -23.6293   -8.2246   22.0755 C   0  0  0  0  0  0
  -22.4275   -8.0284   21.3545 C   0  0  0  0  0  0
  -21.9908   -9.0257   20.4648 C   0  0  0  0  0  0
  -22.7240  -10.2136   20.3054 C   0  0  0  0  0  0
  -21.6854   -6.0734   22.5278 C   0  0  0  0  0  0
  -21.4015   -6.5638   23.8212 C   0  0  0  0  0  0
  -21.3659   -5.6792   24.9174 C   0  0  0  0  0  0
  -21.6044   -4.3054   24.7225 C   0  0  0  0  0  0
  -21.8819   -3.8146   23.4346 C   0  0  0  0  0  0
  -21.9193   -4.6962   22.3401 C   0  0  0  0  0  0
  -22.7843  -13.5221   21.1857 C   0  0  0  0  0  0
  -22.1661   -4.2147   21.0977 F   0  0  0  0  0  0
  -21.5628   -3.4539   25.7738 F   0  0  0  0  0  0
  -29.9953  -13.5016   20.4051 N   0  0  0  0  0  0
  -26.2966  -12.9372   20.3286 N   0  0  0  0  0  0
  -25.9327  -11.6521   20.5743 N   0  0  0  0  0  0
  -22.0489  -12.8217   22.0419 N   0  0  0  0  0  0
  -25.4178  -15.1936   20.4176 N   0  0  0  0  0  0
  -31.7620  -14.9071   20.1730 O   0  0  0  0  0  0
  -21.6640   -6.8880   21.4241 O   0  0  0  0  0  0
  -22.3519  -14.5524   20.6706 O   0  0  0  0  0  0
  -24.6313  -31.8549   23.1982 C   0  0  0  0  0  0
  -25.9135  -32.4753   23.8333 C   0  0  1  0  0  0
  -27.2281  -27.2692   20.1317 C   0  0  0  0  0  0
  -25.5928  -33.8554   24.2256 N   0  0  0  0  0  0
  -23.4298  -30.4754   21.5410 C   0  0  2  0  0  0
  -24.8819  -28.9191   20.1148 C   0  0  0  0  0  0
  -22.7507  -29.4594   22.4913 C   0  0  0  0  0  0
  -18.0293  -28.1386   22.8482 C   0  0  0  0  0  0
  -24.1490  -36.7285   23.2641 C   0  0  0  0  0  0
  -25.9755  -30.7686   21.3795 C   0  0  0  0  0  0
  -26.0529  -29.3890   20.7266 C   0  0  0  0  0  0
  -27.2325  -28.5748   20.7285 C   0  0  0  0  0  0
  -26.0382  -26.8612   19.4987 C   0  0  0  0  0  0
  -24.8781  -27.6610   19.4914 C   0  0  0  0  0  0
  -23.6512  -29.8057   20.1589 C   0  0  0  0  0  0
  -25.4116  -36.3069   24.0326 C   0  0  1  0  0  0
  -20.5897  -28.3698   23.1267 C   0  0  2  0  0  0
  -20.6779  -26.9414   22.5408 C   0  0  0  0  0  0
  -19.5756  -26.6381   21.5210 C   0  0  0  0  0  0
  -18.1936  -26.7927   22.1623 C   0  0  0  0  0  0
  -19.1546  -28.8860   23.2869 C   0  0  0  0  0  0
  -18.9467  -30.1459   23.8889 C   0  0  0  0  0  0
  -17.6465  -30.6586   24.0560 C   0  0  0  0  0  0
  -25.9053  -34.9438   23.5095 C   0  0  0  0  0  0
  -16.5357  -29.9082   23.6329 C   0  0  0  0  0  0
  -16.7279  -28.6499   23.0353 C   0  0  0  0  0  0
  -26.4503  -31.6580   25.0723 C   0  0  0  0  0  0
  -25.3722  -31.3733   26.1442 C   0  0  0  0  0  0
  -27.0357  -30.2996   24.6215 C   0  0  0  0  0  0
  -27.6052  -32.4327   25.7497 C   0  0  0  0  0  0
  -27.5575  -37.1802   24.8467 C   0  0  0  0  0  0
  -21.4214  -29.3042   22.3655 N   0  0  0  0  0  0
  -26.4294  -37.3765   23.9401 N   0  0  0  0  0  0
  -24.6976  -31.0511   22.0959 N   0  0  0  0  0  0
  -23.4200  -28.8138   23.3020 O   0  0  0  0  0  0
  -28.2875  -26.3379   20.1204 O   0  0  0  0  0  0
  -26.5628  -34.8912   22.4665 O   0  0  0  0  0  0
  -23.5461  -32.1370   23.7275 O   0  0  0  0  0  0
  -28.4821  -19.4187   20.0495 C   0  0  0  0  0  0
  -30.7276  -18.1329   21.1303 C   0  0  0  0  0  0
  -29.4243  -20.2596   20.7079 C   0  0  0  0  0  0
  -28.6368  -17.9908   19.9738 C   0  0  0  0  0  0
  -29.7475  -17.2911   20.5344 C   0  0  0  0  0  0
  -30.5647  -19.5607   21.2222 C   0  0  0  0  0  0
  -28.5943  -23.9908   21.2479 C   0  0  0  0  0  0
  -28.5876  -23.4055   22.5814 C   0  0  0  0  0  0
  -28.9379  -22.8514   20.3314 C   0  0  0  0  0  0
  -28.3104  -25.3600   21.1416 C   0  0  0  0  0  0
  -29.0051  -21.9544   22.5056 C   0  0  0  0  0  0
  -29.1400  -21.6809   21.0740 N   0  0  0  0  0  0
  -27.6469  -17.2346   19.3464 N   0  0  0  0  0  0
  -29.6888  -15.8080   20.6014 N   0  0  0  0  0  0
  -28.3127  -23.9638   23.6502 O   0  0  0  0  0  0
  -29.0305  -22.9076   19.1001 O   0  0  0  0  0  0
  -31.5183  -20.2680   21.8741 F   0  0  0  0  0  0
  -31.4859  -12.6124   19.1539 H   0  0  0  0  0  0
  -30.4186  -11.4758   19.9353 H   0  0  0  0  0  0
  -29.7969  -11.7369   17.5124 H   0  0  0  0  0  0
  -29.6356  -13.4627   17.7172 H   0  0  0  0  0  0
  -27.9001  -11.2776   18.9082 H   0  0  0  0  0  0
  -27.3814  -12.5195   17.8002 H   0  0  0  0  0  0
  -27.6415  -14.2444   19.4775 H   0  0  0  0  0  0
  -28.7330  -12.1228   21.3970 H   0  0  0  0  0  0
  -28.4286  -13.7885   21.8132 H   0  0  0  0  0  0
  -25.2766   -9.5683   22.4754 H   0  0  0  0  0  0
  -24.0001   -7.4637   22.7475 H   0  0  0  0  0  0
  -21.0839   -8.8780   19.8953 H   0  0  0  0  0  0
  -22.3701  -10.9675   19.6163 H   0  0  0  0  0  0
  -21.2009   -7.6147   23.9715 H   0  0  0  0  0  0
  -21.1479   -6.0521   25.9077 H   0  0  0  0  0  0
  -22.0598   -2.7608   23.2847 H   0  0  0  0  0  0
  -22.4111  -11.9885   22.4814 H   0  0  0  0  0  0
  -21.1106  -13.1243   22.2624 H   0  0  0  0  0  0
  -24.6398  -15.8306   20.5455 H   0  0  0  0  0  0
  -26.2594  -15.6803   20.1161 H   0  0  0  0  0  0
  -26.7205  -32.5412   23.1080 H   0  0  0  0  0  0
  -25.0067  -33.9692   25.0396 H   0  0  0  0  0  0
  -22.7262  -31.2972   21.3920 H   0  0  0  0  0  0
  -23.3742  -35.9630   23.3324 H   0  0  0  0  0  0
  -24.3573  -36.8887   22.2051 H   0  0  0  0  0  0
  -23.7261  -37.6499   23.6654 H   0  0  0  0  0  0
  -26.1129  -31.5271   20.6077 H   0  0  0  0  0  0
  -26.8530  -30.8214   22.0122 H   0  0  0  0  0  0
  -28.1313  -28.9283   21.2139 H   0  0  0  0  0  0
  -26.0033  -25.8897   19.0258 H   0  0  0  0  0  0
  -23.9821  -27.2937   19.0103 H   0  0  0  0  0  0
  -23.7760  -30.5800   19.4011 H   0  0  0  0  0  0
  -22.7704  -29.2378   19.8538 H   0  0  0  0  0  0
  -25.1302  -36.1919   25.0820 H   0  0  0  0  0  0
  -20.9988  -28.3276   24.1388 H   0  0  0  0  0  0
  -20.5675  -26.2308   23.3613 H   0  0  0  0  0  0
  -21.6649  -26.7433   22.1205 H   0  0  0  0  0  0
  -19.6917  -25.6291   21.1244 H   0  0  0  0  0  0
  -19.6691  -27.3186   20.6735 H   0  0  0  0  0  0
  -17.4204  -26.6670   21.4028 H   0  0  0  0  0  0
  -18.0339  -26.0071   22.9021 H   0  0  0  0  0  0
  -19.7943  -30.7277   24.2255 H   0  0  0  0  0  0
  -17.5020  -31.6265   24.5163 H   0  0  0  0  0  0
  -15.5357  -30.2981   23.7658 H   0  0  0  0  0  0
  -15.8678  -28.0812   22.7077 H   0  0  0  0  0  0
  -24.5903  -30.7073   25.7772 H   0  0  0  0  0  0
  -24.8905  -32.2903   26.4846 H   0  0  0  0  0  0
  -25.8037  -30.8927   27.0231 H   0  0  0  0  0  0
  -26.2949  -29.6737   24.1225 H   0  0  0  0  0  0
  -27.4023  -29.7266   25.4741 H   0  0  0  0  0  0
  -27.8831  -30.4271   23.9475 H   0  0  0  0  0  0
  -27.2652  -33.3627   26.2066 H   0  0  0  0  0  0
  -28.3865  -32.6887   25.0329 H   0  0  0  0  0  0
  -28.0717  -31.8460   26.5421 H   0  0  0  0  0  0
  -28.2609  -38.0083   24.7487 H   0  0  0  0  0  0
  -28.1056  -36.2613   24.6330 H   0  0  0  0  0  0
  -27.2289  -37.1495   25.8871 H   0  0  0  0  0  0
  -20.9406  -29.8761   21.6852 H   0  0  0  0  0  0
  -26.0173  -38.2843   24.1385 H   0  0  0  0  0  0
  -27.5836  -19.8720   19.6562 H   0  0  0  0  0  0
  -31.5928  -17.6841   21.5946 H   0  0  0  0  0  0
  -28.0865  -25.8794   22.0645 H   0  0  0  0  0  0
  -28.2448  -21.3162   22.9556 H   0  0  0  0  0  0
  -29.9474  -21.8139   23.0341 H   0  0  0  0  0  0
  -26.9736  -17.7714   18.8101 H   0  0  0  0  0  0
  -28.0116  -16.4786   18.7783 H   0  0  0  0  0  0
  -28.7348  -15.4846   20.6467 H   0  0  0  0  0  0
  1 25  1  0  0  0
  1 30  2  0  0  0
  1 84  1  0  0  0
  2  3  1  0  0  0
  2 25  1  0  0  0
  2 88  1  0  0  0
  2 89  1  0  0  0
  3  4  1  0  0  0
  3 90  1  0  0  0
  3 91  1  0  0  0
  4  5  1  0  0  0
  4 92  1  0  0  0
  4 93  1  0  0  0
  5  6  1  0  0  0
  5 26  1  0  0  0
  5 94  1  0  0  0
  6 25  1  0  0  0
  6 95  1  0  0  0
  6 96  1  0  0  0
  7  8  2  0  0  0
  7 26  1  0  0  0
  7 29  1  0  0  0
  8  9  1  0  0  0
  8 22  1  0  0  0
  9 10  1  0  0  0
  9 27  2  0  0  0
 10 11  2  0  0  0
 10 15  1  0  0  0
 11 12  1  0  0  0
 11 97  1  0  0  0
 12 13  2  0  0  0
 12 98  1  0  0  0
 13 14  1  0  0  0
 13 31  1  0  0  0
 14 15  2  0  0  0
 14 99  1  0  0  0
 15100  1  0  0  0
 16 17  2  0  0  0
 16 21  1  0  0  0
 16 31  1  0  0  0
 17 18  1  0  0  0
 17101  1  0  0  0
 18 19  2  0  0  0
 18102  1  0  0  0
 19 20  1  0  0  0
 19 24  1  0  0  0
 20 21  2  0  0  0
 20103  1  0  0  0
 21 23  1  0  0  0
 22 28  1  0  0  0
 22 32  2  0  0  0
 26 27  1  0  0  0
 28104  1  0  0  0
 28105  1  0  0  0
 29106  1  0  0  0
 29107  1  0  0  0
 33 34  1  0  0  0
 33 66  1  0  0  0
 33 70  2  0  0  0
 34 36  1  0  0  0
 34 59  1  0  0  0
 34108  1  0  0  0
 35 44  2  0  0  0
 35 45  1  0  0  0
 35 68  1  0  0  0
 36 56  1  0  0  0
 36109  1  0  0  0
 37 39  1  0  0  0
 37 47  1  0  0  0
 37 66  1  0  0  0
 37110  1  0  0  0
 38 43  2  0  0  0
 38 46  1  0  0  0
 38 47  1  0  0  0
 39 64  1  0  0  0
 39 67  2  0  0  0
 40 52  1  0  0  0
 40 53  2  0  0  0
 40 58  1  0  0  0
 41111  1  0  0  0
 41112  1  0  0  0
 41113  1  0  0  0
 41 48  1  0  0  0
 42 43  1  0  0  0
 42 66  1  0  0  0
 42114  1  0  0  0
 42115  1  0  0  0
 43 44  1  0  0  0
 44116  1  0  0  0
 45 46  2  0  0  0
 45117  1  0  0  0
 46118  1  0  0  0
 47119  1  0  0  0
 47120  1  0  0  0
 48 56  1  0  0  0
 48 65  1  0  0  0
 48121  1  0  0  0
 49 50  1  0  0  0
 49 53  1  0  0  0
 49 64  1  0  0  0
 49122  1  0  0  0
 50 51  1  0  0  0
 50123  1  0  0  0
 50124  1  0  0  0
 51 52  1  0  0  0
 51125  1  0  0  0
 51126  1  0  0  0
 52127  1  0  0  0
 52128  1  0  0  0
 53 54  1  0  0  0
 54 55  2  0  0  0
 54129  1  0  0  0
 55 57  1  0  0  0
 55130  1  0  0  0
 56 69  2  0  0  0
 57 58  2  0  0  0
 57131  1  0  0  0
 58132  1  0  0  0
 59 60  1  0  0  0
 59 61  1  0  0  0
 59 62  1  0  0  0
 60133  1  0  0  0
 60134  1  0  0  0
 60135  1  0  0  0
 61136  1  0  0  0
 61137  1  0  0  0
 61138  1  0  0  0
 62139  1  0  0  0
 62140  1  0  0  0
 62141  1  0  0  0
 63 65  1  0  0  0
 63142  1  0  0  0
 63143  1  0  0  0
 63144  1  0  0  0
 64145  1  0  0  0
 65146  1  0  0  0
 68 80  1  0  0  0
 71 73  2  0  0  0
 71 74  1  0  0  0
 71147  1  0  0  0
 72 75  1  0  0  0
 72 76  2  0  0  0
 72148  1  0  0  0
 73 76  1  0  0  0
 73 82  1  0  0  0
 74 75  2  0  0  0
 74 83  1  0  0  0
 75 84  1  0  0  0
 76 87  1  0  0  0
 77 78  1  0  0  0
 77 79  1  0  0  0
 77 80  2  0  0  0
 78 81  1  0  0  0
 78 85  2  0  0  0
 79 82  1  0  0  0
 79 86  2  0  0  0
 80149  1  0  0  0
 81 82  1  0  0  0
 81150  1  0  0  0
 81151  1  0  0  0
 83152  1  0  0  0
 83153  1  0  0  0
 84154  1  0  0  0
M  ISO  4   1 100  68 101  80 101  84 100
M  END
> <chiral flag>
0

> <version>
0

> <s_m_source_file>
/data/baiqing/PycharmProjects/Reinvent-master-3.2/result/LINK_invent/BTK/process_docking_weight1_custom_product_contain_oxygen_bond_distance_aromatic_linkinvent_7_9_3/rearranged_h_0088.sdf

> <i_m_source_file_index>
64

> <r_mmod_Potential_Energy-OPLS-2005>
156.449722290039

> <r_mmod_Stretch_Energy-OPLS-2005>
110.921539306641

> <r_mmod_Bend_Energy-OPLS-2005>
252.922897338867

> <r_mmod_Torsional_Energy-OPLS-2005>
315.105682373047

> <r_mmod_Improper_Torsional_Energy-OPLS-2005>
13.558123588562

> <r_mmod_Van_der_Waal_Energy-OPLS-2005>
128.927963256836

> <r_mmod_Electrostatic_Energy-OPLS-2005>
-519.875183105469

> <r_mmod_Solvation_Energy-OPLS-2005>
-233.8544921875

> <b_mmod_Minimization_Converged-OPLS-2005>
0

> <r_mmod_RMS_Derivative-OPLS-2005>
0.362938225269318

$$$$
64
                    3D
 Structure written by MMmdl.
154162  0  0  1  0            999 V2000
  -30.5941  -14.9213   20.3951 C   0  0  0  0  0  0
  -30.4426  -12.5747   19.4579 C   0  0  0  0  0  0
  -29.5031  -12.4908   18.2335 C   0  0  0  0  0  0
  -28.0484  -12.2370   18.6767 C   0  0  0  0  0  0
  -27.6225  -13.1757   19.8278 C   0  0  2  0  0  0
  -28.6902  -13.2318   20.9515 C   0  0  0  0  0  0
  -25.2458  -13.7973   20.5699 C   0  0  0  0  0  0
  -24.1740  -13.0306   20.9280 C   0  0  0  0  0  0
  -24.6298  -11.6783   20.8830 C   0  0  0  0  0  0
  -23.8970  -10.4212   21.0460 C   0  0  0  0  0  0
  -24.3549   -9.4139   21.9219 C   0  0  0  0  0  0
  -23.6244   -8.2174   22.0761 C   0  0  0  0  0  0
  -22.4230   -8.0229   21.3544 C   0  0  0  0  0  0
  -21.9854   -9.0198   20.4647 C   0  0  0  0  0  0
  -22.7168  -10.2082   20.3076 C   0  0  0  0  0  0
  -21.6824   -6.0705   22.5285 C   0  0  0  0  0  0
  -21.3992   -6.5617   23.8215 C   0  0  0  0  0  0
  -21.3649   -5.6779   24.9182 C   0  0  0  0  0  0
  -21.6041   -4.3042   24.7237 C   0  0  0  0  0  0
  -21.8822   -3.8129   23.4359 C   0  0  0  0  0  0
  -21.9187   -4.6939   22.3412 C   0  0  0  0  0  0
  -22.7784  -13.5173   21.1910 C   0  0  0  0  0  0
  -22.1660   -4.2129   21.0987 F   0  0  0  0  0  0
  -21.5630   -3.4525   25.7747 F   0  0  0  0  0  0
  -29.9506  -13.6786   20.3287 N   0  0  0  0  0  0
  -26.2833  -12.9082   20.3273 N   0  0  0  0  0  0
  -25.9207  -11.6296   20.5834 N   0  0  0  0  0  0
  -22.0398  -12.8203   22.0465 N   0  0  0  0  0  0
  -25.3992  -15.1669   20.4008 N   0  0  0  0  0  0
  -31.8180  -14.8963   20.2369 O   0  0  0  0  0  0
  -21.6599   -6.8835   21.4241 O   0  0  0  0  0  0
  -22.3508  -14.5489   20.6741 O   0  0  0  0  0  0
  -24.6360  -31.8522   23.1943 C   0  0  0  0  0  0
  -25.9171  -32.4731   23.8315 C   0  0  1  0  0  0
  -27.2347  -27.2363   20.1334 C   0  0  0  0  0  0
  -25.5957  -33.8532   24.2241 N   0  0  0  0  0  0
  -23.4366  -30.4725   21.5367 C   0  0  2  0  0  0
  -24.8919  -28.9167   20.1068 C   0  0  0  0  0  0
  -22.7542  -29.4577   22.4872 C   0  0  0  0  0  0
  -18.0305  -28.1390   22.8480 C   0  0  0  0  0  0
  -24.1488  -36.7263   23.2637 C   0  0  0  0  0  0
  -25.9856  -30.7569   21.3807 C   0  0  0  0  0  0
  -26.0644  -29.3760   20.7229 C   0  0  0  0  0  0
  -27.2404  -28.5483   20.7279 C   0  0  0  0  0  0
  -26.0420  -26.8566   19.4799 C   0  0  0  0  0  0
  -24.8872  -27.6647   19.4719 C   0  0  0  0  0  0
  -23.6604  -29.8041   20.1546 C   0  0  0  0  0  0
  -25.4111  -36.3048   24.0329 C   0  0  1  0  0  0
  -20.5916  -28.3706   23.1245 C   0  0  2  0  0  0
  -20.6785  -26.9418   22.5391 C   0  0  0  0  0  0
  -19.5752  -26.6385   21.5203 C   0  0  0  0  0  0
  -18.1940  -26.7925   22.1633 C   0  0  0  0  0  0
  -19.1562  -28.8867   23.2854 C   0  0  0  0  0  0
  -18.9480  -30.1469   23.8868 C   0  0  0  0  0  0
  -17.6475  -30.6586   24.0558 C   0  0  0  0  0  0
  -25.9058  -34.9423   23.5082 C   0  0  0  0  0  0
  -16.5365  -29.9076   23.6337 C   0  0  0  0  0  0
  -16.7289  -28.6498   23.0350 C   0  0  0  0  0  0
  -26.4522  -31.6562   25.0717 C   0  0  0  0  0  0
  -25.3742  -31.3743   26.1446 C   0  0  0  0  0  0
  -27.0363  -30.2964   24.6232 C   0  0  0  0  0  0
  -27.6085  -32.4296   25.7486 C   0  0  0  0  0  0
  -27.5577  -37.1782   24.8465 C   0  0  0  0  0  0
  -21.4241  -29.3045   22.3627 N   0  0  0  0  0  0
  -26.4275  -37.3761   23.9424 N   0  0  0  0  0  0
  -24.7046  -31.0457   22.0935 N   0  0  0  0  0  0
  -23.4220  -28.8124   23.2994 O   0  0  0  0  0  0
  -28.2629  -26.2519   20.2040 O   0  0  0  0  0  0
  -26.5614  -34.8909   22.4641 O   0  0  0  0  0  0
  -23.5498  -32.1361   23.7212 O   0  0  0  0  0  0
  -32.0932  -19.1858   19.3734 C   0  0  0  0  0  0
  -31.3023  -20.3236   19.6458 C   0  0  0  0  0  0
  -31.6578  -17.8718   19.6597 C   0  0  0  0  0  0
  -30.0355  -20.2044   20.2548 C   0  0  0  0  0  0
  -30.4014  -17.6114   20.2580 C   0  0  0  0  0  0
  -29.6282  -18.8350   20.5793 C   0  0  0  0  0  0
  -27.8076  -16.6199   19.1313 C   0  0  0  0  0  0
  -28.5011  -16.1874   20.2184 C   0  0  0  0  0  0
  -27.8933  -25.0294   20.8549 C   0  0  0  0  0  0
  -28.2423  -23.6642   20.9045 C   0  0  0  0  0  0
  -29.2821  -22.7911   20.2256 C   0  0  0  0  0  0
  -29.2175  -21.4271   20.5616 N   0  0  0  0  0  0
  -29.8924  -16.1770   20.3875 N   0  0  0  0  0  0
  -30.1198  -23.2272   19.4350 O   0  0  0  0  0  0
  -27.4729  -22.9628   21.7587 O   0  0  0  0  0  0
  -28.4382  -18.7136   21.2182 F   0  0  0  0  0  0
  -31.4659  -12.7408   19.1179 H   0  0  0  0  0  0
  -30.4620  -11.6291   20.0019 H   0  0  0  0  0  0
  -29.8302  -11.6974   17.5601 H   0  0  0  0  0  0
  -29.5579  -13.4189   17.6624 H   0  0  0  0  0  0
  -27.9762  -11.1997   19.0062 H   0  0  0  0  0  0
  -27.3685  -12.3350   17.8291 H   0  0  0  0  0  0
  -27.5461  -14.1222   19.3193 H   0  0  0  0  0  0
  -28.8112  -12.2493   21.4093 H   0  0  0  0  0  0
  -28.3953  -13.8907   21.7667 H   0  0  0  0  0  0
  -25.2688   -9.5625   22.4800 H   0  0  0  0  0  0
  -23.9957   -7.4552   22.7461 H   0  0  0  0  0  0
  -21.0794   -8.8705   19.8945 H   0  0  0  0  0  0
  -22.3629  -10.9627   19.6191 H   0  0  0  0  0  0
  -21.1972   -7.6121   23.9711 H   0  0  0  0  0  0
  -21.1472   -6.0507   25.9083 H   0  0  0  0  0  0
  -22.0614   -2.7591   23.2864 H   0  0  0  0  0  0
  -22.3988  -11.9868   22.4884 H   0  0  0  0  0  0
  -21.1021  -13.1266   22.2654 H   0  0  0  0  0  0
  -24.6116  -15.8000   20.4818 H   0  0  0  0  0  0
  -26.2138  -15.6042   19.9845 H   0  0  0  0  0  0
  -26.7249  -32.5381   23.1064 H   0  0  0  0  0  0
  -25.0113  -33.9650   25.0396 H   0  0  0  0  0  0
  -22.7342  -31.2951   21.3858 H   0  0  0  0  0  0
  -23.3752  -35.9595   23.3291 H   0  0  0  0  0  0
  -24.3589  -36.8888   22.2055 H   0  0  0  0  0  0
  -23.7239  -37.6464   23.6659 H   0  0  0  0  0  0
  -26.1282  -31.5176   20.6115 H   0  0  0  0  0  0
  -26.8609  -30.8083   22.0171 H   0  0  0  0  0  0
  -28.1315  -28.8880   21.2368 H   0  0  0  0  0  0
  -25.9887  -25.8867   19.0049 H   0  0  0  0  0  0
  -23.9924  -27.3058   18.9817 H   0  0  0  0  0  0
  -23.7836  -30.5787   19.3967 H   0  0  0  0  0  0
  -22.7789  -29.2370   19.8490 H   0  0  0  0  0  0
  -25.1288  -36.1881   25.0821 H   0  0  0  0  0  0
  -21.0016  -28.3288   24.1364 H   0  0  0  0  0  0
  -20.5681  -26.2317   23.3600 H   0  0  0  0  0  0
  -21.6649  -26.7423   22.1193 H   0  0  0  0  0  0
  -19.6905  -25.6294   21.1235 H   0  0  0  0  0  0
  -19.6675  -27.3189   20.6726 H   0  0  0  0  0  0
  -17.4199  -26.6667   21.4043 H   0  0  0  0  0  0
  -18.0352  -26.0075   22.9042 H   0  0  0  0  0  0
  -19.7954  -30.7302   24.2212 H   0  0  0  0  0  0
  -17.5024  -31.6256   24.5173 H   0  0  0  0  0  0
  -15.5361  -30.2962   23.7674 H   0  0  0  0  0  0
  -15.8698  -28.0808   22.7065 H   0  0  0  0  0  0
  -24.5872  -30.7139   25.7781 H   0  0  0  0  0  0
  -24.8983  -32.2923   26.4898 H   0  0  0  0  0  0
  -25.8049  -30.8886   27.0209 H   0  0  0  0  0  0
  -26.2947  -29.6699   24.1253 H   0  0  0  0  0  0
  -27.4021  -29.7242   25.4768 H   0  0  0  0  0  0
  -27.8842  -30.4210   23.9495 H   0  0  0  0  0  0
  -27.2720  -33.3633   26.2002 H   0  0  0  0  0  0
  -28.3928  -32.6786   25.0326 H   0  0  0  0  0  0
  -28.0708  -31.8445   26.5445 H   0  0  0  0  0  0
  -28.2574  -38.0103   24.7547 H   0  0  0  0  0  0
  -28.1093  -36.2630   24.6236 H   0  0  0  0  0  0
  -27.2305  -37.1377   25.8873 H   0  0  0  0  0  0
  -20.9438  -29.8757   21.6818 H   0  0  0  0  0  0
  -26.0144  -38.2825   24.1450 H   0  0  0  0  0  0
  -33.0584  -19.3230   18.9063 H   0  0  0  0  0  0
  -31.6970  -21.2944   19.3851 H   0  0  0  0  0  0
  -32.3072  -17.0659   19.3574 H   0  0  0  0  0  0
  -27.5486  -17.0162   18.1588 H   0  0  0  0  0  0
  -28.7297  -16.7422   18.5859 H   0  0  0  0  0  0
  -27.9796  -15.8677   21.1077 H   0  0  0  0  0  0
  -27.0779  -25.2901   21.5179 H   0  0  0  0  0  0
  -28.4257  -21.2515   21.1686 H   0  0  0  0  0  0
  -26.8552  -23.5633   22.1543 H   0  0  0  0  0  0
  1 25  1  0  0  0
  1 30  2  0  0  0
  1 83  1  0  0  0
  2  3  1  0  0  0
  2 25  1  0  0  0
  2 87  1  0  0  0
  2 88  1  0  0  0
  3  4  1  0  0  0
  3 89  1  0  0  0
  3 90  1  0  0  0
  4  5  1  0  0  0
  4 91  1  0  0  0
  4 92  1  0  0  0
  5  6  1  0  0  0
  5 26  1  0  0  0
  5 93  1  0  0  0
  6 25  1  0  0  0
  6 94  1  0  0  0
  6 95  1  0  0  0
  7  8  2  0  0  0
  7 26  1  0  0  0
  7 29  1  0  0  0
  8  9  1  0  0  0
  8 22  1  0  0  0
  9 10  1  0  0  0
  9 27  2  0  0  0
 10 11  2  0  0  0
 10 15  1  0  0  0
 11 12  1  0  0  0
 11 96  1  0  0  0
 12 13  2  0  0  0
 12 97  1  0  0  0
 13 14  1  0  0  0
 13 31  1  0  0  0
 14 15  2  0  0  0
 14 98  1  0  0  0
 15 99  1  0  0  0
 16 17  2  0  0  0
 16 21  1  0  0  0
 16 31  1  0  0  0
 17 18  1  0  0  0
 17100  1  0  0  0
 18 19  2  0  0  0
 18101  1  0  0  0
 19 20  1  0  0  0
 19 24  1  0  0  0
 20 21  2  0  0  0
 20102  1  0  0  0
 21 23  1  0  0  0
 22 28  1  0  0  0
 22 32  2  0  0  0
 26 27  1  0  0  0
 28103  1  0  0  0
 28104  1  0  0  0
 29105  1  0  0  0
 29106  1  0  0  0
 33 34  1  0  0  0
 33 66  1  0  0  0
 33 70  2  0  0  0
 34 36  1  0  0  0
 34 59  1  0  0  0
 34107  1  0  0  0
 35 44  2  0  0  0
 35 45  1  0  0  0
 35 68  1  0  0  0
 36 56  1  0  0  0
 36108  1  0  0  0
 37 39  1  0  0  0
 37 47  1  0  0  0
 37 66  1  0  0  0
 37109  1  0  0  0
 38 43  2  0  0  0
 38 46  1  0  0  0
 38 47  1  0  0  0
 39 64  1  0  0  0
 39 67  2  0  0  0
 40 52  1  0  0  0
 40 53  2  0  0  0
 40 58  1  0  0  0
 41110  1  0  0  0
 41111  1  0  0  0
 41112  1  0  0  0
 41 48  1  0  0  0
 42 43  1  0  0  0
 42 66  1  0  0  0
 42113  1  0  0  0
 42114  1  0  0  0
 43 44  1  0  0  0
 44115  1  0  0  0
 45 46  2  0  0  0
 45116  1  0  0  0
 46117  1  0  0  0
 47118  1  0  0  0
 47119  1  0  0  0
 48 56  1  0  0  0
 48 65  1  0  0  0
 48120  1  0  0  0
 49 50  1  0  0  0
 49 53  1  0  0  0
 49 64  1  0  0  0
 49121  1  0  0  0
 50 51  1  0  0  0
 50122  1  0  0  0
 50123  1  0  0  0
 51 52  1  0  0  0
 51124  1  0  0  0
 51125  1  0  0  0
 52126  1  0  0  0
 52127  1  0  0  0
 53 54  1  0  0  0
 54 55  2  0  0  0
 54128  1  0  0  0
 55 57  1  0  0  0
 55129  1  0  0  0
 56 69  2  0  0  0
 57 58  2  0  0  0
 57130  1  0  0  0
 58131  1  0  0  0
 59 60  1  0  0  0
 59 61  1  0  0  0
 59 62  1  0  0  0
 60132  1  0  0  0
 60133  1  0  0  0
 60134  1  0  0  0
 61135  1  0  0  0
 61136  1  0  0  0
 61137  1  0  0  0
 62138  1  0  0  0
 62139  1  0  0  0
 62140  1  0  0  0
 63 65  1  0  0  0
 63141  1  0  0  0
 63142  1  0  0  0
 63143  1  0  0  0
 64144  1  0  0  0
 65145  1  0  0  0
 68 79  1  0  0  0
 71 72  2  0  0  0
 71 73  1  0  0  0
 71146  1  0  0  0
 72 74  1  0  0  0
 72147  1  0  0  0
 73 75  2  0  0  0
 73148  1  0  0  0
 74 76  2  0  0  0
 74 82  1  0  0  0
 75 76  1  0  0  0
 75 83  1  0  0  0
 76 86  1  0  0  0
 77 78  2  0  0  0
 77149  1  0  0  0
 77150  1  0  0  0
 78 83  1  0  0  0
 78151  1  0  0  0
 79 80  2  0  0  0
 79152  1  0  0  0
 80 81  1  0  0  0
 80 85  1  0  0  0
 81 82  1  0  0  0
 81 84  2  0  0  0
 82153  1  0  0  0
 85154  1  0  0  0
M  ISO  4   1 100  68 101  79 101  83 100
M  END
> <chiral flag>
0

> <version>
0

> <s_m_source_file>
/data/baiqing/PycharmProjects/Reinvent-master-3.2/result/LINK_invent/BTK/process_docking_weight1_custom_product_contain_oxygen_bond_distance_aromatic_linkinvent_7_9_3/rearranged_h_0088.sdf

> <i_m_source_file_index>
65

> <r_mmod_Potential_Energy-OPLS-2005>
757.389343261719

> <r_mmod_Stretch_Energy-OPLS-2005>
178.617492675781

> <r_mmod_Bend_Energy-OPLS-2005>
472.915679931641

> <r_mmod_Torsional_Energy-OPLS-2005>
318.397277832031

> <r_mmod_Improper_Torsional_Energy-OPLS-2005>
7.72814416885376

> <r_mmod_Van_der_Waal_Energy-OPLS-2005>
187.045974731445

> <r_mmod_Electrostatic_Energy-OPLS-2005>
-354.778228759766

> <r_mmod_Solvation_Energy-OPLS-2005>
-206.910049438477

> <b_mmod_Minimization_Converged-OPLS-2005>
0

> <r_mmod_RMS_Derivative-OPLS-2005>
1.27037930488586

$$$$
65
                    3D
 Structure written by MMmdl.
155164  0  0  1  0            999 V2000
  -30.6183  -14.6457   20.4987 C   0  0  0  0  0  0
  -30.4426  -12.3972   19.4480 C   0  0  0  0  0  0
  -29.5082  -12.5068   18.2220 C   0  0  0  0  0  0
  -28.0312  -12.3426   18.6356 C   0  0  0  0  0  0
  -27.6530  -13.2157   19.8614 C   0  0  2  0  0  0
  -28.7000  -13.0725   20.9896 C   0  0  0  0  0  0
  -25.2566  -13.8174   20.5684 C   0  0  0  0  0  0
  -24.1832  -13.0436   20.9183 C   0  0  0  0  0  0
  -24.6399  -11.6907   20.8734 C   0  0  0  0  0  0
  -23.9066  -10.4292   21.0403 C   0  0  0  0  0  0
  -24.3617   -9.4208   21.9182 C   0  0  0  0  0  0
  -23.6291   -8.2243   22.0754 C   0  0  0  0  0  0
  -22.4274   -8.0281   21.3544 C   0  0  0  0  0  0
  -21.9909   -9.0255   20.4646 C   0  0  0  0  0  0
  -22.7238  -10.2134   20.3054 C   0  0  0  0  0  0
  -21.6853   -6.0735   22.5279 C   0  0  0  0  0  0
  -21.4014   -6.5639   23.8212 C   0  0  0  0  0  0
  -21.3659   -5.6792   24.9174 C   0  0  0  0  0  0
  -21.6044   -4.3055   24.7225 C   0  0  0  0  0  0
  -21.8819   -3.8147   23.4346 C   0  0  0  0  0  0
  -21.9193   -4.6963   22.3402 C   0  0  0  0  0  0
  -22.7854  -13.5229   21.1850 C   0  0  0  0  0  0
  -22.1661   -4.2149   21.0980 F   0  0  0  0  0  0
  -21.5629   -3.4539   25.7738 F   0  0  0  0  0  0
  -30.0143  -13.4176   20.4237 N   0  0  0  0  0  0
  -26.2993  -12.9351   20.3315 N   0  0  0  0  0  0
  -25.9328  -11.6505   20.5752 N   0  0  0  0  0  0
  -22.0499  -12.8221   22.0410 N   0  0  0  0  0  0
  -25.4249  -15.1901   20.4125 N   0  0  0  0  0  0
  -31.7912  -14.8110   20.1504 O   0  0  0  0  0  0
  -21.6639   -6.8878   21.4240 O   0  0  0  0  0  0
  -22.3531  -14.5534   20.6701 O   0  0  0  0  0  0
  -24.6276  -31.8604   23.2039 C   0  0  0  0  0  0
  -25.9121  -32.4783   23.8365 C   0  0  1  0  0  0
  -27.2199  -27.3116   20.1112 C   0  0  0  0  0  0
  -25.5934  -33.8583   24.2288 N   0  0  0  0  0  0
  -23.4208  -30.4866   21.5476 C   0  0  2  0  0  0
  -24.8657  -28.9454   20.1132 C   0  0  0  0  0  0
  -22.7481  -29.4632   22.4939 C   0  0  0  0  0  0
  -18.0289  -28.1385   22.8487 C   0  0  0  0  0  0
  -24.1490  -36.7294   23.2638 C   0  0  0  0  0  0
  -25.9649  -30.7890   21.3772 C   0  0  0  0  0  0
  -26.0382  -29.4172   20.7166 C   0  0  0  0  0  0
  -27.2193  -28.6137   20.7048 C   0  0  0  0  0  0
  -26.0196  -26.9014   19.4820 C   0  0  0  0  0  0
  -24.8591  -27.6928   19.4874 C   0  0  0  0  0  0
  -23.6354  -29.8266   20.1621 C   0  0  0  0  0  0
  -25.4114  -36.3086   24.0329 C   0  0  1  0  0  0
  -20.5890  -28.3692   23.1280 C   0  0  2  0  0  0
  -20.6778  -26.9415   22.5407 C   0  0  0  0  0  0
  -19.5752  -26.6386   21.5211 C   0  0  0  0  0  0
  -18.1933  -26.7928   22.1626 C   0  0  0  0  0  0
  -19.1541  -28.8855   23.2879 C   0  0  0  0  0  0
  -18.9463  -30.1456   23.8897 C   0  0  0  0  0  0
  -17.6462  -30.6587   24.0563 C   0  0  0  0  0  0
  -25.9052  -34.9454   23.5107 C   0  0  0  0  0  0
  -16.5354  -29.9085   23.6330 C   0  0  0  0  0  0
  -16.7275  -28.6503   23.0353 C   0  0  0  0  0  0
  -26.4500  -31.6589   25.0734 C   0  0  0  0  0  0
  -25.3731  -31.3726   26.1458 C   0  0  0  0  0  0
  -27.0342  -30.3012   24.6191 C   0  0  0  0  0  0
  -27.6058  -32.4323   25.7507 C   0  0  0  0  0  0
  -27.5579  -37.1804   24.8465 C   0  0  0  0  0  0
  -21.4194  -29.3048   22.3677 N   0  0  0  0  0  0
  -26.4293  -37.3780   23.9408 N   0  0  0  0  0  0
  -24.6901  -31.0614   22.0996 N   0  0  0  0  0  0
  -23.4204  -28.8163   23.3013 O   0  0  0  0  0  0
  -28.3303  -26.4463   20.1488 O   0  0  0  0  0  0
  -26.5617  -34.8919   22.4671 O   0  0  0  0  0  0
  -23.5437  -32.1405   23.7363 O   0  0  0  0  0  0
  -31.0485  -19.3222   20.9190 C   0  0  0  0  0  0
  -31.0462  -17.8963   21.0026 C   0  0  0  0  0  0
  -28.8045  -19.3059   20.0777 C   0  0  0  0  0  0
  -29.9391  -20.0915   20.4362 C   0  0  0  0  0  0
  -29.9096  -17.1368   20.6337 C   0  0  0  0  0  0
  -28.7868  -17.8817   20.1867 C   0  0  0  0  0  0
  -30.4837  -24.3530   19.9726 C   0  0  0  0  0  0
  -31.2963  -22.0942   19.9948 C   0  0  0  0  0  0
  -29.2199  -23.9531   20.2115 C   0  0  0  0  0  0
  -31.5648  -23.4038   19.8619 C   0  0  0  0  0  0
  -28.9472  -22.4773   20.4096 C   0  0  0  0  0  0
  -28.0431  -24.9857   20.1984 C   0  0  0  0  0  0
  -30.0098  -21.5754   20.2788 N   0  0  0  0  0  0
  -29.7809  -15.6892   20.7824 N   0  0  0  0  0  0
  -27.8117  -22.0817   20.6946 O   0  0  0  0  0  0
  -32.8081  -23.8111   19.5846 O   0  0  0  0  0  0
  -27.6611  -17.2074   19.8456 F   0  0  0  0  0  0
  -31.4822  -12.5308   19.1436 H   0  0  0  0  0  0
  -30.3849  -11.4018   19.8911 H   0  0  0  0  0  0
  -29.7730  -11.7546   17.4777 H   0  0  0  0  0  0
  -29.6470  -13.4756   17.7393 H   0  0  0  0  0  0
  -27.8703  -11.2897   18.8699 H   0  0  0  0  0  0
  -27.3755  -12.5692   17.7941 H   0  0  0  0  0  0
  -27.6675  -14.2496   19.5162 H   0  0  0  0  0  0
  -28.7136  -12.0512   21.3730 H   0  0  0  0  0  0
  -28.4470  -13.7058   21.8415 H   0  0  0  0  0  0
  -25.2762   -9.5684   22.4755 H   0  0  0  0  0  0
  -24.0001   -7.4635   22.7473 H   0  0  0  0  0  0
  -21.0840   -8.8774   19.8953 H   0  0  0  0  0  0
  -22.3697  -10.9672   19.6162 H   0  0  0  0  0  0
  -21.2007   -7.6148   23.9715 H   0  0  0  0  0  0
  -21.1481   -6.0523   25.9077 H   0  0  0  0  0  0
  -22.0599   -2.7609   23.2847 H   0  0  0  0  0  0
  -22.4118  -11.9883   22.4796 H   0  0  0  0  0  0
  -21.1118  -13.1248   22.2620 H   0  0  0  0  0  0
  -24.6532  -15.8364   20.5314 H   0  0  0  0  0  0
  -26.2717  -15.6519   20.0993 H   0  0  0  0  0  0
  -26.7189  -32.5449   23.1113 H   0  0  0  0  0  0
  -25.0084  -33.9729   25.0435 H   0  0  0  0  0  0
  -22.7149  -31.3079   21.4068 H   0  0  0  0  0  0
  -23.3752  -35.9627   23.3304 H   0  0  0  0  0  0
  -24.3581  -36.8911   22.2052 H   0  0  0  0  0  0
  -23.7243  -37.6498   23.6656 H   0  0  0  0  0  0
  -26.0991  -31.5536   20.6108 H   0  0  0  0  0  0
  -26.8445  -30.8348   22.0076 H   0  0  0  0  0  0
  -28.1183  -28.9725   21.1862 H   0  0  0  0  0  0
  -25.9321  -25.9570   18.9708 H   0  0  0  0  0  0
  -23.9622  -27.3272   19.0064 H   0  0  0  0  0  0
  -23.7571  -30.6052   19.4082 H   0  0  0  0  0  0
  -22.7545  -29.2587   19.8570 H   0  0  0  0  0  0
  -25.1295  -36.1940   25.0822 H   0  0  0  0  0  0
  -20.9983  -28.3264   24.1400 H   0  0  0  0  0  0
  -20.5683  -26.2301   23.3607 H   0  0  0  0  0  0
  -21.6646  -26.7447   22.1197 H   0  0  0  0  0  0
  -19.6915  -25.6297   21.1240 H   0  0  0  0  0  0
  -19.6687  -27.3197   20.6741 H   0  0  0  0  0  0
  -17.4202  -26.6674   21.4030 H   0  0  0  0  0  0
  -18.0337  -26.0070   22.9023 H   0  0  0  0  0  0
  -19.7938  -30.7273   24.2267 H   0  0  0  0  0  0
  -17.5017  -31.6268   24.5165 H   0  0  0  0  0  0
  -15.5354  -30.2987   23.7655 H   0  0  0  0  0  0
  -15.8675  -28.0821   22.7069 H   0  0  0  0  0  0
  -24.5911  -30.7070   25.7787 H   0  0  0  0  0  0
  -24.8917  -32.2891   26.4879 H   0  0  0  0  0  0
  -25.8056  -30.8909   27.0236 H   0  0  0  0  0  0
  -26.2919  -29.6765   24.1210 H   0  0  0  0  0  0
  -27.4032  -29.7265   25.4697 H   0  0  0  0  0  0
  -27.8794  -30.4296   23.9424 H   0  0  0  0  0  0
  -27.2669  -33.3624   26.2082 H   0  0  0  0  0  0
  -28.3871  -32.6882   25.0338 H   0  0  0  0  0  0
  -28.0723  -31.8449   26.5426 H   0  0  0  0  0  0
  -28.2599  -38.0099   24.7510 H   0  0  0  0  0  0
  -28.1074  -36.2631   24.6295 H   0  0  0  0  0  0
  -27.2297  -37.1458   25.8869 H   0  0  0  0  0  0
  -20.9370  -29.8780   21.6896 H   0  0  0  0  0  0
  -26.0175  -38.2856   24.1405 H   0  0  0  0  0  0
  -31.9471  -19.8192   21.2547 H   0  0  0  0  0  0
  -31.9232  -17.3926   21.3837 H   0  0  0  0  0  0
  -27.9168  -19.7855   19.6942 H   0  0  0  0  0  0
  -30.6749  -25.4041   19.8055 H   0  0  0  0  0  0
  -32.0742  -21.3616   19.8514 H   0  0  0  0  0  0
  -27.4089  -24.7916   21.0650 H   0  0  0  0  0  0
  -27.4796  -24.6876   19.3171 H   0  0  0  0  0  0
  -28.8301  -15.3868   20.9270 H   0  0  0  0  0  0
  -32.7950  -24.7573   19.5001 H   0  0  0  0  0  0
  1 25  1  0  0  0
  1 30  2  0  0  0
  1 84  1  0  0  0
  2  3  1  0  0  0
  2 25  1  0  0  0
  2 88  1  0  0  0
  2 89  1  0  0  0
  3  4  1  0  0  0
  3 90  1  0  0  0
  3 91  1  0  0  0
  4  5  1  0  0  0
  4 92  1  0  0  0
  4 93  1  0  0  0
  5  6  1  0  0  0
  5 26  1  0  0  0
  5 94  1  0  0  0
  6 25  1  0  0  0
  6 95  1  0  0  0
  6 96  1  0  0  0
  7  8  2  0  0  0
  7 26  1  0  0  0
  7 29  1  0  0  0
  8  9  1  0  0  0
  8 22  1  0  0  0
  9 10  1  0  0  0
  9 27  2  0  0  0
 10 11  2  0  0  0
 10 15  1  0  0  0
 11 12  1  0  0  0
 11 97  1  0  0  0
 12 13  2  0  0  0
 12 98  1  0  0  0
 13 14  1  0  0  0
 13 31  1  0  0  0
 14 15  2  0  0  0
 14 99  1  0  0  0
 15100  1  0  0  0
 16 17  2  0  0  0
 16 21  1  0  0  0
 16 31  1  0  0  0
 17 18  1  0  0  0
 17101  1  0  0  0
 18 19  2  0  0  0
 18102  1  0  0  0
 19 20  1  0  0  0
 19 24  1  0  0  0
 20 21  2  0  0  0
 20103  1  0  0  0
 21 23  1  0  0  0
 22 28  1  0  0  0
 22 32  2  0  0  0
 26 27  1  0  0  0
 28104  1  0  0  0
 28105  1  0  0  0
 29106  1  0  0  0
 29107  1  0  0  0
 33 34  1  0  0  0
 33 66  1  0  0  0
 33 70  2  0  0  0
 34 36  1  0  0  0
 34 59  1  0  0  0
 34108  1  0  0  0
 35 44  2  0  0  0
 35 45  1  0  0  0
 35 68  1  0  0  0
 36 56  1  0  0  0
 36109  1  0  0  0
 37 39  1  0  0  0
 37 47  1  0  0  0
 37 66  1  0  0  0
 37110  1  0  0  0
 38 43  2  0  0  0
 38 46  1  0  0  0
 38 47  1  0  0  0
 39 64  1  0  0  0
 39 67  2  0  0  0
 40 52  1  0  0  0
 40 53  2  0  0  0
 40 58  1  0  0  0
 41111  1  0  0  0
 41112  1  0  0  0
 41113  1  0  0  0
 41 48  1  0  0  0
 42 43  1  0  0  0
 42 66  1  0  0  0
 42114  1  0  0  0
 42115  1  0  0  0
 43 44  1  0  0  0
 44116  1  0  0  0
 45 46  2  0  0  0
 45117  1  0  0  0
 46118  1  0  0  0
 47119  1  0  0  0
 47120  1  0  0  0
 48 56  1  0  0  0
 48 65  1  0  0  0
 48121  1  0  0  0
 49 50  1  0  0  0
 49 53  1  0  0  0
 49 64  1  0  0  0
 49122  1  0  0  0
 50 51  1  0  0  0
 50123  1  0  0  0
 50124  1  0  0  0
 51 52  1  0  0  0
 51125  1  0  0  0
 51126  1  0  0  0
 52127  1  0  0  0
 52128  1  0  0  0
 53 54  1  0  0  0
 54 55  2  0  0  0
 54129  1  0  0  0
 55 57  1  0  0  0
 55130  1  0  0  0
 56 69  2  0  0  0
 57 58  2  0  0  0
 57131  1  0  0  0
 58132  1  0  0  0
 59 60  1  0  0  0
 59 61  1  0  0  0
 59 62  1  0  0  0
 60133  1  0  0  0
 60134  1  0  0  0
 60135  1  0  0  0
 61136  1  0  0  0
 61137  1  0  0  0
 61138  1  0  0  0
 62139  1  0  0  0
 62140  1  0  0  0
 62141  1  0  0  0
 63 65  1  0  0  0
 63142  1  0  0  0
 63143  1  0  0  0
 63144  1  0  0  0
 64145  1  0  0  0
 65146  1  0  0  0
 68 82  1  0  0  0
 71 72  2  0  0  0
 71 74  1  0  0  0
 71147  1  0  0  0
 72 75  1  0  0  0
 72148  1  0  0  0
 73 74  2  0  0  0
 73 76  1  0  0  0
 73149  1  0  0  0
 74 83  1  0  0  0
 75 76  2  0  0  0
 75 84  1  0  0  0
 76 87  1  0  0  0
 77 79  2  0  0  0
 77 80  1  0  0  0
 77150  1  0  0  0
 78 80  2  0  0  0
 78 83  1  0  0  0
 78151  1  0  0  0
 79 81  1  0  0  0
 79 82  1  0  0  0
 80 86  1  0  0  0
 81 83  1  0  0  0
 81 85  2  0  0  0
 82152  1  0  0  0
 82153  1  0  0  0
 84154  1  0  0  0
 86155  1  0  0  0
M  ISO  4   1 100  68 101  82 101  84 100
M  END
> <chiral flag>
0

> <version>
0

> <s_m_source_file>
/data/baiqing/PycharmProjects/Reinvent-master-3.2/result/LINK_invent/BTK/process_docking_weight1_custom_product_contain_oxygen_bond_distance_aromatic_linkinvent_7_9_3/rearranged_h_0088.sdf

> <i_m_source_file_index>
66

> <r_mmod_Potential_Energy-OPLS-2005>
95.4790267944336

> <r_mmod_Stretch_Energy-OPLS-2005>
97.2312088012695

> <r_mmod_Bend_Energy-OPLS-2005>
140.33952331543

> <r_mmod_Torsional_Energy-OPLS-2005>
242.992645263672

> <r_mmod_Improper_Torsional_Energy-OPLS-2005>
5.53601169586182

> <r_mmod_Van_der_Waal_Energy-OPLS-2005>
178.354141235352

> <r_mmod_Electrostatic_Energy-OPLS-2005>
-403.184967041016

> <r_mmod_Solvation_Energy-OPLS-2005>
-217.814758300781

> <b_mmod_Minimization_Converged-OPLS-2005>
0

> <r_mmod_RMS_Derivative-OPLS-2005>
0.0751201957464218

$$$$
66
                    3D
 Structure written by MMmdl.
147155  0  0  1  0            999 V2000
  -30.5788  -14.7328   20.4622 C   0  0  0  0  0  0
  -30.4447  -12.4463   19.4602 C   0  0  0  0  0  0
  -29.5120  -12.5054   18.2289 C   0  0  0  0  0  0
  -28.0369  -12.3281   18.6440 C   0  0  0  0  0  0
  -27.6449  -13.2202   19.8512 C   0  0  2  0  0  0
  -28.6917  -13.1261   20.9832 C   0  0  0  0  0  0
  -25.2534  -13.8170   20.5678 C   0  0  0  0  0  0
  -24.1817  -13.0431   20.9209 C   0  0  0  0  0  0
  -24.6392  -11.6905   20.8751 C   0  0  0  0  0  0
  -23.9065  -10.4288   21.0415 C   0  0  0  0  0  0
  -24.3617   -9.4203   21.9190 C   0  0  0  0  0  0
  -23.6293   -8.2238   22.0754 C   0  0  0  0  0  0
  -22.4275   -8.0279   21.3545 C   0  0  0  0  0  0
  -21.9912   -9.0253   20.4647 C   0  0  0  0  0  0
  -22.7240  -10.2133   20.3061 C   0  0  0  0  0  0
  -21.6852   -6.0737   22.5280 C   0  0  0  0  0  0
  -21.4012   -6.5639   23.8213 C   0  0  0  0  0  0
  -21.3658   -5.6793   24.9176 C   0  0  0  0  0  0
  -21.6045   -4.3055   24.7226 C   0  0  0  0  0  0
  -21.8819   -3.8147   23.4347 C   0  0  0  0  0  0
  -21.9191   -4.6965   22.3404 C   0  0  0  0  0  0
  -22.7839  -13.5224   21.1870 C   0  0  0  0  0  0
  -22.1661   -4.2150   21.0981 F   0  0  0  0  0  0
  -21.5629   -3.4539   25.7739 F   0  0  0  0  0  0
  -29.9936  -13.4894   20.4057 N   0  0  0  0  0  0
  -26.2951  -12.9352   20.3271 N   0  0  0  0  0  0
  -25.9317  -11.6507   20.5747 N   0  0  0  0  0  0
  -22.0481  -12.8216   22.0423 N   0  0  0  0  0  0
  -25.4216  -15.1896   20.4070 N   0  0  0  0  0  0
  -31.7709  -14.8781   20.1717 O   0  0  0  0  0  0
  -21.6638   -6.8879   21.4241 O   0  0  0  0  0  0
  -22.3527  -14.5531   20.6716 O   0  0  0  0  0  0
  -24.6292  -31.8557   23.1972 C   0  0  0  0  0  0
  -25.9121  -32.4758   23.8322 C   0  0  1  0  0  0
  -27.2288  -27.2800   20.1369 C   0  0  0  0  0  0
  -25.5922  -33.8557   24.2252 N   0  0  0  0  0  0
  -23.4263  -30.4753   21.5403 C   0  0  2  0  0  0
  -24.8752  -28.9144   20.1188 C   0  0  0  0  0  0
  -22.7492  -29.4602   22.4922 C   0  0  0  0  0  0
  -18.0291  -28.1390   22.8487 C   0  0  0  0  0  0
  -24.1489  -36.7284   23.2640 C   0  0  0  0  0  0
  -25.9688  -30.7752   21.3718 C   0  0  0  0  0  0
  -26.0454  -29.3954   20.7210 C   0  0  0  0  0  0
  -27.2285  -28.5925   20.7129 C   0  0  0  0  0  0
  -26.0369  -26.8500   19.5210 C   0  0  0  0  0  0
  -24.8739  -27.6483   19.5085 C   0  0  0  0  0  0
  -23.6451  -29.8011   20.1595 C   0  0  0  0  0  0
  -25.4117  -36.3070   24.0326 C   0  0  1  0  0  0
  -20.5893  -28.3696   23.1278 C   0  0  2  0  0  0
  -20.6778  -26.9415   22.5410 C   0  0  0  0  0  0
  -19.5752  -26.6387   21.5213 C   0  0  0  0  0  0
  -18.1934  -26.7932   22.1627 C   0  0  0  0  0  0
  -19.1544  -28.8861   23.2879 C   0  0  0  0  0  0
  -18.9465  -30.1463   23.8895 C   0  0  0  0  0  0
  -17.6463  -30.6591   24.0564 C   0  0  0  0  0  0
  -25.9054  -34.9441   23.5094 C   0  0  0  0  0  0
  -16.5355  -29.9087   23.6333 C   0  0  0  0  0  0
  -16.7278  -28.6507   23.0354 C   0  0  0  0  0  0
  -26.4494  -31.6579   25.0706 C   0  0  0  0  0  0
  -25.3720  -31.3734   26.1431 C   0  0  0  0  0  0
  -27.0336  -30.2998   24.6178 C   0  0  0  0  0  0
  -27.6051  -32.4316   25.7480 C   0  0  0  0  0  0
  -27.5580  -37.1799   24.8465 C   0  0  0  0  0  0
  -21.4201  -29.3043   22.3667 N   0  0  0  0  0  0
  -26.4291  -37.3769   23.9409 N   0  0  0  0  0  0
  -24.6939  -31.0534   22.0935 N   0  0  0  0  0  0
  -23.4195  -28.8153   23.3027 O   0  0  0  0  0  0
  -28.3426  -26.4213   20.1121 O   0  0  0  0  0  0
  -26.5629  -34.8915   22.4664 O   0  0  0  0  0  0
  -23.5445  -32.1366   23.7280 O   0  0  0  0  0  0
  -30.6468  -19.4547   20.8913 C   0  0  0  0  0  0
  -30.8897  -18.0215   20.9886 C   0  0  0  0  0  0
  -29.4393  -19.8185   20.3311 C   0  0  0  0  0  0
  -29.8607  -17.1995   20.5657 C   0  0  0  0  0  0
  -28.8747  -21.1714   20.0240 C   0  0  0  0  0  0
  -29.0871  -22.4641   20.4818 C   0  0  0  0  0  0
  -28.4534  -23.7566   19.9148 C   0  0  0  0  0  0
  -28.2521  -25.0848   20.7835 C   0  0  0  0  0  0
  -29.7134  -15.8042   20.6095 N   0  0  0  0  0  0
  -28.0599  -23.7892   18.7444 O   0  0  0  0  0  0
  -28.5617  -18.2988   20.0045 S   0  0  0  0  0  0
  -31.4822  -12.5932   19.1548 H   0  0  0  0  0  0
  -30.4048  -11.4629   19.9310 H   0  0  0  0  0  0
  -29.7913  -11.7371   17.5068 H   0  0  0  0  0  0
  -29.6366  -13.4623   17.7194 H   0  0  0  0  0  0
  -27.8924  -11.2782   18.9010 H   0  0  0  0  0  0
  -27.3787  -12.5260   17.7972 H   0  0  0  0  0  0
  -27.6437  -14.2442   19.4782 H   0  0  0  0  0  0
  -28.7270  -12.1169   21.3963 H   0  0  0  0  0  0
  -28.4291  -13.7837   21.8138 H   0  0  0  0  0  0
  -25.2762   -9.5678   22.4764 H   0  0  0  0  0  0
  -24.0002   -7.4628   22.7471 H   0  0  0  0  0  0
  -21.0843   -8.8775   19.8952 H   0  0  0  0  0  0
  -22.3701  -10.9674   19.6170 H   0  0  0  0  0  0
  -21.2003   -7.6148   23.9717 H   0  0  0  0  0  0
  -21.1482   -6.0523   25.9078 H   0  0  0  0  0  0
  -22.0598   -2.7610   23.2847 H   0  0  0  0  0  0
  -22.4091  -11.9875   22.4810 H   0  0  0  0  0  0
  -21.1099  -13.1244   22.2630 H   0  0  0  0  0  0
  -24.6468  -15.8361   20.5104 H   0  0  0  0  0  0
  -26.2533  -15.6309   20.0373 H   0  0  0  0  0  0
  -26.7187  -32.5420   23.1067 H   0  0  0  0  0  0
  -25.0064  -33.9691   25.0394 H   0  0  0  0  0  0
  -22.7226  -31.2967   21.3908 H   0  0  0  0  0  0
  -23.3750  -35.9617   23.3300 H   0  0  0  0  0  0
  -24.3579  -36.8908   22.2054 H   0  0  0  0  0  0
  -23.7240  -37.6484   23.6665 H   0  0  0  0  0  0
  -26.1012  -31.5334   20.5987 H   0  0  0  0  0  0
  -26.8486  -30.8300   22.0015 H   0  0  0  0  0  0
  -28.1317  -28.9627   21.1777 H   0  0  0  0  0  0
  -26.0047  -25.8782   19.0482 H   0  0  0  0  0  0
  -23.9774  -27.2739   19.0339 H   0  0  0  0  0  0
  -23.7699  -30.5730   19.3989 H   0  0  0  0  0  0
  -22.7641  -29.2321   19.8574 H   0  0  0  0  0  0
  -25.1300  -36.1916   25.0817 H   0  0  0  0  0  0
  -20.9992  -28.3270   24.1396 H   0  0  0  0  0  0
  -20.5677  -26.2305   23.3612 H   0  0  0  0  0  0
  -21.6647  -26.7439   22.1207 H   0  0  0  0  0  0
  -19.6910  -25.6298   21.1244 H   0  0  0  0  0  0
  -19.6688  -27.3198   20.6742 H   0  0  0  0  0  0
  -17.4204  -26.6681   21.4027 H   0  0  0  0  0  0
  -18.0335  -26.0076   22.9027 H   0  0  0  0  0  0
  -19.7939  -30.7285   24.2259 H   0  0  0  0  0  0
  -17.5016  -31.6269   24.5169 H   0  0  0  0  0  0
  -15.5356  -30.2989   23.7656 H   0  0  0  0  0  0
  -15.8680  -28.0824   22.7066 H   0  0  0  0  0  0
  -24.5887  -30.7092   25.7763 H   0  0  0  0  0  0
  -24.8919  -32.2908   26.4850 H   0  0  0  0  0  0
  -25.8034  -30.8914   27.0212 H   0  0  0  0  0  0
  -26.2913  -29.6748   24.1199 H   0  0  0  0  0  0
  -27.4024  -29.7257   25.4688 H   0  0  0  0  0  0
  -27.8787  -30.4278   23.9408 H   0  0  0  0  0  0
  -27.2665  -33.3623   26.2043 H   0  0  0  0  0  0
  -28.3871  -32.6863   25.0314 H   0  0  0  0  0  0
  -28.0707  -31.8445   26.5407 H   0  0  0  0  0  0
  -28.2602  -38.0095   24.7516 H   0  0  0  0  0  0
  -28.1075  -36.2627   24.6291 H   0  0  0  0  0  0
  -27.2300  -37.1448   25.8870 H   0  0  0  0  0  0
  -20.9386  -29.8757   21.6865 H   0  0  0  0  0  0
  -26.0169  -38.2843   24.1411 H   0  0  0  0  0  0
  -31.3954  -20.1651   21.2125 H   0  0  0  0  0  0
  -31.8177  -17.6509   21.4013 H   0  0  0  0  0  0
  -28.1537  -21.1162   19.2192 H   0  0  0  0  0  0
  -29.7765  -22.6073   21.3007 H   0  0  0  0  0  0
  -28.9990  -25.0701   21.5768 H   0  0  0  0  0  0
  -27.2878  -25.0053   21.2859 H   0  0  0  0  0  0
  -28.7559  -15.4983   20.6843 H   0  0  0  0  0  0
  1 25  1  0  0  0
  1 30  2  0  0  0
  1 79  1  0  0  0
  2  3  1  0  0  0
  2 25  1  0  0  0
  2 82  1  0  0  0
  2 83  1  0  0  0
  3  4  1  0  0  0
  3 84  1  0  0  0
  3 85  1  0  0  0
  4  5  1  0  0  0
  4 86  1  0  0  0
  4 87  1  0  0  0
  5  6  1  0  0  0
  5 26  1  0  0  0
  5 88  1  0  0  0
  6 25  1  0  0  0
  6 89  1  0  0  0
  6 90  1  0  0  0
  7  8  2  0  0  0
  7 26  1  0  0  0
  7 29  1  0  0  0
  8  9  1  0  0  0
  8 22  1  0  0  0
  9 10  1  0  0  0
  9 27  2  0  0  0
 10 11  2  0  0  0
 10 15  1  0  0  0
 11 12  1  0  0  0
 11 91  1  0  0  0
 12 13  2  0  0  0
 12 92  1  0  0  0
 13 14  1  0  0  0
 13 31  1  0  0  0
 14 15  2  0  0  0
 14 93  1  0  0  0
 15 94  1  0  0  0
 16 17  2  0  0  0
 16 21  1  0  0  0
 16 31  1  0  0  0
 17 18  1  0  0  0
 17 95  1  0  0  0
 18 19  2  0  0  0
 18 96  1  0  0  0
 19 20  1  0  0  0
 19 24  1  0  0  0
 20 21  2  0  0  0
 20 97  1  0  0  0
 21 23  1  0  0  0
 22 28  1  0  0  0
 22 32  2  0  0  0
 26 27  1  0  0  0
 28 98  1  0  0  0
 28 99  1  0  0  0
 29100  1  0  0  0
 29101  1  0  0  0
 33 34  1  0  0  0
 33 66  1  0  0  0
 33 70  2  0  0  0
 34 36  1  0  0  0
 34 59  1  0  0  0
 34102  1  0  0  0
 35 44  2  0  0  0
 35 45  1  0  0  0
 35 68  1  0  0  0
 36 56  1  0  0  0
 36103  1  0  0  0
 37 39  1  0  0  0
 37 47  1  0  0  0
 37 66  1  0  0  0
 37104  1  0  0  0
 38 43  2  0  0  0
 38 46  1  0  0  0
 38 47  1  0  0  0
 39 64  1  0  0  0
 39 67  2  0  0  0
 40 52  1  0  0  0
 40 53  2  0  0  0
 40 58  1  0  0  0
 41105  1  0  0  0
 41106  1  0  0  0
 41107  1  0  0  0
 41 48  1  0  0  0
 42 43  1  0  0  0
 42 66  1  0  0  0
 42108  1  0  0  0
 42109  1  0  0  0
 43 44  1  0  0  0
 44110  1  0  0  0
 45 46  2  0  0  0
 45111  1  0  0  0
 46112  1  0  0  0
 47113  1  0  0  0
 47114  1  0  0  0
 48 56  1  0  0  0
 48 65  1  0  0  0
 48115  1  0  0  0
 49 50  1  0  0  0
 49 53  1  0  0  0
 49 64  1  0  0  0
 49116  1  0  0  0
 50 51  1  0  0  0
 50117  1  0  0  0
 50118  1  0  0  0
 51 52  1  0  0  0
 51119  1  0  0  0
 51120  1  0  0  0
 52121  1  0  0  0
 52122  1  0  0  0
 53 54  1  0  0  0
 54 55  2  0  0  0
 54123  1  0  0  0
 55 57  1  0  0  0
 55124  1  0  0  0
 56 69  2  0  0  0
 57 58  2  0  0  0
 57125  1  0  0  0
 58126  1  0  0  0
 59 60  1  0  0  0
 59 61  1  0  0  0
 59 62  1  0  0  0
 60127  1  0  0  0
 60128  1  0  0  0
 60129  1  0  0  0
 61130  1  0  0  0
 61131  1  0  0  0
 61132  1  0  0  0
 62133  1  0  0  0
 62134  1  0  0  0
 62135  1  0  0  0
 63 65  1  0  0  0
 63136  1  0  0  0
 63137  1  0  0  0
 63138  1  0  0  0
 64139  1  0  0  0
 65140  1  0  0  0
 68 78  1  0  0  0
 71 72  1  0  0  0
 71 73  2  0  0  0
 71141  1  0  0  0
 72 74  2  0  0  0
 72142  1  0  0  0
 73 75  1  0  0  0
 73 81  1  0  0  0
 74 79  1  0  0  0
 74 81  1  0  0  0
 75 76  2  0  0  0
 75143  1  0  0  0
 76 77  1  0  0  0
 76144  1  0  0  0
 77 78  1  0  0  0
 77 80  2  0  0  0
 78145  1  0  0  0
 78146  1  0  0  0
 79147  1  0  0  0
M  ISO  4   1 100  68 101  78 101  79 100
M  END
> <chiral flag>
0

> <version>
0

> <s_m_source_file>
/data/baiqing/PycharmProjects/Reinvent-master-3.2/result/LINK_invent/BTK/process_docking_weight1_custom_product_contain_oxygen_bond_distance_aromatic_linkinvent_7_9_3/rearranged_h_0088.sdf

> <i_m_source_file_index>
67

> <r_mmod_Potential_Energy-OPLS-2005>
127.076690673828

> <r_mmod_Stretch_Energy-OPLS-2005>
100.79035949707

> <r_mmod_Bend_Energy-OPLS-2005>
153.997817993164

> <r_mmod_Torsional_Energy-OPLS-2005>
249.892807006836

> <r_mmod_Improper_Torsional_Energy-OPLS-2005>
6.36112546920776

> <r_mmod_Van_der_Waal_Energy-OPLS-2005>
109.773796081543

> <r_mmod_Electrostatic_Energy-OPLS-2005>
-343.004760742188

> <r_mmod_Solvation_Energy-OPLS-2005>
-226.245391845703

> <b_mmod_Minimization_Converged-OPLS-2005>
0

> <r_mmod_RMS_Derivative-OPLS-2005>
0.447817593812943

$$$$
67
                    3D
 Structure written by MMmdl.
151159  0  0  1  0            999 V2000
  -30.5970  -14.7284   20.4554 C   0  0  0  0  0  0
  -30.4500  -12.4448   19.4518 C   0  0  0  0  0  0
  -29.5079  -12.5152   18.2278 C   0  0  0  0  0  0
  -28.0333  -12.3399   18.6467 C   0  0  0  0  0  0
  -27.6486  -13.2248   19.8621 C   0  0  2  0  0  0
  -28.7050  -13.1182   20.9868 C   0  0  0  0  0  0
  -25.2490  -13.8116   20.5710 C   0  0  0  0  0  0
  -24.1784  -13.0365   20.9181 C   0  0  0  0  0  0
  -24.6406  -11.6866   20.8754 C   0  0  0  0  0  0
  -23.9083  -10.4258   21.0408 C   0  0  0  0  0  0
  -24.3630   -9.4173   21.9185 C   0  0  0  0  0  0
  -23.6291   -8.2221   22.0750 C   0  0  0  0  0  0
  -22.4273   -8.0273   21.3535 C   0  0  0  0  0  0
  -21.9915   -9.0248   20.4635 C   0  0  0  0  0  0
  -22.7259  -10.2116   20.3044 C   0  0  0  0  0  0
  -21.6845   -6.0739   22.5277 C   0  0  0  0  0  0
  -21.4010   -6.5643   23.8210 C   0  0  0  0  0  0
  -21.3653   -5.6792   24.9171 C   0  0  0  0  0  0
  -21.6046   -4.3054   24.7216 C   0  0  0  0  0  0
  -21.8828   -3.8150   23.4335 C   0  0  0  0  0  0
  -21.9194   -4.6972   22.3396 C   0  0  0  0  0  0
  -22.7809  -13.5162   21.1842 C   0  0  0  0  0  0
  -22.1663   -4.2164   21.0973 F   0  0  0  0  0  0
  -21.5626   -3.4534   25.7725 F   0  0  0  0  0  0
  -30.0117  -13.4817   20.4097 N   0  0  0  0  0  0
  -26.2981  -12.9364   20.3383 N   0  0  0  0  0  0
  -25.9349  -11.6503   20.5809 N   0  0  0  0  0  0
  -22.0476  -12.8162   22.0419 N   0  0  0  0  0  0
  -25.4002  -15.1829   20.4163 N   0  0  0  0  0  0
  -31.7758  -14.8886   20.1267 O   0  0  0  0  0  0
  -21.6625   -6.8879   21.4238 O   0  0  0  0  0  0
  -22.3488  -14.5474   20.6702 O   0  0  0  0  0  0
  -24.6316  -31.8543   23.1997 C   0  0  0  0  0  0
  -25.9146  -32.4738   23.8344 C   0  0  1  0  0  0
  -27.2339  -27.2898   20.1218 C   0  0  0  0  0  0
  -25.5951  -33.8542   24.2266 N   0  0  0  0  0  0
  -23.4293  -30.4779   21.5398 C   0  0  2  0  0  0
  -24.8816  -28.9269   20.1090 C   0  0  0  0  0  0
  -22.7501  -29.4614   22.4886 C   0  0  0  0  0  0
  -18.0290  -28.1398   22.8473 C   0  0  0  0  0  0
  -24.1489  -36.7271   23.2645 C   0  0  0  0  0  0
  -25.9738  -30.7761   21.3781 C   0  0  0  0  0  0
  -26.0517  -29.4012   20.7175 C   0  0  0  0  0  0
  -27.2340  -28.5938   20.7167 C   0  0  0  0  0  0
  -26.0441  -26.8751   19.4892 C   0  0  0  0  0  0
  -24.8800  -27.6693   19.4857 C   0  0  0  0  0  0
  -23.6494  -29.8102   20.1561 C   0  0  0  0  0  0
  -25.4115  -36.3054   24.0332 C   0  0  1  0  0  0
  -20.5900  -28.3716   23.1249 C   0  0  2  0  0  0
  -20.6780  -26.9429   22.5400 C   0  0  0  0  0  0
  -19.5760  -26.6390   21.5204 C   0  0  0  0  0  0
  -18.1937  -26.7941   22.1612 C   0  0  0  0  0  0
  -19.1545  -28.8873   23.2854 C   0  0  0  0  0  0
  -18.9471  -30.1469   23.8879 C   0  0  0  0  0  0
  -17.6475  -30.6592   24.0568 C   0  0  0  0  0  0
  -25.9056  -34.9426   23.5097 C   0  0  0  0  0  0
  -16.5363  -29.9092   23.6338 C   0  0  0  0  0  0
  -16.7281  -28.6514   23.0347 C   0  0  0  0  0  0
  -26.4526  -31.6563   25.0729 C   0  0  0  0  0  0
  -25.3764  -31.3703   26.1454 C   0  0  0  0  0  0
  -27.0398  -30.2981   24.6243 C   0  0  0  0  0  0
  -27.6074  -32.4322   25.7494 C   0  0  0  0  0  0
  -27.5571  -37.1789   24.8471 C   0  0  0  0  0  0
  -21.4207  -29.3061   22.3628 N   0  0  0  0  0  0
  -26.4285  -37.3755   23.9413 N   0  0  0  0  0  0
  -24.6967  -31.0536   22.0957 N   0  0  0  0  0  0
  -23.4198  -28.8153   23.2990 O   0  0  0  0  0  0
  -28.2822  -26.3485   20.1743 O   0  0  0  0  0  0
  -26.5610  -34.8904   22.4657 O   0  0  0  0  0  0
  -23.5467  -32.1358   23.7295 O   0  0  0  0  0  0
  -30.5508  -19.6212   20.5788 C   0  0  0  0  0  0
  -30.7843  -18.1918   20.5894 C   0  0  0  0  0  0
  -29.2387  -20.1904   20.5068 C   0  0  0  0  0  0
  -29.7119  -17.2479   20.5317 C   0  0  0  0  0  0
  -28.1888  -19.2404   20.3958 C   0  0  0  0  0  0
  -28.4259  -17.8301   20.3998 C   0  0  0  0  0  0
  -28.3379  -23.8937   21.1037 C   0  0  0  0  0  0
  -28.0466  -25.2540   21.0381 C   0  0  0  0  0  0
  -29.0638  -22.8522   20.3036 C   0  0  0  0  0  0
  -26.8677  -19.6939   20.3211 N   0  0  0  0  0  0
  -28.8595  -21.5875   20.8226 N   0  0  0  0  0  0
  -29.7326  -15.7733   20.6922 N   0  0  0  0  0  0
  -29.7739  -23.0653   19.3189 O   0  0  0  0  0  0
  -27.3641  -16.9970   20.3046 F   0  0  0  0  0  0
  -31.4842  -12.5928   19.1356 H   0  0  0  0  0  0
  -30.4151  -11.4569   19.9141 H   0  0  0  0  0  0
  -29.7805  -11.7523   17.4977 H   0  0  0  0  0  0
  -29.6303  -13.4767   17.7266 H   0  0  0  0  0  0
  -27.8824  -11.2883   18.8942 H   0  0  0  0  0  0
  -27.3724  -12.5508   17.8053 H   0  0  0  0  0  0
  -27.6460  -14.2530   19.5004 H   0  0  0  0  0  0
  -28.7397  -12.1043   21.3874 H   0  0  0  0  0  0
  -28.4445  -13.7621   21.8288 H   0  0  0  0  0  0
  -25.2782   -9.5640   22.4755 H   0  0  0  0  0  0
  -24.0003   -7.4607   22.7463 H   0  0  0  0  0  0
  -21.0846   -8.8764   19.8936 H   0  0  0  0  0  0
  -22.3733  -10.9655   19.6140 H   0  0  0  0  0  0
  -21.2003   -7.6151   23.9722 H   0  0  0  0  0  0
  -21.1462   -6.0514   25.9075 H   0  0  0  0  0  0
  -22.0620   -2.7616   23.2827 H   0  0  0  0  0  0
  -22.4101  -11.9803   22.4767 H   0  0  0  0  0  0
  -21.1097  -13.1175   22.2653 H   0  0  0  0  0  0
  -24.6271  -15.8232   20.5539 H   0  0  0  0  0  0
  -26.2663  -15.6710   20.2039 H   0  0  0  0  0  0
  -26.7218  -32.5404   23.1096 H   0  0  0  0  0  0
  -25.0148  -33.9691   25.0446 H   0  0  0  0  0  0
  -22.7266  -31.3007   21.3910 H   0  0  0  0  0  0
  -23.3751  -35.9608   23.3305 H   0  0  0  0  0  0
  -24.3582  -36.8892   22.2059 H   0  0  0  0  0  0
  -23.7248  -37.6476   23.6668 H   0  0  0  0  0  0
  -26.1157  -31.5418   20.6145 H   0  0  0  0  0  0
  -26.8487  -30.8190   22.0153 H   0  0  0  0  0  0
  -28.1282  -28.9459   21.2110 H   0  0  0  0  0  0
  -26.0111  -25.8999   19.0230 H   0  0  0  0  0  0
  -23.9827  -27.2974   19.0112 H   0  0  0  0  0  0
  -23.7740  -30.5875   19.4013 H   0  0  0  0  0  0
  -22.7688  -29.2433   19.8474 H   0  0  0  0  0  0
  -25.1299  -36.1893   25.0827 H   0  0  0  0  0  0
  -20.9990  -28.3298   24.1371 H   0  0  0  0  0  0
  -20.5670  -26.2331   23.3611 H   0  0  0  0  0  0
  -21.6646  -26.7447   22.1198 H   0  0  0  0  0  0
  -19.6921  -25.6296   21.1244 H   0  0  0  0  0  0
  -19.6695  -27.3193   20.6727 H   0  0  0  0  0  0
  -17.4203  -26.6686   21.4015 H   0  0  0  0  0  0
  -18.0335  -26.0089   22.9012 H   0  0  0  0  0  0
  -19.7954  -30.7281   24.2238 H   0  0  0  0  0  0
  -17.5033  -31.6271   24.5170 H   0  0  0  0  0  0
  -15.5360  -30.2987   23.7679 H   0  0  0  0  0  0
  -15.8678  -28.0829   22.7068 H   0  0  0  0  0  0
  -24.5967  -30.7013   25.7787 H   0  0  0  0  0  0
  -24.8938  -32.2863   26.4864 H   0  0  0  0  0  0
  -25.8111  -30.8906   27.0230 H   0  0  0  0  0  0
  -26.3004  -29.6677   24.1288 H   0  0  0  0  0  0
  -27.4084  -29.7285   25.4780 H   0  0  0  0  0  0
  -27.8864  -30.4236   23.9495 H   0  0  0  0  0  0
  -27.2685  -33.3633   26.2043 H   0  0  0  0  0  0
  -28.3896  -32.6857   25.0331 H   0  0  0  0  0  0
  -28.0730  -31.8472   26.5436 H   0  0  0  0  0  0
  -28.2581  -38.0084   24.7504 H   0  0  0  0  0  0
  -28.1066  -36.2614   24.6309 H   0  0  0  0  0  0
  -27.2287  -37.1445   25.8871 H   0  0  0  0  0  0
  -20.9387  -29.8759   21.6815 H   0  0  0  0  0  0
  -26.0153  -38.2825   24.1421 H   0  0  0  0  0  0
  -31.3967  -20.2818   20.7043 H   0  0  0  0  0  0
  -31.7963  -17.8294   20.7039 H   0  0  0  0  0  0
  -27.9136  -23.4801   22.0079 H   0  0  0  0  0  0
  -27.4711  -25.6228   21.8788 H   0  0  0  0  0  0
  -26.7313  -20.5564   19.8069 H   0  0  0  0  0  0
  -26.2023  -18.9819   20.0380 H   0  0  0  0  0  0
  -28.1364  -21.6031   21.5281 H   0  0  0  0  0  0
  -28.8077  -15.4178   20.8813 H   0  0  0  0  0  0
  1 25  1  0  0  0
  1 30  2  0  0  0
  1 82  1  0  0  0
  2  3  1  0  0  0
  2 25  1  0  0  0
  2 85  1  0  0  0
  2 86  1  0  0  0
  3  4  1  0  0  0
  3 87  1  0  0  0
  3 88  1  0  0  0
  4  5  1  0  0  0
  4 89  1  0  0  0
  4 90  1  0  0  0
  5  6  1  0  0  0
  5 26  1  0  0  0
  5 91  1  0  0  0
  6 25  1  0  0  0
  6 92  1  0  0  0
  6 93  1  0  0  0
  7  8  2  0  0  0
  7 26  1  0  0  0
  7 29  1  0  0  0
  8  9  1  0  0  0
  8 22  1  0  0  0
  9 10  1  0  0  0
  9 27  2  0  0  0
 10 11  2  0  0  0
 10 15  1  0  0  0
 11 12  1  0  0  0
 11 94  1  0  0  0
 12 13  2  0  0  0
 12 95  1  0  0  0
 13 14  1  0  0  0
 13 31  1  0  0  0
 14 15  2  0  0  0
 14 96  1  0  0  0
 15 97  1  0  0  0
 16 17  2  0  0  0
 16 21  1  0  0  0
 16 31  1  0  0  0
 17 18  1  0  0  0
 17 98  1  0  0  0
 18 19  2  0  0  0
 18 99  1  0  0  0
 19 20  1  0  0  0
 19 24  1  0  0  0
 20 21  2  0  0  0
 20100  1  0  0  0
 21 23  1  0  0  0
 22 28  1  0  0  0
 22 32  2  0  0  0
 26 27  1  0  0  0
 28101  1  0  0  0
 28102  1  0  0  0
 29103  1  0  0  0
 29104  1  0  0  0
 33 34  1  0  0  0
 33 66  1  0  0  0
 33 70  2  0  0  0
 34 36  1  0  0  0
 34 59  1  0  0  0
 34105  1  0  0  0
 35 44  2  0  0  0
 35 45  1  0  0  0
 35 68  1  0  0  0
 36 56  1  0  0  0
 36106  1  0  0  0
 37 39  1  0  0  0
 37 47  1  0  0  0
 37 66  1  0  0  0
 37107  1  0  0  0
 38 43  2  0  0  0
 38 46  1  0  0  0
 38 47  1  0  0  0
 39 64  1  0  0  0
 39 67  2  0  0  0
 40 52  1  0  0  0
 40 53  2  0  0  0
 40 58  1  0  0  0
 41108  1  0  0  0
 41109  1  0  0  0
 41110  1  0  0  0
 41 48  1  0  0  0
 42 43  1  0  0  0
 42 66  1  0  0  0
 42111  1  0  0  0
 42112  1  0  0  0
 43 44  1  0  0  0
 44113  1  0  0  0
 45 46  2  0  0  0
 45114  1  0  0  0
 46115  1  0  0  0
 47116  1  0  0  0
 47117  1  0  0  0
 48 56  1  0  0  0
 48 65  1  0  0  0
 48118  1  0  0  0
 49 50  1  0  0  0
 49 53  1  0  0  0
 49 64  1  0  0  0
 49119  1  0  0  0
 50 51  1  0  0  0
 50120  1  0  0  0
 50121  1  0  0  0
 51 52  1  0  0  0
 51122  1  0  0  0
 51123  1  0  0  0
 52124  1  0  0  0
 52125  1  0  0  0
 53 54  1  0  0  0
 54 55  2  0  0  0
 54126  1  0  0  0
 55 57  1  0  0  0
 55127  1  0  0  0
 56 69  2  0  0  0
 57 58  2  0  0  0
 57128  1  0  0  0
 58129  1  0  0  0
 59 60  1  0  0  0
 59 61  1  0  0  0
 59 62  1  0  0  0
 60130  1  0  0  0
 60131  1  0  0  0
 60132  1  0  0  0
 61133  1  0  0  0
 61134  1  0  0  0
 61135  1  0  0  0
 62136  1  0  0  0
 62137  1  0  0  0
 62138  1  0  0  0
 63 65  1  0  0  0
 63139  1  0  0  0
 63140  1  0  0  0
 63141  1  0  0  0
 64142  1  0  0  0
 65143  1  0  0  0
 68 78  1  0  0  0
 71 72  2  0  0  0
 71 73  1  0  0  0
 71144  1  0  0  0
 72 74  1  0  0  0
 72145  1  0  0  0
 73 75  2  0  0  0
 73 81  1  0  0  0
 74 76  2  0  0  0
 74 82  1  0  0  0
 75 76  1  0  0  0
 75 80  1  0  0  0
 76 84  1  0  0  0
 77 78  2  0  0  0
 77 79  1  0  0  0
 77146  1  0  0  0
 78147  1  0  0  0
 79 81  1  0  0  0
 79 83  2  0  0  0
 80148  1  0  0  0
 80149  1  0  0  0
 81150  1  0  0  0
 82151  1  0  0  0
M  ISO  4   1 100  68 101  78 101  82 100
M  END
> <chiral flag>
0

> <version>
0

> <s_m_source_file>
/data/baiqing/PycharmProjects/Reinvent-master-3.2/result/LINK_invent/BTK/process_docking_weight1_custom_product_contain_oxygen_bond_distance_aromatic_linkinvent_7_9_3/rearranged_h_0088.sdf

> <i_m_source_file_index>
68

> <r_mmod_Potential_Energy-OPLS-2005>
141.593872070312

> <r_mmod_Stretch_Energy-OPLS-2005>
97.0754547119141

> <r_mmod_Bend_Energy-OPLS-2005>
249.691436767578

> <r_mmod_Torsional_Energy-OPLS-2005>
267.574645996094

> <r_mmod_Improper_Torsional_Energy-OPLS-2005>
12.518536567688

> <r_mmod_Van_der_Waal_Energy-OPLS-2005>
140.734222412109

> <r_mmod_Electrostatic_Energy-OPLS-2005>
-474.324920654297

> <r_mmod_Solvation_Energy-OPLS-2005>
-231.573089599609

> <b_mmod_Minimization_Converged-OPLS-2005>
0

> <r_mmod_RMS_Derivative-OPLS-2005>
1.45497488975525

$$$$
68
                    3D
 Structure written by MMmdl.
154163  0  0  1  0            999 V2000
  -30.6232  -14.8295   20.4279 C   0  0  0  0  0  0
  -30.4286  -12.5072   19.4916 C   0  0  0  0  0  0
  -29.5152  -12.5110   18.2475 C   0  0  0  0  0  0
  -28.0440  -12.3242   18.6623 C   0  0  0  0  0  0
  -27.6354  -13.2459   19.8419 C   0  0  2  0  0  0
  -28.6802  -13.2443   20.9794 C   0  0  0  0  0  0
  -25.2479  -13.8224   20.5705 C   0  0  0  0  0  0
  -24.1786  -13.0448   20.9213 C   0  0  0  0  0  0
  -24.6398  -11.6931   20.8742 C   0  0  0  0  0  0
  -23.9081  -10.4301   21.0404 C   0  0  0  0  0  0
  -24.3627   -9.4210   21.9180 C   0  0  0  0  0  0
  -23.6296   -8.2248   22.0756 C   0  0  0  0  0  0
  -22.4273   -8.0291   21.3549 C   0  0  0  0  0  0
  -21.9913   -9.0267   20.4651 C   0  0  0  0  0  0
  -22.7253  -10.2141   20.3057 C   0  0  0  0  0  0
  -21.6857   -6.0737   22.5276 C   0  0  0  0  0  0
  -21.4022   -6.5642   23.8211 C   0  0  0  0  0  0
  -21.3658   -5.6792   24.9174 C   0  0  0  0  0  0
  -21.6040   -4.3056   24.7225 C   0  0  0  0  0  0
  -21.8819   -3.8148   23.4345 C   0  0  0  0  0  0
  -21.9195   -4.6964   22.3400 C   0  0  0  0  0  0
  -22.7804  -13.5216   21.1865 C   0  0  0  0  0  0
  -22.1661   -4.2153   21.0978 F   0  0  0  0  0  0
  -21.5625   -3.4539   25.7734 F   0  0  0  0  0  0
  -29.9733  -13.6055   20.3851 N   0  0  0  0  0  0
  -26.2914  -12.9458   20.3260 N   0  0  0  0  0  0
  -25.9337  -11.6585   20.5741 N   0  0  0  0  0  0
  -22.0456  -12.8210   22.0425 N   0  0  0  0  0  0
  -25.4147  -15.1954   20.4137 N   0  0  0  0  0  0
  -31.8253  -14.8346   20.1562 O   0  0  0  0  0  0
  -21.6645   -6.8881   21.4239 O   0  0  0  0  0  0
  -22.3481  -14.5516   20.6706 O   0  0  0  0  0  0
  -24.6365  -31.8503   23.1946 C   0  0  0  0  0  0
  -25.9170  -32.4732   23.8306 C   0  0  1  0  0  0
  -27.2165  -27.2124   20.1400 C   0  0  0  0  0  0
  -25.5940  -33.8532   24.2231 N   0  0  0  0  0  0
  -23.4372  -30.4722   21.5384 C   0  0  2  0  0  0
  -24.8891  -28.9157   20.1061 C   0  0  0  0  0  0
  -22.7539  -29.4570   22.4879 C   0  0  0  0  0  0
  -18.0299  -28.1381   22.8479 C   0  0  0  0  0  0
  -24.1491  -36.7271   23.2633 C   0  0  0  0  0  0
  -25.9879  -30.7484   21.3837 C   0  0  0  0  0  0
  -26.0636  -29.3666   20.7251 C   0  0  0  0  0  0
  -27.2330  -28.5273   20.7338 C   0  0  0  0  0  0
  -26.0252  -26.8503   19.4768 C   0  0  0  0  0  0
  -24.8778  -27.6672   19.4678 C   0  0  0  0  0  0
  -23.6604  -29.8072   20.1552 C   0  0  0  0  0  0
  -25.4116  -36.3051   24.0321 C   0  0  1  0  0  0
  -20.5907  -28.3699   23.1247 C   0  0  2  0  0  0
  -20.6786  -26.9409   22.5399 C   0  0  0  0  0  0
  -19.5761  -26.6375   21.5202 C   0  0  0  0  0  0
  -18.1943  -26.7922   22.1618 C   0  0  0  0  0  0
  -19.1553  -28.8856   23.2858 C   0  0  0  0  0  0
  -18.9474  -30.1455   23.8877 C   0  0  0  0  0  0
  -17.6471  -30.6583   24.0551 C   0  0  0  0  0  0
  -25.9061  -34.9428   23.5083 C   0  0  0  0  0  0
  -16.5361  -29.9076   23.6326 C   0  0  0  0  0  0
  -16.7283  -28.6492   23.0354 C   0  0  0  0  0  0
  -26.4517  -31.6571   25.0716 C   0  0  0  0  0  0
  -25.3721  -31.3740   26.1424 C   0  0  0  0  0  0
  -27.0376  -30.2973   24.6248 C   0  0  0  0  0  0
  -27.6050  -32.4324   25.7505 C   0  0  0  0  0  0
  -27.5589  -37.1778   24.8451 C   0  0  0  0  0  0
  -21.4235  -29.3043   22.3631 N   0  0  0  0  0  0
  -26.4283  -37.3766   23.9428 N   0  0  0  0  0  0
  -24.7064  -31.0423   22.0948 N   0  0  0  0  0  0
  -23.4213  -28.8105   23.2994 O   0  0  0  0  0  0
  -28.2250  -26.2056   20.2127 O   0  0  0  0  0  0
  -26.5642  -34.8916   22.4655 O   0  0  0  0  0  0
  -23.5499  -32.1337   23.7215 O   0  0  0  0  0  0
  -31.1028  -20.2290   19.8139 C   0  0  0  0  0  0
  -31.5624  -17.8115   19.8474 C   0  0  0  0  0  0
  -29.7874  -20.0647   20.3059 C   0  0  0  0  0  0
  -31.9654  -19.1382   19.5933 C   0  0  0  0  0  0
  -30.2746  -17.4868   20.3428 C   0  0  0  0  0  0
  -29.4030  -18.6567   20.5650 C   0  0  0  0  0  0
  -28.1512  -23.5872   20.8188 C   0  0  0  0  0  0
  -27.3777  -22.6856   21.6712 C   0  0  0  0  0  0
  -29.1292  -22.6661   20.1444 C   0  0  0  0  0  0
  -27.8234  -24.9646   20.8247 C   0  0  0  0  0  0
  -27.8297  -21.2454   21.4806 C   0  0  0  0  0  0
  -28.9708  -21.3217   20.5689 N   0  0  0  0  0  0
  -33.2568  -19.3829   19.1265 N   0  0  0  0  0  0
  -29.9022  -16.0308   20.5782 N   0  0  0  0  0  0
  -26.4683  -22.9910   22.4515 O   0  0  0  0  0  0
  -29.9580  -23.0334   19.3045 O   0  0  0  0  0  0
  -28.1598  -18.4053   21.0378 F   0  0  0  0  0  0
  -31.4697  -12.6187   19.1853 H   0  0  0  0  0  0
  -30.3744  -11.5479   20.0086 H   0  0  0  0  0  0
  -29.8126  -11.7220   17.5555 H   0  0  0  0  0  0
  -29.6312  -13.4529   17.7087 H   0  0  0  0  0  0
  -27.9163  -11.2801   18.9501 H   0  0  0  0  0  0
  -27.3862  -12.4891   17.8084 H   0  0  0  0  0  0
  -27.6111  -14.2551   19.4292 H   0  0  0  0  0  0
  -28.7344  -12.2666   21.4604 H   0  0  0  0  0  0
  -28.4014  -13.9566   21.7571 H   0  0  0  0  0  0
  -25.2773   -9.5684   22.4757 H   0  0  0  0  0  0
  -24.0008   -7.4638   22.7470 H   0  0  0  0  0  0
  -21.0847   -8.8791   19.8952 H   0  0  0  0  0  0
  -22.3715  -10.9680   19.6169 H   0  0  0  0  0  0
  -21.2022   -7.6147   23.9719 H   0  0  0  0  0  0
  -21.1478   -6.0520   25.9075 H   0  0  0  0  0  0
  -22.0598   -2.7608   23.2851 H   0  0  0  0  0  0
  -22.4077  -11.9892   22.4838 H   0  0  0  0  0  0
  -21.1067  -13.1235   22.2612 H   0  0  0  0  0  0
  -24.6456  -15.8470   20.5276 H   0  0  0  0  0  0
  -26.2614  -15.6415   20.0865 H   0  0  0  0  0  0
  -26.7234  -32.5382   23.1042 H   0  0  0  0  0  0
  -25.0079  -33.9649   25.0370 H   0  0  0  0  0  0
  -22.7360  -31.2962   21.3905 H   0  0  0  0  0  0
  -23.3754  -35.9598   23.3274 H   0  0  0  0  0  0
  -24.3587  -36.8911   22.2051 H   0  0  0  0  0  0
  -23.7239  -37.6466   23.6670 H   0  0  0  0  0  0
  -26.1349  -31.5082   20.6149 H   0  0  0  0  0  0
  -26.8610  -30.7977   22.0222 H   0  0  0  0  0  0
  -28.1250  -28.8582   21.2474 H   0  0  0  0  0  0
  -25.9651  -25.8837   18.9966 H   0  0  0  0  0  0
  -23.9810  -27.3179   18.9753 H   0  0  0  0  0  0
  -23.7901  -30.5836   19.4004 H   0  0  0  0  0  0
  -22.7772  -29.2444   19.8479 H   0  0  0  0  0  0
  -25.1290  -36.1885   25.0811 H   0  0  0  0  0  0
  -20.9997  -28.3286   24.1368 H   0  0  0  0  0  0
  -20.5668  -26.2309   23.3608 H   0  0  0  0  0  0
  -21.6660  -26.7421   22.1202 H   0  0  0  0  0  0
  -19.6918  -25.6282   21.1241 H   0  0  0  0  0  0
  -19.6685  -27.3177   20.6724 H   0  0  0  0  0  0
  -17.4203  -26.6640   21.4035 H   0  0  0  0  0  0
  -18.0351  -26.0074   22.9026 H   0  0  0  0  0  0
  -19.7953  -30.7275   24.2234 H   0  0  0  0  0  0
  -17.5029  -31.6268   24.5152 H   0  0  0  0  0  0
  -15.5364  -30.2969   23.7666 H   0  0  0  0  0  0
  -15.8680  -28.0804   22.7084 H   0  0  0  0  0  0
  -24.5901  -30.7082   25.7756 H   0  0  0  0  0  0
  -24.8914  -32.2919   26.4816 H   0  0  0  0  0  0
  -25.8020  -30.8938   27.0223 H   0  0  0  0  0  0
  -26.2982  -29.6707   24.1244 H   0  0  0  0  0  0
  -27.4003  -29.7251   25.4801 H   0  0  0  0  0  0
  -27.8885  -30.4221   23.9545 H   0  0  0  0  0  0
  -27.2628  -33.3608   26.2092 H   0  0  0  0  0  0
  -28.3864  -32.6911   25.0348 H   0  0  0  0  0  0
  -28.0721  -31.8455   26.5424 H   0  0  0  0  0  0
  -28.2547  -38.0135   24.7592 H   0  0  0  0  0  0
  -28.1147  -36.2677   24.6151 H   0  0  0  0  0  0
  -27.2327  -37.1275   25.8853 H   0  0  0  0  0  0
  -20.9423  -29.8772   21.6837 H   0  0  0  0  0  0
  -26.0148  -38.2824   24.1482 H   0  0  0  0  0  0
  -31.4918  -21.2172   19.6251 H   0  0  0  0  0  0
  -32.2875  -17.0420   19.6453 H   0  0  0  0  0  0
  -27.0156  -25.2181   21.4998 H   0  0  0  0  0  0
  -27.0212  -20.6568   21.0479 H   0  0  0  0  0  0
  -28.1194  -20.8101   22.4372 H   0  0  0  0  0  0
  -33.4920  -20.2853   18.7230 H   0  0  0  0  0  0
  -33.8273  -18.6197   18.7737 H   0  0  0  0  0  0
  -28.9340  -15.8936   20.8254 H   0  0  0  0  0  0
  1 25  1  0  0  0
  1 30  2  0  0  0
  1 84  1  0  0  0
  2  3  1  0  0  0
  2 25  1  0  0  0
  2 88  1  0  0  0
  2 89  1  0  0  0
  3  4  1  0  0  0
  3 90  1  0  0  0
  3 91  1  0  0  0
  4  5  1  0  0  0
  4 92  1  0  0  0
  4 93  1  0  0  0
  5  6  1  0  0  0
  5 26  1  0  0  0
  5 94  1  0  0  0
  6 25  1  0  0  0
  6 95  1  0  0  0
  6 96  1  0  0  0
  7  8  2  0  0  0
  7 26  1  0  0  0
  7 29  1  0  0  0
  8  9  1  0  0  0
  8 22  1  0  0  0
  9 10  1  0  0  0
  9 27  2  0  0  0
 10 11  2  0  0  0
 10 15  1  0  0  0
 11 12  1  0  0  0
 11 97  1  0  0  0
 12 13  2  0  0  0
 12 98  1  0  0  0
 13 14  1  0  0  0
 13 31  1  0  0  0
 14 15  2  0  0  0
 14 99  1  0  0  0
 15100  1  0  0  0
 16 17  2  0  0  0
 16 21  1  0  0  0
 16 31  1  0  0  0
 17 18  1  0  0  0
 17101  1  0  0  0
 18 19  2  0  0  0
 18102  1  0  0  0
 19 20  1  0  0  0
 19 24  1  0  0  0
 20 21  2  0  0  0
 20103  1  0  0  0
 21 23  1  0  0  0
 22 28  1  0  0  0
 22 32  2  0  0  0
 26 27  1  0  0  0
 28104  1  0  0  0
 28105  1  0  0  0
 29106  1  0  0  0
 29107  1  0  0  0
 33 34  1  0  0  0
 33 66  1  0  0  0
 33 70  2  0  0  0
 34 36  1  0  0  0
 34 59  1  0  0  0
 34108  1  0  0  0
 35 44  2  0  0  0
 35 45  1  0  0  0
 35 68  1  0  0  0
 36 56  1  0  0  0
 36109  1  0  0  0
 37 39  1  0  0  0
 37 47  1  0  0  0
 37 66  1  0  0  0
 37110  1  0  0  0
 38 43  2  0  0  0
 38 46  1  0  0  0
 38 47  1  0  0  0
 39 64  1  0  0  0
 39 67  2  0  0  0
 40 52  1  0  0  0
 40 53  2  0  0  0
 40 58  1  0  0  0
 41111  1  0  0  0
 41112  1  0  0  0
 41113  1  0  0  0
 41 48  1  0  0  0
 42 43  1  0  0  0
 42 66  1  0  0  0
 42114  1  0  0  0
 42115  1  0  0  0
 43 44  1  0  0  0
 44116  1  0  0  0
 45 46  2  0  0  0
 45117  1  0  0  0
 46118  1  0  0  0
 47119  1  0  0  0
 47120  1  0  0  0
 48 56  1  0  0  0
 48 65  1  0  0  0
 48121  1  0  0  0
 49 50  1  0  0  0
 49 53  1  0  0  0
 49 64  1  0  0  0
 49122  1  0  0  0
 50 51  1  0  0  0
 50123  1  0  0  0
 50124  1  0  0  0
 51 52  1  0  0  0
 51125  1  0  0  0
 51126  1  0  0  0
 52127  1  0  0  0
 52128  1  0  0  0
 53 54  1  0  0  0
 54 55  2  0  0  0
 54129  1  0  0  0
 55 57  1  0  0  0
 55130  1  0  0  0
 56 69  2  0  0  0
 57 58  2  0  0  0
 57131  1  0  0  0
 58132  1  0  0  0
 59 60  1  0  0  0
 59 61  1  0  0  0
 59 62  1  0  0  0
 60133  1  0  0  0
 60134  1  0  0  0
 60135  1  0  0  0
 61136  1  0  0  0
 61137  1  0  0  0
 61138  1  0  0  0
 62139  1  0  0  0
 62140  1  0  0  0
 62141  1  0  0  0
 63 65  1  0  0  0
 63142  1  0  0  0
 63143  1  0  0  0
 63144  1  0  0  0
 64145  1  0  0  0
 65146  1  0  0  0
 68 80  1  0  0  0
 71 73  2  0  0  0
 71 74  1  0  0  0
 71147  1  0  0  0
 72 74  2  0  0  0
 72 75  1  0  0  0
 72148  1  0  0  0
 73 76  1  0  0  0
 73 82  1  0  0  0
 74 83  1  0  0  0
 75 76  2  0  0  0
 75 84  1  0  0  0
 76 87  1  0  0  0
 77 78  1  0  0  0
 77 79  1  0  0  0
 77 80  2  0  0  0
 78 81  1  0  0  0
 78 85  2  0  0  0
 79 82  1  0  0  0
 79 86  2  0  0  0
 80149  1  0  0  0
 81 82  1  0  0  0
 81150  1  0  0  0
 81151  1  0  0  0
 83152  1  0  0  0
 83153  1  0  0  0
 84154  1  0  0  0
M  ISO  4   1 100  68 101  80 101  84 100
M  END
> <chiral flag>
0

> <version>
0

> <s_m_source_file>
/data/baiqing/PycharmProjects/Reinvent-master-3.2/result/LINK_invent/BTK/process_docking_weight1_custom_product_contain_oxygen_bond_distance_aromatic_linkinvent_7_9_3/rearranged_h_0088.sdf

> <i_m_source_file_index>
69

> <r_mmod_Potential_Energy-OPLS-2005>
345.184539794922

> <r_mmod_Stretch_Energy-OPLS-2005>
175.448196411133

> <r_mmod_Bend_Energy-OPLS-2005>
281.117279052734

> <r_mmod_Torsional_Energy-OPLS-2005>
255.66813659668

> <r_mmod_Improper_Torsional_Energy-OPLS-2005>
6.43666219711304

> <r_mmod_Van_der_Waal_Energy-OPLS-2005>
145.94645690918

> <r_mmod_Electrostatic_Energy-OPLS-2005>
-416.157623291016

> <r_mmod_Solvation_Energy-OPLS-2005>
-236.680648803711

> <b_mmod_Minimization_Converged-OPLS-2005>
0

> <r_mmod_RMS_Derivative-OPLS-2005>
1.34303021430969

$$$$
69
                    3D
 Structure written by MMmdl.
158167  0  0  1  0            999 V2000
  -30.7356  -14.5076   20.5771 C   0  0  0  0  0  0
  -30.4053  -12.3364   19.4361 C   0  0  0  0  0  0
  -29.4884  -12.5031   18.2101 C   0  0  0  0  0  0
  -28.0123  -12.3609   18.6247 C   0  0  0  0  0  0
  -27.6495  -13.2227   19.8647 C   0  0  2  0  0  0
  -28.6928  -13.0690   20.9935 C   0  0  0  0  0  0
  -25.2529  -13.8193   20.5696 C   0  0  0  0  0  0
  -24.1801  -13.0449   20.9195 C   0  0  0  0  0  0
  -24.6380  -11.6925   20.8738 C   0  0  0  0  0  0
  -23.9056  -10.4302   21.0396 C   0  0  0  0  0  0
  -24.3606   -9.4219   21.9181 C   0  0  0  0  0  0
  -23.6284   -8.2252   22.0752 C   0  0  0  0  0  0
  -22.4270   -8.0284   21.3542 C   0  0  0  0  0  0
  -21.9903   -9.0254   20.4645 C   0  0  0  0  0  0
  -22.7225  -10.2136   20.3053 C   0  0  0  0  0  0
  -21.6852   -6.0732   22.5274 C   0  0  0  0  0  0
  -21.4017   -6.5636   23.8207 C   0  0  0  0  0  0
  -21.3664   -5.6791   24.9168 C   0  0  0  0  0  0
  -21.6044   -4.3053   24.7221 C   0  0  0  0  0  0
  -21.8819   -3.8144   23.4344 C   0  0  0  0  0  0
  -21.9194   -4.6959   22.3400 C   0  0  0  0  0  0
  -22.7823  -13.5232   21.1861 C   0  0  0  0  0  0
  -22.1661   -4.2141   21.0976 F   0  0  0  0  0  0
  -21.5632   -3.4543   25.7737 F   0  0  0  0  0  0
  -30.0137  -13.3611   20.4223 N   0  0  0  0  0  0
  -26.2961  -12.9393   20.3341 N   0  0  0  0  0  0
  -25.9314  -11.6534   20.5770 N   0  0  0  0  0  0
  -22.0472  -12.8214   22.0408 N   0  0  0  0  0  0
  -25.4237  -15.1916   20.4100 N   0  0  0  0  0  0
  -31.8866  -14.5809   20.1364 O   0  0  0  0  0  0
  -21.6648   -6.8871   21.4234 O   0  0  0  0  0  0
  -22.3509  -14.5546   20.6726 O   0  0  0  0  0  0
  -24.6173  -31.8660   23.2094 C   0  0  0  0  0  0
  -25.9057  -32.4817   23.8395 C   0  0  1  0  0  0
  -27.2322  -27.4086   20.1166 C   0  0  0  0  0  0
  -25.5915  -33.8618   24.2331 N   0  0  0  0  0  0
  -23.4082  -30.4869   21.5493 C   0  0  2  0  0  0
  -24.8567  -28.9451   20.1201 C   0  0  0  0  0  0
  -22.7432  -29.4646   22.4992 C   0  0  0  0  0  0
  -18.0281  -28.1387   22.8488 C   0  0  0  0  0  0
  -24.1485  -36.7309   23.2635 C   0  0  0  0  0  0
  -25.9374  -30.8219   21.3677 C   0  0  0  0  0  0
  -26.0153  -29.4505   20.7245 C   0  0  0  0  0  0
  -27.2084  -28.6879   20.7249 C   0  0  0  0  0  0
  -26.0629  -26.9241   19.4997 C   0  0  0  0  0  0
  -24.8754  -27.6810   19.5054 C   0  0  0  0  0  0
  -23.6202  -29.8154   20.1653 C   0  0  0  0  0  0
  -25.4102  -36.3106   24.0339 C   0  0  1  0  0  0
  -20.5870  -28.3672   23.1309 C   0  0  2  0  0  0
  -20.6778  -26.9405   22.5419 C   0  0  0  0  0  0
  -19.5753  -26.6394   21.5217 C   0  0  0  0  0  0
  -18.1931  -26.7936   22.1621 C   0  0  0  0  0  0
  -19.1529  -28.8847   23.2896 C   0  0  0  0  0  0
  -18.9454  -30.1454   23.8904 C   0  0  0  0  0  0
  -17.6453  -30.6583   24.0569 C   0  0  0  0  0  0
  -25.9038  -34.9472   23.5123 C   0  0  0  0  0  0
  -16.5348  -29.9078   23.6333 C   0  0  0  0  0  0
  -16.7268  -28.6504   23.0344 C   0  0  0  0  0  0
  -26.4479  -31.6589   25.0719 C   0  0  0  0  0  0
  -25.3747  -31.3677   26.1473 C   0  0  0  0  0  0
  -27.0316  -30.3032   24.6101 C   0  0  0  0  0  0
  -27.6075  -32.4299   25.7471 C   0  0  0  0  0  0
  -27.5590  -37.1792   24.8453 C   0  0  0  0  0  0
  -21.4157  -29.3029   22.3713 N   0  0  0  0  0  0
  -26.4284  -37.3798   23.9427 N   0  0  0  0  0  0
  -24.6725  -31.0732   22.1009 N   0  0  0  0  0  0
  -23.4182  -28.8200   23.3069 O   0  0  0  0  0  0
  -28.3786  -26.6461   20.0416 O   0  0  0  0  0  0
  -26.5597  -34.8921   22.4687 O   0  0  0  0  0  0
  -23.5356  -32.1422   23.7466 O   0  0  0  0  0  0
  -30.3080  -19.0821   22.3805 C   0  0  0  0  0  0
  -29.7847  -20.3938   22.3266 C   0  0  0  0  0  0
  -26.9934  -23.8960   21.2623 C   0  0  0  0  0  0
  -28.3840  -19.7435   20.4622 C   0  0  0  0  0  0
  -29.9029  -18.0766   21.4642 C   0  0  0  0  0  0
  -28.3255  -24.3945   21.1743 C   0  0  0  0  0  0
  -28.8390  -20.7558   21.3435 C   0  0  0  0  0  0
  -28.9072  -18.4235   20.5141 C   0  0  0  0  0  0
  -29.1476  -23.2798   21.1379 C   0  0  0  0  0  0
  -27.0537  -22.5333   21.3141 C   0  0  0  0  0  0
  -30.6842  -16.7698   21.4185 C   0  0  0  0  0  0
  -30.6414  -23.2100   21.0223 C   0  0  0  0  0  0
  -28.7311  -25.8763   21.2028 C   0  0  0  0  0  0
  -28.3722  -22.1135   21.2584 N   0  0  0  0  0  0
  -30.0864  -15.6021   21.0594 N   0  0  0  0  0  0
  -31.8722  -16.8273   21.7658 O   0  0  0  0  0  0
  -26.0343  -21.6405   21.4425 O   0  0  0  0  0  0
  -28.4719  -17.5092   19.6124 F   0  0  0  0  0  0
  -31.4507  -12.4125   19.1333 H   0  0  0  0  0  0
  -30.2943  -11.3396   19.8666 H   0  0  0  0  0  0
  -29.7359  -11.7631   17.4475 H   0  0  0  0  0  0
  -29.6520  -13.4806   17.7531 H   0  0  0  0  0  0
  -27.8296  -11.3076   18.8399 H   0  0  0  0  0  0
  -27.3623  -12.6191   17.7876 H   0  0  0  0  0  0
  -27.6746  -14.2623   19.5363 H   0  0  0  0  0  0
  -28.6798  -12.0548   21.3956 H   0  0  0  0  0  0
  -28.4558  -13.7271   21.8312 H   0  0  0  0  0  0
  -25.2748   -9.5706   22.4763 H   0  0  0  0  0  0
  -24.0001   -7.4644   22.7470 H   0  0  0  0  0  0
  -21.0840   -8.8760   19.8948 H   0  0  0  0  0  0
  -22.3670  -10.9673   19.6169 H   0  0  0  0  0  0
  -21.2007   -7.6143   23.9704 H   0  0  0  0  0  0
  -21.1487   -6.0525   25.9067 H   0  0  0  0  0  0
  -22.0595   -2.7608   23.2851 H   0  0  0  0  0  0
  -22.4087  -11.9874   22.4795 H   0  0  0  0  0  0
  -21.1086  -13.1234   22.2611 H   0  0  0  0  0  0
  -24.6555  -15.8447   20.5170 H   0  0  0  0  0  0
  -26.2652  -15.6310   20.0587 H   0  0  0  0  0  0
  -26.7138  -32.5515   23.1166 H   0  0  0  0  0  0
  -25.0095  -33.9783   25.0501 H   0  0  0  0  0  0
  -22.6994  -31.3050   21.4053 H   0  0  0  0  0  0
  -23.3764  -35.9621   23.3261 H   0  0  0  0  0  0
  -24.3597  -36.8963   22.2059 H   0  0  0  0  0  0
  -23.7200  -37.6489   23.6670 H   0  0  0  0  0  0
  -26.0496  -31.5834   20.5943 H   0  0  0  0  0  0
  -26.8265  -30.8818   21.9843 H   0  0  0  0  0  0
  -28.1065  -29.0781   21.1829 H   0  0  0  0  0  0
  -26.0743  -25.9567   19.0170 H   0  0  0  0  0  0
  -23.9869  -27.2877   19.0330 H   0  0  0  0  0  0
  -23.7327  -30.5875   19.4036 H   0  0  0  0  0  0
  -22.7432  -29.2362   19.8685 H   0  0  0  0  0  0
  -25.1268  -36.1978   25.0830 H   0  0  0  0  0  0
  -20.9957  -28.3238   24.1430 H   0  0  0  0  0  0
  -20.5700  -26.2274   23.3606 H   0  0  0  0  0  0
  -21.6648  -26.7460   22.1196 H   0  0  0  0  0  0
  -19.6919  -25.6309   21.1237 H   0  0  0  0  0  0
  -19.6695  -27.3216   20.6753 H   0  0  0  0  0  0
  -17.4205  -26.6700   21.4013 H   0  0  0  0  0  0
  -18.0310  -26.0068   22.9002 H   0  0  0  0  0  0
  -19.7930  -30.7282   24.2272 H   0  0  0  0  0  0
  -17.4997  -31.6268   24.5168 H   0  0  0  0  0  0
  -15.5341  -30.2979   23.7651 H   0  0  0  0  0  0
  -15.8678  -28.0828   22.7038 H   0  0  0  0  0  0
  -24.5940  -30.7008   25.7799 H   0  0  0  0  0  0
  -24.8919  -32.2814   26.4946 H   0  0  0  0  0  0
  -25.8113  -30.8831   27.0217 H   0  0  0  0  0  0
  -26.2857  -29.6782   24.1179 H   0  0  0  0  0  0
  -27.4107  -29.7281   25.4561 H   0  0  0  0  0  0
  -27.8683  -30.4354   23.9239 H   0  0  0  0  0  0
  -27.2735  -33.3607   26.2067 H   0  0  0  0  0  0
  -28.3874  -32.6844   25.0281 H   0  0  0  0  0  0
  -28.0756  -31.8405   26.5361 H   0  0  0  0  0  0
  -28.2562  -38.0139   24.7587 H   0  0  0  0  0  0
  -28.1136  -36.2677   24.6169 H   0  0  0  0  0  0
  -27.2322  -37.1304   25.8856 H   0  0  0  0  0  0
  -20.9342  -29.8718   21.6890 H   0  0  0  0  0  0
  -26.0172  -38.2866   24.1489 H   0  0  0  0  0  0
  -31.0745  -18.8649   23.1115 H   0  0  0  0  0  0
  -30.1386  -21.1355   23.0283 H   0  0  0  0  0  0
  -26.0925  -24.4917   21.3184 H   0  0  0  0  0  0
  -27.6417  -19.9861   19.7158 H   0  0  0  0  0  0
  -31.0392  -24.0854   20.5104 H   0  0  0  0  0  0
  -30.9599  -22.3373   20.4495 H   0  0  0  0  0  0
  -31.1097  -23.1584   22.0058 H   0  0  0  0  0  0
  -29.8134  -25.9413   21.3161 H   0  0  0  0  0  0
  -28.3198  -26.3318   22.1048 H   0  0  0  0  0  0
  -29.0813  -15.5755   21.0724 H   0  0  0  0  0  0
  -25.2261  -22.1365   21.5269 H   0  0  0  0  0  0
  1 25  1  0  0  0
  1 30  2  0  0  0
  1 85  1  0  0  0
  2  3  1  0  0  0
  2 25  1  0  0  0
  2 89  1  0  0  0
  2 90  1  0  0  0
  3  4  1  0  0  0
  3 91  1  0  0  0
  3 92  1  0  0  0
  4  5  1  0  0  0
  4 93  1  0  0  0
  4 94  1  0  0  0
  5  6  1  0  0  0
  5 26  1  0  0  0
  5 95  1  0  0  0
  6 25  1  0  0  0
  6 96  1  0  0  0
  6 97  1  0  0  0
  7  8  2  0  0  0
  7 26  1  0  0  0
  7 29  1  0  0  0
  8  9  1  0  0  0
  8 22  1  0  0  0
  9 10  1  0  0  0
  9 27  2  0  0  0
 10 11  2  0  0  0
 10 15  1  0  0  0
 11 12  1  0  0  0
 11 98  1  0  0  0
 12 13  2  0  0  0
 12 99  1  0  0  0
 13 14  1  0  0  0
 13 31  1  0  0  0
 14 15  2  0  0  0
 14100  1  0  0  0
 15101  1  0  0  0
 16 17  2  0  0  0
 16 21  1  0  0  0
 16 31  1  0  0  0
 17 18  1  0  0  0
 17102  1  0  0  0
 18 19  2  0  0  0
 18103  1  0  0  0
 19 20  1  0  0  0
 19 24  1  0  0  0
 20 21  2  0  0  0
 20104  1  0  0  0
 21 23  1  0  0  0
 22 28  1  0  0  0
 22 32  2  0  0  0
 26 27  1  0  0  0
 28105  1  0  0  0
 28106  1  0  0  0
 29107  1  0  0  0
 29108  1  0  0  0
 33 34  1  0  0  0
 33 66  1  0  0  0
 33 70  2  0  0  0
 34 36  1  0  0  0
 34 59  1  0  0  0
 34109  1  0  0  0
 35 44  2  0  0  0
 35 45  1  0  0  0
 35 68  1  0  0  0
 36 56  1  0  0  0
 36110  1  0  0  0
 37 39  1  0  0  0
 37 47  1  0  0  0
 37 66  1  0  0  0
 37111  1  0  0  0
 38 43  2  0  0  0
 38 46  1  0  0  0
 38 47  1  0  0  0
 39 64  1  0  0  0
 39 67  2  0  0  0
 40 52  1  0  0  0
 40 53  2  0  0  0
 40 58  1  0  0  0
 41112  1  0  0  0
 41113  1  0  0  0
 41114  1  0  0  0
 41 48  1  0  0  0
 42 43  1  0  0  0
 42 66  1  0  0  0
 42115  1  0  0  0
 42116  1  0  0  0
 43 44  1  0  0  0
 44117  1  0  0  0
 45 46  2  0  0  0
 45118  1  0  0  0
 46119  1  0  0  0
 47120  1  0  0  0
 47121  1  0  0  0
 48 56  1  0  0  0
 48 65  1  0  0  0
 48122  1  0  0  0
 49 50  1  0  0  0
 49 53  1  0  0  0
 49 64  1  0  0  0
 49123  1  0  0  0
 50 51  1  0  0  0
 50124  1  0  0  0
 50125  1  0  0  0
 51 52  1  0  0  0
 51126  1  0  0  0
 51127  1  0  0  0
 52128  1  0  0  0
 52129  1  0  0  0
 53 54  1  0  0  0
 54 55  2  0  0  0
 54130  1  0  0  0
 55 57  1  0  0  0
 55131  1  0  0  0
 56 69  2  0  0  0
 57 58  2  0  0  0
 57132  1  0  0  0
 58133  1  0  0  0
 59 60  1  0  0  0
 59 61  1  0  0  0
 59 62  1  0  0  0
 60134  1  0  0  0
 60135  1  0  0  0
 60136  1  0  0  0
 61137  1  0  0  0
 61138  1  0  0  0
 61139  1  0  0  0
 62140  1  0  0  0
 62141  1  0  0  0
 62142  1  0  0  0
 63 65  1  0  0  0
 63143  1  0  0  0
 63144  1  0  0  0
 63145  1  0  0  0
 64146  1  0  0  0
 65147  1  0  0  0
 68 83  1  0  0  0
 71 72  2  0  0  0
 71 75  1  0  0  0
 71148  1  0  0  0
 72 77  1  0  0  0
 72149  1  0  0  0
 73 76  1  0  0  0
 73 80  2  0  0  0
 73150  1  0  0  0
 74 77  2  0  0  0
 74 78  1  0  0  0
 74151  1  0  0  0
 75 78  2  0  0  0
 75 81  1  0  0  0
 76 79  2  0  0  0
 76 83  1  0  0  0
 77 84  1  0  0  0
 78 88  1  0  0  0
 79 82  1  0  0  0
 79 84  1  0  0  0
 80 84  1  0  0  0
 80 87  1  0  0  0
 81 85  1  0  0  0
 81 86  2  0  0  0
 82152  1  0  0  0
 82153  1  0  0  0
 82154  1  0  0  0
 83155  1  0  0  0
 83156  1  0  0  0
 85157  1  0  0  0
 87158  1  0  0  0
M  ISO  4   1 100  68 101  83 101  85 100
M  END
> <chiral flag>
0

> <version>
0

> <s_m_source_file>
/data/baiqing/PycharmProjects/Reinvent-master-3.2/result/LINK_invent/BTK/process_docking_weight1_custom_product_contain_oxygen_bond_distance_aromatic_linkinvent_7_9_3/rearranged_h_0088.sdf

> <i_m_source_file_index>
70

> <r_mmod_Potential_Energy-OPLS-2005>
-56.4508171081543

> <r_mmod_Stretch_Energy-OPLS-2005>
45.1342430114746

> <r_mmod_Bend_Energy-OPLS-2005>
106.769195556641

> <r_mmod_Torsional_Energy-OPLS-2005>
273.410614013672

> <r_mmod_Improper_Torsional_Energy-OPLS-2005>
5.24396657943726

> <r_mmod_Van_der_Waal_Energy-OPLS-2005>
148.639663696289

> <r_mmod_Electrostatic_Energy-OPLS-2005>
-434.676086425781

> <r_mmod_Solvation_Energy-OPLS-2005>
-220.846603393555

> <b_mmod_Minimization_Converged-OPLS-2005>
0

> <r_mmod_RMS_Derivative-OPLS-2005>
1.61986184120178

$$$$
70
                    3D
 Structure written by MMmdl.
152161  0  0  1  0            999 V2000
  -30.5056  -15.0544   20.3153 C   0  0  0  0  0  0
  -30.4490  -12.6429   19.4814 C   0  0  0  0  0  0
  -29.5211  -12.4748   18.2547 C   0  0  0  0  0  0
  -28.0536  -12.2802   18.6872 C   0  0  0  0  0  0
  -27.6192  -13.2365   19.8298 C   0  0  2  0  0  0
  -28.6777  -13.3442   20.9446 C   0  0  0  0  0  0
  -25.2468  -13.8175   20.5783 C   0  0  0  0  0  0
  -24.1763  -13.0416   20.9257 C   0  0  0  0  0  0
  -24.6367  -11.6897   20.8793 C   0  0  0  0  0  0
  -23.9051  -10.4278   21.0428 C   0  0  0  0  0  0
  -24.3608   -9.4192   21.9197 C   0  0  0  0  0  0
  -23.6286   -8.2227   22.0756 C   0  0  0  0  0  0
  -22.4269   -8.0270   21.3544 C   0  0  0  0  0  0
  -21.9904   -9.0245   20.4648 C   0  0  0  0  0  0
  -22.7230  -10.2125   20.3066 C   0  0  0  0  0  0
  -21.6848   -6.0731   22.5279 C   0  0  0  0  0  0
  -21.4011   -6.5638   23.8211 C   0  0  0  0  0  0
  -21.3658   -5.6792   24.9175 C   0  0  0  0  0  0
  -21.6044   -4.3055   24.7227 C   0  0  0  0  0  0
  -21.8819   -3.8145   23.4349 C   0  0  0  0  0  0
  -21.9191   -4.6960   22.3404 C   0  0  0  0  0  0
  -22.7786  -13.5202   21.1892 C   0  0  0  0  0  0
  -22.1660   -4.2145   21.0981 F   0  0  0  0  0  0
  -21.5629   -3.4540   25.7740 F   0  0  0  0  0  0
  -29.9234  -13.7764   20.2945 N   0  0  0  0  0  0
  -26.2868  -12.9364   20.3332 N   0  0  0  0  0  0
  -25.9300  -11.6513   20.5817 N   0  0  0  0  0  0
  -22.0429  -12.8195   22.0444 N   0  0  0  0  0  0
  -25.4171  -15.1908   20.4234 N   0  0  0  0  0  0
  -31.7431  -15.0746   20.3075 O   0  0  0  0  0  0
  -21.6633   -6.8870   21.4239 O   0  0  0  0  0  0
  -22.3481  -14.5509   20.6730 O   0  0  0  0  0  0
  -24.6477  -31.8393   23.1834 C   0  0  0  0  0  0
  -25.9227  -32.4671   23.8244 C   0  0  1  0  0  0
  -27.2219  -27.0925   20.1618 C   0  0  0  0  0  0
  -25.5955  -33.8478   24.2160 N   0  0  0  0  0  0
  -23.4543  -30.4558   21.5299 C   0  0  2  0  0  0
  -24.9058  -28.8708   20.1130 C   0  0  0  0  0  0
  -22.7590  -29.4525   22.4846 C   0  0  0  0  0  0
  -18.0316  -28.1388   22.8472 C   0  0  0  0  0  0
  -24.1490  -36.7244   23.2644 C   0  0  0  0  0  0
  -26.0129  -30.6994   21.3880 C   0  0  0  0  0  0
  -26.0853  -29.3051   20.7318 C   0  0  0  0  0  0
  -27.2450  -28.4344   20.7336 C   0  0  0  0  0  0
  -26.0159  -26.7674   19.5049 C   0  0  0  0  0  0
  -24.8865  -27.6171   19.4821 C   0  0  0  0  0  0
  -23.6840  -29.7785   20.1522 C   0  0  0  0  0  0
  -25.4125  -36.3018   24.0312 C   0  0  1  0  0  0
  -20.5928  -28.3728   23.1224 C   0  0  2  0  0  0
  -20.6807  -26.9430   22.5397 C   0  0  0  0  0  0
  -19.5779  -26.6374   21.5211 C   0  0  0  0  0  0
  -18.1961  -26.7924   22.1623 C   0  0  0  0  0  0
  -19.1570  -28.8876   23.2839 C   0  0  0  0  0  0
  -18.9481  -30.1472   23.8864 C   0  0  0  0  0  0
  -17.6475  -30.6584   24.0551 C   0  0  0  0  0  0
  -25.9079  -34.9395   23.5049 C   0  0  0  0  0  0
  -16.5369  -29.9069   23.6332 C   0  0  0  0  0  0
  -16.7298  -28.6488   23.0354 C   0  0  0  0  0  0
  -26.4533  -31.6558   25.0706 C   0  0  0  0  0  0
  -25.3702  -31.3759   26.1391 C   0  0  0  0  0  0
  -27.0409  -30.2950   24.6320 C   0  0  0  0  0  0
  -27.6052  -32.4335   25.7498 C   0  0  0  0  0  0
  -27.5574  -37.1777   24.8466 C   0  0  0  0  0  0
  -21.4277  -29.3053   22.3596 N   0  0  0  0  0  0
  -26.4284  -37.3737   23.9410 N   0  0  0  0  0  0
  -24.7251  -31.0206   22.0888 N   0  0  0  0  0  0
  -23.4210  -28.8078   23.3018 O   0  0  0  0  0  0
  -28.2638  -26.0815   20.2110 O   0  0  0  0  0  0
  -26.5673  -34.8902   22.4634 O   0  0  0  0  0  0
  -23.5585  -32.1288   23.7027 O   0  0  0  0  0  0
  -29.7306  -20.0487   21.1874 C   0  0  0  0  0  0
  -28.6929  -20.0253   19.1477 C   0  0  0  0  0  0
  -29.9859  -18.5929   21.1081 C   0  0  0  0  0  0
  -28.9236  -18.5912   19.0560 C   0  0  0  0  0  0
  -29.0641  -20.9142   20.2162 C   0  0  0  0  0  0
  -29.6034  -17.7336   20.0107 C   0  0  0  0  0  0
  -28.9841  -23.5600   21.1477 C   0  0  0  0  0  0
  -28.2843  -23.4355   19.2880 C   0  0  0  0  0  0
  -30.4408  -16.1648   17.4171 C   0  0  0  0  0  0
  -29.5464  -15.9302   18.3958 C   0  0  0  0  0  0
  -27.9355  -24.5416   20.4056 C   0  0  0  0  0  0
  -28.7479  -22.4485   20.2491 N   0  0  0  0  0  0
  -29.7828  -16.1829   19.7573 N   0  0  0  0  0  0
  -29.7062  -23.6383   22.1239 O   0  0  0  0  0  0
  -28.1793  -23.3641   18.0780 O   0  0  0  0  0  0
  -31.4708  -12.8319   19.1481 H   0  0  0  0  0  0
  -30.4873  -11.7268   20.0729 H   0  0  0  0  0  0
  -29.8450  -11.6215   17.6573 H   0  0  0  0  0  0
  -29.6026  -13.3400   17.5988 H   0  0  0  0  0  0
  -27.9551  -11.2478   19.0246 H   0  0  0  0  0  0
  -27.3872  -12.3818   17.8299 H   0  0  0  0  0  0
  -27.5365  -14.2166   19.3748 H   0  0  0  0  0  0
  -28.8050  -12.3960   21.4688 H   0  0  0  0  0  0
  -28.3725  -14.0809   21.6896 H   0  0  0  0  0  0
  -25.2749   -9.5669   22.4777 H   0  0  0  0  0  0
  -23.9995   -7.4615   22.7472 H   0  0  0  0  0  0
  -21.0836   -8.8765   19.8952 H   0  0  0  0  0  0
  -22.3689  -10.9670   19.6182 H   0  0  0  0  0  0
  -21.2002   -7.6146   23.9713 H   0  0  0  0  0  0
  -21.1481   -6.0524   25.9077 H   0  0  0  0  0  0
  -22.0600   -2.7607   23.2851 H   0  0  0  0  0  0
  -22.4046  -11.9859   22.4836 H   0  0  0  0  0  0
  -21.1045  -13.1217   22.2646 H   0  0  0  0  0  0
  -24.6564  -15.8487   20.5536 H   0  0  0  0  0  0
  -26.2829  -15.6368   20.1476 H   0  0  0  0  0  0
  -26.7293  -32.5265   23.0970 H   0  0  0  0  0  0
  -25.0070  -33.9583   25.0287 H   0  0  0  0  0  0
  -22.7593  -31.2828   21.3700 H   0  0  0  0  0  0
  -23.3761  -35.9565   23.3287 H   0  0  0  0  0  0
  -24.3572  -36.8900   22.2062 H   0  0  0  0  0  0
  -23.7235  -37.6428   23.6699 H   0  0  0  0  0  0
  -26.1722  -31.4504   20.6131 H   0  0  0  0  0  0
  -26.8813  -30.7528   22.0329 H   0  0  0  0  0  0
  -28.1440  -28.7642   21.2353 H   0  0  0  0  0  0
  -25.9238  -25.8080   19.0167 H   0  0  0  0  0  0
  -23.9875  -27.2802   18.9843 H   0  0  0  0  0  0
  -23.8239  -30.5495   19.3937 H   0  0  0  0  0  0
  -22.7979  -29.2218   19.8419 H   0  0  0  0  0  0
  -25.1315  -36.1837   25.0804 H   0  0  0  0  0  0
  -21.0017  -28.3320   24.1347 H   0  0  0  0  0  0
  -20.5715  -26.2340   23.3618 H   0  0  0  0  0  0
  -21.6672  -26.7443   22.1188 H   0  0  0  0  0  0
  -19.6947  -25.6276   21.1262 H   0  0  0  0  0  0
  -19.6712  -27.3164   20.6724 H   0  0  0  0  0  0
  -17.4232  -26.6661   21.4026 H   0  0  0  0  0  0
  -18.0366  -26.0072   22.9026 H   0  0  0  0  0  0
  -19.7955  -30.7299   24.2217 H   0  0  0  0  0  0
  -17.5023  -31.6262   24.5153 H   0  0  0  0  0  0
  -15.5366  -30.2956   23.7670 H   0  0  0  0  0  0
  -15.8703  -28.0791   22.7086 H   0  0  0  0  0  0
  -24.5892  -30.7099   25.7707 H   0  0  0  0  0  0
  -24.8880  -32.2944   26.4745 H   0  0  0  0  0  0
  -25.7971  -30.8977   27.0216 H   0  0  0  0  0  0
  -26.3041  -29.6659   24.1313 H   0  0  0  0  0  0
  -27.3995  -29.7266   25.4912 H   0  0  0  0  0  0
  -27.8957  -30.4178   23.9666 H   0  0  0  0  0  0
  -27.2639  -33.3662   26.2001 H   0  0  0  0  0  0
  -28.3902  -32.6853   25.0355 H   0  0  0  0  0  0
  -28.0676  -31.8510   26.5476 H   0  0  0  0  0  0
  -28.2579  -38.0086   24.7519 H   0  0  0  0  0  0
  -28.1083  -36.2615   24.6286 H   0  0  0  0  0  0
  -27.2292  -37.1414   25.8868 H   0  0  0  0  0  0
  -20.9497  -29.8759   21.6762 H   0  0  0  0  0  0
  -26.0146  -38.2801   24.1420 H   0  0  0  0  0  0
  -30.0841  -20.5346   22.0859 H   0  0  0  0  0  0
  -28.1688  -20.4681   18.3124 H   0  0  0  0  0  0
  -30.5020  -18.1365   21.9407 H   0  0  0  0  0  0
  -28.5232  -18.1553   18.1533 H   0  0  0  0  0  0
  -30.1968  -15.9654   16.3832 H   0  0  0  0  0  0
  -31.4251  -16.5576   17.6304 H   0  0  0  0  0  0
  -28.5608  -15.5546   18.1758 H   0  0  0  0  0  0
  -26.9297  -24.4308   20.8091 H   0  0  0  0  0  0
  1 25  1  0  0  0
  1 30  2  0  0  0
  1 83  1  0  0  0
  2  3  1  0  0  0
  2 25  1  0  0  0
  2 86  1  0  0  0
  2 87  1  0  0  0
  3  4  1  0  0  0
  3 88  1  0  0  0
  3 89  1  0  0  0
  4  5  1  0  0  0
  4 90  1  0  0  0
  4 91  1  0  0  0
  5  6  1  0  0  0
  5 26  1  0  0  0
  5 92  1  0  0  0
  6 25  1  0  0  0
  6 93  1  0  0  0
  6 94  1  0  0  0
  7  8  2  0  0  0
  7 26  1  0  0  0
  7 29  1  0  0  0
  8  9  1  0  0  0
  8 22  1  0  0  0
  9 10  1  0  0  0
  9 27  2  0  0  0
 10 11  2  0  0  0
 10 15  1  0  0  0
 11 12  1  0  0  0
 11 95  1  0  0  0
 12 13  2  0  0  0
 12 96  1  0  0  0
 13 14  1  0  0  0
 13 31  1  0  0  0
 14 15  2  0  0  0
 14 97  1  0  0  0
 15 98  1  0  0  0
 16 17  2  0  0  0
 16 21  1  0  0  0
 16 31  1  0  0  0
 17 18  1  0  0  0
 17 99  1  0  0  0
 18 19  2  0  0  0
 18100  1  0  0  0
 19 20  1  0  0  0
 19 24  1  0  0  0
 20 21  2  0  0  0
 20101  1  0  0  0
 21 23  1  0  0  0
 22 28  1  0  0  0
 22 32  2  0  0  0
 26 27  1  0  0  0
 28102  1  0  0  0
 28103  1  0  0  0
 29104  1  0  0  0
 29105  1  0  0  0
 33 34  1  0  0  0
 33 66  1  0  0  0
 33 70  2  0  0  0
 34 36  1  0  0  0
 34 59  1  0  0  0
 34106  1  0  0  0
 35 44  2  0  0  0
 35 45  1  0  0  0
 35 68  1  0  0  0
 36 56  1  0  0  0
 36107  1  0  0  0
 37 39  1  0  0  0
 37 47  1  0  0  0
 37 66  1  0  0  0
 37108  1  0  0  0
 38 43  2  0  0  0
 38 46  1  0  0  0
 38 47  1  0  0  0
 39 64  1  0  0  0
 39 67  2  0  0  0
 40 52  1  0  0  0
 40 53  2  0  0  0
 40 58  1  0  0  0
 41109  1  0  0  0
 41110  1  0  0  0
 41111  1  0  0  0
 41 48  1  0  0  0
 42 43  1  0  0  0
 42 66  1  0  0  0
 42112  1  0  0  0
 42113  1  0  0  0
 43 44  1  0  0  0
 44114  1  0  0  0
 45 46  2  0  0  0
 45115  1  0  0  0
 46116  1  0  0  0
 47117  1  0  0  0
 47118  1  0  0  0
 48 56  1  0  0  0
 48 65  1  0  0  0
 48119  1  0  0  0
 49 50  1  0  0  0
 49 53  1  0  0  0
 49 64  1  0  0  0
 49120  1  0  0  0
 50 51  1  0  0  0
 50121  1  0  0  0
 50122  1  0  0  0
 51 52  1  0  0  0
 51123  1  0  0  0
 51124  1  0  0  0
 52125  1  0  0  0
 52126  1  0  0  0
 53 54  1  0  0  0
 54 55  2  0  0  0
 54127  1  0  0  0
 55 57  1  0  0  0
 55128  1  0  0  0
 56 69  2  0  0  0
 57 58  2  0  0  0
 57129  1  0  0  0
 58130  1  0  0  0
 59 60  1  0  0  0
 59 61  1  0  0  0
 59 62  1  0  0  0
 60131  1  0  0  0
 60132  1  0  0  0
 60133  1  0  0  0
 61134  1  0  0  0
 61135  1  0  0  0
 61136  1  0  0  0
 62137  1  0  0  0
 62138  1  0  0  0
 62139  1  0  0  0
 63 65  1  0  0  0
 63140  1  0  0  0
 63141  1  0  0  0
 63142  1  0  0  0
 64143  1  0  0  0
 65144  1  0  0  0
 68 81  1  0  0  0
 71 73  2  0  0  0
 71 75  1  0  0  0
 71145  1  0  0  0
 72 74  1  0  0  0
 72 75  2  0  0  0
 72146  1  0  0  0
 73 76  1  0  0  0
 73147  1  0  0  0
 74 76  2  0  0  0
 74148  1  0  0  0
 75 82  1  0  0  0
 76 83  1  0  0  0
 77 81  1  0  0  0
 77 82  1  0  0  0
 77 84  2  0  0  0
 78 81  1  0  0  0
 78 82  1  0  0  0
 78 85  2  0  0  0
 79 80  2  0  0  0
 79149  1  0  0  0
 79150  1  0  0  0
 80 83  1  0  0  0
 80151  1  0  0  0
 81152  1  0  0  0
M  ISO  4   1 100  68 101  81 101  83 100
M  END
> <chiral flag>
0

> <version>
0

> <s_m_source_file>
/data/baiqing/PycharmProjects/Reinvent-master-3.2/result/LINK_invent/BTK/process_docking_weight1_custom_product_contain_oxygen_bond_distance_aromatic_linkinvent_7_9_3/rearranged_h_0088.sdf

> <i_m_source_file_index>
71

> <r_mmod_Potential_Energy-OPLS-2005>
858.432556152344

> <r_mmod_Stretch_Energy-OPLS-2005>
291.243041992188

> <r_mmod_Bend_Energy-OPLS-2005>
330.205047607422

> <r_mmod_Torsional_Energy-OPLS-2005>
337.147277832031

> <r_mmod_Improper_Torsional_Energy-OPLS-2005>
23.6531715393066

> <r_mmod_Van_der_Waal_Energy-OPLS-2005>
138.509414672852

> <r_mmod_Electrostatic_Energy-OPLS-2005>
-301.812622070312

> <r_mmod_Solvation_Energy-OPLS-2005>
-225.568222045898

> <b_mmod_Minimization_Converged-OPLS-2005>
0

> <r_mmod_RMS_Derivative-OPLS-2005>
0.197567328810692

$$$$
71
                    3D
 Structure written by MMmdl.
152160  0  0  1  0            999 V2000
  -30.6182  -14.6389   20.5220 C   0  0  0  0  0  0
  -30.4419  -12.3974   19.4511 C   0  0  0  0  0  0
  -29.5090  -12.5178   18.2250 C   0  0  0  0  0  0
  -28.0324  -12.3513   18.6360 C   0  0  0  0  0  0
  -27.6568  -13.2158   19.8686 C   0  0  2  0  0  0
  -28.7004  -13.0548   20.9972 C   0  0  0  0  0  0
  -25.2573  -13.8168   20.5682 C   0  0  0  0  0  0
  -24.1836  -13.0436   20.9182 C   0  0  0  0  0  0
  -24.6401  -11.6906   20.8733 C   0  0  0  0  0  0
  -23.9067  -10.4291   21.0403 C   0  0  0  0  0  0
  -24.3617   -9.4207   21.9183 C   0  0  0  0  0  0
  -23.6289   -8.2244   22.0753 C   0  0  0  0  0  0
  -22.4273   -8.0281   21.3542 C   0  0  0  0  0  0
  -21.9907   -9.0258   20.4648 C   0  0  0  0  0  0
  -22.7237  -10.2136   20.3056 C   0  0  0  0  0  0
  -21.6852   -6.0735   22.5278 C   0  0  0  0  0  0
  -21.4015   -6.5640   23.8211 C   0  0  0  0  0  0
  -21.3659   -5.6793   24.9173 C   0  0  0  0  0  0
  -21.6044   -4.3055   24.7225 C   0  0  0  0  0  0
  -21.8819   -3.8147   23.4345 C   0  0  0  0  0  0
  -21.9193   -4.6962   22.3401 C   0  0  0  0  0  0
  -22.7858  -13.5234   21.1847 C   0  0  0  0  0  0
  -22.1661   -4.2148   21.0979 F   0  0  0  0  0  0
  -21.5627   -3.4540   25.7737 F   0  0  0  0  0  0
  -30.0179  -13.4079   20.4415 N   0  0  0  0  0  0
  -26.3006  -12.9348   20.3335 N   0  0  0  0  0  0
  -25.9332  -11.6503   20.5760 N   0  0  0  0  0  0
  -22.0501  -12.8231   22.0406 N   0  0  0  0  0  0
  -25.4293  -15.1888   20.4098 N   0  0  0  0  0  0
  -31.7568  -14.8302   20.0835 O   0  0  0  0  0  0
  -21.6637   -6.8879   21.4239 O   0  0  0  0  0  0
  -22.3546  -14.5542   20.6697 O   0  0  0  0  0  0
  -24.6267  -31.8598   23.2033 C   0  0  0  0  0  0
  -25.9114  -32.4779   23.8359 C   0  0  1  0  0  0
  -27.2239  -27.3144   20.1123 C   0  0  0  0  0  0
  -25.5928  -33.8580   24.2283 N   0  0  0  0  0  0
  -23.4206  -30.4845   21.5458 C   0  0  2  0  0  0
  -24.8673  -28.9425   20.1094 C   0  0  0  0  0  0
  -22.7479  -29.4624   22.4930 C   0  0  0  0  0  0
  -18.0288  -28.1386   22.8485 C   0  0  0  0  0  0
  -24.1490  -36.7296   23.2638 C   0  0  0  0  0  0
  -25.9631  -30.7878   21.3770 C   0  0  0  0  0  0
  -26.0365  -29.4156   20.7179 C   0  0  0  0  0  0
  -27.2164  -28.6121   20.7134 C   0  0  0  0  0  0
  -26.0318  -26.9041   19.4678 C   0  0  0  0  0  0
  -24.8673  -27.6921   19.4760 C   0  0  0  0  0  0
  -23.6358  -29.8228   20.1601 C   0  0  0  0  0  0
  -25.4114  -36.3084   24.0328 C   0  0  1  0  0  0
  -20.5889  -28.3691   23.1279 C   0  0  2  0  0  0
  -20.6777  -26.9413   22.5410 C   0  0  0  0  0  0
  -19.5753  -26.6384   21.5212 C   0  0  0  0  0  0
  -18.1933  -26.7928   22.1624 C   0  0  0  0  0  0
  -19.1541  -28.8855   23.2878 C   0  0  0  0  0  0
  -18.9463  -30.1456   23.8895 C   0  0  0  0  0  0
  -17.6463  -30.6586   24.0564 C   0  0  0  0  0  0
  -25.9051  -34.9452   23.5105 C   0  0  0  0  0  0
  -16.5354  -29.9086   23.6329 C   0  0  0  0  0  0
  -16.7275  -28.6504   23.0348 C   0  0  0  0  0  0
  -26.4498  -31.6588   25.0728 C   0  0  0  0  0  0
  -25.3733  -31.3728   26.1457 C   0  0  0  0  0  0
  -27.0339  -30.3010   24.6186 C   0  0  0  0  0  0
  -27.6057  -32.4323   25.7497 C   0  0  0  0  0  0
  -27.5581  -37.1803   24.8464 C   0  0  0  0  0  0
  -21.4192  -29.3044   22.3672 N   0  0  0  0  0  0
  -26.4293  -37.3778   23.9408 N   0  0  0  0  0  0
  -24.6889  -31.0606   22.0987 N   0  0  0  0  0  0
  -23.4201  -28.8158   23.3008 O   0  0  0  0  0  0
  -28.3337  -26.4520   20.1772 O   0  0  0  0  0  0
  -26.5619  -34.8918   22.4671 O   0  0  0  0  0  0
  -23.5429  -32.1397   23.7357 O   0  0  0  0  0  0
  -30.0373  -17.9160   22.0614 C   0  0  0  0  0  0
  -29.5710  -19.2123   19.6256 C   0  0  0  0  0  0
  -29.9233  -19.3367   22.0071 C   0  0  0  0  0  0
  -29.9290  -17.1011   20.9050 C   0  0  0  0  0  0
  -29.6733  -20.0276   20.7898 C   0  0  0  0  0  0
  -29.6927  -17.7858   19.6808 C   0  0  0  0  0  0
  -29.1164  -23.9553   20.4547 C   0  0  0  0  0  0
  -28.9668  -22.4056   20.0209 C   0  0  0  0  0  0
  -28.1073  -25.0149   19.8615 C   0  0  0  0  0  0
  -30.0281  -20.0682   23.1917 N   0  0  0  0  0  0
  -29.5975  -21.4940   20.8247 N   0  0  0  0  0  0
  -29.8511  -15.6465   21.0364 N   0  0  0  0  0  0
  -29.9961  -24.3088   21.2511 O   0  0  0  0  0  0
  -28.3176  -22.0788   19.0218 O   0  0  0  0  0  0
  -29.5306  -17.0650   18.5448 F   0  0  0  0  0  0
  -31.4822  -12.5295   19.1485 H   0  0  0  0  0  0
  -30.3825  -11.3973   19.8835 H   0  0  0  0  0  0
  -29.7738  -11.7724   17.4741 H   0  0  0  0  0  0
  -29.6489  -13.4913   17.7520 H   0  0  0  0  0  0
  -27.8703  -11.2968   18.8625 H   0  0  0  0  0  0
  -27.3773  -12.5853   17.7959 H   0  0  0  0  0  0
  -27.6808  -14.2544   19.5377 H   0  0  0  0  0  0
  -28.7128  -12.0266   21.3615 H   0  0  0  0  0  0
  -28.4392  -13.6670   21.8613 H   0  0  0  0  0  0
  -25.2764   -9.5681   22.4756 H   0  0  0  0  0  0
  -23.9996   -7.4637   22.7475 H   0  0  0  0  0  0
  -21.0834   -8.8782   19.8959 H   0  0  0  0  0  0
  -22.3696  -10.9677   19.6166 H   0  0  0  0  0  0
  -21.2009   -7.6149   23.9714 H   0  0  0  0  0  0
  -21.1480   -6.0523   25.9076 H   0  0  0  0  0  0
  -22.0598   -2.7608   23.2847 H   0  0  0  0  0  0
  -22.4112  -11.9891   22.4794 H   0  0  0  0  0  0
  -21.1124  -13.1270   22.2622 H   0  0  0  0  0  0
  -24.6619  -15.8435   20.5142 H   0  0  0  0  0  0
  -26.2790  -15.6257   20.0753 H   0  0  0  0  0  0
  -26.7182  -32.5447   23.1107 H   0  0  0  0  0  0
  -25.0074  -33.9726   25.0427 H   0  0  0  0  0  0
  -22.7146  -31.3055   21.4041 H   0  0  0  0  0  0
  -23.3749  -35.9633   23.3304 H   0  0  0  0  0  0
  -24.3581  -36.8913   22.2052 H   0  0  0  0  0  0
  -23.7249  -37.6501   23.6658 H   0  0  0  0  0  0
  -26.0972  -31.5514   20.6095 H   0  0  0  0  0  0
  -26.8429  -30.8351   22.0071 H   0  0  0  0  0  0
  -28.1107  -28.9687   21.2053 H   0  0  0  0  0  0
  -25.9627  -25.9573   18.9536 H   0  0  0  0  0  0
  -23.9736  -27.3269   18.9887 H   0  0  0  0  0  0
  -23.7562  -30.6011   19.4058 H   0  0  0  0  0  0
  -22.7554  -29.2538   19.8556 H   0  0  0  0  0  0
  -25.1294  -36.1938   25.0821 H   0  0  0  0  0  0
  -20.9983  -28.3269   24.1399 H   0  0  0  0  0  0
  -20.5678  -26.2302   23.3611 H   0  0  0  0  0  0
  -21.6646  -26.7441   22.1204 H   0  0  0  0  0  0
  -19.6915  -25.6294   21.1242 H   0  0  0  0  0  0
  -19.6690  -27.3193   20.6742 H   0  0  0  0  0  0
  -17.4202  -26.6672   21.4028 H   0  0  0  0  0  0
  -18.0336  -26.0071   22.9022 H   0  0  0  0  0  0
  -19.7940  -30.7273   24.2263 H   0  0  0  0  0  0
  -17.5018  -31.6265   24.5168 H   0  0  0  0  0  0
  -15.5355  -30.2988   23.7652 H   0  0  0  0  0  0
  -15.8676  -28.0825   22.7060 H   0  0  0  0  0  0
  -24.5908  -30.7075   25.7790 H   0  0  0  0  0  0
  -24.8925  -32.2895   26.4881 H   0  0  0  0  0  0
  -25.8061  -30.8908   27.0232 H   0  0  0  0  0  0
  -26.2912  -29.6760   24.1212 H   0  0  0  0  0  0
  -27.4036  -29.7267   25.4692 H   0  0  0  0  0  0
  -27.8785  -30.4293   23.9412 H   0  0  0  0  0  0
  -27.2667  -33.3621   26.2078 H   0  0  0  0  0  0
  -28.3864  -32.6888   25.0322 H   0  0  0  0  0  0
  -28.0730  -31.8446   26.5409 H   0  0  0  0  0  0
  -28.2600  -38.0098   24.7507 H   0  0  0  0  0  0
  -28.1074  -36.2629   24.6293 H   0  0  0  0  0  0
  -27.2298  -37.1457   25.8867 H   0  0  0  0  0  0
  -20.9369  -29.8773   21.6888 H   0  0  0  0  0  0
  -26.0174  -38.2854   24.1406 H   0  0  0  0  0  0
  -30.1836  -17.4333   23.0169 H   0  0  0  0  0  0
  -29.3902  -19.6730   18.6664 H   0  0  0  0  0  0
  -27.1311  -24.7114   20.2395 H   0  0  0  0  0  0
  -28.0828  -24.8936   18.7784 H   0  0  0  0  0  0
  -29.9937  -19.5416   24.0590 H   0  0  0  0  0  0
  -29.4667  -20.9098   23.2579 H   0  0  0  0  0  0
  -30.0482  -21.9140   21.6274 H   0  0  0  0  0  0
  -29.0037  -15.3143   21.4698 H   0  0  0  0  0  0
  1 25  1  0  0  0
  1 30  2  0  0  0
  1 82  1  0  0  0
  2  3  1  0  0  0
  2 25  1  0  0  0
  2 86  1  0  0  0
  2 87  1  0  0  0
  3  4  1  0  0  0
  3 88  1  0  0  0
  3 89  1  0  0  0
  4  5  1  0  0  0
  4 90  1  0  0  0
  4 91  1  0  0  0
  5  6  1  0  0  0
  5 26  1  0  0  0
  5 92  1  0  0  0
  6 25  1  0  0  0
  6 93  1  0  0  0
  6 94  1  0  0  0
  7  8  2  0  0  0
  7 26  1  0  0  0
  7 29  1  0  0  0
  8  9  1  0  0  0
  8 22  1  0  0  0
  9 10  1  0  0  0
  9 27  2  0  0  0
 10 11  2  0  0  0
 10 15  1  0  0  0
 11 12  1  0  0  0
 11 95  1  0  0  0
 12 13  2  0  0  0
 12 96  1  0  0  0
 13 14  1  0  0  0
 13 31  1  0  0  0
 14 15  2  0  0  0
 14 97  1  0  0  0
 15 98  1  0  0  0
 16 17  2  0  0  0
 16 21  1  0  0  0
 16 31  1  0  0  0
 17 18  1  0  0  0
 17 99  1  0  0  0
 18 19  2  0  0  0
 18100  1  0  0  0
 19 20  1  0  0  0
 19 24  1  0  0  0
 20 21  2  0  0  0
 20101  1  0  0  0
 21 23  1  0  0  0
 22 28  1  0  0  0
 22 32  2  0  0  0
 26 27  1  0  0  0
 28102  1  0  0  0
 28103  1  0  0  0
 29104  1  0  0  0
 29105  1  0  0  0
 33 34  1  0  0  0
 33 66  1  0  0  0
 33 70  2  0  0  0
 34 36  1  0  0  0
 34 59  1  0  0  0
 34106  1  0  0  0
 35 44  2  0  0  0
 35 45  1  0  0  0
 35 68  1  0  0  0
 36 56  1  0  0  0
 36107  1  0  0  0
 37 39  1  0  0  0
 37 47  1  0  0  0
 37 66  1  0  0  0
 37108  1  0  0  0
 38 43  2  0  0  0
 38 46  1  0  0  0
 38 47  1  0  0  0
 39 64  1  0  0  0
 39 67  2  0  0  0
 40 52  1  0  0  0
 40 53  2  0  0  0
 40 58  1  0  0  0
 41109  1  0  0  0
 41110  1  0  0  0
 41111  1  0  0  0
 41 48  1  0  0  0
 42 43  1  0  0  0
 42 66  1  0  0  0
 42112  1  0  0  0
 42113  1  0  0  0
 43 44  1  0  0  0
 44114  1  0  0  0
 45 46  2  0  0  0
 45115  1  0  0  0
 46116  1  0  0  0
 47117  1  0  0  0
 47118  1  0  0  0
 48 56  1  0  0  0
 48 65  1  0  0  0
 48119  1  0  0  0
 49 50  1  0  0  0
 49 53  1  0  0  0
 49 64  1  0  0  0
 49120  1  0  0  0
 50 51  1  0  0  0
 50121  1  0  0  0
 50122  1  0  0  0
 51 52  1  0  0  0
 51123  1  0  0  0
 51124  1  0  0  0
 52125  1  0  0  0
 52126  1  0  0  0
 53 54  1  0  0  0
 54 55  2  0  0  0
 54127  1  0  0  0
 55 57  1  0  0  0
 55128  1  0  0  0
 56 69  2  0  0  0
 57 58  2  0  0  0
 57129  1  0  0  0
 58130  1  0  0  0
 59 60  1  0  0  0
 59 61  1  0  0  0
 59 62  1  0  0  0
 60131  1  0  0  0
 60132  1  0  0  0
 60133  1  0  0  0
 61134  1  0  0  0
 61135  1  0  0  0
 61136  1  0  0  0
 62137  1  0  0  0
 62138  1  0  0  0
 62139  1  0  0  0
 63 65  1  0  0  0
 63140  1  0  0  0
 63141  1  0  0  0
 63142  1  0  0  0
 64143  1  0  0  0
 65144  1  0  0  0
 68 79  1  0  0  0
 71 73  2  0  0  0
 71 74  1  0  0  0
 71145  1  0  0  0
 72 75  2  0  0  0
 72 76  1  0  0  0
 72146  1  0  0  0
 73 75  1  0  0  0
 73 80  1  0  0  0
 74 76  2  0  0  0
 74 82  1  0  0  0
 75 81  1  0  0  0
 76 85  1  0  0  0
 77 78  1  0  0  0
 77 79  1  0  0  0
 77 83  2  0  0  0
 78 81  1  0  0  0
 78 84  2  0  0  0
 79147  1  0  0  0
 79148  1  0  0  0
 80149  1  0  0  0
 80150  1  0  0  0
 81151  1  0  0  0
 82152  1  0  0  0
M  ISO  4   1 100  68 101  79 101  82 100
M  END
> <chiral flag>
0

> <version>
0

> <s_m_source_file>
/data/baiqing/PycharmProjects/Reinvent-master-3.2/result/LINK_invent/BTK/process_docking_weight1_custom_product_contain_oxygen_bond_distance_aromatic_linkinvent_7_9_3/rearranged_h_0088.sdf

> <i_m_source_file_index>
72

> <r_mmod_Potential_Energy-OPLS-2005>
-17.2929630279541

> <r_mmod_Stretch_Energy-OPLS-2005>
83.5726699829102

> <r_mmod_Bend_Energy-OPLS-2005>
135.093780517578

> <r_mmod_Torsional_Energy-OPLS-2005>
251.525985717773

> <r_mmod_Improper_Torsional_Energy-OPLS-2005>
8.3425235748291

> <r_mmod_Van_der_Waal_Energy-OPLS-2005>
146.209381103516

> <r_mmod_Electrostatic_Energy-OPLS-2005>
-440.282653808594

> <r_mmod_Solvation_Energy-OPLS-2005>
-251.822723388672

> <b_mmod_Minimization_Converged-OPLS-2005>
0

> <r_mmod_RMS_Derivative-OPLS-2005>
0.323427885770798

$$$$
72
                    3D
 Structure written by MMmdl.
152161  0  0  1  0            999 V2000
  -30.6092  -14.6859   20.4817 C   0  0  0  0  0  0
  -30.4416  -12.4173   19.4604 C   0  0  0  0  0  0
  -29.5117  -12.5102   18.2296 C   0  0  0  0  0  0
  -28.0348  -12.3428   18.6414 C   0  0  0  0  0  0
  -27.6517  -13.2217   19.8620 C   0  0  2  0  0  0
  -28.6977  -13.0975   20.9928 C   0  0  0  0  0  0
  -25.2547  -13.8168   20.5687 C   0  0  0  0  0  0
  -24.1817  -13.0427   20.9168 C   0  0  0  0  0  0
  -24.6401  -11.6904   20.8729 C   0  0  0  0  0  0
  -23.9072  -10.4287   21.0399 C   0  0  0  0  0  0
  -24.3624   -9.4204   21.9179 C   0  0  0  0  0  0
  -23.6296   -8.2242   22.0753 C   0  0  0  0  0  0
  -22.4276   -8.0283   21.3546 C   0  0  0  0  0  0
  -21.9912   -9.0254   20.4647 C   0  0  0  0  0  0
  -22.7244  -10.2132   20.3051 C   0  0  0  0  0  0
  -21.6853   -6.0739   22.5283 C   0  0  0  0  0  0
  -21.4013   -6.5642   23.8215 C   0  0  0  0  0  0
  -21.3660   -5.6794   24.9176 C   0  0  0  0  0  0
  -21.6046   -4.3056   24.7225 C   0  0  0  0  0  0
  -21.8819   -3.8149   23.4345 C   0  0  0  0  0  0
  -21.9192   -4.6967   22.3403 C   0  0  0  0  0  0
  -22.7842  -13.5224   21.1838 C   0  0  0  0  0  0
  -22.1661   -4.2154   21.0980 F   0  0  0  0  0  0
  -21.5629   -3.4538   25.7736 F   0  0  0  0  0  0
  -30.0095  -13.4501   20.4261 N   0  0  0  0  0  0
  -26.2990  -12.9367   20.3331 N   0  0  0  0  0  0
  -25.9336  -11.6515   20.5763 N   0  0  0  0  0  0
  -22.0489  -12.8221   22.0404 N   0  0  0  0  0  0
  -25.4227  -15.1892   20.4153 N   0  0  0  0  0  0
  -31.7770  -14.8276   20.1143 O   0  0  0  0  0  0
  -21.6639   -6.8881   21.4243 O   0  0  0  0  0  0
  -22.3523  -14.5532   20.6693 O   0  0  0  0  0  0
  -24.6276  -31.8585   23.2016 C   0  0  0  0  0  0
  -25.9115  -32.4771   23.8356 C   0  0  1  0  0  0
  -27.2252  -27.3035   20.1232 C   0  0  0  0  0  0
  -25.5924  -33.8574   24.2281 N   0  0  0  0  0  0
  -23.4237  -30.4817   21.5433 C   0  0  2  0  0  0
  -24.8732  -28.9344   20.1103 C   0  0  0  0  0  0
  -22.7487  -29.4614   22.4914 C   0  0  0  0  0  0
  -18.0289  -28.1390   22.8487 C   0  0  0  0  0  0
  -24.1490  -36.7295   23.2635 C   0  0  0  0  0  0
  -25.9665  -30.7826   21.3779 C   0  0  0  0  0  0
  -26.0418  -29.4080   20.7217 C   0  0  0  0  0  0
  -27.2223  -28.6031   20.7218 C   0  0  0  0  0  0
  -26.0390  -26.8911   19.4776 C   0  0  0  0  0  0
  -24.8737  -27.6811   19.4787 C   0  0  0  0  0  0
  -23.6420  -29.8168   20.1587 C   0  0  0  0  0  0
  -25.4113  -36.3081   24.0328 C   0  0  1  0  0  0
  -20.5893  -28.3697   23.1272 C   0  0  2  0  0  0
  -20.6777  -26.9416   22.5403 C   0  0  0  0  0  0
  -19.5747  -26.6384   21.5213 C   0  0  0  0  0  0
  -18.1932  -26.7929   22.1633 C   0  0  0  0  0  0
  -19.1543  -28.8860   23.2875 C   0  0  0  0  0  0
  -18.9465  -30.1463   23.8890 C   0  0  0  0  0  0
  -17.6464  -30.6592   24.0566 C   0  0  0  0  0  0
  -25.9053  -34.9448   23.5107 C   0  0  0  0  0  0
  -16.5355  -29.9091   23.6331 C   0  0  0  0  0  0
  -16.7275  -28.6511   23.0347 C   0  0  0  0  0  0
  -26.4492  -31.6578   25.0729 C   0  0  0  0  0  0
  -25.3732  -31.3745   26.1472 C   0  0  0  0  0  0
  -27.0303  -30.2983   24.6196 C   0  0  0  0  0  0
  -27.6073  -32.4294   25.7484 C   0  0  0  0  0  0
  -27.5585  -37.1795   24.8460 C   0  0  0  0  0  0
  -21.4198  -29.3049   22.3662 N   0  0  0  0  0  0
  -26.4289  -37.3779   23.9415 N   0  0  0  0  0  0
  -24.6912  -31.0580   22.0977 N   0  0  0  0  0  0
  -23.4201  -28.8148   23.2998 O   0  0  0  0  0  0
  -28.3155  -26.4153   20.1516 O   0  0  0  0  0  0
  -26.5625  -34.8914   22.4676 O   0  0  0  0  0  0
  -23.5433  -32.1390   23.7326 O   0  0  0  0  0  0
  -30.7456  -19.4420   20.0572 C   0  0  0  0  0  0
  -28.5067  -19.3322   20.8800 C   0  0  0  0  0  0
  -29.5600  -20.1657   20.4041 C   0  0  0  0  0  0
  -29.8152  -17.2022   20.6508 C   0  0  0  0  0  0
  -30.8812  -18.0189   20.1735 C   0  0  0  0  0  0
  -28.6332  -17.9124   20.9956 C   0  0  0  0  0  0
  -28.8298  -23.9258   20.2547 C   0  0  0  0  0  0
  -30.1253  -23.8604   19.6189 C   0  0  0  0  0  0
  -28.4720  -22.5344   20.6294 C   0  0  0  0  0  0
  -28.0619  -25.0558   20.4746 C   0  0  0  0  0  0
  -30.5743  -22.4013   19.6196 C   0  0  0  0  0  0
  -29.4715  -21.6503   20.2524 N   0  0  0  0  0  0
  -29.7874  -15.7349   20.8189 N   0  0  0  0  0  0
  -30.7932  -24.7877   19.1485 O   0  0  0  0  0  0
  -27.4271  -22.2042   21.2016 O   0  0  0  0  0  0
  -32.0621  -17.4655   19.8146 F   0  0  0  0  0  0
  -27.5725  -17.2003   21.4483 F   0  0  0  0  0  0
  -31.4819  -12.5465   19.1571 H   0  0  0  0  0  0
  -30.3853  -11.4261   19.9133 H   0  0  0  0  0  0
  -29.7826  -11.7517   17.4942 H   0  0  0  0  0  0
  -29.6485  -13.4747   17.7378 H   0  0  0  0  0  0
  -27.8785  -11.2905   18.8819 H   0  0  0  0  0  0
  -27.3797  -12.5609   17.7973 H   0  0  0  0  0  0
  -27.6611  -14.2537   19.5100 H   0  0  0  0  0  0
  -28.7187  -12.0803   21.3872 H   0  0  0  0  0  0
  -28.4373  -13.7381   21.8368 H   0  0  0  0  0  0
  -25.2769   -9.5683   22.4754 H   0  0  0  0  0  0
  -24.0004   -7.4636   22.7474 H   0  0  0  0  0  0
  -21.0842   -8.8776   19.8955 H   0  0  0  0  0  0
  -22.3703  -10.9671   19.6162 H   0  0  0  0  0  0
  -21.2004   -7.6149   23.9722 H   0  0  0  0  0  0
  -21.1484   -6.0521   25.9081 H   0  0  0  0  0  0
  -22.0596   -2.7611   23.2841 H   0  0  0  0  0  0
  -22.4101  -11.9882   22.4793 H   0  0  0  0  0  0
  -21.1113  -13.1258   22.2615 H   0  0  0  0  0  0
  -24.6626  -15.8420   20.5682 H   0  0  0  0  0  0
  -26.2979  -15.6522   20.2060 H   0  0  0  0  0  0
  -26.7182  -32.5434   23.1103 H   0  0  0  0  0  0
  -25.0057  -33.9720   25.0416 H   0  0  0  0  0  0
  -22.7181  -31.3025   21.3979 H   0  0  0  0  0  0
  -23.3759  -35.9620   23.3278 H   0  0  0  0  0  0
  -24.3590  -36.8939   22.2055 H   0  0  0  0  0  0
  -23.7228  -37.6486   23.6669 H   0  0  0  0  0  0
  -26.1009  -31.5434   20.6079 H   0  0  0  0  0  0
  -26.8458  -30.8325   22.0084 H   0  0  0  0  0  0
  -28.1184  -28.9587   21.2109 H   0  0  0  0  0  0
  -26.0020  -25.9301   18.9847 H   0  0  0  0  0  0
  -23.9808  -27.3143   18.9915 H   0  0  0  0  0  0
  -23.7650  -30.5940   19.4035 H   0  0  0  0  0  0
  -22.7620  -29.2481   19.8531 H   0  0  0  0  0  0
  -25.1290  -36.1930   25.0820 H   0  0  0  0  0  0
  -20.9988  -28.3270   24.1393 H   0  0  0  0  0  0
  -20.5685  -26.2308   23.3609 H   0  0  0  0  0  0
  -21.6639  -26.7445   22.1187 H   0  0  0  0  0  0
  -19.6909  -25.6292   21.1245 H   0  0  0  0  0  0
  -19.6678  -27.3195   20.6742 H   0  0  0  0  0  0
  -17.4194  -26.6668   21.4045 H   0  0  0  0  0  0
  -18.0343  -26.0076   22.9040 H   0  0  0  0  0  0
  -19.7940  -30.7286   24.2249 H   0  0  0  0  0  0
  -17.5019  -31.6272   24.5168 H   0  0  0  0  0  0
  -15.5356  -30.2995   23.7655 H   0  0  0  0  0  0
  -15.8675  -28.0834   22.7055 H   0  0  0  0  0  0
  -24.5825  -30.7199   25.7789 H   0  0  0  0  0  0
  -24.9033  -32.2935   26.4983 H   0  0  0  0  0  0
  -25.8042  -30.8815   27.0196 H   0  0  0  0  0  0
  -26.2858  -29.6746   24.1231 H   0  0  0  0  0  0
  -27.3983  -29.7231   25.4702 H   0  0  0  0  0  0
  -27.8752  -30.4235   23.9422 H   0  0  0  0  0  0
  -27.2721  -33.3621   26.2029 H   0  0  0  0  0  0
  -28.3900  -32.6798   25.0311 H   0  0  0  0  0  0
  -28.0713  -31.8424   26.5421 H   0  0  0  0  0  0
  -28.2580  -38.0114   24.7532 H   0  0  0  0  0  0
  -28.1099  -36.2644   24.6245 H   0  0  0  0  0  0
  -27.2312  -37.1397   25.8865 H   0  0  0  0  0  0
  -20.9372  -29.8792   21.6892 H   0  0  0  0  0  0
  -26.0170  -38.2850   24.1433 H   0  0  0  0  0  0
  -31.6057  -19.9773   19.6838 H   0  0  0  0  0  0
  -27.5585  -19.7616   21.1636 H   0  0  0  0  0  0
  -27.1104  -24.9513   20.9788 H   0  0  0  0  0  0
  -31.4965  -22.2998   20.1914 H   0  0  0  0  0  0
  -30.7448  -22.0607   18.5986 H   0  0  0  0  0  0
  -28.8904  -15.4154   21.1502 H   0  0  0  0  0  0
  1 25  1  0  0  0
  1 30  2  0  0  0
  1 83  1  0  0  0
  2  3  1  0  0  0
  2 25  1  0  0  0
  2 88  1  0  0  0
  2 89  1  0  0  0
  3  4  1  0  0  0
  3 90  1  0  0  0
  3 91  1  0  0  0
  4  5  1  0  0  0
  4 92  1  0  0  0
  4 93  1  0  0  0
  5  6  1  0  0  0
  5 26  1  0  0  0
  5 94  1  0  0  0
  6 25  1  0  0  0
  6 95  1  0  0  0
  6 96  1  0  0  0
  7  8  2  0  0  0
  7 26  1  0  0  0
  7 29  1  0  0  0
  8  9  1  0  0  0
  8 22  1  0  0  0
  9 10  1  0  0  0
  9 27  2  0  0  0
 10 11  2  0  0  0
 10 15  1  0  0  0
 11 12  1  0  0  0
 11 97  1  0  0  0
 12 13  2  0  0  0
 12 98  1  0  0  0
 13 14  1  0  0  0
 13 31  1  0  0  0
 14 15  2  0  0  0
 14 99  1  0  0  0
 15100  1  0  0  0
 16 17  2  0  0  0
 16 21  1  0  0  0
 16 31  1  0  0  0
 17 18  1  0  0  0
 17101  1  0  0  0
 18 19  2  0  0  0
 18102  1  0  0  0
 19 20  1  0  0  0
 19 24  1  0  0  0
 20 21  2  0  0  0
 20103  1  0  0  0
 21 23  1  0  0  0
 22 28  1  0  0  0
 22 32  2  0  0  0
 26 27  1  0  0  0
 28104  1  0  0  0
 28105  1  0  0  0
 29106  1  0  0  0
 29107  1  0  0  0
 33 34  1  0  0  0
 33 66  1  0  0  0
 33 70  2  0  0  0
 34 36  1  0  0  0
 34 59  1  0  0  0
 34108  1  0  0  0
 35 44  2  0  0  0
 35 45  1  0  0  0
 35 68  1  0  0  0
 36 56  1  0  0  0
 36109  1  0  0  0
 37 39  1  0  0  0
 37 47  1  0  0  0
 37 66  1  0  0  0
 37110  1  0  0  0
 38 43  2  0  0  0
 38 46  1  0  0  0
 38 47  1  0  0  0
 39 64  1  0  0  0
 39 67  2  0  0  0
 40 52  1  0  0  0
 40 53  2  0  0  0
 40 58  1  0  0  0
 41111  1  0  0  0
 41112  1  0  0  0
 41113  1  0  0  0
 41 48  1  0  0  0
 42 43  1  0  0  0
 42 66  1  0  0  0
 42114  1  0  0  0
 42115  1  0  0  0
 43 44  1  0  0  0
 44116  1  0  0  0
 45 46  2  0  0  0
 45117  1  0  0  0
 46118  1  0  0  0
 47119  1  0  0  0
 47120  1  0  0  0
 48 56  1  0  0  0
 48 65  1  0  0  0
 48121  1  0  0  0
 49 50  1  0  0  0
 49 53  1  0  0  0
 49 64  1  0  0  0
 49122  1  0  0  0
 50 51  1  0  0  0
 50123  1  0  0  0
 50124  1  0  0  0
 51 52  1  0  0  0
 51125  1  0  0  0
 51126  1  0  0  0
 52127  1  0  0  0
 52128  1  0  0  0
 53 54  1  0  0  0
 54 55  2  0  0  0
 54129  1  0  0  0
 55 57  1  0  0  0
 55130  1  0  0  0
 56 69  2  0  0  0
 57 58  2  0  0  0
 57131  1  0  0  0
 58132  1  0  0  0
 59 60  1  0  0  0
 59 61  1  0  0  0
 59 62  1  0  0  0
 60133  1  0  0  0
 60134  1  0  0  0
 60135  1  0  0  0
 61136  1  0  0  0
 61137  1  0  0  0
 61138  1  0  0  0
 62139  1  0  0  0
 62140  1  0  0  0
 62141  1  0  0  0
 63 65  1  0  0  0
 63142  1  0  0  0
 63143  1  0  0  0
 63144  1  0  0  0
 64145  1  0  0  0
 65146  1  0  0  0
 68 80  1  0  0  0
 71 73  2  0  0  0
 71 75  1  0  0  0
 71147  1  0  0  0
 72 73  1  0  0  0
 72 76  2  0  0  0
 72148  1  0  0  0
 73 82  1  0  0  0
 74 75  2  0  0  0
 74 76  1  0  0  0
 74 83  1  0  0  0
 75 86  1  0  0  0
 76 87  1  0  0  0
 77 78  1  0  0  0
 77 79  1  0  0  0
 77 80  2  0  0  0
 78 81  1  0  0  0
 78 84  2  0  0  0
 79 82  1  0  0  0
 79 85  2  0  0  0
 80149  1  0  0  0
 81 82  1  0  0  0
 81150  1  0  0  0
 81151  1  0  0  0
 83152  1  0  0  0
M  ISO  4   1 100  68 101  80 101  83 100
M  END
> <chiral flag>
0

> <version>
0

> <s_m_source_file>
/data/baiqing/PycharmProjects/Reinvent-master-3.2/result/LINK_invent/BTK/process_docking_weight1_custom_product_contain_oxygen_bond_distance_aromatic_linkinvent_7_9_3/rearranged_h_0088.sdf

> <i_m_source_file_index>
73

> <r_mmod_Potential_Energy-OPLS-2005>
80.9905853271484

> <r_mmod_Stretch_Energy-OPLS-2005>
93.4389419555664

> <r_mmod_Bend_Energy-OPLS-2005>
200.90739440918

> <r_mmod_Torsional_Energy-OPLS-2005>
240.46272277832

> <r_mmod_Improper_Torsional_Energy-OPLS-2005>
3.55699610710144

> <r_mmod_Van_der_Waal_Energy-OPLS-2005>
142.423217773438

> <r_mmod_Electrostatic_Energy-OPLS-2005>
-424.919708251953

> <r_mmod_Solvation_Energy-OPLS-2005>
-236.554351806641

> <b_mmod_Minimization_Converged-OPLS-2005>
0

> <r_mmod_RMS_Derivative-OPLS-2005>
0.549722492694855

$$$$
73
                    3D
 Structure written by MMmdl.
154163  0  0  1  0            999 V2000
  -30.5863  -14.7557   20.4530 C   0  0  0  0  0  0
  -30.4503  -12.4606   19.4625 C   0  0  0  0  0  0
  -29.5143  -12.5125   18.2326 C   0  0  0  0  0  0
  -28.0402  -12.3312   18.6499 C   0  0  0  0  0  0
  -27.6464  -13.2240   19.8565 C   0  0  2  0  0  0
  -28.6994  -13.1389   20.9853 C   0  0  0  0  0  0
  -25.2500  -13.8131   20.5761 C   0  0  0  0  0  0
  -24.1787  -13.0371   20.9203 C   0  0  0  0  0  0
  -24.6397  -11.6867   20.8734 C   0  0  0  0  0  0
  -23.9074  -10.4257   21.0396 C   0  0  0  0  0  0
  -24.3622   -9.4182   21.9181 C   0  0  0  0  0  0
  -23.6289   -8.2225   22.0757 C   0  0  0  0  0  0
  -22.4271   -8.0269   21.3546 C   0  0  0  0  0  0
  -21.9908   -9.0240   20.4645 C   0  0  0  0  0  0
  -22.7244  -10.2112   20.3047 C   0  0  0  0  0  0
  -21.6849   -6.0731   22.5281 C   0  0  0  0  0  0
  -21.4010   -6.5636   23.8214 C   0  0  0  0  0  0
  -21.3658   -5.6790   24.9176 C   0  0  0  0  0  0
  -21.6045   -4.3053   24.7227 C   0  0  0  0  0  0
  -21.8820   -3.8143   23.4348 C   0  0  0  0  0  0
  -21.9192   -4.6959   22.3404 C   0  0  0  0  0  0
  -22.7810  -13.5168   21.1864 C   0  0  0  0  0  0
  -22.1661   -4.2146   21.0982 F   0  0  0  0  0  0
  -21.5630   -3.4536   25.7740 F   0  0  0  0  0  0
  -30.0029  -13.5072   20.4070 N   0  0  0  0  0  0
  -26.2965  -12.9362   20.3335 N   0  0  0  0  0  0
  -25.9334  -11.6501   20.5757 N   0  0  0  0  0  0
  -22.0457  -12.8171   22.0430 N   0  0  0  0  0  0
  -25.4008  -15.1867   20.4352 N   0  0  0  0  0  0
  -31.7690  -14.9116   20.1368 O   0  0  0  0  0  0
  -21.6631   -6.8871   21.4243 O   0  0  0  0  0  0
  -22.3494  -14.5479   20.6716 O   0  0  0  0  0  0
  -24.6321  -31.8551   23.1997 C   0  0  0  0  0  0
  -25.9143  -32.4755   23.8342 C   0  0  1  0  0  0
  -27.2241  -27.2592   20.1267 C   0  0  0  0  0  0
  -25.5937  -33.8558   24.2260 N   0  0  0  0  0  0
  -23.4309  -30.4783   21.5423 C   0  0  2  0  0  0
  -24.8827  -28.9315   20.1059 C   0  0  0  0  0  0
  -22.7515  -29.4597   22.4899 C   0  0  0  0  0  0
  -18.0295  -28.1387   22.8482 C   0  0  0  0  0  0
  -24.1491  -36.7285   23.2638 C   0  0  0  0  0  0
  -25.9788  -30.7642   21.3861 C   0  0  0  0  0  0
  -26.0535  -29.3874   20.7272 C   0  0  0  0  0  0
  -27.2263  -28.5608   20.7358 C   0  0  0  0  0  0
  -26.0398  -26.8940   19.4445 C   0  0  0  0  0  0
  -24.8809  -27.6913   19.4533 C   0  0  0  0  0  0
  -23.6518  -29.8164   20.1572 C   0  0  0  0  0  0
  -25.4118  -36.3071   24.0324 C   0  0  1  0  0  0
  -20.5901  -28.3703   23.1259 C   0  0  2  0  0  0
  -20.6782  -26.9417   22.5404 C   0  0  0  0  0  0
  -19.5756  -26.6382   21.5209 C   0  0  0  0  0  0
  -18.1939  -26.7927   22.1625 C   0  0  0  0  0  0
  -19.1550  -28.8862   23.2865 C   0  0  0  0  0  0
  -18.9470  -30.1461   23.8886 C   0  0  0  0  0  0
  -17.6468  -30.6587   24.0561 C   0  0  0  0  0  0
  -25.9058  -34.9440   23.5094 C   0  0  0  0  0  0
  -16.5359  -29.9084   23.6331 C   0  0  0  0  0  0
  -16.7281  -28.6502   23.0353 C   0  0  0  0  0  0
  -26.4505  -31.6582   25.0734 C   0  0  0  0  0  0
  -25.3723  -31.3743   26.1452 C   0  0  0  0  0  0
  -27.0351  -30.2991   24.6240 C   0  0  0  0  0  0
  -27.6055  -32.4326   25.7509 C   0  0  0  0  0  0
  -27.5579  -37.1801   24.8464 C   0  0  0  0  0  0
  -21.4219  -29.3048   22.3645 N   0  0  0  0  0  0
  -26.4293  -37.3769   23.9405 N   0  0  0  0  0  0
  -24.6993  -31.0504   22.0986 N   0  0  0  0  0  0
  -23.4207  -28.8130   23.2999 O   0  0  0  0  0  0
  -28.2728  -26.3029   20.1953 O   0  0  0  0  0  0
  -26.5630  -34.8913   22.4664 O   0  0  0  0  0  0
  -23.5465  -32.1378   23.7279 O   0  0  0  0  0  0
  -28.3576  -19.3057   19.9847 C   0  0  0  0  0  0
  -30.7600  -18.2324   20.7757 C   0  0  0  0  0  0
  -28.5373  -17.8891   20.0124 C   0  0  0  0  0  0
  -29.7410  -17.2840   20.4583 C   0  0  0  0  0  0
  -29.3688  -20.2459   20.3388 C   0  0  0  0  0  0
  -28.5116  -23.6990   20.3878 C   0  0  0  0  0  0
  -29.6827  -23.0479   20.1385 C   0  0  0  0  0  0
  -30.8955  -23.5218   19.8141 C   0  0  0  0  0  0
  -27.8913  -24.9460   20.4519 C   0  0  0  0  0  0
  -27.8680  -22.3280   20.6353 C   0  0  0  0  0  0
  -30.5398  -19.6041   20.6920 N   0  3  0  0  0  0
  -29.1730  -21.7300   20.3218 N   0  0  0  0  0  0
  -27.5097  -17.0507   19.5721 N   0  0  0  0  0  0
  -29.7269  -15.8134   20.6669 N   0  0  0  0  0  0
  -31.4866  -12.6078   19.1534 H   0  0  0  0  0  0
  -30.4142  -11.4786   19.9370 H   0  0  0  0  0  0
  -29.7955  -11.7431   17.5123 H   0  0  0  0  0  0
  -29.6344  -13.4683   17.7200 H   0  0  0  0  0  0
  -27.8997  -11.2811   18.9091 H   0  0  0  0  0  0
  -27.3802  -12.5250   17.8036 H   0  0  0  0  0  0
  -27.6375  -14.2460   19.4820 H   0  0  0  0  0  0
  -28.7389  -12.1308   21.4006 H   0  0  0  0  0  0
  -28.4334  -13.7954   21.8154 H   0  0  0  0  0  0
  -25.2770   -9.5655   22.4752 H   0  0  0  0  0  0
  -23.9994   -7.4618   22.7480 H   0  0  0  0  0  0
  -21.0837   -8.8761   19.8955 H   0  0  0  0  0  0
  -22.3709  -10.9651   19.6153 H   0  0  0  0  0  0
  -21.2001   -7.6144   23.9716 H   0  0  0  0  0  0
  -21.1479   -6.0520   25.9079 H   0  0  0  0  0  0
  -22.0601   -2.7605   23.2850 H   0  0  0  0  0  0
  -22.4074  -11.9833   22.4818 H   0  0  0  0  0  0
  -21.1079  -13.1204   22.2645 H   0  0  0  0  0  0
  -24.6182  -15.8149   20.5751 H   0  0  0  0  0  0
  -26.2523  -15.6903   20.1859 H   0  0  0  0  0  0
  -26.7212  -32.5406   23.1085 H   0  0  0  0  0  0
  -25.0074  -33.9695   25.0398 H   0  0  0  0  0  0
  -22.7279  -31.3012   21.3969 H   0  0  0  0  0  0
  -23.3751  -35.9620   23.3301 H   0  0  0  0  0  0
  -24.3581  -36.8908   22.2053 H   0  0  0  0  0  0
  -23.7247  -37.6488   23.6663 H   0  0  0  0  0  0
  -26.1216  -31.5248   20.6173 H   0  0  0  0  0  0
  -26.8545  -30.8122   22.0215 H   0  0  0  0  0  0
  -28.1153  -28.8957   21.2515 H   0  0  0  0  0  0
  -25.9878  -25.9476   18.9251 H   0  0  0  0  0  0
  -23.9901  -27.3414   18.9497 H   0  0  0  0  0  0
  -23.7753  -30.5952   19.4038 H   0  0  0  0  0  0
  -22.7710  -29.2497   19.8501 H   0  0  0  0  0  0
  -25.1299  -36.1919   25.0816 H   0  0  0  0  0  0
  -20.9995  -28.3285   24.1380 H   0  0  0  0  0  0
  -20.5679  -26.2315   23.3612 H   0  0  0  0  0  0
  -21.6650  -26.7435   22.1200 H   0  0  0  0  0  0
  -19.6919  -25.6291   21.1244 H   0  0  0  0  0  0
  -19.6691  -27.3188   20.6736 H   0  0  0  0  0  0
  -17.4204  -26.6666   21.4033 H   0  0  0  0  0  0
  -18.0347  -26.0071   22.9027 H   0  0  0  0  0  0
  -19.7946  -30.7279   24.2252 H   0  0  0  0  0  0
  -17.5022  -31.6265   24.5166 H   0  0  0  0  0  0
  -15.5360  -30.2985   23.7657 H   0  0  0  0  0  0
  -15.8681  -28.0817   22.7074 H   0  0  0  0  0  0
  -24.5888  -30.7106   25.7778 H   0  0  0  0  0  0
  -24.8929  -32.2920   26.4870 H   0  0  0  0  0  0
  -25.8030  -30.8917   27.0234 H   0  0  0  0  0  0
  -26.2942  -29.6738   24.1244 H   0  0  0  0  0  0
  -27.3997  -29.7256   25.4772 H   0  0  0  0  0  0
  -27.8840  -30.4249   23.9515 H   0  0  0  0  0  0
  -27.2657  -33.3630   26.2070 H   0  0  0  0  0  0
  -28.3875  -32.6879   25.0345 H   0  0  0  0  0  0
  -28.0713  -31.8462   26.5439 H   0  0  0  0  0  0
  -28.2597  -38.0097   24.7505 H   0  0  0  0  0  0
  -28.1075  -36.2627   24.6299 H   0  0  0  0  0  0
  -27.2295  -37.1458   25.8867 H   0  0  0  0  0  0
  -20.9407  -29.8780   21.6855 H   0  0  0  0  0  0
  -26.0170  -38.2844   24.1401 H   0  0  0  0  0  0
  -27.4062  -19.6936   19.6573 H   0  0  0  0  0  0
  -31.7361  -17.9340   21.1370 H   0  0  0  0  0  0
  -31.0712  -24.5834   19.7177 H   0  0  0  0  0  0
  -31.7286  -22.8566   19.6403 H   0  0  0  0  0  0
  -26.8567  -24.9133   20.7648 H   0  0  0  0  0  0
  -27.0987  -22.0112   19.9311 H   0  0  0  0  0  0
  -27.5620  -22.0951   21.6555 H   0  0  0  0  0  0
  -31.3232  -20.2101   20.9565 H   0  0  0  0  0  0
  -26.7520  -17.5515   19.1245 H   0  0  0  0  0  0
  -27.8642  -16.3593   18.9233 H   0  0  0  0  0  0
  -28.7841  -15.4873   20.8163 H   0  0  0  0  0  0
  1 25  1  0  0  0
  1 30  2  0  0  0
  1 84  1  0  0  0
  2  3  1  0  0  0
  2 25  1  0  0  0
  2 85  1  0  0  0
  2 86  1  0  0  0
  3  4  1  0  0  0
  3 87  1  0  0  0
  3 88  1  0  0  0
  4  5  1  0  0  0
  4 89  1  0  0  0
  4 90  1  0  0  0
  5  6  1  0  0  0
  5 26  1  0  0  0
  5 91  1  0  0  0
  6 25  1  0  0  0
  6 92  1  0  0  0
  6 93  1  0  0  0
  7  8  2  0  0  0
  7 26  1  0  0  0
  7 29  1  0  0  0
  8  9  1  0  0  0
  8 22  1  0  0  0
  9 10  1  0  0  0
  9 27  2  0  0  0
 10 11  2  0  0  0
 10 15  1  0  0  0
 11 12  1  0  0  0
 11 94  1  0  0  0
 12 13  2  0  0  0
 12 95  1  0  0  0
 13 14  1  0  0  0
 13 31  1  0  0  0
 14 15  2  0  0  0
 14 96  1  0  0  0
 15 97  1  0  0  0
 16 17  2  0  0  0
 16 21  1  0  0  0
 16 31  1  0  0  0
 17 18  1  0  0  0
 17 98  1  0  0  0
 18 19  2  0  0  0
 18 99  1  0  0  0
 19 20  1  0  0  0
 19 24  1  0  0  0
 20 21  2  0  0  0
 20100  1  0  0  0
 21 23  1  0  0  0
 22 28  1  0  0  0
 22 32  2  0  0  0
 26 27  1  0  0  0
 28101  1  0  0  0
 28102  1  0  0  0
 29103  1  0  0  0
 29104  1  0  0  0
 33 34  1  0  0  0
 33 66  1  0  0  0
 33 70  2  0  0  0
 34 36  1  0  0  0
 34 59  1  0  0  0
 34105  1  0  0  0
 35 44  2  0  0  0
 35 45  1  0  0  0
 35 68  1  0  0  0
 36 56  1  0  0  0
 36106  1  0  0  0
 37 39  1  0  0  0
 37 47  1  0  0  0
 37 66  1  0  0  0
 37107  1  0  0  0
 38 43  2  0  0  0
 38 46  1  0  0  0
 38 47  1  0  0  0
 39 64  1  0  0  0
 39 67  2  0  0  0
 40 52  1  0  0  0
 40 53  2  0  0  0
 40 58  1  0  0  0
 41108  1  0  0  0
 41109  1  0  0  0
 41110  1  0  0  0
 41 48  1  0  0  0
 42 43  1  0  0  0
 42 66  1  0  0  0
 42111  1  0  0  0
 42112  1  0  0  0
 43 44  1  0  0  0
 44113  1  0  0  0
 45 46  2  0  0  0
 45114  1  0  0  0
 46115  1  0  0  0
 47116  1  0  0  0
 47117  1  0  0  0
 48 56  1  0  0  0
 48 65  1  0  0  0
 48118  1  0  0  0
 49 50  1  0  0  0
 49 53  1  0  0  0
 49 64  1  0  0  0
 49119  1  0  0  0
 50 51  1  0  0  0
 50120  1  0  0  0
 50121  1  0  0  0
 51 52  1  0  0  0
 51122  1  0  0  0
 51123  1  0  0  0
 52124  1  0  0  0
 52125  1  0  0  0
 53 54  1  0  0  0
 54 55  2  0  0  0
 54126  1  0  0  0
 55 57  1  0  0  0
 55127  1  0  0  0
 56 69  2  0  0  0
 57 58  2  0  0  0
 57128  1  0  0  0
 58129  1  0  0  0
 59 60  1  0  0  0
 59 61  1  0  0  0
 59 62  1  0  0  0
 60130  1  0  0  0
 60131  1  0  0  0
 60132  1  0  0  0
 61133  1  0  0  0
 61134  1  0  0  0
 61135  1  0  0  0
 62136  1  0  0  0
 62137  1  0  0  0
 62138  1  0  0  0
 63 65  1  0  0  0
 63139  1  0  0  0
 63140  1  0  0  0
 63141  1  0  0  0
 64142  1  0  0  0
 65143  1  0  0  0
 68 79  1  0  0  0
 71 73  2  0  0  0
 71 75  1  0  0  0
 71144  1  0  0  0
 72 74  2  0  0  0
 72 81  1  0  0  0
 72145  1  0  0  0
 73 74  1  0  0  0
 73 83  1  0  0  0
 74 84  1  0  0  0
 75 81  2  0  0  0
 75 82  1  0  0  0
 76 77  1  0  0  0
 76 79  2  0  0  0
 76 80  1  0  0  0
 77 78  2  0  0  0
 77 82  1  0  0  0
 78146  1  0  0  0
 78147  1  0  0  0
 79148  1  0  0  0
 80 82  1  0  0  0
 80149  1  0  0  0
 80150  1  0  0  0
 81151  1  0  0  0
 83152  1  0  0  0
 83153  1  0  0  0
 84154  1  0  0  0
M  CHG  1  81   1
M  ISO  4   1 100  68 101  79 101  84 100
M  END
> <chiral flag>
0

> <version>
0

> <s_m_source_file>
/data/baiqing/PycharmProjects/Reinvent-master-3.2/result/LINK_invent/BTK/process_docking_weight1_custom_product_contain_oxygen_bond_distance_aromatic_linkinvent_7_9_3/rearranged_h_0088.sdf

> <i_m_source_file_index>
74

> <r_mmod_Potential_Energy-OPLS-2005>
54.133731842041

> <r_mmod_Stretch_Energy-OPLS-2005>
108.566833496094

> <r_mmod_Bend_Energy-OPLS-2005>
232.651809692383

> <r_mmod_Torsional_Energy-OPLS-2005>
251.664733886719

> <r_mmod_Improper_Torsional_Energy-OPLS-2005>
11.6651496887207

> <r_mmod_Van_der_Waal_Energy-OPLS-2005>
147.765991210938

> <r_mmod_Electrostatic_Energy-OPLS-2005>
-386.293640136719

> <r_mmod_Solvation_Energy-OPLS-2005>
-407.607086181641

> <b_mmod_Minimization_Converged-OPLS-2005>
0

> <r_mmod_RMS_Derivative-OPLS-2005>
0.233685061335564

$$$$
74
                    3D
 Structure written by MMmdl.
156164  0  0  1  0            999 V2000
  -30.6697  -14.5064   20.5671 C   0  0  0  0  0  0
  -30.4405  -12.3375   19.3955 C   0  0  0  0  0  0
  -29.4944  -12.5354   18.1933 C   0  0  0  0  0  0
  -28.0157  -12.3900   18.6106 C   0  0  0  0  0  0
  -27.6686  -13.2055   19.8848 C   0  0  2  0  0  0
  -28.7218  -12.9577   20.9891 C   0  0  0  0  0  0
  -25.2641  -13.8175   20.5742 C   0  0  0  0  0  0
  -24.1873  -13.0444   20.9204 C   0  0  0  0  0  0
  -24.6419  -11.6921   20.8740 C   0  0  0  0  0  0
  -23.9078  -10.4306   21.0395 C   0  0  0  0  0  0
  -24.3633   -9.4228   21.9171 C   0  0  0  0  0  0
  -23.6314   -8.2261   22.0759 C   0  0  0  0  0  0
  -22.4290   -8.0293   21.3560 C   0  0  0  0  0  0
  -21.9921   -9.0258   20.4654 C   0  0  0  0  0  0
  -22.7248  -10.2139   20.3050 C   0  0  0  0  0  0
  -21.6844   -6.0745   22.5283 C   0  0  0  0  0  0
  -21.4014   -6.5642   23.8220 C   0  0  0  0  0  0
  -21.3669   -5.6794   24.9179 C   0  0  0  0  0  0
  -21.6038   -4.3051   24.7216 C   0  0  0  0  0  0
  -21.8816   -3.8153   23.4332 C   0  0  0  0  0  0
  -21.9195   -4.6980   22.3401 C   0  0  0  0  0  0
  -22.7900  -13.5265   21.1805 C   0  0  0  0  0  0
  -22.1672   -4.2167   21.0979 F   0  0  0  0  0  0
  -21.5615   -3.4533   25.7727 F   0  0  0  0  0  0
  -30.0450  -13.3004   20.4364 N   0  0  0  0  0  0
  -26.3083  -12.9335   20.3447 N   0  0  0  0  0  0
  -25.9351  -11.6498   20.5788 N   0  0  0  0  0  0
  -22.0510  -12.8279   22.0362 N   0  0  0  0  0  0
  -25.4310  -15.1893   20.4198 N   0  0  0  0  0  0
  -31.7931  -14.7317   20.1077 O   0  0  0  0  0  0
  -21.6643   -6.8890   21.4255 O   0  0  0  0  0  0
  -22.3613  -14.5563   20.6629 O   0  0  0  0  0  0
  -24.6199  -31.8691   23.2087 C   0  0  0  0  0  0
  -25.9060  -32.4830   23.8420 C   0  0  1  0  0  0
  -27.2275  -27.3907   20.1029 C   0  0  0  0  0  0
  -25.5904  -33.8627   24.2348 N   0  0  0  0  0  0
  -23.4111  -30.4970   21.5484 C   0  0  2  0  0  0
  -24.8564  -28.9630   20.1136 C   0  0  0  0  0  0
  -22.7468  -29.4682   22.4942 C   0  0  0  0  0  0
  -18.0299  -28.1390   22.8542 C   0  0  0  0  0  0
  -24.1476  -36.7283   23.2652 C   0  0  0  0  0  0
  -25.9484  -30.8209   21.3727 C   0  0  0  0  0  0
  -26.0220  -29.4550   20.7124 C   0  0  0  0  0  0
  -27.2114  -28.6797   20.7011 C   0  0  0  0  0  0
  -26.0362  -26.9322   19.4922 C   0  0  0  0  0  0
  -24.8603  -27.7010   19.5007 C   0  0  0  0  0  0
  -23.6270  -29.8429   20.1591 C   0  0  0  0  0  0
  -25.4095  -36.3122   24.0365 C   0  0  1  0  0  0
  -20.5910  -28.3689   23.1302 C   0  0  2  0  0  0
  -20.6788  -26.9417   22.5422 C   0  0  0  0  0  0
  -19.5735  -26.6398   21.5244 C   0  0  0  0  0  0
  -18.1921  -26.7948   22.1665 C   0  0  0  0  0  0
  -19.1566  -28.8851   23.2921 C   0  0  0  0  0  0
  -18.9480  -30.1463   23.8935 C   0  0  0  0  0  0
  -17.6477  -30.6601   24.0592 C   0  0  0  0  0  0
  -25.9028  -34.9484   23.5159 C   0  0  0  0  0  0
  -16.5360  -29.9114   23.6331 C   0  0  0  0  0  0
  -16.7293  -28.6515   23.0378 C   0  0  0  0  0  0
  -26.4477  -31.6617   25.0752 C   0  0  0  0  0  0
  -25.3748  -31.3704   26.1502 C   0  0  0  0  0  0
  -27.0308  -30.3070   24.6119 C   0  0  0  0  0  0
  -27.6051  -32.4355   25.7497 C   0  0  0  0  0  0
  -27.5576  -37.1802   24.8485 C   0  0  0  0  0  0
  -21.4189  -29.3038   22.3680 N   0  0  0  0  0  0
  -26.4292  -37.3807   23.9436 N   0  0  0  0  0  0
  -24.6776  -31.0781   22.1001 N   0  0  0  0  0  0
  -23.4224  -28.8242   23.3017 O   0  0  0  0  0  0
  -28.3763  -26.6048   20.1257 O   0  0  0  0  0  0
  -26.5589  -34.8936   22.4725 O   0  0  0  0  0  0
  -23.5366  -32.1454   23.7424 O   0  0  0  0  0  0
  -29.0762  -19.0749   20.4857 C   0  0  0  0  0  0
  -29.2711  -17.6882   20.2472 C   0  0  0  0  0  0
  -30.7200  -17.5426   22.1891 C   0  0  0  0  0  0
  -29.6246  -19.6902   21.6353 C   0  0  0  0  0  0
  -30.0431  -16.8930   21.1321 C   0  0  0  0  0  0
  -30.5133  -18.9219   22.4398 C   0  0  0  0  0  0
  -29.0631  -20.9705   22.1544 C   0  0  0  0  0  0
  -29.4926  -24.3195   20.2918 C   0  0  0  0  0  0
  -29.3358  -22.7539   20.2477 C   0  0  0  0  0  0
  -28.1941  -25.1601   20.0861 C   0  0  0  0  0  0
  -28.5382  -20.9321   23.3789 N   0  0  0  0  0  0
  -29.9038  -15.4669   21.1258 N   0  0  0  0  0  0
  -28.9338  -22.1851   21.5559 N   0  3  0  0  0  0
  -31.0955  -19.4730   23.5341 F   0  0  0  0  0  0
  -31.4758  -12.4682   19.0798 H   0  0  0  0  0  0
  -30.3765  -11.3166   19.7748 H   0  0  0  0  0  0
  -29.7357  -11.8258   17.4014 H   0  0  0  0  0  0
  -29.6506  -13.5265   17.7659 H   0  0  0  0  0  0
  -27.8152  -11.3310   18.7767 H   0  0  0  0  0  0
  -27.3668  -12.6954   17.7890 H   0  0  0  0  0  0
  -27.7148  -14.2584   19.6095 H   0  0  0  0  0  0
  -28.7160  -11.9060   21.2803 H   0  0  0  0  0  0
  -28.4851  -13.5061   21.9014 H   0  0  0  0  0  0
  -25.2775   -9.5701   22.4742 H   0  0  0  0  0  0
  -24.0017   -7.4664   22.7493 H   0  0  0  0  0  0
  -21.0841   -8.8776   19.8973 H   0  0  0  0  0  0
  -22.3698  -10.9682   19.6157 H   0  0  0  0  0  0
  -21.2002   -7.6152   23.9726 H   0  0  0  0  0  0
  -21.1508   -6.0522   25.9084 H   0  0  0  0  0  0
  -22.0589   -2.7622   23.2819 H   0  0  0  0  0  0
  -22.4132  -11.9963   22.4789 H   0  0  0  0  0  0
  -21.1131  -13.1336   22.2540 H   0  0  0  0  0  0
  -24.6520  -15.8313   20.5110 H   0  0  0  0  0  0
  -26.2797  -15.6438   20.1101 H   0  0  0  0  0  0
  -26.7151  -32.5526   23.1193 H   0  0  0  0  0  0
  -25.0101  -33.9815   25.0525 H   0  0  0  0  0  0
  -22.7013  -31.3145   21.4114 H   0  0  0  0  0  0
  -23.3766  -35.9593   23.3341 H   0  0  0  0  0  0
  -24.3585  -36.8848   22.2068 H   0  0  0  0  0  0
  -23.7188  -37.6480   23.6631 H   0  0  0  0  0  0
  -26.0791  -31.5919   20.6111 H   0  0  0  0  0  0
  -26.8272  -30.8598   22.0034 H   0  0  0  0  0  0
  -28.1087  -29.0589   21.1701 H   0  0  0  0  0  0
  -25.9844  -25.9772   18.9935 H   0  0  0  0  0  0
  -23.9664  -27.3137   19.0318 H   0  0  0  0  0  0
  -23.7554  -30.6283   19.4123 H   0  0  0  0  0  0
  -22.7461  -29.2836   19.8422 H   0  0  0  0  0  0
  -25.1261  -36.2005   25.0860 H   0  0  0  0  0  0
  -21.0013  -28.3238   24.1416 H   0  0  0  0  0  0
  -20.5715  -26.2288   23.3618 H   0  0  0  0  0  0
  -21.6646  -26.7452   22.1183 H   0  0  0  0  0  0
  -19.6864  -25.6307   21.1261 H   0  0  0  0  0  0
  -19.6649  -27.3245   20.6800 H   0  0  0  0  0  0
  -17.4201  -26.6778   21.4055 H   0  0  0  0  0  0
  -18.0254  -26.0072   22.9030 H   0  0  0  0  0  0
  -19.7950  -30.7296   24.2291 H   0  0  0  0  0  0
  -17.5029  -31.6288   24.5200 H   0  0  0  0  0  0
  -15.5366  -30.3038   23.7598 H   0  0  0  0  0  0
  -15.8702  -28.0840   22.7054 H   0  0  0  0  0  0
  -24.5938  -30.7020   25.7851 H   0  0  0  0  0  0
  -24.8922  -32.2842   26.4977 H   0  0  0  0  0  0
  -25.8132  -30.8888   27.0252 H   0  0  0  0  0  0
  -26.2829  -29.6831   24.1205 H   0  0  0  0  0  0
  -27.4120  -29.7304   25.4553 H   0  0  0  0  0  0
  -27.8666  -30.4417   23.9249 H   0  0  0  0  0  0
  -27.2665  -33.3671   26.2052 H   0  0  0  0  0  0
  -28.3841  -32.6890   25.0290 H   0  0  0  0  0  0
  -28.0739  -31.8507   26.5416 H   0  0  0  0  0  0
  -28.2611  -38.0082   24.7526 H   0  0  0  0  0  0
  -28.1047  -36.2618   24.6312 H   0  0  0  0  0  0
  -27.2307  -37.1450   25.8891 H   0  0  0  0  0  0
  -20.9324  -29.8798   21.6956 H   0  0  0  0  0  0
  -26.0178  -38.2883   24.1448 H   0  0  0  0  0  0
  -28.3893  -19.6294   19.8608 H   0  0  0  0  0  0
  -28.7366  -17.2257   19.4271 H   0  0  0  0  0  0
  -31.3183  -16.9715   22.8842 H   0  0  0  0  0  0
  -30.2029  -24.6049   19.5147 H   0  0  0  0  0  0
  -29.9633  -24.6134   21.2311 H   0  0  0  0  0  0
  -30.2875  -22.3081   19.9550 H   0  0  0  0  0  0
  -28.6123  -22.4662   19.4813 H   0  0  0  0  0  0
  -27.7776  -24.8663   19.1236 H   0  0  0  0  0  0
  -27.4562  -24.8782   20.8415 H   0  0  0  0  0  0
  -28.5354  -20.0533   23.8767 H   0  0  0  0  0  0
  -28.1682  -21.7372   23.8556 H   0  0  0  0  0  0
  -29.0054  -15.1287   21.4337 H   0  0  0  0  0  0
  -28.3605  -22.8339   22.0707 H   0  0  0  0  0  0
  1 25  1  0  0  0
  1 30  2  0  0  0
  1 82  1  0  0  0
  2  3  1  0  0  0
  2 25  1  0  0  0
  2 85  1  0  0  0
  2 86  1  0  0  0
  3  4  1  0  0  0
  3 87  1  0  0  0
  3 88  1  0  0  0
  4  5  1  0  0  0
  4 89  1  0  0  0
  4 90  1  0  0  0
  5  6  1  0  0  0
  5 26  1  0  0  0
  5 91  1  0  0  0
  6 25  1  0  0  0
  6 92  1  0  0  0
  6 93  1  0  0  0
  7  8  2  0  0  0
  7 26  1  0  0  0
  7 29  1  0  0  0
  8  9  1  0  0  0
  8 22  1  0  0  0
  9 10  1  0  0  0
  9 27  2  0  0  0
 10 11  2  0  0  0
 10 15  1  0  0  0
 11 12  1  0  0  0
 11 94  1  0  0  0
 12 13  2  0  0  0
 12 95  1  0  0  0
 13 14  1  0  0  0
 13 31  1  0  0  0
 14 15  2  0  0  0
 14 96  1  0  0  0
 15 97  1  0  0  0
 16 17  2  0  0  0
 16 21  1  0  0  0
 16 31  1  0  0  0
 17 18  1  0  0  0
 17 98  1  0  0  0
 18 19  2  0  0  0
 18 99  1  0  0  0
 19 20  1  0  0  0
 19 24  1  0  0  0
 20 21  2  0  0  0
 20100  1  0  0  0
 21 23  1  0  0  0
 22 28  1  0  0  0
 22 32  2  0  0  0
 26 27  1  0  0  0
 28101  1  0  0  0
 28102  1  0  0  0
 29103  1  0  0  0
 29104  1  0  0  0
 33 34  1  0  0  0
 33 66  1  0  0  0
 33 70  2  0  0  0
 34 36  1  0  0  0
 34 59  1  0  0  0
 34105  1  0  0  0
 35 44  2  0  0  0
 35 45  1  0  0  0
 35 68  1  0  0  0
 36 56  1  0  0  0
 36106  1  0  0  0
 37 39  1  0  0  0
 37 47  1  0  0  0
 37 66  1  0  0  0
 37107  1  0  0  0
 38 43  2  0  0  0
 38 46  1  0  0  0
 38 47  1  0  0  0
 39 64  1  0  0  0
 39 67  2  0  0  0
 40 52  1  0  0  0
 40 53  2  0  0  0
 40 58  1  0  0  0
 41108  1  0  0  0
 41109  1  0  0  0
 41110  1  0  0  0
 41 48  1  0  0  0
 42 43  1  0  0  0
 42 66  1  0  0  0
 42111  1  0  0  0
 42112  1  0  0  0
 43 44  1  0  0  0
 44113  1  0  0  0
 45 46  2  0  0  0
 45114  1  0  0  0
 46115  1  0  0  0
 47116  1  0  0  0
 47117  1  0  0  0
 48 56  1  0  0  0
 48 65  1  0  0  0
 48118  1  0  0  0
 49 50  1  0  0  0
 49 53  1  0  0  0
 49 64  1  0  0  0
 49119  1  0  0  0
 50 51  1  0  0  0
 50120  1  0  0  0
 50121  1  0  0  0
 51 52  1  0  0  0
 51122  1  0  0  0
 51123  1  0  0  0
 52124  1  0  0  0
 52125  1  0  0  0
 53 54  1  0  0  0
 54 55  2  0  0  0
 54126  1  0  0  0
 55 57  1  0  0  0
 55127  1  0  0  0
 56 69  2  0  0  0
 57 58  2  0  0  0
 57128  1  0  0  0
 58129  1  0  0  0
 59 60  1  0  0  0
 59 61  1  0  0  0
 59 62  1  0  0  0
 60130  1  0  0  0
 60131  1  0  0  0
 60132  1  0  0  0
 61133  1  0  0  0
 61134  1  0  0  0
 61135  1  0  0  0
 62136  1  0  0  0
 62137  1  0  0  0
 62138  1  0  0  0
 63 65  1  0  0  0
 63139  1  0  0  0
 63140  1  0  0  0
 63141  1  0  0  0
 64142  1  0  0  0
 65143  1  0  0  0
 68 80  1  0  0  0
 71 72  2  0  0  0
 71 74  1  0  0  0
 71144  1  0  0  0
 72 75  1  0  0  0
 72145  1  0  0  0
 73 75  2  0  0  0
 73 76  1  0  0  0
 73146  1  0  0  0
 74 76  2  0  0  0
 74 77  1  0  0  0
 75 82  1  0  0  0
 76 84  1  0  0  0
 77 81  1  0  0  0
 77 83  2  0  0  0
 78 79  1  0  0  0
 78 80  1  0  0  0
 78147  1  0  0  0
 78148  1  0  0  0
 79 83  1  0  0  0
 79149  1  0  0  0
 79150  1  0  0  0
 80151  1  0  0  0
 80152  1  0  0  0
 81153  1  0  0  0
 81154  1  0  0  0
 82155  1  0  0  0
 83156  1  0  0  0
M  CHG  1  83   1
M  ISO  4   1 100  68 101  80 101  82 100
M  END
> <chiral flag>
0

> <version>
0

> <s_m_source_file>
/data/baiqing/PycharmProjects/Reinvent-master-3.2/result/LINK_invent/BTK/process_docking_weight1_custom_product_contain_oxygen_bond_distance_aromatic_linkinvent_7_9_3/rearranged_h_0088.sdf

> <i_m_source_file_index>
75

> <r_mmod_Potential_Energy-OPLS-2005>
-108.764953613281

> <r_mmod_Stretch_Energy-OPLS-2005>
48.091739654541

> <r_mmod_Bend_Energy-OPLS-2005>
125.08373260498

> <r_mmod_Torsional_Energy-OPLS-2005>
269.164154052734

> <r_mmod_Improper_Torsional_Energy-OPLS-2005>
8.37253952026367

> <r_mmod_Van_der_Waal_Energy-OPLS-2005>
146.093231201172

> <r_mmod_Electrostatic_Energy-OPLS-2005>
-295.485229492188

> <r_mmod_Solvation_Energy-OPLS-2005>
-429.208312988281

> <b_mmod_Minimization_Converged-OPLS-2005>
0

> <r_mmod_RMS_Derivative-OPLS-2005>
3.60201525688171

$$$$
75
                    3D
 Structure written by MMmdl.
154163  0  0  1  0            999 V2000
  -30.5732  -14.8924   20.5072 C   0  0  0  0  0  0
  -30.4417  -12.5670   19.4878 C   0  0  0  0  0  0
  -29.5165  -12.5478   18.2469 C   0  0  0  0  0  0
  -28.0430  -12.3434   18.6510 C   0  0  0  0  0  0
  -27.6372  -13.2359   19.8514 C   0  0  2  0  0  0
  -28.6795  -13.1473   20.9796 C   0  0  0  0  0  0
  -25.2488  -13.8189   20.5685 C   0  0  0  0  0  0
  -24.1783  -13.0432   20.9180 C   0  0  0  0  0  0
  -24.6382  -11.6909   20.8719 C   0  0  0  0  0  0
  -23.9058  -10.4287   21.0389 C   0  0  0  0  0  0
  -24.3614   -9.4211   21.9174 C   0  0  0  0  0  0
  -23.6291   -8.2246   22.0752 C   0  0  0  0  0  0
  -22.4276   -8.0278   21.3540 C   0  0  0  0  0  0
  -21.9902   -9.0246   20.4641 C   0  0  0  0  0  0
  -22.7228  -10.2126   20.3047 C   0  0  0  0  0  0
  -21.6856   -6.0739   22.5281 C   0  0  0  0  0  0
  -21.4017   -6.5642   23.8216 C   0  0  0  0  0  0
  -21.3653   -5.6792   24.9172 C   0  0  0  0  0  0
  -21.6045   -4.3055   24.7221 C   0  0  0  0  0  0
  -21.8821   -3.8146   23.4340 C   0  0  0  0  0  0
  -21.9192   -4.6964   22.3400 C   0  0  0  0  0  0
  -22.7810  -13.5215   21.1854 C   0  0  0  0  0  0
  -22.1669   -4.2150   21.0977 F   0  0  0  0  0  0
  -21.5618   -3.4540   25.7732 F   0  0  0  0  0  0
  -29.9582  -13.6325   20.4213 N   0  0  0  0  0  0
  -26.2908  -12.9396   20.3267 N   0  0  0  0  0  0
  -25.9317  -11.6530   20.5729 N   0  0  0  0  0  0
  -22.0457  -12.8202   22.0411 N   0  0  0  0  0  0
  -25.4182  -15.1911   20.4150 N   0  0  0  0  0  0
  -31.7312  -14.9455   20.0765 O   0  0  0  0  0  0
  -21.6642   -6.8876   21.4243 O   0  0  0  0  0  0
  -22.3488  -14.5526   20.6716 O   0  0  0  0  0  0
  -24.6405  -31.8463   23.1919 C   0  0  0  0  0  0
  -25.9195  -32.4708   23.8285 C   0  0  1  0  0  0
  -27.2192  -27.1741   20.1455 C   0  0  0  0  0  0
  -25.5958  -33.8510   24.2206 N   0  0  0  0  0  0
  -23.4425  -30.4673   21.5362 C   0  0  2  0  0  0
  -24.8937  -28.9000   20.1104 C   0  0  0  0  0  0
  -22.7552  -29.4562   22.4874 C   0  0  0  0  0  0
  -18.0300  -28.1394   22.8477 C   0  0  0  0  0  0
  -24.1491  -36.7261   23.2638 C   0  0  0  0  0  0
  -25.9955  -30.7310   21.3870 C   0  0  0  0  0  0
  -26.0689  -29.3444   20.7315 C   0  0  0  0  0  0
  -27.2352  -28.4950   20.7385 C   0  0  0  0  0  0
  -26.0240  -26.8269   19.4796 C   0  0  0  0  0  0
  -24.8811  -27.6517   19.4708 C   0  0  0  0  0  0
  -23.6677  -29.7968   20.1550 C   0  0  0  0  0  0
  -25.4121  -36.3041   24.0319 C   0  0  1  0  0  0
  -20.5909  -28.3717   23.1241 C   0  0  2  0  0  0
  -20.6781  -26.9424   22.5398 C   0  0  0  0  0  0
  -19.5758  -26.6391   21.5199 C   0  0  0  0  0  0
  -18.1938  -26.7938   22.1612 C   0  0  0  0  0  0
  -19.1555  -28.8875   23.2854 C   0  0  0  0  0  0
  -18.9476  -30.1470   23.8881 C   0  0  0  0  0  0
  -17.6474  -30.6587   24.0566 C   0  0  0  0  0  0
  -25.9071  -34.9415   23.5074 C   0  0  0  0  0  0
  -16.5364  -29.9080   23.6339 C   0  0  0  0  0  0
  -16.7286  -28.6500   23.0356 C   0  0  0  0  0  0
  -26.4529  -31.6561   25.0713 C   0  0  0  0  0  0
  -25.3728  -31.3740   26.1418 C   0  0  0  0  0  0
  -27.0397  -30.2965   24.6275 C   0  0  0  0  0  0
  -27.6055  -32.4324   25.7500 C   0  0  0  0  0  0
  -27.5577  -37.1794   24.8462 C   0  0  0  0  0  0
  -21.4247  -29.3053   22.3620 N   0  0  0  0  0  0
  -26.4284  -37.3752   23.9406 N   0  0  0  0  0  0
  -24.7121  -31.0354   22.0936 N   0  0  0  0  0  0
  -23.4210  -28.8110   23.3016 O   0  0  0  0  0  0
  -28.2537  -26.1791   20.1832 O   0  0  0  0  0  0
  -26.5642  -34.8908   22.4643 O   0  0  0  0  0  0
  -23.5539  -32.1321   23.7170 O   0  0  0  0  0  0
  -32.1506  -19.1579   20.7741 C   0  0  0  0  0  0
  -31.3131  -20.2683   20.5712 C   0  0  0  0  0  0
  -31.6512  -17.8482   20.8279 C   0  0  0  0  0  0
  -29.9116  -20.1896   20.3912 C   0  0  0  0  0  0
  -30.2798  -17.5586   20.6593 C   0  0  0  0  0  0
  -29.4386  -18.7746   20.4251 C   0  0  0  0  0  0
  -28.4750  -23.5186   20.4009 C   0  0  0  0  0  0
  -29.6854  -22.9018   19.8453 C   0  0  0  0  0  0
  -28.0046  -16.5850   22.4322 C   0  0  0  0  0  0
  -27.9063  -24.8108   20.5389 C   0  0  0  0  0  0
  -29.1459  -15.9586   22.0966 C   0  0  0  0  0  0
  -28.0521  -22.0740   20.8615 C   0  0  0  0  0  0
  -29.2570  -21.5549   20.1625 N   0  0  0  0  0  0
  -29.8835  -16.0905   20.9078 N   0  0  0  0  0  0
  -30.6917  -23.4156   19.3998 O   0  0  0  0  0  0
  -28.1221  -18.5943   20.1683 F   0  0  0  0  0  0
  -31.4727  -12.7263   19.1693 H   0  0  0  0  0  0
  -30.4477  -11.5921   19.9780 H   0  0  0  0  0  0
  -29.8254  -11.7640   17.5542 H   0  0  0  0  0  0
  -29.6188  -13.4897   17.7059 H   0  0  0  0  0  0
  -27.9147  -11.2933   18.9152 H   0  0  0  0  0  0
  -27.3857  -12.5262   17.7995 H   0  0  0  0  0  0
  -27.6320  -14.2636   19.4861 H   0  0  0  0  0  0
  -28.7727  -12.1158   21.3230 H   0  0  0  0  0  0
  -28.3344  -13.6806   21.8580 H   0  0  0  0  0  0
  -25.2754   -9.5701   22.4757 H   0  0  0  0  0  0
  -23.9999   -7.4644   22.7482 H   0  0  0  0  0  0
  -21.0833   -8.8763   19.8950 H   0  0  0  0  0  0
  -22.3678  -10.9668   19.6163 H   0  0  0  0  0  0
  -21.2022   -7.6152   23.9717 H   0  0  0  0  0  0
  -21.1472   -6.0520   25.9074 H   0  0  0  0  0  0
  -22.0604   -2.7607   23.2842 H   0  0  0  0  0  0
  -22.4066  -11.9861   22.4796 H   0  0  0  0  0  0
  -21.1078  -13.1237   22.2622 H   0  0  0  0  0  0
  -24.6608  -15.8512   20.5508 H   0  0  0  0  0  0
  -26.2947  -15.6357   20.1729 H   0  0  0  0  0  0
  -26.7258  -32.5345   23.1012 H   0  0  0  0  0  0
  -25.0099  -33.9610   25.0355 H   0  0  0  0  0  0
  -22.7438  -31.2930   21.3840 H   0  0  0  0  0  0
  -23.3753  -35.9591   23.3288 H   0  0  0  0  0  0
  -24.3580  -36.8899   22.2055 H   0  0  0  0  0  0
  -23.7244  -37.6457   23.6679 H   0  0  0  0  0  0
  -26.1441  -31.4850   20.6127 H   0  0  0  0  0  0
  -26.8681  -30.7831   22.0266 H   0  0  0  0  0  0
  -28.1301  -28.8285   21.2445 H   0  0  0  0  0  0
  -25.9562  -25.8688   18.9842 H   0  0  0  0  0  0
  -23.9856  -27.3057   18.9729 H   0  0  0  0  0  0
  -23.8007  -30.5700   19.3976 H   0  0  0  0  0  0
  -22.7842  -29.2339   19.8490 H   0  0  0  0  0  0
  -25.1303  -36.1869   25.0808 H   0  0  0  0  0  0
  -21.0002  -28.3310   24.1365 H   0  0  0  0  0  0
  -20.5660  -26.2329   23.3608 H   0  0  0  0  0  0
  -21.6649  -26.7430   22.1206 H   0  0  0  0  0  0
  -19.6913  -25.6300   21.1233 H   0  0  0  0  0  0
  -19.6691  -27.3193   20.6722 H   0  0  0  0  0  0
  -17.4203  -26.6678   21.4018 H   0  0  0  0  0  0
  -18.0347  -26.0076   22.9007 H   0  0  0  0  0  0
  -19.7955  -30.7292   24.2231 H   0  0  0  0  0  0
  -17.5027  -31.6265   24.5171 H   0  0  0  0  0  0
  -15.5363  -30.2978   23.7675 H   0  0  0  0  0  0
  -15.8683  -28.0816   22.7080 H   0  0  0  0  0  0
  -24.5915  -30.7072   25.7753 H   0  0  0  0  0  0
  -24.8909  -32.2918   26.4798 H   0  0  0  0  0  0
  -25.8027  -30.8958   27.0226 H   0  0  0  0  0  0
  -26.3014  -29.6680   24.1281 H   0  0  0  0  0  0
  -27.4022  -29.7264   25.4838 H   0  0  0  0  0  0
  -27.8911  -30.4201   23.9577 H   0  0  0  0  0  0
  -27.2638  -33.3637   26.2019 H   0  0  0  0  0  0
  -28.3898  -32.6853   25.0358 H   0  0  0  0  0  0
  -28.0675  -31.8486   26.5467 H   0  0  0  0  0  0
  -28.2590  -38.0095   24.7515 H   0  0  0  0  0  0
  -28.1081  -36.2630   24.6282 H   0  0  0  0  0  0
  -27.2297  -37.1439   25.8864 H   0  0  0  0  0  0
  -20.9447  -29.8767   21.6805 H   0  0  0  0  0  0
  -26.0156  -38.2822   24.1405 H   0  0  0  0  0  0
  -33.2102  -19.3207   20.9158 H   0  0  0  0  0  0
  -31.7966  -21.2345   20.5603 H   0  0  0  0  0  0
  -32.3610  -17.0660   21.0503 H   0  0  0  0  0  0
  -27.5608  -16.4096   23.4016 H   0  0  0  0  0  0
  -27.4747  -17.2588   21.7846 H   0  0  0  0  0  0
  -26.9638  -24.8310   21.0678 H   0  0  0  0  0  0
  -29.6111  -15.2855   22.8076 H   0  0  0  0  0  0
  -27.1372  -21.6538   20.4401 H   0  0  0  0  0  0
  -28.0927  -21.8701   21.9334 H   0  0  0  0  0  0
  1 25  1  0  0  0
  1 30  2  0  0  0
  1 84  1  0  0  0
  2  3  1  0  0  0
  2 25  1  0  0  0
  2 87  1  0  0  0
  2 88  1  0  0  0
  3  4  1  0  0  0
  3 89  1  0  0  0
  3 90  1  0  0  0
  4  5  1  0  0  0
  4 91  1  0  0  0
  4 92  1  0  0  0
  5  6  1  0  0  0
  5 26  1  0  0  0
  5 93  1  0  0  0
  6 25  1  0  0  0
  6 94  1  0  0  0
  6 95  1  0  0  0
  7  8  2  0  0  0
  7 26  1  0  0  0
  7 29  1  0  0  0
  8  9  1  0  0  0
  8 22  1  0  0  0
  9 10  1  0  0  0
  9 27  2  0  0  0
 10 11  2  0  0  0
 10 15  1  0  0  0
 11 12  1  0  0  0
 11 96  1  0  0  0
 12 13  2  0  0  0
 12 97  1  0  0  0
 13 14  1  0  0  0
 13 31  1  0  0  0
 14 15  2  0  0  0
 14 98  1  0  0  0
 15 99  1  0  0  0
 16 17  2  0  0  0
 16 21  1  0  0  0
 16 31  1  0  0  0
 17 18  1  0  0  0
 17100  1  0  0  0
 18 19  2  0  0  0
 18101  1  0  0  0
 19 20  1  0  0  0
 19 24  1  0  0  0
 20 21  2  0  0  0
 20102  1  0  0  0
 21 23  1  0  0  0
 22 28  1  0  0  0
 22 32  2  0  0  0
 26 27  1  0  0  0
 28103  1  0  0  0
 28104  1  0  0  0
 29105  1  0  0  0
 29106  1  0  0  0
 33 34  1  0  0  0
 33 66  1  0  0  0
 33 70  2  0  0  0
 34 36  1  0  0  0
 34 59  1  0  0  0
 34107  1  0  0  0
 35 44  2  0  0  0
 35 45  1  0  0  0
 35 68  1  0  0  0
 36 56  1  0  0  0
 36108  1  0  0  0
 37 39  1  0  0  0
 37 47  1  0  0  0
 37 66  1  0  0  0
 37109  1  0  0  0
 38 43  2  0  0  0
 38 46  1  0  0  0
 38 47  1  0  0  0
 39 64  1  0  0  0
 39 67  2  0  0  0
 40 52  1  0  0  0
 40 53  2  0  0  0
 40 58  1  0  0  0
 41110  1  0  0  0
 41111  1  0  0  0
 41112  1  0  0  0
 41 48  1  0  0  0
 42 43  1  0  0  0
 42 66  1  0  0  0
 42113  1  0  0  0
 42114  1  0  0  0
 43 44  1  0  0  0
 44115  1  0  0  0
 45 46  2  0  0  0
 45116  1  0  0  0
 46117  1  0  0  0
 47118  1  0  0  0
 47119  1  0  0  0
 48 56  1  0  0  0
 48 65  1  0  0  0
 48120  1  0  0  0
 49 50  1  0  0  0
 49 53  1  0  0  0
 49 64  1  0  0  0
 49121  1  0  0  0
 50 51  1  0  0  0
 50122  1  0  0  0
 50123  1  0  0  0
 51 52  1  0  0  0
 51124  1  0  0  0
 51125  1  0  0  0
 52126  1  0  0  0
 52127  1  0  0  0
 53 54  1  0  0  0
 54 55  2  0  0  0
 54128  1  0  0  0
 55 57  1  0  0  0
 55129  1  0  0  0
 56 69  2  0  0  0
 57 58  2  0  0  0
 57130  1  0  0  0
 58131  1  0  0  0
 59 60  1  0  0  0
 59 61  1  0  0  0
 59 62  1  0  0  0
 60132  1  0  0  0
 60133  1  0  0  0
 60134  1  0  0  0
 61135  1  0  0  0
 61136  1  0  0  0
 61137  1  0  0  0
 62138  1  0  0  0
 62139  1  0  0  0
 62140  1  0  0  0
 63 65  1  0  0  0
 63141  1  0  0  0
 63142  1  0  0  0
 63143  1  0  0  0
 64144  1  0  0  0
 65145  1  0  0  0
 68 80  1  0  0  0
 71 72  2  0  0  0
 71 73  1  0  0  0
 71146  1  0  0  0
 72 74  1  0  0  0
 72147  1  0  0  0
 73 75  2  0  0  0
 73148  1  0  0  0
 74 76  2  0  0  0
 74 83  1  0  0  0
 75 76  1  0  0  0
 75 84  1  0  0  0
 76 86  1  0  0  0
 77 78  1  0  0  0
 77 80  2  0  0  0
 77 82  1  0  0  0
 78 83  1  0  0  0
 78 85  2  0  0  0
 79 81  2  0  0  0
 79149  1  0  0  0
 79150  1  0  0  0
 80151  1  0  0  0
 81 84  1  0  0  0
 81152  1  0  0  0
 82 83  1  0  0  0
 82153  1  0  0  0
 82154  1  0  0  0
M  ISO  4   1 100  68 101  80 101  84 100
M  END
> <chiral flag>
0

> <version>
0

> <s_m_source_file>
/data/baiqing/PycharmProjects/Reinvent-master-3.2/result/LINK_invent/BTK/process_docking_weight1_custom_product_contain_oxygen_bond_distance_aromatic_linkinvent_7_9_3/rearranged_h_0088.sdf

> <i_m_source_file_index>
76

> <r_mmod_Potential_Energy-OPLS-2005>
681.752319335938

> <r_mmod_Stretch_Energy-OPLS-2005>
216.572113037109

> <r_mmod_Bend_Energy-OPLS-2005>
316.023956298828

> <r_mmod_Torsional_Energy-OPLS-2005>
336.935394287109

> <r_mmod_Improper_Torsional_Energy-OPLS-2005>
8.83950233459473

> <r_mmod_Van_der_Waal_Energy-OPLS-2005>
151.738906860352

> <r_mmod_Electrostatic_Energy-OPLS-2005>
-295.393768310547

> <r_mmod_Solvation_Energy-OPLS-2005>
-203.227478027344

> <b_mmod_Minimization_Converged-OPLS-2005>
0

> <r_mmod_RMS_Derivative-OPLS-2005>
1.32975518703461

$$$$
76
                    3D
 Structure written by MMmdl.
154163  0  0  1  0            999 V2000
  -30.6219  -14.7666   20.4465 C   0  0  0  0  0  0
  -30.4238  -12.4670   19.4817 C   0  0  0  0  0  0
  -29.5075  -12.5121   18.2391 C   0  0  0  0  0  0
  -28.0334  -12.3419   18.6499 C   0  0  0  0  0  0
  -27.6382  -13.2422   19.8505 C   0  0  2  0  0  0
  -28.6821  -13.1966   20.9873 C   0  0  0  0  0  0
  -25.2476  -13.8216   20.5707 C   0  0  0  0  0  0
  -24.1781  -13.0444   20.9216 C   0  0  0  0  0  0
  -24.6390  -11.6928   20.8748 C   0  0  0  0  0  0
  -23.9072  -10.4297   21.0408 C   0  0  0  0  0  0
  -24.3626   -9.4214   21.9186 C   0  0  0  0  0  0
  -23.6303   -8.2249   22.0747 C   0  0  0  0  0  0
  -22.4282   -8.0290   21.3541 C   0  0  0  0  0  0
  -21.9918   -9.0263   20.4639 C   0  0  0  0  0  0
  -22.7245  -10.2143   20.3054 C   0  0  0  0  0  0
  -21.6858   -6.0747   22.5278 C   0  0  0  0  0  0
  -21.4022   -6.5651   23.8211 C   0  0  0  0  0  0
  -21.3651   -5.6800   24.9168 C   0  0  0  0  0  0
  -21.6046   -4.3063   24.7219 C   0  0  0  0  0  0
  -21.8818   -3.8155   23.4339 C   0  0  0  0  0  0
  -21.9194   -4.6975   22.3397 C   0  0  0  0  0  0
  -22.7800  -13.5217   21.1887 C   0  0  0  0  0  0
  -22.1657   -4.2161   21.0972 F   0  0  0  0  0  0
  -21.5619   -3.4543   25.7724 F   0  0  0  0  0  0
  -29.9804  -13.5454   20.4002 N   0  0  0  0  0  0
  -26.2917  -12.9448   20.3287 N   0  0  0  0  0  0
  -25.9327  -11.6580   20.5755 N   0  0  0  0  0  0
  -22.0457  -12.8191   22.0437 N   0  0  0  0  0  0
  -25.4146  -15.1941   20.4141 N   0  0  0  0  0  0
  -31.8185  -14.8012   20.1524 O   0  0  0  0  0  0
  -21.6644   -6.8889   21.4240 O   0  0  0  0  0  0
  -22.3473  -14.5522   20.6741 O   0  0  0  0  0  0
  -24.6325  -31.8516   23.1941 C   0  0  0  0  0  0
  -25.9157  -32.4722   23.8277 C   0  0  1  0  0  0
  -27.2166  -27.2409   20.1308 C   0  0  0  0  0  0
  -25.5950  -33.8528   24.2199 N   0  0  0  0  0  0
  -23.4304  -30.4725   21.5374 C   0  0  2  0  0  0
  -24.8770  -28.9208   20.1020 C   0  0  0  0  0  0
  -22.7510  -29.4574   22.4890 C   0  0  0  0  0  0
  -18.0301  -28.1397   22.8499 C   0  0  0  0  0  0
  -24.1500  -36.7269   23.2644 C   0  0  0  0  0  0
  -25.9773  -30.7558   21.3809 C   0  0  0  0  0  0
  -26.0455  -29.3795   20.7200 C   0  0  0  0  0  0
  -27.2137  -28.5505   20.7264 C   0  0  0  0  0  0
  -26.0213  -26.8511   19.4868 C   0  0  0  0  0  0
  -24.8720  -27.6665   19.4725 C   0  0  0  0  0  0
  -23.6490  -29.8085   20.1513 C   0  0  0  0  0  0
  -25.4125  -36.3038   24.0317 C   0  0  1  0  0  0
  -20.5909  -28.3699   23.1288 C   0  0  2  0  0  0
  -20.6800  -26.9419   22.5417 C   0  0  0  0  0  0
  -19.5762  -26.6386   21.5239 C   0  0  0  0  0  0
  -18.1941  -26.7950   22.1636 C   0  0  0  0  0  0
  -19.1557  -28.8869   23.2892 C   0  0  0  0  0  0
  -18.9472  -30.1481   23.8893 C   0  0  0  0  0  0
  -17.6465  -30.6602   24.0575 C   0  0  0  0  0  0
  -25.9062  -34.9415   23.5052 C   0  0  0  0  0  0
  -16.5354  -29.9091   23.6353 C   0  0  0  0  0  0
  -16.7286  -28.6515   23.0363 C   0  0  0  0  0  0
  -26.4512  -31.6575   25.0691 C   0  0  0  0  0  0
  -25.3720  -31.3759   26.1406 C   0  0  0  0  0  0
  -27.0394  -30.2983   24.6234 C   0  0  0  0  0  0
  -27.6036  -32.4346   25.7475 C   0  0  0  0  0  0
  -27.5578  -37.1791   24.8470 C   0  0  0  0  0  0
  -21.4214  -29.3036   22.3658 N   0  0  0  0  0  0
  -26.4288  -37.3746   23.9411 N   0  0  0  0  0  0
  -24.6983  -31.0471   22.0922 N   0  0  0  0  0  0
  -23.4199  -28.8144   23.3024 O   0  0  0  0  0  0
  -28.3198  -26.3550   20.2319 O   0  0  0  0  0  0
  -26.5630  -34.8916   22.4619 O   0  0  0  0  0  0
  -23.5476  -32.1344   23.7223 O   0  0  0  0  0  0
  -31.8754  -19.1345   19.8896 C   0  0  0  0  0  0
  -30.9525  -20.1755   20.1001 C   0  0  0  0  0  0
  -31.5237  -17.7820   20.0669 C   0  0  0  0  0  0
  -29.6224  -19.9160   20.4968 C   0  0  0  0  0  0
  -30.2165  -17.3881   20.4466 C   0  0  0  0  0  0
  -29.2718  -18.4899   20.6344 C   0  0  0  0  0  0
  -27.2699  -22.3224   22.2394 C   0  0  0  0  0  0
  -28.8910  -22.4175   20.1468 C   0  0  0  0  0  0
  -28.2342  -23.6105   20.4769 C   0  0  0  0  0  0
  -27.3679  -23.5303   21.5692 C   0  0  0  0  0  0
  -28.0054  -21.0990   21.9445 C   0  0  0  0  0  0
  -28.3754  -24.9720   19.6278 C   0  0  0  0  0  0
  -28.7727  -21.1182   20.8189 N   0  0  0  0  0  0
  -29.8749  -15.9351   20.6255 N   0  0  0  0  0  0
  -26.6690  -24.4838   21.9684 O   0  5  0  0  0  0
  -27.9447  -20.1438   22.7227 O   0  0  0  0  0  0
  -27.9949  -18.1440   20.9298 F   0  0  0  0  0  0
  -31.4658  -12.5782   19.1780 H   0  0  0  0  0  0
  -30.3584  -11.4951   19.9730 H   0  0  0  0  0  0
  -29.7899  -11.7310   17.5323 H   0  0  0  0  0  0
  -29.6390  -13.4614   17.7168 H   0  0  0  0  0  0
  -27.8863  -11.2939   18.9103 H   0  0  0  0  0  0
  -27.3788  -12.5387   17.8000 H   0  0  0  0  0  0
  -27.6262  -14.2622   19.4663 H   0  0  0  0  0  0
  -28.7186  -12.2064   21.4450 H   0  0  0  0  0  0
  -28.4131  -13.8927   21.7831 H   0  0  0  0  0  0
  -25.2769   -9.5692   22.4763 H   0  0  0  0  0  0
  -24.0013   -7.4636   22.7463 H   0  0  0  0  0  0
  -21.0847   -8.8787   19.8941 H   0  0  0  0  0  0
  -22.3705  -10.9688   19.6167 H   0  0  0  0  0  0
  -21.2025   -7.6165   23.9717 H   0  0  0  0  0  0
  -21.1464   -6.0529   25.9070 H   0  0  0  0  0  0
  -22.0602   -2.7621   23.2831 H   0  0  0  0  0  0
  -22.4103  -11.9857   22.4813 H   0  0  0  0  0  0
  -21.1072  -13.1195   22.2655 H   0  0  0  0  0  0
  -24.6504  -15.8477   20.5438 H   0  0  0  0  0  0
  -26.2669  -15.6439   20.1062 H   0  0  0  0  0  0
  -26.7215  -32.5350   23.1004 H   0  0  0  0  0  0
  -25.0145  -33.9652   25.0377 H   0  0  0  0  0  0
  -22.7286  -31.2953   21.3886 H   0  0  0  0  0  0
  -23.3755  -35.9611   23.3282 H   0  0  0  0  0  0
  -24.3592  -36.8905   22.2065 H   0  0  0  0  0  0
  -23.7259  -37.6459   23.6696 H   0  0  0  0  0  0
  -26.1304  -31.5160   20.6137 H   0  0  0  0  0  0
  -26.8502  -30.7927   22.0213 H   0  0  0  0  0  0
  -28.1015  -28.8941   21.2379 H   0  0  0  0  0  0
  -25.9254  -25.8805   19.0280 H   0  0  0  0  0  0
  -23.9770  -27.3085   18.9836 H   0  0  0  0  0  0
  -23.7765  -30.5854   19.3961 H   0  0  0  0  0  0
  -22.7679  -29.2429   19.8428 H   0  0  0  0  0  0
  -25.1309  -36.1852   25.0807 H   0  0  0  0  0  0
  -21.0006  -28.3268   24.1411 H   0  0  0  0  0  0
  -20.5765  -26.2289   23.3613 H   0  0  0  0  0  0
  -21.6657  -26.7486   22.1157 H   0  0  0  0  0  0
  -19.6920  -25.6297   21.1276 H   0  0  0  0  0  0
  -19.6702  -27.3205   20.6781 H   0  0  0  0  0  0
  -17.4217  -26.6737   21.4027 H   0  0  0  0  0  0
  -18.0303  -26.0091   22.9026 H   0  0  0  0  0  0
  -19.7938  -30.7328   24.2231 H   0  0  0  0  0  0
  -17.5009  -31.6290   24.5168 H   0  0  0  0  0  0
  -15.5355  -30.2988   23.7694 H   0  0  0  0  0  0
  -15.8687  -28.0841   22.7064 H   0  0  0  0  0  0
  -24.5884  -30.7115   25.7742 H   0  0  0  0  0  0
  -24.8941  -32.2957   26.4790 H   0  0  0  0  0  0
  -25.8018  -30.8957   27.0206 H   0  0  0  0  0  0
  -26.3007  -29.6694   24.1251 H   0  0  0  0  0  0
  -27.4050  -29.7275   25.4780 H   0  0  0  0  0  0
  -27.8891  -30.4228   23.9514 H   0  0  0  0  0  0
  -27.2592  -33.3660   26.1984 H   0  0  0  0  0  0
  -28.3887  -32.6874   25.0334 H   0  0  0  0  0  0
  -28.0672  -31.8520   26.5447 H   0  0  0  0  0  0
  -28.2575  -38.0111   24.7512 H   0  0  0  0  0  0
  -28.1084  -36.2625   24.6284 H   0  0  0  0  0  0
  -27.2301  -37.1423   25.8877 H   0  0  0  0  0  0
  -20.9395  -29.8707   21.6826 H   0  0  0  0  0  0
  -26.0143  -38.2811   24.1393 H   0  0  0  0  0  0
  -32.8891  -19.3822   19.6071 H   0  0  0  0  0  0
  -31.3026  -21.1929   19.9959 H   0  0  0  0  0  0
  -32.3078  -17.0638   19.8967 H   0  0  0  0  0  0
  -26.5926  -22.2685   23.0793 H   0  0  0  0  0  0
  -29.5431  -22.3751   19.2872 H   0  0  0  0  0  0
  -27.7257  -24.8969   18.7590 H   0  0  0  0  0  0
  -29.3729  -24.9257   19.1896 H   0  0  0  0  0  0
  -28.9105  -15.7702   20.8716 H   0  0  0  0  0  0
  1 25  1  0  0  0
  1 30  2  0  0  0
  1 84  1  0  0  0
  2  3  1  0  0  0
  2 25  1  0  0  0
  2 88  1  0  0  0
  2 89  1  0  0  0
  3  4  1  0  0  0
  3 90  1  0  0  0
  3 91  1  0  0  0
  4  5  1  0  0  0
  4 92  1  0  0  0
  4 93  1  0  0  0
  5  6  1  0  0  0
  5 26  1  0  0  0
  5 94  1  0  0  0
  6 25  1  0  0  0
  6 95  1  0  0  0
  6 96  1  0  0  0
  7  8  2  0  0  0
  7 26  1  0  0  0
  7 29  1  0  0  0
  8  9  1  0  0  0
  8 22  1  0  0  0
  9 10  1  0  0  0
  9 27  2  0  0  0
 10 11  2  0  0  0
 10 15  1  0  0  0
 11 12  1  0  0  0
 11 97  1  0  0  0
 12 13  2  0  0  0
 12 98  1  0  0  0
 13 14  1  0  0  0
 13 31  1  0  0  0
 14 15  2  0  0  0
 14 99  1  0  0  0
 15100  1  0  0  0
 16 17  2  0  0  0
 16 21  1  0  0  0
 16 31  1  0  0  0
 17 18  1  0  0  0
 17101  1  0  0  0
 18 19  2  0  0  0
 18102  1  0  0  0
 19 20  1  0  0  0
 19 24  1  0  0  0
 20 21  2  0  0  0
 20103  1  0  0  0
 21 23  1  0  0  0
 22 28  1  0  0  0
 22 32  2  0  0  0
 26 27  1  0  0  0
 28104  1  0  0  0
 28105  1  0  0  0
 29106  1  0  0  0
 29107  1  0  0  0
 33 34  1  0  0  0
 33 66  1  0  0  0
 33 70  2  0  0  0
 34 36  1  0  0  0
 34 59  1  0  0  0
 34108  1  0  0  0
 35 44  2  0  0  0
 35 45  1  0  0  0
 35 68  1  0  0  0
 36 56  1  0  0  0
 36109  1  0  0  0
 37 39  1  0  0  0
 37 47  1  0  0  0
 37 66  1  0  0  0
 37110  1  0  0  0
 38 43  2  0  0  0
 38 46  1  0  0  0
 38 47  1  0  0  0
 39 64  1  0  0  0
 39 67  2  0  0  0
 40 52  1  0  0  0
 40 53  2  0  0  0
 40 58  1  0  0  0
 41111  1  0  0  0
 41112  1  0  0  0
 41113  1  0  0  0
 41 48  1  0  0  0
 42 43  1  0  0  0
 42 66  1  0  0  0
 42114  1  0  0  0
 42115  1  0  0  0
 43 44  1  0  0  0
 44116  1  0  0  0
 45 46  2  0  0  0
 45117  1  0  0  0
 46118  1  0  0  0
 47119  1  0  0  0
 47120  1  0  0  0
 48 56  1  0  0  0
 48 65  1  0  0  0
 48121  1  0  0  0
 49 50  1  0  0  0
 49 53  1  0  0  0
 49 64  1  0  0  0
 49122  1  0  0  0
 50 51  1  0  0  0
 50123  1  0  0  0
 50124  1  0  0  0
 51 52  1  0  0  0
 51125  1  0  0  0
 51126  1  0  0  0
 52127  1  0  0  0
 52128  1  0  0  0
 53 54  1  0  0  0
 54 55  2  0  0  0
 54129  1  0  0  0
 55 57  1  0  0  0
 55130  1  0  0  0
 56 69  2  0  0  0
 57 58  2  0  0  0
 57131  1  0  0  0
 58132  1  0  0  0
 59 60  1  0  0  0
 59 61  1  0  0  0
 59 62  1  0  0  0
 60133  1  0  0  0
 60134  1  0  0  0
 60135  1  0  0  0
 61136  1  0  0  0
 61137  1  0  0  0
 61138  1  0  0  0
 62139  1  0  0  0
 62140  1  0  0  0
 62141  1  0  0  0
 63 65  1  0  0  0
 63142  1  0  0  0
 63143  1  0  0  0
 63144  1  0  0  0
 64145  1  0  0  0
 65146  1  0  0  0
 68 82  1  0  0  0
 71 72  2  0  0  0
 71 73  1  0  0  0
 71147  1  0  0  0
 72 74  1  0  0  0
 72148  1  0  0  0
 73 75  2  0  0  0
 73149  1  0  0  0
 74 76  2  0  0  0
 74 83  1  0  0  0
 75 76  1  0  0  0
 75 84  1  0  0  0
 76 87  1  0  0  0
 77 80  2  0  0  0
 77 81  1  0  0  0
 77150  1  0  0  0
 78 79  2  0  0  0
 78 83  1  0  0  0
 78151  1  0  0  0
 79 80  1  0  0  0
 79 82  1  0  0  0
 80 85  1  0  0  0
 81 83  1  0  0  0
 81 86  2  0  0  0
 82152  1  0  0  0
 82153  1  0  0  0
 84154  1  0  0  0
M  CHG  1  85  -1
M  ISO  4   1 100  68 101  82 101  84 100
M  END
> <chiral flag>
0

> <version>
0

> <s_m_source_file>
/data/baiqing/PycharmProjects/Reinvent-master-3.2/result/LINK_invent/BTK/process_docking_weight1_custom_product_contain_oxygen_bond_distance_aromatic_linkinvent_7_9_3/rearranged_h_0088.sdf

> <i_m_source_file_index>
77

> <r_mmod_Potential_Energy-OPLS-2005>
22.8997497558594

> <r_mmod_Stretch_Energy-OPLS-2005>
153.910232543945

> <r_mmod_Bend_Energy-OPLS-2005>
229.356414794922

> <r_mmod_Torsional_Energy-OPLS-2005>
236.062377929688

> <r_mmod_Improper_Torsional_Energy-OPLS-2005>
5.03874254226685

> <r_mmod_Van_der_Waal_Energy-OPLS-2005>
176.40544128418

> <r_mmod_Electrostatic_Energy-OPLS-2005>
-413.45263671875

> <r_mmod_Solvation_Energy-OPLS-2005>
-460.967071533203

> <b_mmod_Minimization_Converged-OPLS-2005>
0

> <r_mmod_RMS_Derivative-OPLS-2005>
1.96755242347717

$$$$
77
                    3D
 Structure written by MMmdl.
152160  0  0  1  0            999 V2000
  -30.6607  -14.6447   20.5006 C   0  0  0  0  0  0
  -30.4292  -12.4039   19.4527 C   0  0  0  0  0  0
  -29.5050  -12.5005   18.2216 C   0  0  0  0  0  0
  -28.0306  -12.3370   18.6404 C   0  0  0  0  0  0
  -27.6456  -13.2264   19.8527 C   0  0  2  0  0  0
  -28.6923  -13.1412   20.9857 C   0  0  0  0  0  0
  -25.2559  -13.8175   20.5691 C   0  0  0  0  0  0
  -24.1845  -13.0424   20.9175 C   0  0  0  0  0  0
  -24.6422  -11.6896   20.8724 C   0  0  0  0  0  0
  -23.9080  -10.4294   21.0403 C   0  0  0  0  0  0
  -24.3643   -9.4221   21.9176 C   0  0  0  0  0  0
  -23.6321   -8.2257   22.0745 C   0  0  0  0  0  0
  -22.4299   -8.0281   21.3530 C   0  0  0  0  0  0
  -21.9914   -9.0271   20.4652 C   0  0  0  0  0  0
  -22.7250  -10.2141   20.3069 C   0  0  0  0  0  0
  -21.6884   -6.0729   22.5261 C   0  0  0  0  0  0
  -21.4047   -6.5640   23.8196 C   0  0  0  0  0  0
  -21.3637   -5.6792   24.9156 C   0  0  0  0  0  0
  -21.6039   -4.3060   24.7208 C   0  0  0  0  0  0
  -21.8825   -3.8153   23.4327 C   0  0  0  0  0  0
  -21.9194   -4.6956   22.3384 C   0  0  0  0  0  0
  -22.7872  -13.5215   21.1813 C   0  0  0  0  0  0
  -22.1671   -4.2138   21.0964 F   0  0  0  0  0  0
  -21.5604   -3.4537   25.7722 F   0  0  0  0  0  0
  -29.9991  -13.4526   20.3966 N   0  0  0  0  0  0
  -26.2982  -12.9380   20.3293 N   0  0  0  0  0  0
  -25.9345  -11.6522   20.5718 N   0  0  0  0  0  0
  -22.0558  -12.8210   22.0379 N   0  0  0  0  0  0
  -25.4230  -15.1904   20.4138 N   0  0  0  0  0  0
  -31.8652  -14.7096   20.2395 O   0  0  0  0  0  0
  -21.6656   -6.8875   21.4224 O   0  0  0  0  0  0
  -22.3560  -14.5531   20.6677 O   0  0  0  0  0  0
  -24.6257  -31.8634   23.2064 C   0  0  0  0  0  0
  -25.9103  -32.4791   23.8390 C   0  0  1  0  0  0
  -27.2151  -27.3492   20.1143 C   0  0  0  0  0  0
  -25.5934  -33.8590   24.2315 N   0  0  0  0  0  0
  -23.4175  -30.4895   21.5470 C   0  0  2  0  0  0
  -24.8644  -28.9478   20.1084 C   0  0  0  0  0  0
  -22.7487  -29.4651   22.4941 C   0  0  0  0  0  0
  -18.0289  -28.1381   22.8493 C   0  0  0  0  0  0
  -24.1485  -36.7308   23.2640 C   0  0  0  0  0  0
  -25.9572  -30.7976   21.3798 C   0  0  0  0  0  0
  -26.0287  -29.4274   20.7238 C   0  0  0  0  0  0
  -27.2093  -28.6331   20.7311 C   0  0  0  0  0  0
  -26.0402  -26.9120   19.4738 C   0  0  0  0  0  0
  -24.8702  -27.6944   19.4736 C   0  0  0  0  0  0
  -23.6311  -29.8265   20.1600 C   0  0  0  0  0  0
  -25.4106  -36.3109   24.0336 C   0  0  1  0  0  0
  -20.5897  -28.3691   23.1289 C   0  0  2  0  0  0
  -20.6775  -26.9411   22.5411 C   0  0  0  0  0  0
  -19.5741  -26.6382   21.5218 C   0  0  0  0  0  0
  -18.1924  -26.7929   22.1634 C   0  0  0  0  0  0
  -19.1543  -28.8850   23.2890 C   0  0  0  0  0  0
  -18.9469  -30.1449   23.8903 C   0  0  0  0  0  0
  -17.6468  -30.6580   24.0565 C   0  0  0  0  0  0
  -25.9037  -34.9462   23.5121 C   0  0  0  0  0  0
  -16.5357  -29.9072   23.6326 C   0  0  0  0  0  0
  -16.7281  -28.6491   23.0351 C   0  0  0  0  0  0
  -26.4473  -31.6597   25.0760 C   0  0  0  0  0  0
  -25.3695  -31.3735   26.1489 C   0  0  0  0  0  0
  -27.0334  -30.3032   24.6202 C   0  0  0  0  0  0
  -27.6043  -32.4352   25.7517 C   0  0  0  0  0  0
  -27.5583  -37.1814   24.8469 C   0  0  0  0  0  0
  -21.4201  -29.3043   22.3675 N   0  0  0  0  0  0
  -26.4298  -37.3789   23.9403 N   0  0  0  0  0  0
  -24.6844  -31.0685   22.1008 N   0  0  0  0  0  0
  -23.4220  -28.8204   23.3019 O   0  0  0  0  0  0
  -28.2938  -26.4733   20.1043 O   0  0  0  0  0  0
  -26.5609  -34.8920   22.4679 O   0  0  0  0  0  0
  -23.5426  -32.1423   23.7402 O   0  0  0  0  0  0
  -27.7616  -19.0883   18.6961 C   0  0  0  0  0  0
  -28.5177  -18.0224   19.2223 C   0  0  0  0  0  0
  -27.8639  -20.3905   19.2329 C   0  0  0  0  0  0
  -29.5015  -19.5633   20.8292 C   0  0  0  0  0  0
  -29.3923  -18.2213   20.3148 C   0  0  0  0  0  0
  -28.7520  -20.6723   20.2993 C   0  0  0  0  0  0
  -28.4754  -25.7005   21.2431 C   0  0  0  0  0  0
  -30.2878  -17.0675   20.7986 C   0  0  0  0  0  0
  -28.5970  -24.3416   21.4274 C   0  0  0  0  0  0
  -28.5135  -23.2588   20.4035 C   0  0  0  0  0  0
  -28.8755  -22.0148   20.8723 N   0  0  0  0  0  0
  -29.8828  -15.7683   20.6203 N   0  0  0  0  0  0
  -31.3463  -17.3598   21.3662 O   0  0  0  0  0  0
  -28.1628  -23.4505   19.2382 O   0  0  0  0  0  0
  -28.7631  -23.9560   22.7034 O   0  0  0  0  0  0
  -31.4733  -12.5165   19.1519 H   0  0  0  0  0  0
  -30.3539  -11.4225   19.9213 H   0  0  0  0  0  0
  -29.7723  -11.7399   17.4872 H   0  0  0  0  0  0
  -29.6432  -13.4658   17.7322 H   0  0  0  0  0  0
  -27.8803  -11.2888   18.8944 H   0  0  0  0  0  0
  -27.3687  -12.5437   17.7990 H   0  0  0  0  0  0
  -27.6411  -14.2525   19.4840 H   0  0  0  0  0  0
  -28.7160  -12.1504   21.4386 H   0  0  0  0  0  0
  -28.4454  -13.8328   21.7924 H   0  0  0  0  0  0
  -25.2798   -9.5680   22.4746 H   0  0  0  0  0  0
  -24.0010   -7.4645   22.7470 H   0  0  0  0  0  0
  -21.0827   -8.8839   19.8976 H   0  0  0  0  0  0
  -22.3736  -10.9699   19.6213 H   0  0  0  0  0  0
  -21.2102   -7.6158   23.9702 H   0  0  0  0  0  0
  -21.1431   -6.0519   25.9045 H   0  0  0  0  0  0
  -22.0631   -2.7607   23.2841 H   0  0  0  0  0  0
  -22.4189  -11.9829   22.4672 H   0  0  0  0  0  0
  -21.1208  -13.1247   22.2654 H   0  0  0  0  0  0
  -24.6466  -15.8357   20.5171 H   0  0  0  0  0  0
  -26.2548  -15.6297   20.0445 H   0  0  0  0  0  0
  -26.7188  -32.5475   23.1164 H   0  0  0  0  0  0
  -25.0095  -33.9732   25.0474 H   0  0  0  0  0  0
  -22.7111  -31.3101   21.4088 H   0  0  0  0  0  0
  -23.3740  -35.9652   23.3320 H   0  0  0  0  0  0
  -24.3584  -36.8898   22.2058 H   0  0  0  0  0  0
  -23.7251  -37.6512   23.6641 H   0  0  0  0  0  0
  -26.0970  -31.5591   20.6116 H   0  0  0  0  0  0
  -26.8352  -30.8423   22.0132 H   0  0  0  0  0  0
  -28.1044  -28.9882   21.2233 H   0  0  0  0  0  0
  -26.0292  -25.9477   18.9867 H   0  0  0  0  0  0
  -23.9805  -27.3292   18.9780 H   0  0  0  0  0  0
  -23.7443  -30.6047   19.4048 H   0  0  0  0  0  0
  -22.7525  -29.2529   19.8610 H   0  0  0  0  0  0
  -25.1288  -36.1955   25.0832 H   0  0  0  0  0  0
  -21.0004  -28.3251   24.1410 H   0  0  0  0  0  0
  -20.5683  -26.2297   23.3607 H   0  0  0  0  0  0
  -21.6638  -26.7426   22.1197 H   0  0  0  0  0  0
  -19.6885  -25.6294   21.1238 H   0  0  0  0  0  0
  -19.6662  -27.3205   20.6757 H   0  0  0  0  0  0
  -17.4197  -26.6707   21.4030 H   0  0  0  0  0  0
  -18.0298  -26.0058   22.9019 H   0  0  0  0  0  0
  -19.7935  -30.7270   24.2282 H   0  0  0  0  0  0
  -17.5005  -31.6264   24.5168 H   0  0  0  0  0  0
  -15.5347  -30.2976   23.7631 H   0  0  0  0  0  0
  -15.8692  -28.0806   22.7065 H   0  0  0  0  0  0
  -24.5881  -30.7080   25.7820 H   0  0  0  0  0  0
  -24.8874  -32.2898   26.4905 H   0  0  0  0  0  0
  -25.8010  -30.8928   27.0271 H   0  0  0  0  0  0
  -26.2922  -29.6788   24.1221 H   0  0  0  0  0  0
  -27.4040  -29.7298   25.4704 H   0  0  0  0  0  0
  -27.8776  -30.4355   23.9437 H   0  0  0  0  0  0
  -27.2649  -33.3660   26.2074 H   0  0  0  0  0  0
  -28.3833  -32.6896   25.0320 H   0  0  0  0  0  0
  -28.0721  -31.8492   26.5436 H   0  0  0  0  0  0
  -28.2612  -38.0105   24.7507 H   0  0  0  0  0  0
  -28.1067  -36.2633   24.6296 H   0  0  0  0  0  0
  -27.2309  -37.1475   25.8877 H   0  0  0  0  0  0
  -20.9382  -29.8770   21.6889 H   0  0  0  0  0  0
  -26.0183  -38.2869   24.1362 H   0  0  0  0  0  0
  -27.0970  -18.9072   17.8609 H   0  0  0  0  0  0
  -28.4372  -17.0501   18.7548 H   0  0  0  0  0  0
  -27.2406  -21.1639   18.8052 H   0  0  0  0  0  0
  -30.1954  -19.7479   21.6375 H   0  0  0  0  0  0
  -28.5252  -26.3558   22.1031 H   0  0  0  0  0  0
  -29.3254  -22.0464   21.7739 H   0  0  0  0  0  0
  -28.9006  -15.6341   20.4601 H   0  0  0  0  0  0
  -28.4398  -23.0682   22.7755 H   0  0  0  0  0  0
  1 25  1  0  0  0
  1 30  2  0  0  0
  1 82  1  0  0  0
  2  3  1  0  0  0
  2 25  1  0  0  0
  2 86  1  0  0  0
  2 87  1  0  0  0
  3  4  1  0  0  0
  3 88  1  0  0  0
  3 89  1  0  0  0
  4  5  1  0  0  0
  4 90  1  0  0  0
  4 91  1  0  0  0
  5  6  1  0  0  0
  5 26  1  0  0  0
  5 92  1  0  0  0
  6 25  1  0  0  0
  6 93  1  0  0  0
  6 94  1  0  0  0
  7  8  2  0  0  0
  7 26  1  0  0  0
  7 29  1  0  0  0
  8  9  1  0  0  0
  8 22  1  0  0  0
  9 10  1  0  0  0
  9 27  2  0  0  0
 10 11  2  0  0  0
 10 15  1  0  0  0
 11 12  1  0  0  0
 11 95  1  0  0  0
 12 13  2  0  0  0
 12 96  1  0  0  0
 13 14  1  0  0  0
 13 31  1  0  0  0
 14 15  2  0  0  0
 14 97  1  0  0  0
 15 98  1  0  0  0
 16 17  2  0  0  0
 16 21  1  0  0  0
 16 31  1  0  0  0
 17 18  1  0  0  0
 17 99  1  0  0  0
 18 19  2  0  0  0
 18100  1  0  0  0
 19 20  1  0  0  0
 19 24  1  0  0  0
 20 21  2  0  0  0
 20101  1  0  0  0
 21 23  1  0  0  0
 22 28  1  0  0  0
 22 32  2  0  0  0
 26 27  1  0  0  0
 28102  1  0  0  0
 28103  1  0  0  0
 29104  1  0  0  0
 29105  1  0  0  0
 33 34  1  0  0  0
 33 66  1  0  0  0
 33 70  2  0  0  0
 34 36  1  0  0  0
 34 59  1  0  0  0
 34106  1  0  0  0
 35 44  2  0  0  0
 35 45  1  0  0  0
 35 68  1  0  0  0
 36 56  1  0  0  0
 36107  1  0  0  0
 37 39  1  0  0  0
 37 47  1  0  0  0
 37 66  1  0  0  0
 37108  1  0  0  0
 38 43  2  0  0  0
 38 46  1  0  0  0
 38 47  1  0  0  0
 39 64  1  0  0  0
 39 67  2  0  0  0
 40 52  1  0  0  0
 40 53  2  0  0  0
 40 58  1  0  0  0
 41109  1  0  0  0
 41110  1  0  0  0
 41111  1  0  0  0
 41 48  1  0  0  0
 42 43  1  0  0  0
 42 66  1  0  0  0
 42112  1  0  0  0
 42113  1  0  0  0
 43 44  1  0  0  0
 44114  1  0  0  0
 45 46  2  0  0  0
 45115  1  0  0  0
 46116  1  0  0  0
 47117  1  0  0  0
 47118  1  0  0  0
 48 56  1  0  0  0
 48 65  1  0  0  0
 48119  1  0  0  0
 49 50  1  0  0  0
 49 53  1  0  0  0
 49 64  1  0  0  0
 49120  1  0  0  0
 50 51  1  0  0  0
 50121  1  0  0  0
 50122  1  0  0  0
 51 52  1  0  0  0
 51123  1  0  0  0
 51124  1  0  0  0
 52125  1  0  0  0
 52126  1  0  0  0
 53 54  1  0  0  0
 54 55  2  0  0  0
 54127  1  0  0  0
 55 57  1  0  0  0
 55128  1  0  0  0
 56 69  2  0  0  0
 57 58  2  0  0  0
 57129  1  0  0  0
 58130  1  0  0  0
 59 60  1  0  0  0
 59 61  1  0  0  0
 59 62  1  0  0  0
 60131  1  0  0  0
 60132  1  0  0  0
 60133  1  0  0  0
 61134  1  0  0  0
 61135  1  0  0  0
 61136  1  0  0  0
 62137  1  0  0  0
 62138  1  0  0  0
 62139  1  0  0  0
 63 65  1  0  0  0
 63140  1  0  0  0
 63141  1  0  0  0
 63142  1  0  0  0
 64143  1  0  0  0
 65144  1  0  0  0
 68 77  1  0  0  0
 71 72  2  0  0  0
 71 73  1  0  0  0
 71145  1  0  0  0
 72 75  1  0  0  0
 72146  1  0  0  0
 73 76  2  0  0  0
 73147  1  0  0  0
 74 75  2  0  0  0
 74 76  1  0  0  0
 74148  1  0  0  0
 75 78  1  0  0  0
 76 81  1  0  0  0
 77 79  2  0  0  0
 77149  1  0  0  0
 78 82  1  0  0  0
 78 83  2  0  0  0
 79 80  1  0  0  0
 79 85  1  0  0  0
 80 81  1  0  0  0
 80 84  2  0  0  0
 81150  1  0  0  0
 82151  1  0  0  0
 85152  1  0  0  0
M  ISO  4   1 100  68 101  77 101  82 100
M  END
> <chiral flag>
0

> <version>
0

> <s_m_source_file>
/data/baiqing/PycharmProjects/Reinvent-master-3.2/result/LINK_invent/BTK/process_docking_weight1_custom_product_contain_oxygen_bond_distance_aromatic_linkinvent_7_9_3/rearranged_h_0088.sdf

> <i_m_source_file_index>
78

> <r_mmod_Potential_Energy-OPLS-2005>
-47.5853843688965

> <r_mmod_Stretch_Energy-OPLS-2005>
68.556037902832

> <r_mmod_Bend_Energy-OPLS-2005>
136.766998291016

> <r_mmod_Torsional_Energy-OPLS-2005>
263.045623779297

> <r_mmod_Improper_Torsional_Energy-OPLS-2005>
7.65967035293579

> <r_mmod_Van_der_Waal_Energy-OPLS-2005>
146.851745605469

> <r_mmod_Electrostatic_Energy-OPLS-2005>
-466.14404296875

> <r_mmod_Solvation_Energy-OPLS-2005>
-256.117279052734

> <b_mmod_Minimization_Converged-OPLS-2005>
0

> <r_mmod_RMS_Derivative-OPLS-2005>
4.63127756118774

$$$$
78
                    3D
 Structure written by MMmdl.
154163  0  0  1  0            999 V2000
  -30.5986  -14.8268   20.4277 C   0  0  0  0  0  0
  -30.4313  -12.5018   19.4958 C   0  0  0  0  0  0
  -29.5173  -12.5133   18.2499 C   0  0  0  0  0  0
  -28.0438  -12.3306   18.6601 C   0  0  0  0  0  0
  -27.6369  -13.2445   19.8468 C   0  0  2  0  0  0
  -28.6797  -13.2234   20.9859 C   0  0  0  0  0  0
  -25.2475  -13.8226   20.5705 C   0  0  0  0  0  0
  -24.1781  -13.0448   20.9205 C   0  0  0  0  0  0
  -24.6397  -11.6932   20.8749 C   0  0  0  0  0  0
  -23.9084  -10.4297   21.0409 C   0  0  0  0  0  0
  -24.3631   -9.4208   21.9186 C   0  0  0  0  0  0
  -23.6297   -8.2244   22.0758 C   0  0  0  0  0  0
  -22.4274   -8.0285   21.3552 C   0  0  0  0  0  0
  -21.9918   -9.0262   20.4657 C   0  0  0  0  0  0
  -22.7255  -10.2135   20.3063 C   0  0  0  0  0  0
  -21.6851   -6.0740   22.5279 C   0  0  0  0  0  0
  -21.4019   -6.5643   23.8213 C   0  0  0  0  0  0
  -21.3661   -5.6795   24.9175 C   0  0  0  0  0  0
  -21.6040   -4.3056   24.7224 C   0  0  0  0  0  0
  -21.8818   -3.8151   23.4343 C   0  0  0  0  0  0
  -21.9189   -4.6969   22.3400 C   0  0  0  0  0  0
  -22.7799  -13.5217   21.1861 C   0  0  0  0  0  0
  -22.1658   -4.2158   21.0977 F   0  0  0  0  0  0
  -21.5625   -3.4540   25.7738 F   0  0  0  0  0  0
  -29.9733  -13.5906   20.3988 N   0  0  0  0  0  0
  -26.2916  -12.9459   20.3271 N   0  0  0  0  0  0
  -25.9332  -11.6588   20.5754 N   0  0  0  0  0  0
  -22.0451  -12.8214   22.0429 N   0  0  0  0  0  0
  -25.4145  -15.1957   20.4151 N   0  0  0  0  0  0
  -31.7979  -14.8698   20.1391 O   0  0  0  0  0  0
  -21.6640   -6.8882   21.4241 O   0  0  0  0  0  0
  -22.3472  -14.5512   20.6699 O   0  0  0  0  0  0
  -24.6359  -31.8505   23.1951 C   0  0  0  0  0  0
  -25.9164  -32.4734   23.8315 C   0  0  1  0  0  0
  -27.2186  -27.2157   20.1406 C   0  0  0  0  0  0
  -25.5937  -33.8538   24.2233 N   0  0  0  0  0  0
  -23.4372  -30.4718   21.5381 C   0  0  2  0  0  0
  -24.8896  -28.9138   20.1083 C   0  0  0  0  0  0
  -22.7537  -29.4573   22.4882 C   0  0  0  0  0  0
  -18.0298  -28.1385   22.8476 C   0  0  0  0  0  0
  -24.1486  -36.7268   23.2637 C   0  0  0  0  0  0
  -25.9880  -30.7491   21.3841 C   0  0  0  0  0  0
  -26.0638  -29.3676   20.7256 C   0  0  0  0  0  0
  -27.2348  -28.5313   20.7318 C   0  0  0  0  0  0
  -26.0263  -26.8464   19.4848 C   0  0  0  0  0  0
  -24.8787  -27.6629   19.4736 C   0  0  0  0  0  0
  -23.6609  -29.8047   20.1555 C   0  0  0  0  0  0
  -25.4113  -36.3054   24.0322 C   0  0  1  0  0  0
  -20.5908  -28.3704   23.1248 C   0  0  2  0  0  0
  -20.6783  -26.9414   22.5406 C   0  0  0  0  0  0
  -19.5758  -26.6379   21.5207 C   0  0  0  0  0  0
  -18.1939  -26.7923   22.1621 C   0  0  0  0  0  0
  -19.1555  -28.8863   23.2855 C   0  0  0  0  0  0
  -18.9472  -30.1459   23.8883 C   0  0  0  0  0  0
  -17.6469  -30.6584   24.0559 C   0  0  0  0  0  0
  -25.9061  -34.9428   23.5084 C   0  0  0  0  0  0
  -16.5360  -29.9078   23.6333 C   0  0  0  0  0  0
  -16.7283  -28.6496   23.0354 C   0  0  0  0  0  0
  -26.4512  -31.6576   25.0724 C   0  0  0  0  0  0
  -25.3715  -31.3747   26.1431 C   0  0  0  0  0  0
  -27.0366  -30.2980   24.6257 C   0  0  0  0  0  0
  -27.6054  -32.4327   25.7506 C   0  0  0  0  0  0
  -27.5584  -37.1773   24.8451 C   0  0  0  0  0  0
  -21.4237  -29.3041   22.3629 N   0  0  0  0  0  0
  -26.4275  -37.3767   23.9425 N   0  0  0  0  0  0
  -24.7063  -31.0428   22.0950 N   0  0  0  0  0  0
  -23.4213  -28.8113   23.3002 O   0  0  0  0  0  0
  -28.2343  -26.2186   20.2021 O   0  0  0  0  0  0
  -26.5642  -34.8912   22.4659 O   0  0  0  0  0  0
  -23.5496  -32.1345   23.7211 O   0  0  0  0  0  0
  -31.3232  -18.9689   18.6966 C   0  0  0  0  0  0
  -30.6256  -20.0957   19.1702 C   0  0  0  0  0  0
  -31.0775  -17.6755   19.1878 C   0  0  0  0  0  0
  -29.6239  -20.0190   20.1700 C   0  0  0  0  0  0
  -30.1132  -17.4333   20.1894 C   0  0  0  0  0  0
  -29.3955  -18.6312   20.6642 C   0  0  0  0  0  0
  -28.1952  -23.6250   20.8897 C   0  0  0  0  0  0
  -27.5303  -22.7669   21.8612 C   0  0  0  0  0  0
  -29.0689  -22.6684   20.1258 C   0  0  0  0  0  0
  -27.8840  -25.0063   20.8922 C   0  0  0  0  0  0
  -27.9737  -21.3237   21.6907 C   0  0  0  0  0  0
  -28.9456  -21.3291   20.5935 N   0  0  0  0  0  0
  -28.4504  -18.3739   21.6545 N   0  0  0  0  0  0
  -29.8525  -16.0050   20.6139 N   0  0  0  0  0  0
  -26.7138  -23.1071   22.7254 O   0  0  0  0  0  0
  -29.8009  -23.0209   19.1953 O   0  0  0  0  0  0
  -31.4727  -12.6224   19.1944 H   0  0  0  0  0  0
  -30.3814  -11.5373   20.0043 H   0  0  0  0  0  0
  -29.8131  -11.7255   17.5561 H   0  0  0  0  0  0
  -29.6381  -13.4565   17.7138 H   0  0  0  0  0  0
  -27.9104  -11.2845   18.9387 H   0  0  0  0  0  0
  -27.3876  -12.5044   17.8062 H   0  0  0  0  0  0
  -27.6185  -14.2585   19.4454 H   0  0  0  0  0  0
  -28.7307  -12.2382   21.4521 H   0  0  0  0  0  0
  -28.4020  -13.9232   21.7752 H   0  0  0  0  0  0
  -25.2777   -9.5680   22.4761 H   0  0  0  0  0  0
  -24.0008   -7.4635   22.7477 H   0  0  0  0  0  0
  -21.0847   -8.8782   19.8965 H   0  0  0  0  0  0
  -22.3714  -10.9671   19.6172 H   0  0  0  0  0  0
  -21.2021   -7.6153   23.9719 H   0  0  0  0  0  0
  -21.1482   -6.0526   25.9075 H   0  0  0  0  0  0
  -22.0597   -2.7614   23.2838 H   0  0  0  0  0  0
  -22.4069  -11.9885   22.4833 H   0  0  0  0  0  0
  -21.1070  -13.1239   22.2638 H   0  0  0  0  0  0
  -24.6506  -15.8505   20.5431 H   0  0  0  0  0  0
  -26.2693  -15.6454   20.1129 H   0  0  0  0  0  0
  -26.7230  -32.5373   23.1055 H   0  0  0  0  0  0
  -25.0070  -33.9664   25.0369 H   0  0  0  0  0  0
  -22.7357  -31.2953   21.3884 H   0  0  0  0  0  0
  -23.3766  -35.9578   23.3256 H   0  0  0  0  0  0
  -24.3587  -36.8942   22.2062 H   0  0  0  0  0  0
  -23.7215  -37.6444   23.6693 H   0  0  0  0  0  0
  -26.1343  -31.5081   20.6143 H   0  0  0  0  0  0
  -26.8622  -30.7992   22.0221 H   0  0  0  0  0  0
  -28.1285  -28.8661   21.2393 H   0  0  0  0  0  0
  -25.9678  -25.8774   19.0094 H   0  0  0  0  0  0
  -23.9811  -27.3109   18.9840 H   0  0  0  0  0  0
  -23.7894  -30.5802   19.3999 H   0  0  0  0  0  0
  -22.7790  -29.2398   19.8487 H   0  0  0  0  0  0
  -25.1291  -36.1885   25.0810 H   0  0  0  0  0  0
  -20.9998  -28.3289   24.1367 H   0  0  0  0  0  0
  -20.5670  -26.2317   23.3617 H   0  0  0  0  0  0
  -21.6651  -26.7418   22.1208 H   0  0  0  0  0  0
  -19.6919  -25.6285   21.1245 H   0  0  0  0  0  0
  -19.6695  -27.3183   20.6730 H   0  0  0  0  0  0
  -17.4206  -26.6662   21.4028 H   0  0  0  0  0  0
  -18.0343  -26.0070   22.9022 H   0  0  0  0  0  0
  -19.7950  -30.7276   24.2251 H   0  0  0  0  0  0
  -17.5024  -31.6262   24.5162 H   0  0  0  0  0  0
  -15.5359  -30.2975   23.7662 H   0  0  0  0  0  0
  -15.8683  -28.0806   22.7081 H   0  0  0  0  0  0
  -24.5891  -30.7096   25.7757 H   0  0  0  0  0  0
  -24.8904  -32.2923   26.4827 H   0  0  0  0  0  0
  -25.8011  -30.8943   27.0230 H   0  0  0  0  0  0
  -26.2966  -29.6719   24.1256 H   0  0  0  0  0  0
  -27.3994  -29.7260   25.4809 H   0  0  0  0  0  0
  -27.8870  -30.4236   23.9550 H   0  0  0  0  0  0
  -27.2651  -33.3633   26.2063 H   0  0  0  0  0  0
  -28.3877  -32.6881   25.0345 H   0  0  0  0  0  0
  -28.0706  -31.8466   26.5444 H   0  0  0  0  0  0
  -28.2546  -38.0125   24.7581 H   0  0  0  0  0  0
  -28.1136  -36.2664   24.6162 H   0  0  0  0  0  0
  -27.2317  -37.1283   25.8853 H   0  0  0  0  0  0
  -20.9434  -29.8761   21.6823 H   0  0  0  0  0  0
  -26.0144  -38.2822   24.1487 H   0  0  0  0  0  0
  -32.0675  -19.1007   17.9229 H   0  0  0  0  0  0
  -30.9062  -21.0331   18.7215 H   0  0  0  0  0  0
  -31.6425  -16.8680   18.7489 H   0  0  0  0  0  0
  -27.1636  -25.2990   21.6456 H   0  0  0  0  0  0
  -27.1087  -20.7069   21.4473 H   0  0  0  0  0  0
  -28.4296  -20.9746   22.6168 H   0  0  0  0  0  0
  -28.1535  -19.1549   22.2246 H   0  0  0  0  0  0
  -28.6048  -17.5442   22.2152 H   0  0  0  0  0  0
  -28.9218  -15.8508   20.9691 H   0  0  0  0  0  0
  1 25  1  0  0  0
  1 30  2  0  0  0
  1 84  1  0  0  0
  2  3  1  0  0  0
  2 25  1  0  0  0
  2 87  1  0  0  0
  2 88  1  0  0  0
  3  4  1  0  0  0
  3 89  1  0  0  0
  3 90  1  0  0  0
  4  5  1  0  0  0
  4 91  1  0  0  0
  4 92  1  0  0  0
  5  6  1  0  0  0
  5 26  1  0  0  0
  5 93  1  0  0  0
  6 25  1  0  0  0
  6 94  1  0  0  0
  6 95  1  0  0  0
  7  8  2  0  0  0
  7 26  1  0  0  0
  7 29  1  0  0  0
  8  9  1  0  0  0
  8 22  1  0  0  0
  9 10  1  0  0  0
  9 27  2  0  0  0
 10 11  2  0  0  0
 10 15  1  0  0  0
 11 12  1  0  0  0
 11 96  1  0  0  0
 12 13  2  0  0  0
 12 97  1  0  0  0
 13 14  1  0  0  0
 13 31  1  0  0  0
 14 15  2  0  0  0
 14 98  1  0  0  0
 15 99  1  0  0  0
 16 17  2  0  0  0
 16 21  1  0  0  0
 16 31  1  0  0  0
 17 18  1  0  0  0
 17100  1  0  0  0
 18 19  2  0  0  0
 18101  1  0  0  0
 19 20  1  0  0  0
 19 24  1  0  0  0
 20 21  2  0  0  0
 20102  1  0  0  0
 21 23  1  0  0  0
 22 28  1  0  0  0
 22 32  2  0  0  0
 26 27  1  0  0  0
 28103  1  0  0  0
 28104  1  0  0  0
 29105  1  0  0  0
 29106  1  0  0  0
 33 34  1  0  0  0
 33 66  1  0  0  0
 33 70  2  0  0  0
 34 36  1  0  0  0
 34 59  1  0  0  0
 34107  1  0  0  0
 35 44  2  0  0  0
 35 45  1  0  0  0
 35 68  1  0  0  0
 36 56  1  0  0  0
 36108  1  0  0  0
 37 39  1  0  0  0
 37 47  1  0  0  0
 37 66  1  0  0  0
 37109  1  0  0  0
 38 43  2  0  0  0
 38 46  1  0  0  0
 38 47  1  0  0  0
 39 64  1  0  0  0
 39 67  2  0  0  0
 40 52  1  0  0  0
 40 53  2  0  0  0
 40 58  1  0  0  0
 41110  1  0  0  0
 41111  1  0  0  0
 41112  1  0  0  0
 41 48  1  0  0  0
 42 43  1  0  0  0
 42 66  1  0  0  0
 42113  1  0  0  0
 42114  1  0  0  0
 43 44  1  0  0  0
 44115  1  0  0  0
 45 46  2  0  0  0
 45116  1  0  0  0
 46117  1  0  0  0
 47118  1  0  0  0
 47119  1  0  0  0
 48 56  1  0  0  0
 48 65  1  0  0  0
 48120  1  0  0  0
 49 50  1  0  0  0
 49 53  1  0  0  0
 49 64  1  0  0  0
 49121  1  0  0  0
 50 51  1  0  0  0
 50122  1  0  0  0
 50123  1  0  0  0
 51 52  1  0  0  0
 51124  1  0  0  0
 51125  1  0  0  0
 52126  1  0  0  0
 52127  1  0  0  0
 53 54  1  0  0  0
 54 55  2  0  0  0
 54128  1  0  0  0
 55 57  1  0  0  0
 55129  1  0  0  0
 56 69  2  0  0  0
 57 58  2  0  0  0
 57130  1  0  0  0
 58131  1  0  0  0
 59 60  1  0  0  0
 59 61  1  0  0  0
 59 62  1  0  0  0
 60132  1  0  0  0
 60133  1  0  0  0
 60134  1  0  0  0
 61135  1  0  0  0
 61136  1  0  0  0
 61137  1  0  0  0
 62138  1  0  0  0
 62139  1  0  0  0
 62140  1  0  0  0
 63 65  1  0  0  0
 63141  1  0  0  0
 63142  1  0  0  0
 63143  1  0  0  0
 64144  1  0  0  0
 65145  1  0  0  0
 68 80  1  0  0  0
 71 72  2  0  0  0
 71 73  1  0  0  0
 71146  1  0  0  0
 72 74  1  0  0  0
 72147  1  0  0  0
 73 75  2  0  0  0
 73148  1  0  0  0
 74 76  2  0  0  0
 74 82  1  0  0  0
 75 76  1  0  0  0
 75 84  1  0  0  0
 76 83  1  0  0  0
 77 78  1  0  0  0
 77 79  1  0  0  0
 77 80  2  0  0  0
 78 81  1  0  0  0
 78 85  2  0  0  0
 79 82  1  0  0  0
 79 86  2  0  0  0
 80149  1  0  0  0
 81 82  1  0  0  0
 81150  1  0  0  0
 81151  1  0  0  0
 83152  1  0  0  0
 83153  1  0  0  0
 84154  1  0  0  0
M  ISO  4   1 100  68 101  80 101  84 100
M  END
> <chiral flag>
0

> <version>
0

> <s_m_source_file>
/data/baiqing/PycharmProjects/Reinvent-master-3.2/result/LINK_invent/BTK/process_docking_weight1_custom_product_contain_oxygen_bond_distance_aromatic_linkinvent_7_9_3/rearranged_h_0088.sdf

> <i_m_source_file_index>
79

> <r_mmod_Potential_Energy-OPLS-2005>
271.728515625

> <r_mmod_Stretch_Energy-OPLS-2005>
179.620193481445

> <r_mmod_Bend_Energy-OPLS-2005>
279.671691894531

> <r_mmod_Torsional_Energy-OPLS-2005>
261.799133300781

> <r_mmod_Improper_Torsional_Energy-OPLS-2005>
8.0791482925415

> <r_mmod_Van_der_Waal_Energy-OPLS-2005>
147.921325683594

> <r_mmod_Electrostatic_Energy-OPLS-2005>
-493.963836669922

> <r_mmod_Solvation_Energy-OPLS-2005>
-240.781951904297

> <b_mmod_Minimization_Converged-OPLS-2005>
0

> <r_mmod_RMS_Derivative-OPLS-2005>
0.956182777881622

$$$$
79
                    3D
 Structure written by MMmdl.
159168  0  0  1  0            999 V2000
  -30.5524  -14.9450   20.5342 C   0  0  0  0  0  0
  -30.4501  -12.6048   19.5198 C   0  0  0  0  0  0
  -29.5366  -12.5342   18.2698 C   0  0  0  0  0  0
  -28.0611  -12.3199   18.6585 C   0  0  0  0  0  0
  -27.6331  -13.2340   19.8322 C   0  0  2  0  0  0
  -28.6596  -13.1902   20.9732 C   0  0  0  0  0  0
  -25.2482  -13.8154   20.5629 C   0  0  0  0  0  0
  -24.1788  -13.0390   20.9141 C   0  0  0  0  0  0
  -24.6389  -11.6855   20.8648 C   0  0  0  0  0  0
  -23.9060  -10.4238   21.0359 C   0  0  0  0  0  0
  -24.3621   -9.4164   21.9130 C   0  0  0  0  0  0
  -23.6276   -8.2220   22.0747 C   0  0  0  0  0  0
  -22.4258   -8.0256   21.3550 C   0  0  0  0  0  0
  -21.9888   -9.0236   20.4661 C   0  0  0  0  0  0
  -22.7226  -10.2099   20.3038 C   0  0  0  0  0  0
  -21.6841   -6.0732   22.5295 C   0  0  0  0  0  0
  -21.4027   -6.5641   23.8237 C   0  0  0  0  0  0
  -21.3644   -5.6786   24.9188 C   0  0  0  0  0  0
  -21.6023   -4.3050   24.7221 C   0  0  0  0  0  0
  -21.8811   -3.8149   23.4338 C   0  0  0  0  0  0
  -21.9182   -4.6964   22.3398 C   0  0  0  0  0  0
  -22.7797  -13.5195   21.1802 C   0  0  0  0  0  0
  -22.1635   -4.2169   21.0967 F   0  0  0  0  0  0
  -21.5614   -3.4518   25.7720 F   0  0  0  0  0  0
  -29.9501  -13.6758   20.4383 N   0  0  0  0  0  0
  -26.2871  -12.9352   20.3115 N   0  0  0  0  0  0
  -25.9325  -11.6498   20.5641 N   0  0  0  0  0  0
  -22.0474  -12.8251   22.0421 N   0  0  0  0  0  0
  -25.4132  -15.1883   20.4140 N   0  0  0  0  0  0
  -31.6937  -15.0423   20.0657 O   0  0  0  0  0  0
  -21.6601   -6.8874   21.4260 O   0  0  0  0  0  0
  -22.3457  -14.5483   20.6614 O   0  0  0  0  0  0
  -24.6445  -31.8444   23.1873 C   0  0  0  0  0  0
  -25.9217  -32.4702   23.8260 C   0  0  1  0  0  0
  -27.2416  -27.1326   20.1413 C   0  0  0  0  0  0
  -25.5957  -33.8494   24.2164 N   0  0  0  0  0  0
  -23.4516  -30.4600   21.5338 C   0  0  2  0  0  0
  -24.9074  -28.8917   20.1105 C   0  0  0  0  0  0
  -22.7582  -29.4535   22.4867 C   0  0  0  0  0  0
  -18.0285  -28.1428   22.8483 C   0  0  0  0  0  0
  -24.1489  -36.7215   23.2640 C   0  0  0  0  0  0
  -26.0105  -30.7149   21.3932 C   0  0  0  0  0  0
  -26.0834  -29.3258   20.7313 C   0  0  0  0  0  0
  -27.2481  -28.4650   20.7308 C   0  0  0  0  0  0
  -26.0282  -26.8061   19.4869 C   0  0  0  0  0  0
  -24.8921  -27.6422   19.4735 C   0  0  0  0  0  0
  -23.6809  -29.7877   20.1532 C   0  0  0  0  0  0
  -25.4130  -36.3016   24.0312 C   0  0  1  0  0  0
  -20.5908  -28.3735   23.1232 C   0  0  2  0  0  0
  -20.6790  -26.9445   22.5406 C   0  0  0  0  0  0
  -19.5757  -26.6406   21.5223 C   0  0  0  0  0  0
  -18.1928  -26.7972   22.1635 C   0  0  0  0  0  0
  -19.1555  -28.8908   23.2848 C   0  0  0  0  0  0
  -18.9484  -30.1510   23.8879 C   0  0  0  0  0  0
  -17.6486  -30.6633   24.0564 C   0  0  0  0  0  0
  -25.9086  -34.9404   23.5043 C   0  0  0  0  0  0
  -16.5365  -29.9125   23.6360 C   0  0  0  0  0  0
  -16.7275  -28.6539   23.0370 C   0  0  0  0  0  0
  -26.4539  -31.6577   25.0703 C   0  0  0  0  0  0
  -25.3722  -31.3766   26.1387 C   0  0  0  0  0  0
  -27.0415  -30.2964   24.6321 C   0  0  0  0  0  0
  -27.6050  -32.4364   25.7501 C   0  0  0  0  0  0
  -27.5586  -37.1741   24.8454 C   0  0  0  0  0  0
  -21.4282  -29.3036   22.3595 N   0  0  0  0  0  0
  -26.4266  -37.3752   23.9447 N   0  0  0  0  0  0
  -24.7212  -31.0273   22.0924 N   0  0  0  0  0  0
  -23.4196  -28.8099   23.3059 O   0  0  0  0  0  0
  -28.3030  -26.1421   20.2244 O   0  0  0  0  0  0
  -26.5674  -34.8909   22.4620 O   0  0  0  0  0  0
  -23.5550  -32.1322   23.7067 O   0  0  0  0  0  0
  -29.3843  -20.0706   21.3689 C   0  0  0  0  0  0
  -29.6036  -18.6628   21.6770 C   0  0  0  0  0  0
  -29.7099  -19.5543   19.1072 C   0  0  0  0  0  0
  -29.3786  -20.6172   20.0460 C   0  0  0  0  0  0
  -29.8368  -17.5870   20.7253 C   0  0  0  0  0  0
  -29.9175  -18.1402   19.4094 C   0  0  0  0  0  0
  -28.9097  -23.3152   20.3350 C   0  0  0  0  0  0
  -29.7684  -15.1060   23.3935 C   0  0  0  0  0  0
  -29.3285  -15.9065   22.4009 C   0  0  0  0  0  0
  -27.8797  -23.3316   17.6477 C   0  0  0  0  0  0
  -28.3410  -24.6711   18.2129 C   0  0  0  0  0  0
  -28.7542  -22.1692   18.1549 C   0  0  0  0  0  0
  -28.1334  -24.6677   19.7271 C   0  0  2  0  0  0
  -28.9937  -22.0681   19.6201 N   0  0  0  0  0  0
  -29.9002  -16.0832   21.1222 N   0  0  0  0  0  0
  -29.3974  -23.4082   21.4658 O   0  0  0  0  0  0
  -30.1566  -17.2952   18.3780 F   0  0  0  0  0  0
  -31.4821  -12.7759   19.2111 H   0  0  0  0  0  0
  -30.4683  -11.6441   20.0370 H   0  0  0  0  0  0
  -29.8708  -11.7340   17.6061 H   0  0  0  0  0  0
  -29.6285  -13.4607   17.7037 H   0  0  0  0  0  0
  -27.9420  -11.2734   18.9454 H   0  0  0  0  0  0
  -27.4172  -12.4738   17.7911 H   0  0  0  0  0  0
  -27.6185  -14.2514   19.4413 H   0  0  0  0  0  0
  -28.7581  -12.1752   21.3629 H   0  0  0  0  0  0
  -28.2675  -13.7619   21.8046 H   0  0  0  0  0  0
  -25.2788   -9.5634   22.4679 H   0  0  0  0  0  0
  -23.9968   -7.4633   22.7499 H   0  0  0  0  0  0
  -21.0791   -8.8742   19.8999 H   0  0  0  0  0  0
  -22.3659  -10.9614   19.6132 H   0  0  0  0  0  0
  -21.2042   -7.6161   23.9765 H   0  0  0  0  0  0
  -21.1466   -6.0501   25.9103 H   0  0  0  0  0  0
  -22.0604   -2.7623   23.2819 H   0  0  0  0  0  0
  -22.4118  -11.9960   22.4874 H   0  0  0  0  0  0
  -21.1129  -13.1338   22.2676 H   0  0  0  0  0  0
  -24.6438  -15.8359   20.5515 H   0  0  0  0  0  0
  -26.2605  -15.6403   20.0938 H   0  0  0  0  0  0
  -26.7282  -32.5308   23.0985 H   0  0  0  0  0  0
  -25.0112  -33.9629   25.0312 H   0  0  0  0  0  0
  -22.7546  -31.2844   21.3744 H   0  0  0  0  0  0
  -23.3773  -35.9520   23.3302 H   0  0  0  0  0  0
  -24.3565  -36.8846   22.2053 H   0  0  0  0  0  0
  -23.7221  -37.6401   23.6671 H   0  0  0  0  0  0
  -26.1730  -31.4745   20.6273 H   0  0  0  0  0  0
  -26.8766  -30.7561   22.0426 H   0  0  0  0  0  0
  -28.1424  -28.7988   21.2378 H   0  0  0  0  0  0
  -25.9104  -25.8546   18.9940 H   0  0  0  0  0  0
  -23.9949  -27.3048   18.9728 H   0  0  0  0  0  0
  -23.8105  -30.5603   19.3942 H   0  0  0  0  0  0
  -22.8027  -29.2162   19.8464 H   0  0  0  0  0  0
  -25.1310  -36.1823   25.0797 H   0  0  0  0  0  0
  -20.9975  -28.3348   24.1366 H   0  0  0  0  0  0
  -20.5702  -26.2369   23.3628 H   0  0  0  0  0  0
  -21.6655  -26.7477   22.1194 H   0  0  0  0  0  0
  -19.6917  -25.6307   21.1281 H   0  0  0  0  0  0
  -19.6698  -27.3205   20.6743 H   0  0  0  0  0  0
  -17.4199  -26.6697   21.4039 H   0  0  0  0  0  0
  -18.0331  -26.0128   22.9056 H   0  0  0  0  0  0
  -19.7960  -30.7322   24.2239 H   0  0  0  0  0  0
  -17.5042  -31.6311   24.5175 H   0  0  0  0  0  0
  -15.5372  -30.3018   23.7730 H   0  0  0  0  0  0
  -15.8661  -28.0859   22.7105 H   0  0  0  0  0  0
  -24.5917  -30.7102   25.7706 H   0  0  0  0  0  0
  -24.8896  -32.2950   26.4739 H   0  0  0  0  0  0
  -25.8003  -30.8992   27.0216 H   0  0  0  0  0  0
  -26.3056  -29.6697   24.1282 H   0  0  0  0  0  0
  -27.3962  -29.7250   25.4916 H   0  0  0  0  0  0
  -27.8987  -30.4188   23.9702 H   0  0  0  0  0  0
  -27.2598  -33.3642   26.2079 H   0  0  0  0  0  0
  -28.3861  -32.6987   25.0354 H   0  0  0  0  0  0
  -28.0737  -31.8522   26.5440 H   0  0  0  0  0  0
  -28.2517  -38.0121   24.7625 H   0  0  0  0  0  0
  -28.1157  -36.2656   24.6110 H   0  0  0  0  0  0
  -27.2321  -37.1192   25.8850 H   0  0  0  0  0  0
  -20.9512  -29.8682   21.6697 H   0  0  0  0  0  0
  -26.0116  -38.2787   24.1546 H   0  0  0  0  0  0
  -29.1855  -20.7409   22.1953 H   0  0  0  0  0  0
  -29.5720  -18.4260   22.7303 H   0  0  0  0  0  0
  -29.8034  -19.7982   18.0617 H   0  0  0  0  0  0
  -29.2149  -15.0465   24.3198 H   0  0  0  0  0  0
  -30.6584  -14.4987   23.3109 H   0  0  0  0  0  0
  -28.4245  -16.4848   22.5415 H   0  0  0  0  0  0
  -27.9013  -23.3666   16.5589 H   0  0  0  0  0  0
  -26.8379  -23.1519   17.9176 H   0  0  0  0  0  0
  -27.7909  -25.4825   17.7405 H   0  0  0  0  0  0
  -29.3938  -24.8408   17.9813 H   0  0  0  0  0  0
  -29.7271  -22.2169   17.6634 H   0  0  0  0  0  0
  -28.2650  -21.2694   17.7859 H   0  0  0  0  0  0
  -27.1006  -24.4064   19.9488 H   0  0  0  0  0  0
  1 25  1  0  0  0
  1 30  2  0  0  0
  1 85  1  0  0  0
  2  3  1  0  0  0
  2 25  1  0  0  0
  2 88  1  0  0  0
  2 89  1  0  0  0
  3  4  1  0  0  0
  3 90  1  0  0  0
  3 91  1  0  0  0
  4  5  1  0  0  0
  4 92  1  0  0  0
  4 93  1  0  0  0
  5  6  1  0  0  0
  5 26  1  0  0  0
  5 94  1  0  0  0
  6 25  1  0  0  0
  6 95  1  0  0  0
  6 96  1  0  0  0
  7  8  2  0  0  0
  7 26  1  0  0  0
  7 29  1  0  0  0
  8  9  1  0  0  0
  8 22  1  0  0  0
  9 10  1  0  0  0
  9 27  2  0  0  0
 10 11  2  0  0  0
 10 15  1  0  0  0
 11 12  1  0  0  0
 11 97  1  0  0  0
 12 13  2  0  0  0
 12 98  1  0  0  0
 13 14  1  0  0  0
 13 31  1  0  0  0
 14 15  2  0  0  0
 14 99  1  0  0  0
 15100  1  0  0  0
 16 17  2  0  0  0
 16 21  1  0  0  0
 16 31  1  0  0  0
 17 18  1  0  0  0
 17101  1  0  0  0
 18 19  2  0  0  0
 18102  1  0  0  0
 19 20  1  0  0  0
 19 24  1  0  0  0
 20 21  2  0  0  0
 20103  1  0  0  0
 21 23  1  0  0  0
 22 28  1  0  0  0
 22 32  2  0  0  0
 26 27  1  0  0  0
 28104  1  0  0  0
 28105  1  0  0  0
 29106  1  0  0  0
 29107  1  0  0  0
 33 34  1  0  0  0
 33 66  1  0  0  0
 33 70  2  0  0  0
 34 36  1  0  0  0
 34 59  1  0  0  0
 34108  1  0  0  0
 35 44  2  0  0  0
 35 45  1  0  0  0
 35 68  1  0  0  0
 36 56  1  0  0  0
 36109  1  0  0  0
 37 39  1  0  0  0
 37 47  1  0  0  0
 37 66  1  0  0  0
 37110  1  0  0  0
 38 43  2  0  0  0
 38 46  1  0  0  0
 38 47  1  0  0  0
 39 64  1  0  0  0
 39 67  2  0  0  0
 40 52  1  0  0  0
 40 53  2  0  0  0
 40 58  1  0  0  0
 41111  1  0  0  0
 41112  1  0  0  0
 41113  1  0  0  0
 41 48  1  0  0  0
 42 43  1  0  0  0
 42 66  1  0  0  0
 42114  1  0  0  0
 42115  1  0  0  0
 43 44  1  0  0  0
 44116  1  0  0  0
 45 46  2  0  0  0
 45117  1  0  0  0
 46118  1  0  0  0
 47119  1  0  0  0
 47120  1  0  0  0
 48 56  1  0  0  0
 48 65  1  0  0  0
 48121  1  0  0  0
 49 50  1  0  0  0
 49 53  1  0  0  0
 49 64  1  0  0  0
 49122  1  0  0  0
 50 51  1  0  0  0
 50123  1  0  0  0
 50124  1  0  0  0
 51 52  1  0  0  0
 51125  1  0  0  0
 51126  1  0  0  0
 52127  1  0  0  0
 52128  1  0  0  0
 53 54  1  0  0  0
 54 55  2  0  0  0
 54129  1  0  0  0
 55 57  1  0  0  0
 55130  1  0  0  0
 56 69  2  0  0  0
 57 58  2  0  0  0
 57131  1  0  0  0
 58132  1  0  0  0
 59 60  1  0  0  0
 59 61  1  0  0  0
 59 62  1  0  0  0
 60133  1  0  0  0
 60134  1  0  0  0
 60135  1  0  0  0
 61136  1  0  0  0
 61137  1  0  0  0
 61138  1  0  0  0
 62139  1  0  0  0
 62140  1  0  0  0
 62141  1  0  0  0
 63 65  1  0  0  0
 63142  1  0  0  0
 63143  1  0  0  0
 63144  1  0  0  0
 64145  1  0  0  0
 65146  1  0  0  0
 68 83  1  0  0  0
 71 72  2  0  0  0
 71 74  1  0  0  0
 71147  1  0  0  0
 72 75  1  0  0  0
 72148  1  0  0  0
 73 74  2  0  0  0
 73 76  1  0  0  0
 73149  1  0  0  0
 74 84  1  0  0  0
 75 76  2  0  0  0
 75 85  1  0  0  0
 76 87  1  0  0  0
 77 83  1  0  0  0
 77 84  1  0  0  0
 77 86  2  0  0  0
 78 79  2  0  0  0
 78150  1  0  0  0
 78151  1  0  0  0
 79 85  1  0  0  0
 79152  1  0  0  0
 80 81  1  0  0  0
 80 82  1  0  0  0
 80153  1  0  0  0
 80154  1  0  0  0
 81 83  1  0  0  0
 81155  1  0  0  0
 81156  1  0  0  0
 82 84  1  0  0  0
 82157  1  0  0  0
 82158  1  0  0  0
 83159  1  0  0  0
M  ISO  4   1 100  68 101  83 101  85 100
M  END
> <chiral flag>
0

> <version>
0

> <s_m_source_file>
/data/baiqing/PycharmProjects/Reinvent-master-3.2/result/LINK_invent/BTK/process_docking_weight1_custom_product_contain_oxygen_bond_distance_aromatic_linkinvent_7_9_3/rearranged_h_0088.sdf

> <i_m_source_file_index>
80

> <r_mmod_Potential_Energy-OPLS-2005>
805.237976074219

> <r_mmod_Stretch_Energy-OPLS-2005>
284.510437011719

> <r_mmod_Bend_Energy-OPLS-2005>
286.431732177734

> <r_mmod_Torsional_Energy-OPLS-2005>
324.920654296875

> <r_mmod_Improper_Torsional_Energy-OPLS-2005>
2.48900318145752

> <r_mmod_Van_der_Waal_Energy-OPLS-2005>
170.935119628906

> <r_mmod_Electrostatic_Energy-OPLS-2005>
-236.624313354492

> <r_mmod_Solvation_Energy-OPLS-2005>
-214.015747070312

> <b_mmod_Minimization_Converged-OPLS-2005>
0

> <r_mmod_RMS_Derivative-OPLS-2005>
4.47522211074829

$$$$
80
                    3D
 Structure written by MMmdl.
154163  0  0  1  0            999 V2000
  -30.4934  -15.0389   20.4958 C   0  0  0  0  0  0
  -30.4486  -12.6656   19.5132 C   0  0  0  0  0  0
  -29.5317  -12.5694   18.2658 C   0  0  0  0  0  0
  -28.0638  -12.3274   18.6664 C   0  0  0  0  0  0
  -27.6278  -13.2442   19.8342 C   0  0  2  0  0  0
  -28.6592  -13.2314   20.9731 C   0  0  0  0  0  0
  -25.2469  -13.8192   20.5699 C   0  0  0  0  0  0
  -24.1778  -13.0429   20.9208 C   0  0  0  0  0  0
  -24.6383  -11.6909   20.8719 C   0  0  0  0  0  0
  -23.9070  -10.4286   21.0398 C   0  0  0  0  0  0
  -24.3620   -9.4206   21.9178 C   0  0  0  0  0  0
  -23.6293   -8.2242   22.0750 C   0  0  0  0  0  0
  -22.4278   -8.0276   21.3537 C   0  0  0  0  0  0
  -21.9913   -9.0255   20.4645 C   0  0  0  0  0  0
  -22.7244  -10.2131   20.3051 C   0  0  0  0  0  0
  -21.6858   -6.0729   22.5273 C   0  0  0  0  0  0
  -21.4021   -6.5636   23.8203 C   0  0  0  0  0  0
  -21.3660   -5.6792   24.9169 C   0  0  0  0  0  0
  -21.6044   -4.3053   24.7223 C   0  0  0  0  0  0
  -21.8822   -3.8142   23.4347 C   0  0  0  0  0  0
  -21.9195   -4.6956   22.3400 C   0  0  0  0  0  0
  -22.7809  -13.5208   21.1892 C   0  0  0  0  0  0
  -22.1665   -4.2137   21.0976 F   0  0  0  0  0  0
  -21.5628   -3.4539   25.7738 F   0  0  0  0  0  0
  -29.9300  -13.7439   20.4193 N   0  0  0  0  0  0
  -26.2853  -12.9402   20.3153 N   0  0  0  0  0  0
  -25.9296  -11.6541   20.5643 N   0  0  0  0  0  0
  -22.0470  -12.8176   22.0446 N   0  0  0  0  0  0
  -25.4211  -15.1924   20.4227 N   0  0  0  0  0  0
  -31.6470  -15.1356   20.0550 O   0  0  0  0  0  0
  -21.6647   -6.8872   21.4235 O   0  0  0  0  0  0
  -22.3481  -14.5516   20.6759 O   0  0  0  0  0  0
  -24.6500  -31.8383   23.1837 C   0  0  0  0  0  0
  -25.9244  -32.4663   23.8236 C   0  0  1  0  0  0
  -27.2190  -27.0813   20.1546 C   0  0  0  0  0  0
  -25.5966  -33.8474   24.2158 N   0  0  0  0  0  0
  -23.4566  -30.4557   21.5318 C   0  0  2  0  0  0
  -24.9079  -28.8724   20.1110 C   0  0  0  0  0  0
  -22.7602  -29.4516   22.4841 C   0  0  0  0  0  0
  -18.0300  -28.1401   22.8475 C   0  0  0  0  0  0
  -24.1495  -36.7259   23.2642 C   0  0  0  0  0  0
  -26.0163  -30.6947   21.3902 C   0  0  0  0  0  0
  -26.0877  -29.2998   20.7336 C   0  0  0  0  0  0
  -27.2434  -28.4205   20.7367 C   0  0  0  0  0  0
  -26.0166  -26.7760   19.4803 C   0  0  0  0  0  0
  -24.8886  -27.6270   19.4680 C   0  0  0  0  0  0
  -23.6869  -29.7824   20.1523 C   0  0  0  0  0  0
  -25.4126  -36.3031   24.0307 C   0  0  1  0  0  0
  -20.5916  -28.3742   23.1224 C   0  0  2  0  0  0
  -20.6780  -26.9439   22.5408 C   0  0  0  0  0  0
  -19.5754  -26.6394   21.5216 C   0  0  0  0  0  0
  -18.1939  -26.7935   22.1628 C   0  0  0  0  0  0
  -19.1553  -28.8891   23.2839 C   0  0  0  0  0  0
  -18.9463  -30.1473   23.8885 C   0  0  0  0  0  0
  -17.6462  -30.6604   24.0564 C   0  0  0  0  0  0
  -25.9086  -34.9395   23.5052 C   0  0  0  0  0  0
  -16.5360  -29.9094   23.6338 C   0  0  0  0  0  0
  -16.7278  -28.6507   23.0367 C   0  0  0  0  0  0
  -26.4528  -31.6553   25.0709 C   0  0  0  0  0  0
  -25.3697  -31.3769   26.1388 C   0  0  0  0  0  0
  -27.0387  -30.2934   24.6344 C   0  0  0  0  0  0
  -27.6069  -32.4309   25.7506 C   0  0  0  0  0  0
  -27.5568  -37.1790   24.8468 C   0  0  0  0  0  0
  -21.4286  -29.3048   22.3590 N   0  0  0  0  0  0
  -26.4295  -37.3738   23.9395 N   0  0  0  0  0  0
  -24.7278  -31.0179   22.0907 N   0  0  0  0  0  0
  -23.4215  -28.8084   23.3026 O   0  0  0  0  0  0
  -28.2543  -26.0578   20.2106 O   0  0  0  0  0  0
  -26.5683  -34.8896   22.4635 O   0  0  0  0  0  0
  -23.5602  -32.1293   23.7006 O   0  0  0  0  0  0
  -29.4838  -20.1758   21.5719 C   0  0  0  0  0  0
  -29.7537  -18.7518   21.7257 C   0  0  0  0  0  0
  -29.1403  -19.8602   19.3277 C   0  0  0  0  0  0
  -29.1278  -20.8868   20.3698 C   0  0  0  0  0  0
  -29.7079  -17.7318   20.6986 C   0  0  0  0  0  0
  -29.3930  -18.4057   19.4584 C   0  0  0  0  0  0
  -28.6589  -23.4349   19.2620 C   0  0  0  0  0  0
  -28.6776  -23.5060   21.2505 C   0  0  0  0  0  0
  -29.7547  -15.2825   23.3362 C   0  0  0  0  0  0
  -29.2528  -16.0243   22.3281 C   0  0  0  0  0  0
  -27.9189  -24.5003   20.2328 C   0  0  0  0  0  0
  -28.7842  -22.4189   20.2927 N   0  0  0  0  0  0
  -29.2613  -17.6107   18.3199 N   0  0  0  0  0  0
  -29.7889  -16.1913   21.0326 N   0  0  0  0  0  0
  -28.9825  -23.4071   18.0910 O   0  0  0  0  0  0
  -29.0209  -23.5568   22.4149 O   0  0  0  0  0  0
  -31.4741  -12.8597   19.1946 H   0  0  0  0  0  0
  -30.4899  -11.7083   20.0363 H   0  0  0  0  0  0
  -29.8763  -11.7758   17.6024 H   0  0  0  0  0  0
  -29.6025  -13.4968   17.6944 H   0  0  0  0  0  0
  -27.9692  -11.2832   18.9658 H   0  0  0  0  0  0
  -27.4067  -12.4609   17.8077 H   0  0  0  0  0  0
  -27.5999  -14.2569   19.4307 H   0  0  0  0  0  0
  -28.7818  -12.2231   21.3725 H   0  0  0  0  0  0
  -28.2671  -13.8104   21.8003 H   0  0  0  0  0  0
  -25.2763   -9.5681   22.4759 H   0  0  0  0  0  0
  -23.9999   -7.4631   22.7467 H   0  0  0  0  0  0
  -21.0841   -8.8773   19.8953 H   0  0  0  0  0  0
  -22.3696  -10.9672   19.6160 H   0  0  0  0  0  0
  -21.2022   -7.6143   23.9702 H   0  0  0  0  0  0
  -21.1482   -6.0525   25.9067 H   0  0  0  0  0  0
  -22.0606   -2.7604   23.2850 H   0  0  0  0  0  0
  -22.4098  -11.9826   22.4797 H   0  0  0  0  0  0
  -21.1089  -13.1188   22.2682 H   0  0  0  0  0  0
  -24.6684  -15.8569   20.5639 H   0  0  0  0  0  0
  -26.2858  -15.6306   20.1318 H   0  0  0  0  0  0
  -26.7316  -32.5257   23.0967 H   0  0  0  0  0  0
  -25.0040  -33.9585   25.0256 H   0  0  0  0  0  0
  -22.7616  -31.2826   21.3719 H   0  0  0  0  0  0
  -23.3750  -35.9601   23.3325 H   0  0  0  0  0  0
  -24.3578  -36.8885   22.2061 H   0  0  0  0  0  0
  -23.7262  -37.6460   23.6671 H   0  0  0  0  0  0
  -26.1734  -31.4449   20.6140 H   0  0  0  0  0  0
  -26.8858  -30.7519   22.0336 H   0  0  0  0  0  0
  -28.1421  -28.7437   21.2426 H   0  0  0  0  0  0
  -25.9198  -25.8343   18.9598 H   0  0  0  0  0  0
  -23.9930  -27.3009   18.9564 H   0  0  0  0  0  0
  -23.8270  -30.5575   19.3967 H   0  0  0  0  0  0
  -22.7999  -29.2287   19.8394 H   0  0  0  0  0  0
  -25.1317  -36.1867   25.0798 H   0  0  0  0  0  0
  -20.9976  -28.3346   24.1359 H   0  0  0  0  0  0
  -20.5685  -26.2362   23.3638 H   0  0  0  0  0  0
  -21.6641  -26.7446   22.1207 H   0  0  0  0  0  0
  -19.6932  -25.6305   21.1262 H   0  0  0  0  0  0
  -19.6700  -27.3183   20.6734 H   0  0  0  0  0  0
  -17.4208  -26.6676   21.4045 H   0  0  0  0  0  0
  -18.0340  -26.0089   22.9036 H   0  0  0  0  0  0
  -19.7935  -30.7275   24.2279 H   0  0  0  0  0  0
  -17.5017  -31.6282   24.5151 H   0  0  0  0  0  0
  -15.5353  -30.2994   23.7660 H   0  0  0  0  0  0
  -15.8677  -28.0811   22.7103 H   0  0  0  0  0  0
  -24.5894  -30.7092   25.7700 H   0  0  0  0  0  0
  -24.8851  -32.2953   26.4712 H   0  0  0  0  0  0
  -25.7947  -30.9013   27.0238 H   0  0  0  0  0  0
  -26.3005  -29.6651   24.1335 H   0  0  0  0  0  0
  -27.3943  -29.7236   25.4944 H   0  0  0  0  0  0
  -27.8943  -30.4134   23.9698 H   0  0  0  0  0  0
  -27.2675  -33.3639   26.2005 H   0  0  0  0  0  0
  -28.3914  -32.6811   25.0359 H   0  0  0  0  0  0
  -28.0683  -31.8477   26.5490 H   0  0  0  0  0  0
  -28.2594  -38.0073   24.7456 H   0  0  0  0  0  0
  -28.1047  -36.2596   24.6357 H   0  0  0  0  0  0
  -27.2281  -37.1506   25.8871 H   0  0  0  0  0  0
  -20.9511  -29.8765   21.6760 H   0  0  0  0  0  0
  -26.0171  -38.2814   24.1360 H   0  0  0  0  0  0
  -29.5445  -20.7603   22.4789 H   0  0  0  0  0  0
  -29.9830  -18.4423   22.7344 H   0  0  0  0  0  0
  -28.8969  -20.2156   18.3364 H   0  0  0  0  0  0
  -29.2394  -15.2397   24.2858 H   0  0  0  0  0  0
  -30.6682  -14.7115   23.2489 H   0  0  0  0  0  0
  -28.3338  -16.5784   22.4744 H   0  0  0  0  0  0
  -26.8438  -24.3439   20.2789 H   0  0  0  0  0  0
  -28.7576  -17.9904   17.5258 H   0  0  0  0  0  0
  -29.0861  -16.6224   18.4521 H   0  0  0  0  0  0
  1 25  1  0  0  0
  1 30  2  0  0  0
  1 84  1  0  0  0
  2  3  1  0  0  0
  2 25  1  0  0  0
  2 87  1  0  0  0
  2 88  1  0  0  0
  3  4  1  0  0  0
  3 89  1  0  0  0
  3 90  1  0  0  0
  4  5  1  0  0  0
  4 91  1  0  0  0
  4 92  1  0  0  0
  5  6  1  0  0  0
  5 26  1  0  0  0
  5 93  1  0  0  0
  6 25  1  0  0  0
  6 94  1  0  0  0
  6 95  1  0  0  0
  7  8  2  0  0  0
  7 26  1  0  0  0
  7 29  1  0  0  0
  8  9  1  0  0  0
  8 22  1  0  0  0
  9 10  1  0  0  0
  9 27  2  0  0  0
 10 11  2  0  0  0
 10 15  1  0  0  0
 11 12  1  0  0  0
 11 96  1  0  0  0
 12 13  2  0  0  0
 12 97  1  0  0  0
 13 14  1  0  0  0
 13 31  1  0  0  0
 14 15  2  0  0  0
 14 98  1  0  0  0
 15 99  1  0  0  0
 16 17  2  0  0  0
 16 21  1  0  0  0
 16 31  1  0  0  0
 17 18  1  0  0  0
 17100  1  0  0  0
 18 19  2  0  0  0
 18101  1  0  0  0
 19 20  1  0  0  0
 19 24  1  0  0  0
 20 21  2  0  0  0
 20102  1  0  0  0
 21 23  1  0  0  0
 22 28  1  0  0  0
 22 32  2  0  0  0
 26 27  1  0  0  0
 28103  1  0  0  0
 28104  1  0  0  0
 29105  1  0  0  0
 29106  1  0  0  0
 33 34  1  0  0  0
 33 66  1  0  0  0
 33 70  2  0  0  0
 34 36  1  0  0  0
 34 59  1  0  0  0
 34107  1  0  0  0
 35 44  2  0  0  0
 35 45  1  0  0  0
 35 68  1  0  0  0
 36 56  1  0  0  0
 36108  1  0  0  0
 37 39  1  0  0  0
 37 47  1  0  0  0
 37 66  1  0  0  0
 37109  1  0  0  0
 38 43  2  0  0  0
 38 46  1  0  0  0
 38 47  1  0  0  0
 39 64  1  0  0  0
 39 67  2  0  0  0
 40 52  1  0  0  0
 40 53  2  0  0  0
 40 58  1  0  0  0
 41110  1  0  0  0
 41111  1  0  0  0
 41112  1  0  0  0
 41 48  1  0  0  0
 42 43  1  0  0  0
 42 66  1  0  0  0
 42113  1  0  0  0
 42114  1  0  0  0
 43 44  1  0  0  0
 44115  1  0  0  0
 45 46  2  0  0  0
 45116  1  0  0  0
 46117  1  0  0  0
 47118  1  0  0  0
 47119  1  0  0  0
 48 56  1  0  0  0
 48 65  1  0  0  0
 48120  1  0  0  0
 49 50  1  0  0  0
 49 53  1  0  0  0
 49 64  1  0  0  0
 49121  1  0  0  0
 50 51  1  0  0  0
 50122  1  0  0  0
 50123  1  0  0  0
 51 52  1  0  0  0
 51124  1  0  0  0
 51125  1  0  0  0
 52126  1  0  0  0
 52127  1  0  0  0
 53 54  1  0  0  0
 54 55  2  0  0  0
 54128  1  0  0  0
 55 57  1  0  0  0
 55129  1  0  0  0
 56 69  2  0  0  0
 57 58  2  0  0  0
 57130  1  0  0  0
 58131  1  0  0  0
 59 60  1  0  0  0
 59 61  1  0  0  0
 59 62  1  0  0  0
 60132  1  0  0  0
 60133  1  0  0  0
 60134  1  0  0  0
 61135  1  0  0  0
 61136  1  0  0  0
 61137  1  0  0  0
 62138  1  0  0  0
 62139  1  0  0  0
 62140  1  0  0  0
 63 65  1  0  0  0
 63141  1  0  0  0
 63142  1  0  0  0
 63143  1  0  0  0
 64144  1  0  0  0
 65145  1  0  0  0
 68 81  1  0  0  0
 71 72  2  0  0  0
 71 74  1  0  0  0
 71146  1  0  0  0
 72 75  1  0  0  0
 72147  1  0  0  0
 73 74  2  0  0  0
 73 76  1  0  0  0
 73148  1  0  0  0
 74 82  1  0  0  0
 75 76  2  0  0  0
 75 84  1  0  0  0
 76 83  1  0  0  0
 77 81  1  0  0  0
 77 82  1  0  0  0
 77 85  2  0  0  0
 78 81  1  0  0  0
 78 82  1  0  0  0
 78 86  2  0  0  0
 79 80  2  0  0  0
 79149  1  0  0  0
 79150  1  0  0  0
 80 84  1  0  0  0
 80151  1  0  0  0
 81152  1  0  0  0
 83153  1  0  0  0
 83154  1  0  0  0
M  ISO  4   1 100  68 101  81 101  84 100
M  END
> <chiral flag>
0

> <version>
0

> <s_m_source_file>
/data/baiqing/PycharmProjects/Reinvent-master-3.2/result/LINK_invent/BTK/process_docking_weight1_custom_product_contain_oxygen_bond_distance_aromatic_linkinvent_7_9_3/rearranged_h_0088.sdf

> <i_m_source_file_index>
81

> <r_mmod_Potential_Energy-OPLS-2005>
758.70751953125

> <r_mmod_Stretch_Energy-OPLS-2005>
306.725921630859

> <r_mmod_Bend_Energy-OPLS-2005>
327.865600585938

> <r_mmod_Torsional_Energy-OPLS-2005>
303.422058105469

> <r_mmod_Improper_Torsional_Energy-OPLS-2005>
7.15007448196411

> <r_mmod_Van_der_Waal_Energy-OPLS-2005>
146.815994262695

> <r_mmod_Electrostatic_Energy-OPLS-2005>
-341.611358642578

> <r_mmod_Solvation_Energy-OPLS-2005>
-239.807708740234

> <b_mmod_Minimization_Converged-OPLS-2005>
0

> <r_mmod_RMS_Derivative-OPLS-2005>
3.2192394733429

$$$$
81
                    3D
 Structure written by MMmdl.
151160  0  0  1  0            999 V2000
  -30.4797  -15.1460   20.4604 C   0  0  0  0  0  0
  -30.4428  -12.7333   19.5316 C   0  0  0  0  0  0
  -29.5351  -12.5805   18.2851 C   0  0  0  0  0  0
  -28.0787  -12.3123   18.7030 C   0  0  0  0  0  0
  -27.6253  -13.2579   19.8402 C   0  0  2  0  0  0
  -28.6541  -13.3295   20.9847 C   0  0  0  0  0  0
  -25.2448  -13.8199   20.5730 C   0  0  0  0  0  0
  -24.1763  -13.0416   20.9207 C   0  0  0  0  0  0
  -24.6401  -11.6908   20.8744 C   0  0  0  0  0  0
  -23.9086  -10.4280   21.0408 C   0  0  0  0  0  0
  -24.3631   -9.4198   21.9198 C   0  0  0  0  0  0
  -23.6305   -8.2239   22.0755 C   0  0  0  0  0  0
  -22.4286   -8.0286   21.3556 C   0  0  0  0  0  0
  -21.9932   -9.0250   20.4647 C   0  0  0  0  0  0
  -22.7258  -10.2129   20.3053 C   0  0  0  0  0  0
  -21.6851   -6.0737   22.5278 C   0  0  0  0  0  0
  -21.4025   -6.5636   23.8216 C   0  0  0  0  0  0
  -21.3661   -5.6789   24.9177 C   0  0  0  0  0  0
  -21.6045   -4.3053   24.7229 C   0  0  0  0  0  0
  -21.8815   -3.8143   23.4350 C   0  0  0  0  0  0
  -21.9206   -4.6964   22.3406 C   0  0  0  0  0  0
  -22.7789  -13.5203   21.1870 C   0  0  0  0  0  0
  -22.1666   -4.2140   21.0986 F   0  0  0  0  0  0
  -21.5631   -3.4541   25.7745 F   0  0  0  0  0  0
  -29.9112  -13.8437   20.4055 N   0  0  0  0  0  0
  -26.2868  -12.9448   20.3249 N   0  0  0  0  0  0
  -25.9336  -11.6568   20.5718 N   0  0  0  0  0  0
  -22.0459  -12.8177   22.0424 N   0  0  0  0  0  0
  -25.4127  -15.1935   20.4199 N   0  0  0  0  0  0
  -31.6437  -15.1952   20.0399 O   0  0  0  0  0  0
  -21.6648   -6.8887   21.4245 O   0  0  0  0  0  0
  -22.3483  -14.5520   20.6727 O   0  0  0  0  0  0
  -24.6557  -31.8312   23.1754 C   0  0  0  0  0  0
  -25.9256  -32.4633   23.8201 C   0  0  1  0  0  0
  -27.2291  -27.0047   20.1833 C   0  0  0  0  0  0
  -25.5948  -33.8453   24.2101 N   0  0  0  0  0  0
  -23.4668  -30.4414   21.5266 C   0  0  2  0  0  0
  -24.9200  -28.8389   20.1162 C   0  0  0  0  0  0
  -22.7628  -29.4485   22.4858 C   0  0  0  0  0  0
  -18.0328  -28.1415   22.8454 C   0  0  0  0  0  0
  -24.1488  -36.7244   23.2653 C   0  0  0  0  0  0
  -26.0295  -30.6625   21.3919 C   0  0  0  0  0  0
  -26.1011  -29.2588   20.7400 C   0  0  0  0  0  0
  -27.2535  -28.3629   20.7462 C   0  0  0  0  0  0
  -26.0253  -26.7229   19.5009 C   0  0  0  0  0  0
  -24.9017  -27.5876   19.4783 C   0  0  0  0  0  0
  -23.6996  -29.7544   20.1525 C   0  0  0  0  0  0
  -25.4131  -36.3008   24.0302 C   0  0  1  0  0  0
  -20.5932  -28.3760   23.1201 C   0  0  2  0  0  0
  -20.6777  -26.9450   22.5419 C   0  0  0  0  0  0
  -19.5773  -26.6371   21.5232 C   0  0  0  0  0  0
  -18.1971  -26.7919   22.1665 C   0  0  0  0  0  0
  -19.1580  -28.8930   23.2802 C   0  0  0  0  0  0
  -18.9491  -30.1533   23.8805 C   0  0  0  0  0  0
  -17.6479  -30.6610   24.0536 C   0  0  0  0  0  0
  -25.9083  -34.9380   23.5020 C   0  0  0  0  0  0
  -16.5369  -29.9082   23.6361 C   0  0  0  0  0  0
  -16.7304  -28.6515   23.0345 C   0  0  0  0  0  0
  -26.4528  -31.6563   25.0713 C   0  0  0  0  0  0
  -25.3683  -31.3801   26.1391 C   0  0  0  0  0  0
  -27.0407  -30.2938   24.6395 C   0  0  0  0  0  0
  -27.6019  -32.4365   25.7527 C   0  0  0  0  0  0
  -27.5559  -37.1799   24.8485 C   0  0  0  0  0  0
  -21.4311  -29.3062   22.3570 N   0  0  0  0  0  0
  -26.4303  -37.3716   23.9386 N   0  0  0  0  0  0
  -24.7387  -31.0030   22.0861 N   0  0  0  0  0  0
  -23.4198  -28.8059   23.3086 O   0  0  0  0  0  0
  -28.2586  -25.9479   20.2540 O   0  0  0  0  0  0
  -26.5711  -34.8897   22.4634 O   0  0  0  0  0  0
  -23.5640  -32.1250   23.6879 O   0  0  0  0  0  0
  -29.4983  -19.8734   19.1147 C   0  0  0  0  0  0
  -29.7896  -18.4100   19.2509 C   0  0  0  0  0  0
  -29.1538  -20.6476   20.2310 C   0  0  0  0  0  0
  -29.6793  -17.7842   20.4946 C   0  0  0  0  0  0
  -28.1466  -23.1806   19.4394 C   0  0  0  0  0  0
  -29.1840  -23.3680   21.1114 C   0  0  0  0  0  0
  -27.9982  -24.3683   20.5590 C   0  0  0  0  0  0
  -26.7958  -24.2202   21.5047 C   0  0  0  0  0  0
  -29.3894  -16.2211   22.3439 C   0  0  0  0  0  0
  -28.7638  -22.1989   20.3356 N   0  0  0  0  0  0
  -29.7951  -16.3645   20.9336 N   0  0  0  0  0  0
  -27.8540  -23.0722   18.2632 O   0  0  0  0  0  0
  -30.0951  -23.4778   21.9080 O   0  0  0  0  0  0
  -29.2090  -19.3008   21.5061 S   0  0  0  0  0  0
  -31.4673  -12.9239   19.2075 H   0  0  0  0  0  0
  -30.4913  -11.7960   20.0863 H   0  0  0  0  0  0
  -29.8947  -11.7693   17.6501 H   0  0  0  0  0  0
  -29.5825  -13.4887   17.6814 H   0  0  0  0  0  0
  -28.0237  -11.2785   19.0480 H   0  0  0  0  0  0
  -27.4071  -12.3876   17.8467 H   0  0  0  0  0  0
  -27.5776  -14.2523   19.3956 H   0  0  0  0  0  0
  -28.7930  -12.3500   21.4440 H   0  0  0  0  0  0
  -28.2740  -13.9751   21.7724 H   0  0  0  0  0  0
  -25.2782   -9.5670   22.4769 H   0  0  0  0  0  0
  -24.0008   -7.4632   22.7475 H   0  0  0  0  0  0
  -21.0861   -8.8781   19.8945 H   0  0  0  0  0  0
  -22.3740  -10.9672   19.6149 H   0  0  0  0  0  0
  -21.2015   -7.6143   23.9718 H   0  0  0  0  0  0
  -21.1484   -6.0522   25.9084 H   0  0  0  0  0  0
  -22.0597   -2.7600   23.2856 H   0  0  0  0  0  0
  -22.4115  -11.9837   22.4784 H   0  0  0  0  0  0
  -21.1079  -13.1174   22.2660 H   0  0  0  0  0  0
  -24.6416  -15.8428   20.5272 H   0  0  0  0  0  0
  -26.2718  -15.6395   20.1224 H   0  0  0  0  0  0
  -26.7340  -32.5188   23.0938 H   0  0  0  0  0  0
  -25.0024  -33.9552   25.0197 H   0  0  0  0  0  0
  -22.7752  -31.2709   21.3595 H   0  0  0  0  0  0
  -23.3737  -35.9598   23.3359 H   0  0  0  0  0  0
  -24.3529  -36.8853   22.2054 H   0  0  0  0  0  0
  -23.7267  -37.6458   23.6677 H   0  0  0  0  0  0
  -26.1954  -31.4056   20.6099 H   0  0  0  0  0  0
  -26.8958  -30.7219   22.0409 H   0  0  0  0  0  0
  -28.1534  -28.6872   21.2491 H   0  0  0  0  0  0
  -25.9257  -25.7683   19.0027 H   0  0  0  0  0  0
  -24.0025  -27.2607   18.9745 H   0  0  0  0  0  0
  -23.8454  -30.5220   19.3921 H   0  0  0  0  0  0
  -22.8099  -29.2029   19.8434 H   0  0  0  0  0  0
  -25.1326  -36.1843   25.0798 H   0  0  0  0  0  0
  -20.9981  -28.3364   24.1346 H   0  0  0  0  0  0
  -20.5631  -26.2391   23.3673 H   0  0  0  0  0  0
  -21.6656  -26.7421   22.1253 H   0  0  0  0  0  0
  -19.6700  -27.3101   20.6699 H   0  0  0  0  0  0
  -19.6976  -25.6251   21.1355 H   0  0  0  0  0  0
  -17.4211  -26.6589   21.4120 H   0  0  0  0  0  0
  -18.0440  -26.0139   22.9147 H   0  0  0  0  0  0
  -19.7993  -30.7388   24.2062 H   0  0  0  0  0  0
  -17.5053  -31.6297   24.5165 H   0  0  0  0  0  0
  -15.5376  -30.2964   23.7744 H   0  0  0  0  0  0
  -15.8707  -28.0836   22.7067 H   0  0  0  0  0  0
  -24.5885  -30.7111   25.7732 H   0  0  0  0  0  0
  -24.8847  -32.2993   26.4696 H   0  0  0  0  0  0
  -25.7952  -30.9072   27.0246 H   0  0  0  0  0  0
  -26.3051  -29.6651   24.1373 H   0  0  0  0  0  0
  -27.3923  -29.7262   25.5022 H   0  0  0  0  0  0
  -27.8989  -30.4130   23.9788 H   0  0  0  0  0  0
  -27.2577  -33.3712   26.1967 H   0  0  0  0  0  0
  -28.3908  -32.6871   25.0423 H   0  0  0  0  0  0
  -28.0595  -31.8594   26.5569 H   0  0  0  0  0  0
  -28.2641  -38.0025   24.7411 H   0  0  0  0  0  0
  -28.0984  -36.2553   24.6476 H   0  0  0  0  0  0
  -27.2252  -37.1632   25.8883 H   0  0  0  0  0  0
  -20.9593  -29.8714   21.6659 H   0  0  0  0  0  0
  -26.0174  -38.2810   24.1304 H   0  0  0  0  0  0
  -29.5599  -20.3153   18.1310 H   0  0  0  0  0  0
  -30.0510  -17.8520   18.3633 H   0  0  0  0  0  0
  -26.9399  -24.8266   22.3994 H   0  0  0  0  0  0
  -26.6410  -23.1926   21.8372 H   0  0  0  0  0  0
  -25.8643  -24.5426   21.0462 H   0  0  0  0  0  0
  -28.3024  -16.2036   22.4313 H   0  0  0  0  0  0
  -29.7551  -17.0467   22.9545 H   0  0  0  0  0  0
  -29.7796  -15.3250   22.8308 H   0  0  0  0  0  0
  1 25  1  0  0  0
  1 30  2  0  0  0
  1 81  1  0  0  0
  2  3  1  0  0  0
  2 25  1  0  0  0
  2 85  1  0  0  0
  2 86  1  0  0  0
  3  4  1  0  0  0
  3 87  1  0  0  0
  3 88  1  0  0  0
  4  5  1  0  0  0
  4 89  1  0  0  0
  4 90  1  0  0  0
  5  6  1  0  0  0
  5 26  1  0  0  0
  5 91  1  0  0  0
  6 25  1  0  0  0
  6 92  1  0  0  0
  6 93  1  0  0  0
  7  8  2  0  0  0
  7 26  1  0  0  0
  7 29  1  0  0  0
  8  9  1  0  0  0
  8 22  1  0  0  0
  9 10  1  0  0  0
  9 27  2  0  0  0
 10 11  2  0  0  0
 10 15  1  0  0  0
 11 12  1  0  0  0
 11 94  1  0  0  0
 12 13  2  0  0  0
 12 95  1  0  0  0
 13 14  1  0  0  0
 13 31  1  0  0  0
 14 15  2  0  0  0
 14 96  1  0  0  0
 15 97  1  0  0  0
 16 17  2  0  0  0
 16 21  1  0  0  0
 16 31  1  0  0  0
 17 18  1  0  0  0
 17 98  1  0  0  0
 18 19  2  0  0  0
 18 99  1  0  0  0
 19 20  1  0  0  0
 19 24  1  0  0  0
 20 21  2  0  0  0
 20100  1  0  0  0
 21 23  1  0  0  0
 22 28  1  0  0  0
 22 32  2  0  0  0
 26 27  1  0  0  0
 28101  1  0  0  0
 28102  1  0  0  0
 29103  1  0  0  0
 29104  1  0  0  0
 33 34  1  0  0  0
 33 66  1  0  0  0
 33 70  2  0  0  0
 34 36  1  0  0  0
 34 59  1  0  0  0
 34105  1  0  0  0
 35 44  2  0  0  0
 35 45  1  0  0  0
 35 68  1  0  0  0
 36 56  1  0  0  0
 36106  1  0  0  0
 37 39  1  0  0  0
 37 47  1  0  0  0
 37 66  1  0  0  0
 37107  1  0  0  0
 38 43  2  0  0  0
 38 46  1  0  0  0
 38 47  1  0  0  0
 39 64  1  0  0  0
 39 67  2  0  0  0
 40 52  1  0  0  0
 40 53  2  0  0  0
 40 58  1  0  0  0
 41108  1  0  0  0
 41109  1  0  0  0
 41110  1  0  0  0
 41 48  1  0  0  0
 42 43  1  0  0  0
 42 66  1  0  0  0
 42111  1  0  0  0
 42112  1  0  0  0
 43 44  1  0  0  0
 44113  1  0  0  0
 45 46  2  0  0  0
 45114  1  0  0  0
 46115  1  0  0  0
 47116  1  0  0  0
 47117  1  0  0  0
 48 56  1  0  0  0
 48 65  1  0  0  0
 48118  1  0  0  0
 49 50  1  0  0  0
 49 53  1  0  0  0
 49 64  1  0  0  0
 49119  1  0  0  0
 50 51  1  0  0  0
 50120  1  0  0  0
 50121  1  0  0  0
 51 52  1  0  0  0
 51122  1  0  0  0
 51123  1  0  0  0
 52124  1  0  0  0
 52125  1  0  0  0
 53 54  1  0  0  0
 54 55  2  0  0  0
 54126  1  0  0  0
 55 57  1  0  0  0
 55127  1  0  0  0
 56 69  2  0  0  0
 57 58  2  0  0  0
 57128  1  0  0  0
 58129  1  0  0  0
 59 60  1  0  0  0
 59 61  1  0  0  0
 59 62  1  0  0  0
 60130  1  0  0  0
 60131  1  0  0  0
 60132  1  0  0  0
 61133  1  0  0  0
 61134  1  0  0  0
 61135  1  0  0  0
 62136  1  0  0  0
 62137  1  0  0  0
 62138  1  0  0  0
 63 65  1  0  0  0
 63139  1  0  0  0
 63140  1  0  0  0
 63141  1  0  0  0
 64142  1  0  0  0
 65143  1  0  0  0
 68 77  1  0  0  0
 71 72  1  0  0  0
 71 73  2  0  0  0
 71144  1  0  0  0
 72 74  2  0  0  0
 72145  1  0  0  0
 73 80  1  0  0  0
 73 84  1  0  0  0
 74 81  1  0  0  0
 74 84  1  0  0  0
 75 77  1  0  0  0
 75 80  1  0  0  0
 75 82  2  0  0  0
 76 77  1  0  0  0
 76 80  1  0  0  0
 76 83  2  0  0  0
 77 78  1  0  0  0
 78146  1  0  0  0
 78147  1  0  0  0
 78148  1  0  0  0
 79 81  1  0  0  0
 79149  1  0  0  0
 79150  1  0  0  0
 79151  1  0  0  0
M  ISO  4   1 100  68 101  77 101  81 100
M  END
> <chiral flag>
0

> <version>
0

> <s_m_source_file>
/data/baiqing/PycharmProjects/Reinvent-master-3.2/result/LINK_invent/BTK/process_docking_weight1_custom_product_contain_oxygen_bond_distance_aromatic_linkinvent_7_9_3/rearranged_h_0088.sdf

> <i_m_source_file_index>
82

> <r_mmod_Potential_Energy-OPLS-2005>
991.17529296875

> <r_mmod_Stretch_Energy-OPLS-2005>
393.064544677734

> <r_mmod_Bend_Energy-OPLS-2005>
389.051116943359

> <r_mmod_Torsional_Energy-OPLS-2005>
282.244934082031

> <r_mmod_Improper_Torsional_Energy-OPLS-2005>
3.17769432067871

> <r_mmod_Van_der_Waal_Energy-OPLS-2005>
112.078247070312

> <r_mmod_Electrostatic_Energy-OPLS-2005>
-307.655975341797

> <r_mmod_Solvation_Energy-OPLS-2005>
-218.153121948242

> <b_mmod_Minimization_Converged-OPLS-2005>
0

> <r_mmod_RMS_Derivative-OPLS-2005>
3.30622887611389

$$$$
82
                    3D
 Structure written by MMmdl.
152161  0  0  1  0            999 V2000
  -30.5068  -15.0861   20.3829 C   0  0  0  0  0  0
  -30.4404  -12.6801   19.5222 C   0  0  0  0  0  0
  -29.5388  -12.5463   18.2730 C   0  0  0  0  0  0
  -28.0733  -12.3102   18.6843 C   0  0  0  0  0  0
  -27.6204  -13.2648   19.8193 C   0  0  2  0  0  0
  -28.6519  -13.3704   20.9614 C   0  0  0  0  0  0
  -25.2418  -13.8232   20.5677 C   0  0  0  0  0  0
  -24.1767  -13.0437   20.9228 C   0  0  0  0  0  0
  -24.6397  -11.6930   20.8711 C   0  0  0  0  0  0
  -23.9073  -10.4300   21.0385 C   0  0  0  0  0  0
  -24.3622   -9.4214   21.9167 C   0  0  0  0  0  0
  -23.6304   -8.2243   22.0742 C   0  0  0  0  0  0
  -22.4274   -8.0286   21.3543 C   0  0  0  0  0  0
  -21.9913   -9.0253   20.4631 C   0  0  0  0  0  0
  -22.7246  -10.2130   20.3035 C   0  0  0  0  0  0
  -21.6853   -6.0730   22.5288 C   0  0  0  0  0  0
  -21.4011   -6.5630   23.8222 C   0  0  0  0  0  0
  -21.3662   -5.6778   24.9182 C   0  0  0  0  0  0
  -21.6052   -4.3040   24.7219 C   0  0  0  0  0  0
  -21.8822   -3.8138   23.4337 C   0  0  0  0  0  0
  -21.9191   -4.6963   22.3396 C   0  0  0  0  0  0
  -22.7785  -13.5200   21.1900 C   0  0  0  0  0  0
  -22.1666   -4.2150   21.0968 F   0  0  0  0  0  0
  -21.5639   -3.4519   25.7730 F   0  0  0  0  0  0
  -29.9168  -13.8100   20.3573 N   0  0  0  0  0  0
  -26.2841  -12.9500   20.3116 N   0  0  0  0  0  0
  -25.9325  -11.6609   20.5635 N   0  0  0  0  0  0
  -22.0402  -12.8196   22.0446 N   0  0  0  0  0  0
  -25.4035  -15.1971   20.4117 N   0  0  0  0  0  0
  -31.7253  -15.0836   20.1788 O   0  0  0  0  0  0
  -21.6634   -6.8887   21.4249 O   0  0  0  0  0  0
  -22.3465  -14.5500   20.6746 O   0  0  0  0  0  0
  -24.6521  -31.8350   23.1799 C   0  0  0  0  0  0
  -25.9253  -32.4650   23.8230 C   0  0  1  0  0  0
  -27.2200  -27.0407   20.1843 C   0  0  0  0  0  0
  -25.5982  -33.8462   24.2155 N   0  0  0  0  0  0
  -23.4612  -30.4504   21.5264 C   0  0  2  0  0  0
  -24.9163  -28.8572   20.1161 C   0  0  0  0  0  0
  -22.7613  -29.4502   22.4823 C   0  0  0  0  0  0
  -18.0314  -28.1388   22.8461 C   0  0  0  0  0  0
  -24.1493  -36.7217   23.2634 C   0  0  0  0  0  0
  -26.0236  -30.6789   21.3938 C   0  0  0  0  0  0
  -26.0964  -29.2783   20.7437 C   0  0  0  0  0  0
  -27.2481  -28.3886   20.7577 C   0  0  0  0  0  0
  -26.0175  -26.7480   19.5047 C   0  0  0  0  0  0
  -24.8950  -27.6074   19.4790 C   0  0  0  0  0  0
  -23.6966  -29.7712   20.1505 C   0  0  0  0  0  0
  -25.4116  -36.2988   24.0311 C   0  0  1  0  0  0
  -20.5931  -28.3726   23.1211 C   0  0  2  0  0  0
  -20.6794  -26.9427   22.5390 C   0  0  0  0  0  0
  -19.5775  -26.6378   21.5193 C   0  0  0  0  0  0
  -18.1955  -26.7927   22.1605 C   0  0  0  0  0  0
  -19.1568  -28.8874   23.2821 C   0  0  0  0  0  0
  -18.9478  -30.1464   23.8851 C   0  0  0  0  0  0
  -17.6476  -30.6581   24.0546 C   0  0  0  0  0  0
  -25.9083  -34.9380   23.5039 C   0  0  0  0  0  0
  -16.5366  -29.9065   23.6344 C   0  0  0  0  0  0
  -16.7297  -28.6483   23.0366 C   0  0  0  0  0  0
  -26.4548  -31.6543   25.0700 C   0  0  0  0  0  0
  -25.3719  -31.3768   26.1392 C   0  0  0  0  0  0
  -27.0426  -30.2927   24.6332 C   0  0  0  0  0  0
  -27.6069  -32.4325   25.7490 C   0  0  0  0  0  0
  -27.5587  -37.1738   24.8444 C   0  0  0  0  0  0
  -21.4292  -29.3045   22.3577 N   0  0  0  0  0  0
  -26.4253  -37.3730   23.9453 N   0  0  0  0  0  0
  -24.7328  -31.0120   22.0884 N   0  0  0  0  0  0
  -23.4213  -28.8057   23.3007 O   0  0  0  0  0  0
  -28.2398  -25.9904   20.2243 O   0  0  0  0  0  0
  -26.5661  -34.8894   22.4612 O   0  0  0  0  0  0
  -23.5615  -32.1291   23.6945 O   0  0  0  0  0  0
  -31.0231  -19.6622   18.7838 C   0  0  0  0  0  0
  -29.1392  -19.0414   20.6571 C   0  0  0  0  0  0
  -30.2864  -20.7501   19.3226 C   0  0  0  0  0  0
  -30.8375  -18.2883   19.1228 C   0  0  0  0  0  0
  -29.2749  -20.4988   20.2700 C   0  0  0  0  0  0
  -29.9200  -17.8565   20.1353 C   0  0  0  0  0  0
  -30.5557  -22.1806   18.8606 C   0  0  0  0  0  0
  -28.7388  -22.9953   20.2487 C   0  0  0  0  0  0
  -31.6279  -17.3114   18.2680 C   0  0  0  0  0  0
  -27.8865  -24.4694   20.5667 C   0  0  0  0  0  0
  -28.5003  -21.7258   20.7010 N   0  0  0  0  0  0
  -29.7904  -23.1814   19.3563 N   0  0  0  0  0  0
  -29.7415  -16.3212   20.4840 N   0  0  0  0  0  0
  -31.4545  -22.4127   18.0456 O   0  0  0  0  0  0
  -31.4713  -12.8514   19.2101 H   0  0  0  0  0  0
  -30.4564  -11.7509   20.0939 H   0  0  0  0  0  0
  -29.8928  -11.7317   17.6392 H   0  0  0  0  0  0
  -29.6127  -13.4537   17.6716 H   0  0  0  0  0  0
  -27.9905  -11.2776   19.0239 H   0  0  0  0  0  0
  -27.4168  -12.4023   17.8183 H   0  0  0  0  0  0
  -27.5604  -14.2496   19.3538 H   0  0  0  0  0  0
  -28.7665  -12.4207   21.4856 H   0  0  0  0  0  0
  -28.3175  -14.0975   21.7025 H   0  0  0  0  0  0
  -25.2765   -9.5703   22.4736 H   0  0  0  0  0  0
  -24.0024   -7.4618   22.7442 H   0  0  0  0  0  0
  -21.0855   -8.8760   19.8920 H   0  0  0  0  0  0
  -22.3707  -10.9657   19.6132 H   0  0  0  0  0  0
  -21.1995   -7.6138   23.9736 H   0  0  0  0  0  0
  -21.1491   -6.0492   25.9091 H   0  0  0  0  0  0
  -22.0594   -2.7600   23.2817 H   0  0  0  0  0  0
  -22.3999  -11.9880   22.4881 H   0  0  0  0  0  0
  -21.1003  -13.1225   22.2582 H   0  0  0  0  0  0
  -24.6226  -15.8368   20.5166 H   0  0  0  0  0  0
  -26.2400  -15.6422   20.0579 H   0  0  0  0  0  0
  -26.7325  -32.5229   23.0956 H   0  0  0  0  0  0
  -25.0180  -33.9594   25.0339 H   0  0  0  0  0  0
  -22.7678  -31.2780   21.3626 H   0  0  0  0  0  0
  -23.3788  -35.9506   23.3184 H   0  0  0  0  0  0
  -24.3617  -36.8958   22.2076 H   0  0  0  0  0  0
  -23.7199  -37.6355   23.6741 H   0  0  0  0  0  0
  -26.1900  -31.4220   20.6126 H   0  0  0  0  0  0
  -26.8898  -30.7370   22.0408 H   0  0  0  0  0  0
  -28.1420  -28.7085   21.2766 H   0  0  0  0  0  0
  -25.9210  -25.8009   18.9946 H   0  0  0  0  0  0
  -24.0016  -27.2773   18.9675 H   0  0  0  0  0  0
  -23.8429  -30.5423   19.3928 H   0  0  0  0  0  0
  -22.8095  -29.2174   19.8374 H   0  0  0  0  0  0
  -25.1294  -36.1777   25.0795 H   0  0  0  0  0  0
  -21.0017  -28.3310   24.1336 H   0  0  0  0  0  0
  -20.5664  -26.2351   23.3615 H   0  0  0  0  0  0
  -21.6665  -26.7425   22.1202 H   0  0  0  0  0  0
  -19.6943  -25.6279   21.1249 H   0  0  0  0  0  0
  -19.6708  -27.3160   20.6697 H   0  0  0  0  0  0
  -17.4232  -26.6665   21.4005 H   0  0  0  0  0  0
  -18.0350  -26.0075   22.9006 H   0  0  0  0  0  0
  -19.7955  -30.7280   24.2213 H   0  0  0  0  0  0
  -17.5034  -31.6262   24.5137 H   0  0  0  0  0  0
  -15.5362  -30.2947   23.7691 H   0  0  0  0  0  0
  -15.8703  -28.0778   22.7120 H   0  0  0  0  0  0
  -24.5871  -30.7152   25.7710 H   0  0  0  0  0  0
  -24.8942  -32.2968   26.4772 H   0  0  0  0  0  0
  -25.7987  -30.8961   27.0206 H   0  0  0  0  0  0
  -26.3066  -29.6624   24.1326 H   0  0  0  0  0  0
  -27.4012  -29.7254   25.4931 H   0  0  0  0  0  0
  -27.8984  -30.4144   23.9687 H   0  0  0  0  0  0
  -27.2655  -33.3653   26.1988 H   0  0  0  0  0  0
  -28.3911  -32.6845   25.0340 H   0  0  0  0  0  0
  -28.0696  -31.8504   26.5468 H   0  0  0  0  0  0
  -28.2479  -38.0155   24.7630 H   0  0  0  0  0  0
  -28.1200  -36.2692   24.6058 H   0  0  0  0  0  0
  -27.2350  -37.1122   25.8849 H   0  0  0  0  0  0
  -20.9513  -29.8767   21.6757 H   0  0  0  0  0  0
  -26.0086  -38.2762   24.1543 H   0  0  0  0  0  0
  -31.7602  -19.8992   18.0277 H   0  0  0  0  0  0
  -28.3757  -18.8217   21.3887 H   0  0  0  0  0  0
  -31.9374  -17.7649   17.3266 H   0  0  0  0  0  0
  -31.0241  -16.4470   17.9966 H   0  0  0  0  0  0
  -32.5341  -16.9914   18.7807 H   0  0  0  0  0  0
  -27.7605  -24.4851   21.6500 H   0  0  0  0  0  0
  -26.8806  -24.2832   20.1971 H   0  0  0  0  0  0
  -29.9829  -24.1184   19.0397 H   0  0  0  0  0  0
  -28.8108  -16.1159   20.8166 H   0  0  0  0  0  0
  1 25  1  0  0  0
  1 30  2  0  0  0
  1 83  1  0  0  0
  2  3  1  0  0  0
  2 25  1  0  0  0
  2 85  1  0  0  0
  2 86  1  0  0  0
  3  4  1  0  0  0
  3 87  1  0  0  0
  3 88  1  0  0  0
  4  5  1  0  0  0
  4 89  1  0  0  0
  4 90  1  0  0  0
  5  6  1  0  0  0
  5 26  1  0  0  0
  5 91  1  0  0  0
  6 25  1  0  0  0
  6 92  1  0  0  0
  6 93  1  0  0  0
  7  8  2  0  0  0
  7 26  1  0  0  0
  7 29  1  0  0  0
  8  9  1  0  0  0
  8 22  1  0  0  0
  9 10  1  0  0  0
  9 27  2  0  0  0
 10 11  2  0  0  0
 10 15  1  0  0  0
 11 12  1  0  0  0
 11 94  1  0  0  0
 12 13  2  0  0  0
 12 95  1  0  0  0
 13 14  1  0  0  0
 13 31  1  0  0  0
 14 15  2  0  0  0
 14 96  1  0  0  0
 15 97  1  0  0  0
 16 17  2  0  0  0
 16 21  1  0  0  0
 16 31  1  0  0  0
 17 18  1  0  0  0
 17 98  1  0  0  0
 18 19  2  0  0  0
 18 99  1  0  0  0
 19 20  1  0  0  0
 19 24  1  0  0  0
 20 21  2  0  0  0
 20100  1  0  0  0
 21 23  1  0  0  0
 22 28  1  0  0  0
 22 32  2  0  0  0
 26 27  1  0  0  0
 28101  1  0  0  0
 28102  1  0  0  0
 29103  1  0  0  0
 29104  1  0  0  0
 33 34  1  0  0  0
 33 66  1  0  0  0
 33 70  2  0  0  0
 34 36  1  0  0  0
 34 59  1  0  0  0
 34105  1  0  0  0
 35 44  2  0  0  0
 35 45  1  0  0  0
 35 68  1  0  0  0
 36 56  1  0  0  0
 36106  1  0  0  0
 37 39  1  0  0  0
 37 47  1  0  0  0
 37 66  1  0  0  0
 37107  1  0  0  0
 38 43  2  0  0  0
 38 46  1  0  0  0
 38 47  1  0  0  0
 39 64  1  0  0  0
 39 67  2  0  0  0
 40 52  1  0  0  0
 40 53  2  0  0  0
 40 58  1  0  0  0
 41108  1  0  0  0
 41109  1  0  0  0
 41110  1  0  0  0
 41 48  1  0  0  0
 42 43  1  0  0  0
 42 66  1  0  0  0
 42111  1  0  0  0
 42112  1  0  0  0
 43 44  1  0  0  0
 44113  1  0  0  0
 45 46  2  0  0  0
 45114  1  0  0  0
 46115  1  0  0  0
 47116  1  0  0  0
 47117  1  0  0  0
 48 56  1  0  0  0
 48 65  1  0  0  0
 48118  1  0  0  0
 49 50  1  0  0  0
 49 53  1  0  0  0
 49 64  1  0  0  0
 49119  1  0  0  0
 50 51  1  0  0  0
 50120  1  0  0  0
 50121  1  0  0  0
 51 52  1  0  0  0
 51122  1  0  0  0
 51123  1  0  0  0
 52124  1  0  0  0
 52125  1  0  0  0
 53 54  1  0  0  0
 54 55  2  0  0  0
 54126  1  0  0  0
 55 57  1  0  0  0
 55127  1  0  0  0
 56 69  2  0  0  0
 57 58  2  0  0  0
 57128  1  0  0  0
 58129  1  0  0  0
 59 60  1  0  0  0
 59 61  1  0  0  0
 59 62  1  0  0  0
 60130  1  0  0  0
 60131  1  0  0  0
 60132  1  0  0  0
 61133  1  0  0  0
 61134  1  0  0  0
 61135  1  0  0  0
 62136  1  0  0  0
 62137  1  0  0  0
 62138  1  0  0  0
 63 65  1  0  0  0
 63139  1  0  0  0
 63140  1  0  0  0
 63141  1  0  0  0
 64142  1  0  0  0
 65143  1  0  0  0
 68 80  1  0  0  0
 71 73  2  0  0  0
 71 74  1  0  0  0
 71144  1  0  0  0
 72 75  2  0  0  0
 72 76  1  0  0  0
 72145  1  0  0  0
 73 75  1  0  0  0
 73 77  1  0  0  0
 74 76  2  0  0  0
 74 79  1  0  0  0
 75 81  1  0  0  0
 76 83  1  0  0  0
 77 82  1  0  0  0
 77 84  2  0  0  0
 78 80  1  0  0  0
 78 81  2  0  0  0
 78 82  1  0  0  0
 79146  1  0  0  0
 79147  1  0  0  0
 79148  1  0  0  0
 80149  1  0  0  0
 80150  1  0  0  0
 82151  1  0  0  0
 83152  1  0  0  0
M  ISO  4   1 100  68 101  80 101  83 100
M  END
> <chiral flag>
0

> <version>
0

> <s_m_source_file>
/data/baiqing/PycharmProjects/Reinvent-master-3.2/result/LINK_invent/BTK/process_docking_weight1_custom_product_contain_oxygen_bond_distance_aromatic_linkinvent_7_9_3/rearranged_h_0088.sdf

> <i_m_source_file_index>
83

> <r_mmod_Potential_Energy-OPLS-2005>
625.790100097656

> <r_mmod_Stretch_Energy-OPLS-2005>
366.411682128906

> <r_mmod_Bend_Energy-OPLS-2005>
298.77685546875

> <r_mmod_Torsional_Energy-OPLS-2005>
237.741897583008

> <r_mmod_Improper_Torsional_Energy-OPLS-2005>
3.76364398002625

> <r_mmod_Van_der_Waal_Energy-OPLS-2005>
158.389144897461

> <r_mmod_Electrostatic_Energy-OPLS-2005>
-504.225250244141

> <r_mmod_Solvation_Energy-OPLS-2005>
-232.176895141602

> <b_mmod_Minimization_Converged-OPLS-2005>
0

> <r_mmod_RMS_Derivative-OPLS-2005>
2.20221781730652

$$$$
83
                    3D
 Structure written by MMmdl.
157166  0  0  1  0            999 V2000
  -30.6174  -14.6559   20.4856 C   0  0  0  0  0  0
  -30.4412  -12.3991   19.4541 C   0  0  0  0  0  0
  -29.5090  -12.5096   18.2259 C   0  0  0  0  0  0
  -28.0322  -12.3459   18.6392 C   0  0  0  0  0  0
  -27.6549  -13.2183   19.8668 C   0  0  2  0  0  0
  -28.7019  -13.0771   20.9951 C   0  0  0  0  0  0
  -25.2567  -13.8164   20.5693 C   0  0  0  0  0  0
  -24.1822  -13.0425   20.9145 C   0  0  0  0  0  0
  -24.6399  -11.6902   20.8721 C   0  0  0  0  0  0
  -23.9066  -10.4290   21.0390 C   0  0  0  0  0  0
  -24.3616   -9.4212   21.9178 C   0  0  0  0  0  0
  -23.6289   -8.2251   22.0755 C   0  0  0  0  0  0
  -22.4275   -8.0283   21.3545 C   0  0  0  0  0  0
  -21.9904   -9.0253   20.4647 C   0  0  0  0  0  0
  -22.7234  -10.2130   20.3045 C   0  0  0  0  0  0
  -21.6856   -6.0739   22.5281 C   0  0  0  0  0  0
  -21.4012   -6.5641   23.8212 C   0  0  0  0  0  0
  -21.3657   -5.6792   24.9173 C   0  0  0  0  0  0
  -21.6044   -4.3053   24.7223 C   0  0  0  0  0  0
  -21.8819   -3.8146   23.4343 C   0  0  0  0  0  0
  -21.9193   -4.6967   22.3403 C   0  0  0  0  0  0
  -22.7847  -13.5229   21.1818 C   0  0  0  0  0  0
  -22.1660   -4.2152   21.0976 F   0  0  0  0  0  0
  -21.5630   -3.4536   25.7734 F   0  0  0  0  0  0
  -30.0158  -13.4235   20.4289 N   0  0  0  0  0  0
  -26.3013  -12.9355   20.3370 N   0  0  0  0  0  0
  -25.9340  -11.6506   20.5778 N   0  0  0  0  0  0
  -22.0498  -12.8236   22.0393 N   0  0  0  0  0  0
  -25.4261  -15.1894   20.4199 N   0  0  0  0  0  0
  -31.7799  -14.8175   20.1018 O   0  0  0  0  0  0
  -21.6640   -6.8881   21.4242 O   0  0  0  0  0  0
  -22.3533  -14.5544   20.6686 O   0  0  0  0  0  0
  -24.6299  -31.8594   23.2036 C   0  0  0  0  0  0
  -25.9142  -32.4777   23.8353 C   0  0  1  0  0  0
  -27.2170  -27.2986   20.0989 C   0  0  0  0  0  0
  -25.5958  -33.8577   24.2286 N   0  0  0  0  0  0
  -23.4237  -30.4874   21.5470 C   0  0  2  0  0  0
  -24.8662  -28.9470   20.1107 C   0  0  0  0  0  0
  -22.7497  -29.4638   22.4931 C   0  0  0  0  0  0
  -18.0296  -28.1391   22.8491 C   0  0  0  0  0  0
  -24.1489  -36.7265   23.2633 C   0  0  0  0  0  0
  -25.9706  -30.7804   21.3820 C   0  0  0  0  0  0
  -26.0408  -29.4098   20.7178 C   0  0  0  0  0  0
  -27.2182  -28.5977   20.7052 C   0  0  0  0  0  0
  -26.0112  -26.9068   19.4635 C   0  0  0  0  0  0
  -24.8542  -27.7000   19.4779 C   0  0  0  0  0  0
  -23.6382  -29.8303   20.1612 C   0  0  0  0  0  0
  -25.4111  -36.3071   24.0338 C   0  0  1  0  0  0
  -20.5905  -28.3693   23.1274 C   0  0  2  0  0  0
  -20.6791  -26.9410   22.5407 C   0  0  0  0  0  0
  -19.5765  -26.6380   21.5220 C   0  0  0  0  0  0
  -18.1942  -26.7939   22.1619 C   0  0  0  0  0  0
  -19.1553  -28.8856   23.2885 C   0  0  0  0  0  0
  -18.9473  -30.1459   23.8898 C   0  0  0  0  0  0
  -17.6475  -30.6591   24.0565 C   0  0  0  0  0  0
  -25.9058  -34.9450   23.5102 C   0  0  0  0  0  0
  -16.5364  -29.9086   23.6340 C   0  0  0  0  0  0
  -16.7282  -28.6506   23.0358 C   0  0  0  0  0  0
  -26.4509  -31.6593   25.0724 C   0  0  0  0  0  0
  -25.3733  -31.3749   26.1443 C   0  0  0  0  0  0
  -27.0347  -30.3009   24.6197 C   0  0  0  0  0  0
  -27.6068  -32.4321   25.7498 C   0  0  0  0  0  0
  -27.5598  -37.1759   24.8454 C   0  0  0  0  0  0
  -21.4208  -29.3048   22.3667 N   0  0  0  0  0  0
  -26.4273  -37.3787   23.9447 N   0  0  0  0  0  0
  -24.6937  -31.0591   22.1001 N   0  0  0  0  0  0
  -23.4216  -28.8169   23.3007 O   0  0  0  0  0  0
  -28.3147  -26.4090   20.1433 O   0  0  0  0  0  0
  -26.5619  -34.8925   22.4666 O   0  0  0  0  0  0
  -23.5458  -32.1398   23.7354 O   0  0  0  0  0  0
  -30.7712  -19.3077   19.8069 C   0  0  0  0  0  0
  -30.8389  -17.8840   19.9385 C   0  0  0  0  0  0
  -28.7680  -19.3511   21.1270 C   0  0  0  0  0  0
  -29.7412  -20.1005   20.4054 C   0  0  0  0  0  0
  -29.8712  -17.1543   20.6794 C   0  0  0  0  0  0
  -28.8325  -17.9302   21.2619 C   0  0  0  0  0  0
  -30.3419  -23.7749   20.2485 C   0  0  0  0  0  0
  -29.0108  -23.7943   20.1179 C   0  0  0  0  0  0
  -30.7896  -22.3921   20.3813 C   0  0  0  0  0  0
  -28.5929  -22.3780   20.1608 C   0  0  0  0  0  0
  -31.3110  -24.9447   20.1994 C   0  0  0  0  0  0
  -28.0159  -24.9791   19.8388 C   0  0  0  0  0  0
  -29.7008  -21.5866   20.3082 N   0  0  0  0  0  0
  -27.8410  -17.2740   21.9927 N   0  0  0  0  0  0
  -29.8058  -15.6985   20.8424 N   0  0  0  0  0  0
  -31.9579  -22.0168   20.5394 O   0  0  0  0  0  0
  -27.4345  -21.9567   20.0568 O   0  0  0  0  0  0
  -31.4822  -12.5267   19.1523 H   0  0  0  0  0  0
  -30.3791  -11.4042   19.8977 H   0  0  0  0  0  0
  -29.7745  -11.7569   17.4825 H   0  0  0  0  0  0
  -29.6487  -13.4785   17.7432 H   0  0  0  0  0  0
  -27.8704  -11.2925   18.8705 H   0  0  0  0  0  0
  -27.3761  -12.5722   17.7976 H   0  0  0  0  0  0
  -27.6694  -14.2538   19.5262 H   0  0  0  0  0  0
  -28.7161  -12.0557   21.3787 H   0  0  0  0  0  0
  -28.4471  -13.7078   21.8478 H   0  0  0  0  0  0
  -25.2763   -9.5697   22.4754 H   0  0  0  0  0  0
  -24.0001   -7.4645   22.7478 H   0  0  0  0  0  0
  -21.0837   -8.8771   19.8953 H   0  0  0  0  0  0
  -22.3693  -10.9667   19.6153 H   0  0  0  0  0  0
  -21.2001   -7.6150   23.9719 H   0  0  0  0  0  0
  -21.1474   -6.0517   25.9075 H   0  0  0  0  0  0
  -22.0597   -2.7607   23.2838 H   0  0  0  0  0  0
  -22.4104  -11.9889   22.4773 H   0  0  0  0  0  0
  -21.1125  -13.1280   22.2603 H   0  0  0  0  0  0
  -24.6712  -15.8430   20.5942 H   0  0  0  0  0  0
  -26.3169  -15.6534   20.2824 H   0  0  0  0  0  0
  -26.7199  -32.5428   23.1086 H   0  0  0  0  0  0
  -25.0141  -33.9721   25.0455 H   0  0  0  0  0  0
  -22.7186  -31.3097   21.4065 H   0  0  0  0  0  0
  -23.3796  -35.9549   23.3238 H   0  0  0  0  0  0
  -24.3599  -36.8935   22.2059 H   0  0  0  0  0  0
  -23.7179  -37.6424   23.6680 H   0  0  0  0  0  0
  -26.1147  -31.5479   20.6203 H   0  0  0  0  0  0
  -26.8474  -30.8178   22.0169 H   0  0  0  0  0  0
  -28.1155  -28.9480   21.1951 H   0  0  0  0  0  0
  -25.9089  -25.9636   18.9501 H   0  0  0  0  0  0
  -23.9547  -27.3403   18.9964 H   0  0  0  0  0  0
  -23.7627  -30.6099   19.4087 H   0  0  0  0  0  0
  -22.7570  -29.2647   19.8530 H   0  0  0  0  0  0
  -25.1286  -36.1905   25.0830 H   0  0  0  0  0  0
  -20.9991  -28.3256   24.1399 H   0  0  0  0  0  0
  -20.5702  -26.2301   23.3608 H   0  0  0  0  0  0
  -21.6655  -26.7441   22.1190 H   0  0  0  0  0  0
  -19.6928  -25.6292   21.1240 H   0  0  0  0  0  0
  -19.6711  -27.3196   20.6763 H   0  0  0  0  0  0
  -17.4217  -26.6704   21.4012 H   0  0  0  0  0  0
  -18.0319  -26.0076   22.9005 H   0  0  0  0  0  0
  -19.7953  -30.7276   24.2258 H   0  0  0  0  0  0
  -17.5034  -31.6279   24.5157 H   0  0  0  0  0  0
  -15.5366  -30.2991   23.7679 H   0  0  0  0  0  0
  -15.8680  -28.0828   22.7076 H   0  0  0  0  0  0
  -24.5933  -30.7067   25.7776 H   0  0  0  0  0  0
  -24.8902  -32.2924   26.4812 H   0  0  0  0  0  0
  -25.8048  -30.8969   27.0246 H   0  0  0  0  0  0
  -26.2921  -29.6761   24.1220 H   0  0  0  0  0  0
  -27.4042  -29.7264   25.4699 H   0  0  0  0  0  0
  -27.8796  -30.4294   23.9430 H   0  0  0  0  0  0
  -27.2687  -33.3642   26.2045 H   0  0  0  0  0  0
  -28.3897  -32.6845   25.0331 H   0  0  0  0  0  0
  -28.0710  -31.8462   26.5440 H   0  0  0  0  0  0
  -28.2525  -38.0144   24.7636 H   0  0  0  0  0  0
  -28.1181  -36.2687   24.6095 H   0  0  0  0  0  0
  -27.2345  -37.1174   25.8855 H   0  0  0  0  0  0
  -20.9388  -29.8764   21.6868 H   0  0  0  0  0  0
  -26.0151  -38.2836   24.1545 H   0  0  0  0  0  0
  -31.5404  -19.7904   19.2201 H   0  0  0  0  0  0
  -31.6428  -17.3581   19.4444 H   0  0  0  0  0  0
  -27.9566  -19.8786   21.6096 H   0  0  0  0  0  0
  -30.7950  -25.9019   20.1421 H   0  0  0  0  0  0
  -31.9592  -24.8559   19.3269 H   0  0  0  0  0  0
  -31.9403  -24.9500   21.0899 H   0  0  0  0  0  0
  -27.1082  -24.7043   20.3786 H   0  0  0  0  0  0
  -27.7912  -24.9075   18.7739 H   0  0  0  0  0  0
  -27.1934  -17.8698   22.4961 H   0  0  0  0  0  0
  -28.1543  -16.5154   22.5864 H   0  0  0  0  0  0
  -28.9093  -15.3995   21.1930 H   0  0  0  0  0  0
  1 25  1  0  0  0
  1 30  2  0  0  0
  1 85  1  0  0  0
  2  3  1  0  0  0
  2 25  1  0  0  0
  2 88  1  0  0  0
  2 89  1  0  0  0
  3  4  1  0  0  0
  3 90  1  0  0  0
  3 91  1  0  0  0
  4  5  1  0  0  0
  4 92  1  0  0  0
  4 93  1  0  0  0
  5  6  1  0  0  0
  5 26  1  0  0  0
  5 94  1  0  0  0
  6 25  1  0  0  0
  6 95  1  0  0  0
  6 96  1  0  0  0
  7  8  2  0  0  0
  7 26  1  0  0  0
  7 29  1  0  0  0
  8  9  1  0  0  0
  8 22  1  0  0  0
  9 10  1  0  0  0
  9 27  2  0  0  0
 10 11  2  0  0  0
 10 15  1  0  0  0
 11 12  1  0  0  0
 11 97  1  0  0  0
 12 13  2  0  0  0
 12 98  1  0  0  0
 13 14  1  0  0  0
 13 31  1  0  0  0
 14 15  2  0  0  0
 14 99  1  0  0  0
 15100  1  0  0  0
 16 17  2  0  0  0
 16 21  1  0  0  0
 16 31  1  0  0  0
 17 18  1  0  0  0
 17101  1  0  0  0
 18 19  2  0  0  0
 18102  1  0  0  0
 19 20  1  0  0  0
 19 24  1  0  0  0
 20 21  2  0  0  0
 20103  1  0  0  0
 21 23  1  0  0  0
 22 28  1  0  0  0
 22 32  2  0  0  0
 26 27  1  0  0  0
 28104  1  0  0  0
 28105  1  0  0  0
 29106  1  0  0  0
 29107  1  0  0  0
 33 34  1  0  0  0
 33 66  1  0  0  0
 33 70  2  0  0  0
 34 36  1  0  0  0
 34 59  1  0  0  0
 34108  1  0  0  0
 35 44  2  0  0  0
 35 45  1  0  0  0
 35 68  1  0  0  0
 36 56  1  0  0  0
 36109  1  0  0  0
 37 39  1  0  0  0
 37 47  1  0  0  0
 37 66  1  0  0  0
 37110  1  0  0  0
 38 43  2  0  0  0
 38 46  1  0  0  0
 38 47  1  0  0  0
 39 64  1  0  0  0
 39 67  2  0  0  0
 40 52  1  0  0  0
 40 53  2  0  0  0
 40 58  1  0  0  0
 41111  1  0  0  0
 41112  1  0  0  0
 41113  1  0  0  0
 41 48  1  0  0  0
 42 43  1  0  0  0
 42 66  1  0  0  0
 42114  1  0  0  0
 42115  1  0  0  0
 43 44  1  0  0  0
 44116  1  0  0  0
 45 46  2  0  0  0
 45117  1  0  0  0
 46118  1  0  0  0
 47119  1  0  0  0
 47120  1  0  0  0
 48 56  1  0  0  0
 48 65  1  0  0  0
 48121  1  0  0  0
 49 50  1  0  0  0
 49 53  1  0  0  0
 49 64  1  0  0  0
 49122  1  0  0  0
 50 51  1  0  0  0
 50123  1  0  0  0
 50124  1  0  0  0
 51 52  1  0  0  0
 51125  1  0  0  0
 51126  1  0  0  0
 52127  1  0  0  0
 52128  1  0  0  0
 53 54  1  0  0  0
 54 55  2  0  0  0
 54129  1  0  0  0
 55 57  1  0  0  0
 55130  1  0  0  0
 56 69  2  0  0  0
 57 58  2  0  0  0
 57131  1  0  0  0
 58132  1  0  0  0
 59 60  1  0  0  0
 59 61  1  0  0  0
 59 62  1  0  0  0
 60133  1  0  0  0
 60134  1  0  0  0
 60135  1  0  0  0
 61136  1  0  0  0
 61137  1  0  0  0
 61138  1  0  0  0
 62139  1  0  0  0
 62140  1  0  0  0
 62141  1  0  0  0
 63 65  1  0  0  0
 63142  1  0  0  0
 63143  1  0  0  0
 63144  1  0  0  0
 64145  1  0  0  0
 65146  1  0  0  0
 68 82  1  0  0  0
 71 72  2  0  0  0
 71 74  1  0  0  0
 71147  1  0  0  0
 72 75  1  0  0  0
 72148  1  0  0  0
 73 74  2  0  0  0
 73 76  1  0  0  0
 73149  1  0  0  0
 74 83  1  0  0  0
 75 76  2  0  0  0
 75 85  1  0  0  0
 76 84  1  0  0  0
 77 78  2  0  0  0
 77 79  1  0  0  0
 77 81  1  0  0  0
 78 80  1  0  0  0
 78 82  1  0  0  0
 79 83  1  0  0  0
 79 86  2  0  0  0
 80 83  1  0  0  0
 80 87  2  0  0  0
 81150  1  0  0  0
 81151  1  0  0  0
 81152  1  0  0  0
 82153  1  0  0  0
 82154  1  0  0  0
 84155  1  0  0  0
 84156  1  0  0  0
 85157  1  0  0  0
M  ISO  4   1 100  68 101  82 101  85 100
M  END
> <chiral flag>
0

> <version>
0

> <s_m_source_file>
/data/baiqing/PycharmProjects/Reinvent-master-3.2/result/LINK_invent/BTK/process_docking_weight1_custom_product_contain_oxygen_bond_distance_aromatic_linkinvent_7_9_3/rearranged_h_0088.sdf

> <i_m_source_file_index>
84

> <r_mmod_Potential_Energy-OPLS-2005>
32.4169616699219

> <r_mmod_Stretch_Energy-OPLS-2005>
88.4736633300781

> <r_mmod_Bend_Energy-OPLS-2005>
192.404693603516

> <r_mmod_Torsional_Energy-OPLS-2005>
238.080276489258

> <r_mmod_Improper_Torsional_Energy-OPLS-2005>
8.79245853424072

> <r_mmod_Van_der_Waal_Energy-OPLS-2005>
151.376388549805

> <r_mmod_Electrostatic_Energy-OPLS-2005>
-472.277465820312

> <r_mmod_Solvation_Energy-OPLS-2005>
-232.008529663086

> <b_mmod_Minimization_Converged-OPLS-2005>
0

> <r_mmod_RMS_Derivative-OPLS-2005>
1.39578104019165

$$$$
84
                    3D
 Structure written by MMmdl.
159168  0  0  1  0            999 V2000
  -30.7440  -14.5545   20.6137 C   0  0  0  0  0  0
  -30.4251  -12.3731   19.4461 C   0  0  0  0  0  0
  -29.4968  -12.5303   18.2273 C   0  0  0  0  0  0
  -28.0255  -12.3899   18.6437 C   0  0  0  0  0  0
  -27.6685  -13.2338   19.8940 C   0  0  2  0  0  0
  -28.7178  -13.0753   21.0176 C   0  0  0  0  0  0
  -25.2641  -13.8229   20.5700 C   0  0  0  0  0  0
  -24.1890  -13.0454   20.9195 C   0  0  0  0  0  0
  -24.6524  -11.6941   20.8808 C   0  0  0  0  0  0
  -23.9159  -10.4313   21.0453 C   0  0  0  0  0  0
  -24.3679   -9.4210   21.9238 C   0  0  0  0  0  0
  -23.6321   -8.2263   22.0810 C   0  0  0  0  0  0
  -22.4302   -8.0344   21.3591 C   0  0  0  0  0  0
  -21.9963   -9.0328   20.4688 C   0  0  0  0  0  0
  -22.7327  -10.2189   20.3094 C   0  0  0  0  0  0
  -21.6860   -6.0764   22.5273 C   0  0  0  0  0  0
  -21.4003   -6.5651   23.8209 C   0  0  0  0  0  0
  -21.3644   -5.6804   24.9168 C   0  0  0  0  0  0
  -21.6039   -4.3064   24.7212 C   0  0  0  0  0  0
  -21.8816   -3.8162   23.4324 C   0  0  0  0  0  0
  -21.9195   -4.6989   22.3388 C   0  0  0  0  0  0
  -22.7911  -13.5306   21.1737 C   0  0  0  0  0  0
  -22.1677   -4.2175   21.0965 F   0  0  0  0  0  0
  -21.5630   -3.4543   25.7723 F   0  0  0  0  0  0
  -30.0357  -13.3911   20.4496 N   0  0  0  0  0  0
  -26.3108  -12.9431   20.3522 N   0  0  0  0  0  0
  -25.9471  -11.6557   20.5899 N   0  0  0  0  0  0
  -22.0484  -12.8359   22.0279 N   0  0  0  0  0  0
  -25.4385  -15.1924   20.4125 N   0  0  0  0  0  0
  -31.8258  -14.6915   20.0366 O   0  0  0  0  0  0
  -21.6653   -6.8931   21.4254 O   0  0  0  0  0  0
  -22.3617  -14.5602   20.6569 O   0  0  0  0  0  0
  -24.6164  -31.8697   23.2024 C   0  0  0  0  0  0
  -25.9059  -32.4801   23.8331 C   0  0  1  0  0  0
  -27.2268  -27.3388   20.1483 C   0  0  0  0  0  0
  -25.5968  -33.8593   24.2277 N   0  0  0  0  0  0
  -23.4077  -30.4854   21.5480 C   0  0  2  0  0  0
  -24.8575  -28.9330   20.1278 C   0  0  0  0  0  0
  -22.7429  -29.4695   22.5032 C   0  0  0  0  0  0
  -18.0296  -28.1418   22.8492 C   0  0  0  0  0  0
  -24.1498  -36.7267   23.2653 C   0  0  0  0  0  0
  -25.9426  -30.8060   21.3663 C   0  0  0  0  0  0
  -26.0223  -29.4231   20.7335 C   0  0  0  0  0  0
  -27.2061  -28.6308   20.7443 C   0  0  0  0  0  0
  -26.0460  -26.8939   19.5194 C   0  0  0  0  0  0
  -24.8710  -27.6673   19.5189 C   0  0  0  0  0  0
  -23.6130  -29.7946   20.1727 C   0  0  0  0  0  0
  -25.4131  -36.3068   24.0335 C   0  0  1  0  0  0
  -20.5900  -28.3671   23.1324 C   0  0  2  0  0  0
  -20.6787  -26.9444   22.5366 C   0  0  0  0  0  0
  -19.5764  -26.6435   21.5183 C   0  0  0  0  0  0
  -18.1918  -26.8007   22.1545 C   0  0  0  0  0  0
  -19.1551  -28.8838   23.2947 C   0  0  0  0  0  0
  -18.9475  -30.1464   23.8921 C   0  0  0  0  0  0
  -17.6495  -30.6651   24.0523 C   0  0  0  0  0  0
  -25.9068  -34.9471   23.5086 C   0  0  0  0  0  0
  -16.5381  -29.9145   23.6277 C   0  0  0  0  0  0
  -16.7305  -28.6565   23.0304 C   0  0  0  0  0  0
  -26.4493  -31.6555   25.0633 C   0  0  0  0  0  0
  -25.3732  -31.3649   26.1328 C   0  0  0  0  0  0
  -27.0388  -30.3028   24.5991 C   0  0  0  0  0  0
  -27.6040  -32.4295   25.7389 C   0  0  0  0  0  0
  -27.5583  -37.1771   24.8468 C   0  0  0  0  0  0
  -21.4138  -29.3064   22.3743 N   0  0  0  0  0  0
  -26.4313  -37.3747   23.9390 N   0  0  0  0  0  0
  -24.6744  -31.0712   22.0963 N   0  0  0  0  0  0
  -23.4165  -28.8261   23.3091 O   0  0  0  0  0  0
  -28.3794  -26.5642   20.0413 O   0  0  0  0  0  0
  -26.5575  -34.8956   22.4620 O   0  0  0  0  0  0
  -23.5361  -32.1500   23.7403 O   0  0  0  0  0  0
  -29.4519  -19.3120   21.0794 C   0  0  0  0  0  0
  -30.9468  -18.2563   22.6772 C   0  0  0  0  0  0
  -30.3707  -20.6266   22.9003 C   0  0  0  0  0  0
  -30.1258  -18.1228   21.5374 C   0  0  0  0  0  0
  -29.5529  -20.5950   21.7422 C   0  0  0  0  0  0
  -31.0791  -19.4876   23.3409 C   0  0  0  0  0  0
  -28.6082  -24.1345   20.4899 C   0  0  0  0  0  0
  -29.3133  -23.0794   21.2799 C   0  0  0  0  0  0
  -26.5980  -23.1638   19.4490 C   0  0  0  0  0  0
  -30.0980  -16.7653   20.8444 C   0  0  0  0  0  0
  -28.6511  -25.4588   20.8652 C   0  0  0  0  0  0
  -27.9994  -23.6922   19.1724 C   0  0  0  0  0  0
  -26.3121  -22.6337   20.8530 C   0  0  0  0  0  0
  -27.3019  -21.5435   21.3333 C   0  0  0  0  0  0
  -30.2038  -15.5920   21.4014 N   0  0  0  0  0  0
  -28.7730  -21.7940   21.3441 N   0  0  0  0  0  0
  -30.4078  -23.3411   21.7882 O   0  0  0  0  0  0
  -25.7209  -23.1870   18.5852 O   0  0  0  0  0  0
  -31.8893  -19.5774   24.4237 F   0  0  0  0  0  0
  -31.4641  -12.4426   19.1172 H   0  0  0  0  0  0
  -30.3246  -11.3749   19.8762 H   0  0  0  0  0  0
  -29.7504  -11.7811   17.4784 H   0  0  0  0  0  0
  -29.6616  -13.5004   17.7590 H   0  0  0  0  0  0
  -27.8434  -11.3361   18.8446 H   0  0  0  0  0  0
  -27.3717  -12.6605   17.8151 H   0  0  0  0  0  0
  -27.7087  -14.2818   19.6030 H   0  0  0  0  0  0
  -28.7113  -12.0613   21.4225 H   0  0  0  0  0  0
  -28.4804  -13.7395   21.8492 H   0  0  0  0  0  0
  -25.2829   -9.5641   22.4823 H   0  0  0  0  0  0
  -24.0004   -7.4641   22.7533 H   0  0  0  0  0  0
  -21.0893   -8.8886   19.8981 H   0  0  0  0  0  0
  -22.3846  -10.9756   19.6198 H   0  0  0  0  0  0
  -21.1997   -7.6160   23.9716 H   0  0  0  0  0  0
  -21.1471   -6.0532   25.9074 H   0  0  0  0  0  0
  -22.0615   -2.7624   23.2812 H   0  0  0  0  0  0
  -22.4081  -12.0059   22.4728 H   0  0  0  0  0  0
  -21.1122  -13.1455   22.2414 H   0  0  0  0  0  0
  -24.6873  -15.8638   20.5272 H   0  0  0  0  0  0
  -26.3140  -15.6163   20.1322 H   0  0  0  0  0  0
  -26.7076  -32.5456   23.1055 H   0  0  0  0  0  0
  -25.0182  -33.9743   25.0451 H   0  0  0  0  0  0
  -22.6994  -31.3044   21.4020 H   0  0  0  0  0  0
  -23.3785  -35.9571   23.3309 H   0  0  0  0  0  0
  -24.3562  -36.8873   22.2064 H   0  0  0  0  0  0
  -23.7264  -37.6481   23.6656 H   0  0  0  0  0  0
  -26.0490  -31.5632   20.5885 H   0  0  0  0  0  0
  -26.8360  -30.8817   21.9725 H   0  0  0  0  0  0
  -28.1094  -28.9968   21.2064 H   0  0  0  0  0  0
  -26.0232  -25.9467   19.0068 H   0  0  0  0  0  0
  -23.9762  -27.2824   19.0509 H   0  0  0  0  0  0
  -23.6966  -30.5504   19.3941 H   0  0  0  0  0  0
  -22.7369  -29.1991   19.9000 H   0  0  0  0  0  0
  -25.1319  -36.1934   25.0830 H   0  0  0  0  0  0
  -21.0107  -28.3171   24.1398 H   0  0  0  0  0  0
  -20.5789  -26.2205   23.3442 H   0  0  0  0  0  0
  -21.6628  -26.7601   22.1039 H   0  0  0  0  0  0
  -19.6939  -25.6340   21.1231 H   0  0  0  0  0  0
  -19.6795  -27.3233   20.6718 H   0  0  0  0  0  0
  -17.4266  -26.6868   21.3865 H   0  0  0  0  0  0
  -18.0149  -26.0084   22.8838 H   0  0  0  0  0  0
  -19.7956  -30.7272   24.2258 H   0  0  0  0  0  0
  -17.5115  -31.6370   24.5058 H   0  0  0  0  0  0
  -15.5377  -30.3073   23.7574 H   0  0  0  0  0  0
  -15.8722  -28.0897   22.6973 H   0  0  0  0  0  0
  -24.5839  -30.7147   25.7537 H   0  0  0  0  0  0
  -24.9036  -32.2838   26.4834 H   0  0  0  0  0  0
  -25.8011  -30.8648   27.0022 H   0  0  0  0  0  0
  -26.2991  -29.6711   24.1067 H   0  0  0  0  0  0
  -27.4265  -29.7309   25.4427 H   0  0  0  0  0  0
  -27.8724  -30.4386   23.9100 H   0  0  0  0  0  0
  -27.2616  -33.3547   26.2023 H   0  0  0  0  0  0
  -28.3790  -32.6938   25.0182 H   0  0  0  0  0  0
  -28.0776  -31.8404   26.5243 H   0  0  0  0  0  0
  -28.2598  -38.0068   24.7498 H   0  0  0  0  0  0
  -28.1096  -36.2599   24.6333 H   0  0  0  0  0  0
  -27.2255  -37.1437   25.8857 H   0  0  0  0  0  0
  -20.9369  -29.8614   21.6757 H   0  0  0  0  0  0
  -26.0207  -38.2823   24.1379 H   0  0  0  0  0  0
  -28.8318  -19.2182   20.2018 H   0  0  0  0  0  0
  -31.5140  -17.4150   23.0489 H   0  0  0  0  0  0
  -30.4385  -21.5240   23.4991 H   0  0  0  0  0  0
  -30.0287  -16.8405   19.7550 H   0  0  0  0  0  0
  -29.1462  -25.7791   21.7729 H   0  0  0  0  0  0
  -28.6051  -22.9196   18.6949 H   0  0  0  0  0  0
  -27.9458  -24.5361   18.4860 H   0  0  0  0  0  0
  -25.2989  -22.2278   20.8615 H   0  0  0  0  0  0
  -26.3012  -23.4667   21.5588 H   0  0  0  0  0  0
  -27.0756  -20.6274   20.7929 H   0  0  0  0  0  0
  -27.0229  -21.3451   22.3739 H   0  0  0  0  0  0
  1 25  1  0  0  0
  1 30  2  0  0  0
  1 85  1  0  0  0
  2  3  1  0  0  0
  2 25  1  0  0  0
  2 90  1  0  0  0
  2 91  1  0  0  0
  3  4  1  0  0  0
  3 92  1  0  0  0
  3 93  1  0  0  0
  4  5  1  0  0  0
  4 94  1  0  0  0
  4 95  1  0  0  0
  5  6  1  0  0  0
  5 26  1  0  0  0
  5 96  1  0  0  0
  6 25  1  0  0  0
  6 97  1  0  0  0
  6 98  1  0  0  0
  7  8  2  0  0  0
  7 26  1  0  0  0
  7 29  1  0  0  0
  8  9  1  0  0  0
  8 22  1  0  0  0
  9 10  1  0  0  0
  9 27  2  0  0  0
 10 11  2  0  0  0
 10 15  1  0  0  0
 11 12  1  0  0  0
 11 99  1  0  0  0
 12 13  2  0  0  0
 12100  1  0  0  0
 13 14  1  0  0  0
 13 31  1  0  0  0
 14 15  2  0  0  0
 14101  1  0  0  0
 15102  1  0  0  0
 16 17  2  0  0  0
 16 21  1  0  0  0
 16 31  1  0  0  0
 17 18  1  0  0  0
 17103  1  0  0  0
 18 19  2  0  0  0
 18104  1  0  0  0
 19 20  1  0  0  0
 19 24  1  0  0  0
 20 21  2  0  0  0
 20105  1  0  0  0
 21 23  1  0  0  0
 22 28  1  0  0  0
 22 32  2  0  0  0
 26 27  1  0  0  0
 28106  1  0  0  0
 28107  1  0  0  0
 29108  1  0  0  0
 29109  1  0  0  0
 33 34  1  0  0  0
 33 66  1  0  0  0
 33 70  2  0  0  0
 34 36  1  0  0  0
 34 59  1  0  0  0
 34110  1  0  0  0
 35 44  2  0  0  0
 35 45  1  0  0  0
 35 68  1  0  0  0
 36 56  1  0  0  0
 36111  1  0  0  0
 37 39  1  0  0  0
 37 47  1  0  0  0
 37 66  1  0  0  0
 37112  1  0  0  0
 38 43  2  0  0  0
 38 46  1  0  0  0
 38 47  1  0  0  0
 39 64  1  0  0  0
 39 67  2  0  0  0
 40 52  1  0  0  0
 40 53  2  0  0  0
 40 58  1  0  0  0
 41113  1  0  0  0
 41114  1  0  0  0
 41115  1  0  0  0
 41 48  1  0  0  0
 42 43  1  0  0  0
 42 66  1  0  0  0
 42116  1  0  0  0
 42117  1  0  0  0
 43 44  1  0  0  0
 44118  1  0  0  0
 45 46  2  0  0  0
 45119  1  0  0  0
 46120  1  0  0  0
 47121  1  0  0  0
 47122  1  0  0  0
 48 56  1  0  0  0
 48 65  1  0  0  0
 48123  1  0  0  0
 49 50  1  0  0  0
 49 53  1  0  0  0
 49 64  1  0  0  0
 49124  1  0  0  0
 50 51  1  0  0  0
 50125  1  0  0  0
 50126  1  0  0  0
 51 52  1  0  0  0
 51127  1  0  0  0
 51128  1  0  0  0
 52129  1  0  0  0
 52130  1  0  0  0
 53 54  1  0  0  0
 54 55  2  0  0  0
 54131  1  0  0  0
 55 57  1  0  0  0
 55132  1  0  0  0
 56 69  2  0  0  0
 57 58  2  0  0  0
 57133  1  0  0  0
 58134  1  0  0  0
 59 60  1  0  0  0
 59 61  1  0  0  0
 59 62  1  0  0  0
 60135  1  0  0  0
 60136  1  0  0  0
 60137  1  0  0  0
 61138  1  0  0  0
 61139  1  0  0  0
 61140  1  0  0  0
 62141  1  0  0  0
 62142  1  0  0  0
 62143  1  0  0  0
 63 65  1  0  0  0
 63144  1  0  0  0
 63145  1  0  0  0
 63146  1  0  0  0
 64147  1  0  0  0
 65148  1  0  0  0
 68 81  1  0  0  0
 71 74  2  0  0  0
 71 75  1  0  0  0
 71149  1  0  0  0
 72 74  1  0  0  0
 72 76  2  0  0  0
 72150  1  0  0  0
 73 75  2  0  0  0
 73 76  1  0  0  0
 73151  1  0  0  0
 74 80  1  0  0  0
 75 86  1  0  0  0
 76 89  1  0  0  0
 77 78  1  0  0  0
 77 81  2  0  0  0
 77 82  1  0  0  0
 78 86  1  0  0  0
 78 87  2  0  0  0
 79 82  1  0  0  0
 79 83  1  0  0  0
 79 88  2  0  0  0
 80 85  2  0  0  0
 80152  1  0  0  0
 81153  1  0  0  0
 82154  1  0  0  0
 82155  1  0  0  0
 83 84  1  0  0  0
 83156  1  0  0  0
 83157  1  0  0  0
 84 86  1  0  0  0
 84158  1  0  0  0
 84159  1  0  0  0
M  ISO  4   1 100  68 101  81 101  85 100
M  END
> <chiral flag>
0

> <version>
0

> <s_m_source_file>
/data/baiqing/PycharmProjects/Reinvent-master-3.2/result/LINK_invent/BTK/process_docking_weight1_custom_product_contain_oxygen_bond_distance_aromatic_linkinvent_7_9_3/rearranged_h_0088.sdf

> <i_m_source_file_index>
85

> <r_mmod_Potential_Energy-OPLS-2005>
127.830940246582

> <r_mmod_Stretch_Energy-OPLS-2005>
86.8635025024414

> <r_mmod_Bend_Energy-OPLS-2005>
148.902603149414

> <r_mmod_Torsional_Energy-OPLS-2005>
290.541351318359

> <r_mmod_Improper_Torsional_Energy-OPLS-2005>
4.81403493881226

> <r_mmod_Van_der_Waal_Energy-OPLS-2005>
161.288101196289

> <r_mmod_Electrostatic_Energy-OPLS-2005>
-382.53515625

> <r_mmod_Solvation_Energy-OPLS-2005>
-209.281036376953

> <b_mmod_Minimization_Converged-OPLS-2005>
0

> <r_mmod_RMS_Derivative-OPLS-2005>
7.63267087936401

$$$$
85
                    3D
 Structure written by MMmdl.
150159  0  0  1  0            999 V2000
  -30.5729  -14.7439   20.4846 C   0  0  0  0  0  0
  -30.4506  -12.4572   19.4680 C   0  0  0  0  0  0
  -29.5163  -12.5185   18.2365 C   0  0  0  0  0  0
  -28.0410  -12.3387   18.6486 C   0  0  0  0  0  0
  -27.6511  -13.2227   19.8625 C   0  0  2  0  0  0
  -28.6967  -13.1104   20.9949 C   0  0  0  0  0  0
  -25.2544  -13.8170   20.5678 C   0  0  0  0  0  0
  -24.1818  -13.0431   20.9182 C   0  0  0  0  0  0
  -24.6402  -11.6908   20.8743 C   0  0  0  0  0  0
  -23.9073  -10.4290   21.0407 C   0  0  0  0  0  0
  -24.3622   -9.4205   21.9183 C   0  0  0  0  0  0
  -23.6295   -8.2241   22.0754 C   0  0  0  0  0  0
  -22.4276   -8.0281   21.3546 C   0  0  0  0  0  0
  -21.9913   -9.0257   20.4649 C   0  0  0  0  0  0
  -22.7245  -10.2134   20.3059 C   0  0  0  0  0  0
  -21.6853   -6.0733   22.5279 C   0  0  0  0  0  0
  -21.4013   -6.5637   23.8211 C   0  0  0  0  0  0
  -21.3659   -5.6792   24.9175 C   0  0  0  0  0  0
  -21.6045   -4.3054   24.7227 C   0  0  0  0  0  0
  -21.8821   -3.8146   23.4349 C   0  0  0  0  0  0
  -21.9193   -4.6961   22.3404 C   0  0  0  0  0  0
  -22.7841  -13.5223   21.1847 C   0  0  0  0  0  0
  -22.1658   -4.2144   21.0983 F   0  0  0  0  0  0
  -21.5636   -3.4538   25.7742 F   0  0  0  0  0  0
  -30.0028  -13.4897   20.4304 N   0  0  0  0  0  0
  -26.2985  -12.9366   20.3328 N   0  0  0  0  0  0
  -25.9337  -11.6516   20.5772 N   0  0  0  0  0  0
  -22.0491  -12.8218   22.0413 N   0  0  0  0  0  0
  -25.4238  -15.1887   20.4079 N   0  0  0  0  0  0
  -31.7307  -14.9218   20.0917 O   0  0  0  0  0  0
  -21.6643   -6.8876   21.4241 O   0  0  0  0  0  0
  -22.3518  -14.5524   20.6694 O   0  0  0  0  0  0
  -24.6312  -31.8552   23.1981 C   0  0  0  0  0  0
  -25.9133  -32.4756   23.8332 C   0  0  1  0  0  0
  -27.2254  -27.2666   20.1305 C   0  0  0  0  0  0
  -25.5925  -33.8558   24.2251 N   0  0  0  0  0  0
  -23.4299  -30.4766   21.5411 C   0  0  2  0  0  0
  -24.8814  -28.9256   20.1086 C   0  0  0  0  0  0
  -22.7508  -29.4596   22.4906 C   0  0  0  0  0  0
  -18.0296  -28.1381   22.8488 C   0  0  0  0  0  0
  -24.1489  -36.7288   23.2640 C   0  0  0  0  0  0
  -25.9760  -30.7680   21.3805 C   0  0  0  0  0  0
  -26.0526  -29.3912   20.7222 C   0  0  0  0  0  0
  -27.2300  -28.5729   20.7259 C   0  0  0  0  0  0
  -26.0365  -26.8730   19.4798 C   0  0  0  0  0  0
  -24.8778  -27.6733   19.4756 C   0  0  0  0  0  0
  -23.6499  -29.8102   20.1576 C   0  0  0  0  0  0
  -25.4116  -36.3072   24.0324 C   0  0  1  0  0  0
  -20.5899  -28.3698   23.1263 C   0  0  2  0  0  0
  -20.6780  -26.9414   22.5406 C   0  0  0  0  0  0
  -19.5753  -26.6379   21.5212 C   0  0  0  0  0  0
  -18.1937  -26.7921   22.1632 C   0  0  0  0  0  0
  -19.1550  -28.8857   23.2869 C   0  0  0  0  0  0
  -18.9470  -30.1459   23.8886 C   0  0  0  0  0  0
  -17.6468  -30.6585   24.0562 C   0  0  0  0  0  0
  -25.9055  -34.9441   23.5092 C   0  0  0  0  0  0
  -16.5359  -29.9082   23.6329 C   0  0  0  0  0  0
  -16.7282  -28.6498   23.0354 C   0  0  0  0  0  0
  -26.4499  -31.6580   25.0723 C   0  0  0  0  0  0
  -25.3722  -31.3746   26.1445 C   0  0  0  0  0  0
  -27.0342  -30.2990   24.6221 C   0  0  0  0  0  0
  -27.6045  -32.4328   25.7501 C   0  0  0  0  0  0
  -27.5579  -37.1799   24.8466 C   0  0  0  0  0  0
  -21.4213  -29.3045   22.3650 N   0  0  0  0  0  0
  -26.4293  -37.3768   23.9407 N   0  0  0  0  0  0
  -24.6978  -31.0512   22.0961 N   0  0  0  0  0  0
  -23.4203  -28.8140   23.3013 O   0  0  0  0  0  0
  -28.2755  -26.3192   20.1831 O   0  0  0  0  0  0
  -26.5635  -34.8917   22.4666 O   0  0  0  0  0  0
  -23.5459  -32.1376   23.7270 O   0  0  0  0  0  0
  -30.3145  -19.5787   20.0086 C   0  0  0  0  0  0
  -30.5504  -18.1502   20.0558 C   0  0  0  0  0  0
  -28.3987  -19.3223   21.3474 C   0  0  0  0  0  0
  -29.2225  -20.2587   20.6507 C   0  0  0  0  0  0
  -29.6892  -17.2567   20.7605 C   0  0  0  0  0  0
  -28.6057  -17.9086   21.4006 C   0  0  0  0  0  0
  -28.4365  -23.7433   20.6153 C   0  0  0  0  0  0
  -27.9263  -22.5486   21.2796 C   0  0  0  0  0  0
  -27.9439  -25.0446   20.7333 C   0  0  0  0  0  0
  -29.5123  -22.8520   19.9215 C   0  0  0  0  0  0
  -28.8910  -21.7178   20.6722 N   0  0  0  0  0  0
  -29.7381  -15.7750   20.8724 N   0  0  0  0  0  0
  -26.9982  -22.4039   22.0491 O   0  0  0  0  0  0
  -27.7206  -17.1472   22.0893 F   0  0  0  0  0  0
  -31.4870  -12.6091   19.1613 H   0  0  0  0  0  0
  -30.4182  -11.4692   19.9296 H   0  0  0  0  0  0
  -29.7977  -11.7532   17.5117 H   0  0  0  0  0  0
  -29.6392  -13.4774   17.7308 H   0  0  0  0  0  0
  -27.8952  -11.2872   18.8979 H   0  0  0  0  0  0
  -27.3831  -12.5438   17.8033 H   0  0  0  0  0  0
  -27.6575  -14.2525   19.5042 H   0  0  0  0  0  0
  -28.7333  -12.0916   21.3832 H   0  0  0  0  0  0
  -28.4234  -13.7411   21.8422 H   0  0  0  0  0  0
  -25.2768   -9.5677   22.4757 H   0  0  0  0  0  0
  -24.0004   -7.4632   22.7473 H   0  0  0  0  0  0
  -21.0844   -8.8778   19.8955 H   0  0  0  0  0  0
  -22.3704  -10.9674   19.6171 H   0  0  0  0  0  0
  -21.2001   -7.6143   23.9713 H   0  0  0  0  0  0
  -21.1480   -6.0522   25.9078 H   0  0  0  0  0  0
  -22.0599   -2.7606   23.2853 H   0  0  0  0  0  0
  -22.4114  -11.9884   22.4802 H   0  0  0  0  0  0
  -21.1115  -13.1246   22.2635 H   0  0  0  0  0  0
  -24.6615  -15.8447   20.5357 H   0  0  0  0  0  0
  -26.2880  -15.6369   20.1328 H   0  0  0  0  0  0
  -26.7203  -32.5410   23.1078 H   0  0  0  0  0  0
  -25.0051  -33.9694   25.0382 H   0  0  0  0  0  0
  -22.7265  -31.2988   21.3937 H   0  0  0  0  0  0
  -23.3748  -35.9625   23.3305 H   0  0  0  0  0  0
  -24.3576  -36.8910   22.2054 H   0  0  0  0  0  0
  -23.7250  -37.6493   23.6663 H   0  0  0  0  0  0
  -26.1156  -31.5286   20.6111 H   0  0  0  0  0  0
  -26.8523  -30.8172   22.0149 H   0  0  0  0  0  0
  -28.1233  -28.9176   21.2275 H   0  0  0  0  0  0
  -25.9923  -25.9065   18.9975 H   0  0  0  0  0  0
  -23.9827  -27.3111   18.9883 H   0  0  0  0  0  0
  -23.7723  -30.5864   19.4013 H   0  0  0  0  0  0
  -22.7695  -29.2415   19.8526 H   0  0  0  0  0  0
  -25.1300  -36.1918   25.0817 H   0  0  0  0  0  0
  -20.9995  -28.3277   24.1382 H   0  0  0  0  0  0
  -20.5676  -26.2312   23.3615 H   0  0  0  0  0  0
  -21.6647  -26.7430   22.1201 H   0  0  0  0  0  0
  -19.6914  -25.6288   21.1247 H   0  0  0  0  0  0
  -19.6683  -27.3186   20.6740 H   0  0  0  0  0  0
  -17.4201  -26.6662   21.4041 H   0  0  0  0  0  0
  -18.0349  -26.0063   22.9032 H   0  0  0  0  0  0
  -19.7947  -30.7278   24.2245 H   0  0  0  0  0  0
  -17.5024  -31.6263   24.5169 H   0  0  0  0  0  0
  -15.5359  -30.2983   23.7654 H   0  0  0  0  0  0
  -15.8683  -28.0814   22.7072 H   0  0  0  0  0  0
  -24.5856  -30.7150   25.7767 H   0  0  0  0  0  0
  -24.8970  -32.2933   26.4897 H   0  0  0  0  0  0
  -25.8023  -30.8883   27.0209 H   0  0  0  0  0  0
  -26.2930  -29.6739   24.1226 H   0  0  0  0  0  0
  -27.3995  -29.7251   25.4750 H   0  0  0  0  0  0
  -27.8825  -30.4253   23.9487 H   0  0  0  0  0  0
  -27.2630  -33.3619   26.2078 H   0  0  0  0  0  0
  -28.3852  -32.6907   25.0332 H   0  0  0  0  0  0
  -28.0715  -31.8461   26.5420 H   0  0  0  0  0  0
  -28.2598  -38.0093   24.7499 H   0  0  0  0  0  0
  -28.1070  -36.2622   24.6306 H   0  0  0  0  0  0
  -27.2294  -37.1467   25.8869 H   0  0  0  0  0  0
  -20.9401  -29.8775   21.6860 H   0  0  0  0  0  0
  -26.0171  -38.2845   24.1396 H   0  0  0  0  0  0
  -31.0171  -20.1776   19.4465 H   0  0  0  0  0  0
  -31.4023  -17.7474   19.5268 H   0  0  0  0  0  0
  -27.5371  -19.6972   21.8789 H   0  0  0  0  0  0
  -27.1021  -25.1664   21.4035 H   0  0  0  0  0  0
  -30.5540  -23.0043   20.2088 H   0  0  0  0  0  0
  -29.4314  -22.7135   18.8421 H   0  0  0  0  0  0
  -28.8870  -15.4125   21.2766 H   0  0  0  0  0  0
  1 25  1  0  0  0
  1 30  2  0  0  0
  1 82  1  0  0  0
  2  3  1  0  0  0
  2 25  1  0  0  0
  2 85  1  0  0  0
  2 86  1  0  0  0
  3  4  1  0  0  0
  3 87  1  0  0  0
  3 88  1  0  0  0
  4  5  1  0  0  0
  4 89  1  0  0  0
  4 90  1  0  0  0
  5  6  1  0  0  0
  5 26  1  0  0  0
  5 91  1  0  0  0
  6 25  1  0  0  0
  6 92  1  0  0  0
  6 93  1  0  0  0
  7  8  2  0  0  0
  7 26  1  0  0  0
  7 29  1  0  0  0
  8  9  1  0  0  0
  8 22  1  0  0  0
  9 10  1  0  0  0
  9 27  2  0  0  0
 10 11  2  0  0  0
 10 15  1  0  0  0
 11 12  1  0  0  0
 11 94  1  0  0  0
 12 13  2  0  0  0
 12 95  1  0  0  0
 13 14  1  0  0  0
 13 31  1  0  0  0
 14 15  2  0  0  0
 14 96  1  0  0  0
 15 97  1  0  0  0
 16 17  2  0  0  0
 16 21  1  0  0  0
 16 31  1  0  0  0
 17 18  1  0  0  0
 17 98  1  0  0  0
 18 19  2  0  0  0
 18 99  1  0  0  0
 19 20  1  0  0  0
 19 24  1  0  0  0
 20 21  2  0  0  0
 20100  1  0  0  0
 21 23  1  0  0  0
 22 28  1  0  0  0
 22 32  2  0  0  0
 26 27  1  0  0  0
 28101  1  0  0  0
 28102  1  0  0  0
 29103  1  0  0  0
 29104  1  0  0  0
 33 34  1  0  0  0
 33 66  1  0  0  0
 33 70  2  0  0  0
 34 36  1  0  0  0
 34 59  1  0  0  0
 34105  1  0  0  0
 35 44  2  0  0  0
 35 45  1  0  0  0
 35 68  1  0  0  0
 36 56  1  0  0  0
 36106  1  0  0  0
 37 39  1  0  0  0
 37 47  1  0  0  0
 37 66  1  0  0  0
 37107  1  0  0  0
 38 43  2  0  0  0
 38 46  1  0  0  0
 38 47  1  0  0  0
 39 64  1  0  0  0
 39 67  2  0  0  0
 40 52  1  0  0  0
 40 53  2  0  0  0
 40 58  1  0  0  0
 41108  1  0  0  0
 41109  1  0  0  0
 41110  1  0  0  0
 41 48  1  0  0  0
 42 43  1  0  0  0
 42 66  1  0  0  0
 42111  1  0  0  0
 42112  1  0  0  0
 43 44  1  0  0  0
 44113  1  0  0  0
 45 46  2  0  0  0
 45114  1  0  0  0
 46115  1  0  0  0
 47116  1  0  0  0
 47117  1  0  0  0
 48 56  1  0  0  0
 48 65  1  0  0  0
 48118  1  0  0  0
 49 50  1  0  0  0
 49 53  1  0  0  0
 49 64  1  0  0  0
 49119  1  0  0  0
 50 51  1  0  0  0
 50120  1  0  0  0
 50121  1  0  0  0
 51 52  1  0  0  0
 51122  1  0  0  0
 51123  1  0  0  0
 52124  1  0  0  0
 52125  1  0  0  0
 53 54  1  0  0  0
 54 55  2  0  0  0
 54126  1  0  0  0
 55 57  1  0  0  0
 55127  1  0  0  0
 56 69  2  0  0  0
 57 58  2  0  0  0
 57128  1  0  0  0
 58129  1  0  0  0
 59 60  1  0  0  0
 59 61  1  0  0  0
 59 62  1  0  0  0
 60130  1  0  0  0
 60131  1  0  0  0
 60132  1  0  0  0
 61133  1  0  0  0
 61134  1  0  0  0
 61135  1  0  0  0
 62136  1  0  0  0
 62137  1  0  0  0
 62138  1  0  0  0
 63 65  1  0  0  0
 63139  1  0  0  0
 63140  1  0  0  0
 63141  1  0  0  0
 64142  1  0  0  0
 65143  1  0  0  0
 68 79  1  0  0  0
 71 72  2  0  0  0
 71 74  1  0  0  0
 71144  1  0  0  0
 72 75  1  0  0  0
 72145  1  0  0  0
 73 74  2  0  0  0
 73 76  1  0  0  0
 73146  1  0  0  0
 74 81  1  0  0  0
 75 76  2  0  0  0
 75 82  1  0  0  0
 76 84  1  0  0  0
 77 78  1  0  0  0
 77 79  2  0  0  0
 77 80  1  0  0  0
 78 81  1  0  0  0
 78 83  2  0  0  0
 79147  1  0  0  0
 80 81  1  0  0  0
 80148  1  0  0  0
 80149  1  0  0  0
 82150  1  0  0  0
M  ISO  4   1 100  68 101  79 101  82 100
M  END
> <chiral flag>
0

> <version>
0

> <s_m_source_file>
/data/baiqing/PycharmProjects/Reinvent-master-3.2/result/LINK_invent/BTK/process_docking_weight1_custom_product_contain_oxygen_bond_distance_aromatic_linkinvent_7_9_3/rearranged_h_0088.sdf

> <i_m_source_file_index>
86

> <r_mmod_Potential_Energy-OPLS-2005>
198.142578125

> <r_mmod_Stretch_Energy-OPLS-2005>
106.317687988281

> <r_mmod_Bend_Energy-OPLS-2005>
271.832885742188

> <r_mmod_Torsional_Energy-OPLS-2005>
219.378356933594

> <r_mmod_Improper_Torsional_Energy-OPLS-2005>
3.23730540275574

> <r_mmod_Van_der_Waal_Energy-OPLS-2005>
133.984222412109

> <r_mmod_Electrostatic_Energy-OPLS-2005>
-415.522491455078

> <r_mmod_Solvation_Energy-OPLS-2005>
-209.682037353516

> <b_mmod_Minimization_Converged-OPLS-2005>
0

> <r_mmod_RMS_Derivative-OPLS-2005>
0.625052928924561

$$$$
86
                    3D
 Structure written by MMmdl.
144152  0  0  1  0            999 V2000
  -30.2061  -15.8622   20.3067 C   0  0  0  0  0  0
  -30.4029  -13.2519   19.5398 C   0  0  0  0  0  0
  -29.5575  -12.7158   18.3424 C   0  0  0  0  0  0
  -28.1462  -12.3134   18.7899 C   0  0  0  0  0  0
  -27.5848  -13.3319   19.8043 C   0  0  2  0  0  0
  -28.5836  -13.7579   20.9105 C   0  0  0  0  0  0
  -25.2274  -13.8317   20.5823 C   0  0  0  0  0  0
  -24.1692  -13.0435   20.9310 C   0  0  0  0  0  0
  -24.6426  -11.6956   20.8754 C   0  0  0  0  0  0
  -23.9137  -10.4295   21.0383 C   0  0  0  0  0  0
  -24.3664   -9.4208   21.9169 C   0  0  0  0  0  0
  -23.6320   -8.2252   22.0747 C   0  0  0  0  0  0
  -22.4300   -8.0291   21.3541 C   0  0  0  0  0  0
  -21.9949   -9.0267   20.4640 C   0  0  0  0  0  0
  -22.7300  -10.2137   20.3041 C   0  0  0  0  0  0
  -21.6859   -6.0746   22.5280 C   0  0  0  0  0  0
  -21.4019   -6.5644   23.8218 C   0  0  0  0  0  0
  -21.3660   -5.6793   24.9174 C   0  0  0  0  0  0
  -21.6042   -4.3056   24.7222 C   0  0  0  0  0  0
  -21.8822   -3.8152   23.4342 C   0  0  0  0  0  0
  -21.9194   -4.6971   22.3400 C   0  0  0  0  0  0
  -22.7703  -13.5147   21.1945 C   0  0  0  0  0  0
  -22.1664   -4.2156   21.0977 F   0  0  0  0  0  0
  -21.5624   -3.4542   25.7735 F   0  0  0  0  0  0
  -29.7184  -14.4535   20.2402 N   0  0  0  0  0  0
  -26.2732  -12.9692   20.3212 N   0  0  0  0  0  0
  -25.9373  -11.6734   20.5651 N   0  0  0  0  0  0
  -22.0382  -12.8108   22.0494 N   0  0  0  0  0  0
  -25.3819  -15.2068   20.4296 N   0  0  0  0  0  0
  -31.4486  -15.7625   20.1853 O   0  0  0  0  0  0
  -21.6647   -6.8896   21.4246 O   0  0  0  0  0  0
  -22.3370  -14.5443   20.6787 O   0  0  0  0  0  0
  -24.6982  -31.7811   23.1379 C   0  0  0  0  0  0
  -25.9491  -32.4370   23.7984 C   0  0  1  0  0  0
  -27.2272  -26.5310   20.2342 C   0  0  0  0  0  0
  -25.6000  -33.8202   24.1851 N   0  0  0  0  0  0
  -23.5313  -30.3750   21.4955 C   0  0  2  0  0  0
  -24.9881  -28.6762   20.1248 C   0  0  0  0  0  0
  -22.7824  -29.4217   22.4667 C   0  0  0  0  0  0
  -18.0349  -28.1428   22.8450 C   0  0  0  0  0  0
  -24.1498  -36.7104   23.2660 C   0  0  0  0  0  0
  -26.1174  -30.4534   21.4307 C   0  0  0  0  0  0
  -26.1768  -28.9980   20.7890 C   0  0  0  0  0  0
  -27.2691  -27.9561   20.8110 C   0  0  0  0  0  0
  -26.0096  -26.4659   19.4977 C   0  0  0  0  0  0
  -24.9521  -27.4375   19.4571 C   0  0  0  0  0  0
  -23.7931  -29.6531   20.1391 C   0  0  0  0  0  0
  -25.4158  -36.2833   24.0266 C   0  0  1  0  0  0
  -20.5991  -28.3793   23.1115 C   0  0  2  0  0  0
  -20.6806  -26.9435   22.5413 C   0  0  0  0  0  0
  -19.5792  -26.6359   21.5222 C   0  0  0  0  0  0
  -18.1973  -26.7953   22.1621 C   0  0  0  0  0  0
  -19.1619  -28.8940   23.2758 C   0  0  0  0  0  0
  -18.9523  -30.1521   23.8808 C   0  0  0  0  0  0
  -17.6512  -30.6611   24.0544 C   0  0  0  0  0  0
  -25.9145  -34.9230   23.4908 C   0  0  0  0  0  0
  -16.5402  -29.9087   23.6354 C   0  0  0  0  0  0
  -16.7328  -28.6507   23.0375 C   0  0  0  0  0  0
  -26.4604  -31.6483   25.0685 C   0  0  0  0  0  0
  -25.3625  -31.3861   26.1273 C   0  0  0  0  0  0
  -27.0562  -30.2802   24.6720 C   0  0  0  0  0  0
  -27.6016  -32.4387   25.7512 C   0  0  0  0  0  0
  -27.5548  -37.1728   24.8476 C   0  0  0  0  0  0
  -21.4458  -29.3010   22.3410 N   0  0  0  0  0  0
  -26.4276  -37.3604   23.9387 N   0  0  0  0  0  0
  -24.8076  -30.9083   22.0726 N   0  0  0  0  0  0
  -23.4195  -28.7849   23.3088 O   0  0  0  0  0  0
  -28.2108  -25.2686   20.2532 O   0  0  0  0  0  0
  -26.5816  -34.8836   22.4546 O   0  0  0  0  0  0
  -23.5967  -32.0965   23.6227 O   0  0  0  0  0  0
  -31.6293  -20.4643   20.3184 C   0  0  0  0  0  0
  -31.3596  -21.7933   20.3292 C   0  0  0  0  0  0
  -30.9226  -19.3099   20.2988 C   0  0  0  0  0  0
  -30.2674  -22.5926   20.3023 C   0  0  0  0  0  0
  -28.7345  -20.3262   20.2944 C   0  0  0  0  0  0
  -29.6072  -19.0078   20.3056 C   0  0  0  0  0  0
  -28.8466  -22.2094   20.2816 C   0  0  0  0  0  0
  -27.9631  -23.4634   20.2599 N   0  0  0  0  0  0
  -29.4305  -17.2814   20.3297 N   0  0  0  0  0  0
  -31.3783  -13.5497   19.1540 H   0  0  0  0  0  0
  -30.6183  -12.4502   20.2484 H   0  0  0  0  0  0
  -30.0577  -11.8714   17.8665 H   0  0  0  0  0  0
  -29.4856  -13.4963   17.5838 H   0  0  0  0  0  0
  -28.2086  -11.3298   19.2571 H   0  0  0  0  0  0
  -27.4816  -12.2108   17.9303 H   0  0  0  0  0  0
  -27.4161  -14.2237   19.1988 H   0  0  0  0  0  0
  -28.8942  -12.9135   21.5282 H   0  0  0  0  0  0
  -28.1045  -14.4667   21.5871 H   0  0  0  0  0  0
  -25.2813   -9.5675   22.4746 H   0  0  0  0  0  0
  -24.0020   -7.4649   22.7474 H   0  0  0  0  0  0
  -21.0879   -8.8802   19.8950 H   0  0  0  0  0  0
  -22.3766  -10.9672   19.6147 H   0  0  0  0  0  0
  -21.2014   -7.6154   23.9726 H   0  0  0  0  0  0
  -21.1475   -6.0518   25.9077 H   0  0  0  0  0  0
  -22.0595   -2.7613   23.2840 H   0  0  0  0  0  0
  -22.4051  -11.9788   22.4877 H   0  0  0  0  0  0
  -21.0981  -13.1072   22.2701 H   0  0  0  0  0  0
  -24.6087  -15.8502   20.5606 H   0  0  0  0  0  0
  -26.2129  -15.6528   20.0650 H   0  0  0  0  0  0
  -26.7589  -32.4782   23.0699 H   0  0  0  0  0  0
  -24.9996  -33.9206   24.9905 H   0  0  0  0  0  0
  -22.8662  -31.2164   21.2910 H   0  0  0  0  0  0
  -23.3767  -35.9427   23.3296 H   0  0  0  0  0  0
  -24.3549  -36.8801   22.2079 H   0  0  0  0  0  0
  -23.7265  -37.6275   23.6768 H   0  0  0  0  0  0
  -26.3393  -31.1615   20.6312 H   0  0  0  0  0  0
  -26.9617  -30.5272   22.1034 H   0  0  0  0  0  0
  -28.1638  -28.2163   21.3581 H   0  0  0  0  0  0
  -25.8297  -25.5445   18.9620 H   0  0  0  0  0  0
  -24.0606  -27.1828   18.9001 H   0  0  0  0  0  0
  -23.9808  -30.4037   19.3707 H   0  0  0  0  0  0
  -22.8932  -29.1278   19.8142 H   0  0  0  0  0  0
  -25.1381  -36.1571   25.0757 H   0  0  0  0  0  0
  -21.0072  -28.3437   24.1246 H   0  0  0  0  0  0
  -20.5654  -26.2420   23.3689 H   0  0  0  0  0  0
  -21.6663  -26.7354   22.1245 H   0  0  0  0  0  0
  -19.6939  -25.6243   21.1316 H   0  0  0  0  0  0
  -19.6743  -27.3114   20.6709 H   0  0  0  0  0  0
  -17.4240  -26.6694   21.4026 H   0  0  0  0  0  0
  -18.0360  -26.0116   22.9036 H   0  0  0  0  0  0
  -19.7999  -30.7357   24.2143 H   0  0  0  0  0  0
  -17.5064  -31.6286   24.5159 H   0  0  0  0  0  0
  -15.5400  -30.2965   23.7728 H   0  0  0  0  0  0
  -15.8726  -28.0795   22.7147 H   0  0  0  0  0  0
  -24.5837  -30.7179   25.7579 H   0  0  0  0  0  0
  -24.8787  -32.3105   26.4441 H   0  0  0  0  0  0
  -25.7760  -30.9198   27.0227 H   0  0  0  0  0  0
  -26.3318  -29.6375   24.1713 H   0  0  0  0  0  0
  -27.3909  -29.7307   25.5529 H   0  0  0  0  0  0
  -27.9321  -30.3885   24.0322 H   0  0  0  0  0  0
  -27.2524  -33.3769   26.1835 H   0  0  0  0  0  0
  -28.3950  -32.6828   25.0437 H   0  0  0  0  0  0
  -28.0548  -31.8705   26.5644 H   0  0  0  0  0  0
  -28.2568  -38.0014   24.7439 H   0  0  0  0  0  0
  -28.1039  -36.2529   24.6408 H   0  0  0  0  0  0
  -27.2247  -37.1483   25.8878 H   0  0  0  0  0  0
  -20.9802  -29.8614   21.6406 H   0  0  0  0  0  0
  -26.0085  -38.2654   24.1357 H   0  0  0  0  0  0
  -32.6953  -20.2762   20.3315 H   0  0  0  0  0  0
  -32.2678  -22.3792   20.3691 H   0  0  0  0  0  0
  -31.5674  -18.4422   20.2768 H   0  0  0  0  0  0
  -30.4674  -23.6549   20.3036 H   0  0  0  0  0  0
  -27.6843  -20.0763   20.2886 H   0  0  0  0  0  0
  -28.4460  -17.0579   20.3659 H   0  0  0  0  0  0
  1 25  1  0  0  0
  1 30  2  0  0  0
  1 79  1  0  0  0
  2  3  1  0  0  0
  2 25  1  0  0  0
  2 80  1  0  0  0
  2 81  1  0  0  0
  3  4  1  0  0  0
  3 82  1  0  0  0
  3 83  1  0  0  0
  4  5  1  0  0  0
  4 84  1  0  0  0
  4 85  1  0  0  0
  5  6  1  0  0  0
  5 26  1  0  0  0
  5 86  1  0  0  0
  6 25  1  0  0  0
  6 87  1  0  0  0
  6 88  1  0  0  0
  7  8  2  0  0  0
  7 26  1  0  0  0
  7 29  1  0  0  0
  8  9  1  0  0  0
  8 22  1  0  0  0
  9 10  1  0  0  0
  9 27  2  0  0  0
 10 11  2  0  0  0
 10 15  1  0  0  0
 11 12  1  0  0  0
 11 89  1  0  0  0
 12 13  2  0  0  0
 12 90  1  0  0  0
 13 14  1  0  0  0
 13 31  1  0  0  0
 14 15  2  0  0  0
 14 91  1  0  0  0
 15 92  1  0  0  0
 16 17  2  0  0  0
 16 21  1  0  0  0
 16 31  1  0  0  0
 17 18  1  0  0  0
 17 93  1  0  0  0
 18 19  2  0  0  0
 18 94  1  0  0  0
 19 20  1  0  0  0
 19 24  1  0  0  0
 20 21  2  0  0  0
 20 95  1  0  0  0
 21 23  1  0  0  0
 22 28  1  0  0  0
 22 32  2  0  0  0
 26 27  1  0  0  0
 28 96  1  0  0  0
 28 97  1  0  0  0
 29 98  1  0  0  0
 29 99  1  0  0  0
 33 34  1  0  0  0
 33 66  1  0  0  0
 33 70  2  0  0  0
 34 36  1  0  0  0
 34 59  1  0  0  0
 34100  1  0  0  0
 35 44  2  0  0  0
 35 45  1  0  0  0
 35 68  1  0  0  0
 36 56  1  0  0  0
 36101  1  0  0  0
 37 39  1  0  0  0
 37 47  1  0  0  0
 37 66  1  0  0  0
 37102  1  0  0  0
 38 43  2  0  0  0
 38 46  1  0  0  0
 38 47  1  0  0  0
 39 64  1  0  0  0
 39 67  2  0  0  0
 40 52  1  0  0  0
 40 53  2  0  0  0
 40 58  1  0  0  0
 41103  1  0  0  0
 41104  1  0  0  0
 41105  1  0  0  0
 41 48  1  0  0  0
 42 43  1  0  0  0
 42 66  1  0  0  0
 42106  1  0  0  0
 42107  1  0  0  0
 43 44  1  0  0  0
 44108  1  0  0  0
 45 46  2  0  0  0
 45109  1  0  0  0
 46110  1  0  0  0
 47111  1  0  0  0
 47112  1  0  0  0
 48 56  1  0  0  0
 48 65  1  0  0  0
 48113  1  0  0  0
 49 50  1  0  0  0
 49 53  1  0  0  0
 49 64  1  0  0  0
 49114  1  0  0  0
 50 51  1  0  0  0
 50115  1  0  0  0
 50116  1  0  0  0
 51 52  1  0  0  0
 51117  1  0  0  0
 51118  1  0  0  0
 52119  1  0  0  0
 52120  1  0  0  0
 53 54  1  0  0  0
 54 55  2  0  0  0
 54121  1  0  0  0
 55 57  1  0  0  0
 55122  1  0  0  0
 56 69  2  0  0  0
 57 58  2  0  0  0
 57123  1  0  0  0
 58124  1  0  0  0
 59 60  1  0  0  0
 59 61  1  0  0  0
 59 62  1  0  0  0
 60125  1  0  0  0
 60126  1  0  0  0
 60127  1  0  0  0
 61128  1  0  0  0
 61129  1  0  0  0
 61130  1  0  0  0
 62131  1  0  0  0
 62132  1  0  0  0
 62133  1  0  0  0
 63 65  1  0  0  0
 63134  1  0  0  0
 63135  1  0  0  0
 63136  1  0  0  0
 64137  1  0  0  0
 65138  1  0  0  0
 68 78  1  0  0  0
 71 72  1  0  0  0
 71 73  2  0  0  0
 71139  1  0  0  0
 72 74  2  0  0  0
 72140  1  0  0  0
 73 76  1  0  0  0
 73141  1  0  0  0
 74 77  1  0  0  0
 74142  1  0  0  0
 75 76  2  0  0  0
 75 77  1  0  0  0
 75143  1  0  0  0
 76 79  1  0  0  0
 77 78  2  0  0  0
 79144  1  0  0  0
M  ISO  4   1 100  68 101  78 101  79 100
M  END
> <chiral flag>
0

> <version>
0

> <s_m_source_file>
/data/baiqing/PycharmProjects/Reinvent-master-3.2/result/LINK_invent/BTK/process_docking_weight1_custom_product_contain_oxygen_bond_distance_aromatic_linkinvent_7_9_3/rearranged_h_0088.sdf

> <i_m_source_file_index>
87

> <r_mmod_Potential_Energy-OPLS-2005>
3133.50634765625

> <r_mmod_Stretch_Energy-OPLS-2005>
1434.18176269531

> <r_mmod_Bend_Energy-OPLS-2005>
715.964904785156

> <r_mmod_Torsional_Energy-OPLS-2005>
149.89225769043

> <r_mmod_Improper_Torsional_Energy-OPLS-2005>
3.77708601951599

> <r_mmod_Van_der_Waal_Energy-OPLS-2005>
122.030158996582

> <r_mmod_Electrostatic_Energy-OPLS-2005>
-340.546875

> <r_mmod_Solvation_Energy-OPLS-2005>
-223.754440307617

> <b_mmod_Minimization_Converged-OPLS-2005>
0

> <r_mmod_RMS_Derivative-OPLS-2005>
1.31404435634613

$$$$
87
                    3D
 Structure written by MMmdl.
152161  0  0  1  0            999 V2000
  -30.5624  -14.7553   20.4739 C   0  0  0  0  0  0
  -30.4531  -12.4633   19.4598 C   0  0  0  0  0  0
  -29.5170  -12.5185   18.2306 C   0  0  0  0  0  0
  -28.0417  -12.3339   18.6450 C   0  0  0  0  0  0
  -27.6495  -13.2200   19.8551 C   0  0  2  0  0  0
  -28.6957  -13.1161   20.9866 C   0  0  0  0  0  0
  -25.2539  -13.8172   20.5668 C   0  0  0  0  0  0
  -24.1818  -13.0442   20.9216 C   0  0  0  0  0  0
  -24.6389  -11.6914   20.8760 C   0  0  0  0  0  0
  -23.9059  -10.4296   21.0413 C   0  0  0  0  0  0
  -24.3611   -9.4208   21.9183 C   0  0  0  0  0  0
  -23.6285   -8.2246   22.0752 C   0  0  0  0  0  0
  -22.4262   -8.0285   21.3553 C   0  0  0  0  0  0
  -21.9898   -9.0257   20.4654 C   0  0  0  0  0  0
  -22.7232  -10.2134   20.3061 C   0  0  0  0  0  0
  -21.6851   -6.0726   22.5272 C   0  0  0  0  0  0
  -21.4013   -6.5628   23.8206 C   0  0  0  0  0  0
  -21.3665   -5.6783   24.9168 C   0  0  0  0  0  0
  -21.6044   -4.3046   24.7220 C   0  0  0  0  0  0
  -21.8821   -3.8140   23.4341 C   0  0  0  0  0  0
  -21.9195   -4.6955   22.3397 C   0  0  0  0  0  0
  -22.7835  -13.5226   21.1864 C   0  0  0  0  0  0
  -22.1663   -4.2143   21.0976 F   0  0  0  0  0  0
  -21.5632   -3.4528   25.7738 F   0  0  0  0  0  0
  -29.9997  -13.4972   20.4169 N   0  0  0  0  0  0
  -26.2967  -12.9352   20.3279 N   0  0  0  0  0  0
  -25.9312  -11.6509   20.5754 N   0  0  0  0  0  0
  -22.0452  -12.8233   22.0416 N   0  0  0  0  0  0
  -25.4218  -15.1892   20.3982 N   0  0  0  0  0  0
  -31.7381  -14.9302   20.1373 O   0  0  0  0  0  0
  -21.6635   -6.8873   21.4240 O   0  0  0  0  0  0
  -22.3531  -14.5526   20.6695 O   0  0  0  0  0  0
  -24.6307  -31.8569   23.1978 C   0  0  0  0  0  0
  -25.9128  -32.4782   23.8330 C   0  0  1  0  0  0
  -27.2356  -27.2767   20.1307 C   0  0  0  0  0  0
  -25.5917  -33.8573   24.2267 N   0  0  0  0  0  0
  -23.4294  -30.4770   21.5401 C   0  0  2  0  0  0
  -24.8825  -28.9192   20.1169 C   0  0  0  0  0  0
  -22.7509  -29.4617   22.4916 C   0  0  0  0  0  0
  -18.0299  -28.1426   22.8502 C   0  0  0  0  0  0
  -24.1480  -36.7286   23.2629 C   0  0  0  0  0  0
  -25.9731  -30.7757   21.3721 C   0  0  0  0  0  0
  -26.0540  -29.3936   20.7246 C   0  0  0  0  0  0
  -27.2358  -28.5833   20.7252 C   0  0  0  0  0  0
  -26.0431  -26.8612   19.5052 C   0  0  0  0  0  0
  -24.8799  -27.6575   19.5001 C   0  0  0  0  0  0
  -23.6513  -29.8055   20.1587 C   0  0  0  0  0  0
  -25.4108  -36.3094   24.0329 C   0  0  1  0  0  0
  -20.5907  -28.3732   23.1283 C   0  0  2  0  0  0
  -20.6781  -26.9442   22.5423 C   0  0  0  0  0  0
  -19.5756  -26.6423   21.5223 C   0  0  0  0  0  0
  -18.1939  -26.7973   22.1634 C   0  0  0  0  0  0
  -19.1555  -28.8893   23.2893 C   0  0  0  0  0  0
  -18.9472  -30.1486   23.8929 C   0  0  0  0  0  0
  -17.6474  -30.6611   24.0586 C   0  0  0  0  0  0
  -25.9060  -34.9462   23.5117 C   0  0  0  0  0  0
  -16.5368  -29.9126   23.6323 C   0  0  0  0  0  0
  -16.7286  -28.6538   23.0353 C   0  0  0  0  0  0
  -26.4492  -31.6586   25.0704 C   0  0  0  0  0  0
  -25.3712  -31.3733   26.1432 C   0  0  0  0  0  0
  -27.0291  -30.2997   24.6141 C   0  0  0  0  0  0
  -27.6084  -32.4278   25.7463 C   0  0  0  0  0  0
  -27.5600  -37.1785   24.8447 C   0  0  0  0  0  0
  -21.4218  -29.3075   22.3661 N   0  0  0  0  0  0
  -26.4279  -37.3805   23.9442 N   0  0  0  0  0  0
  -24.6974  -31.0540   22.0942 N   0  0  0  0  0  0
  -23.4199  -28.8159   23.3020 O   0  0  0  0  0  0
  -28.3013  -26.3520   20.1204 O   0  0  0  0  0  0
  -26.5649  -34.8939   22.4695 O   0  0  0  0  0  0
  -23.5460  -32.1373   23.7282 O   0  0  0  0  0  0
  -28.2080  -19.3407   20.7756 C   0  0  0  0  0  0
  -28.3839  -17.9215   20.7486 C   0  0  0  0  0  0
  -30.7482  -18.1951   20.5420 C   0  0  0  0  0  0
  -29.2927  -20.2569   20.7115 C   0  0  0  0  0  0
  -29.6525  -17.2809   20.6526 C   0  0  0  0  0  0
  -30.5753  -19.6323   20.5810 C   0  0  0  0  0  0
  -28.6026  -24.0061   21.2504 C   0  0  0  0  0  0
  -28.5354  -23.4135   22.5790 C   0  0  0  0  0  0
  -28.9600  -22.8685   20.3379 C   0  0  0  0  0  0
  -28.3229  -25.3748   21.1415 C   0  0  0  0  0  0
  -28.8233  -21.9331   22.4952 C   0  0  0  0  0  0
  -29.0805  -21.6852   21.0771 N   0  0  0  0  0  0
  -29.6797  -15.7919   20.7370 N   0  0  0  0  0  0
  -28.2922  -23.9836   23.6503 O   0  0  0  0  0  0
  -29.1240  -22.9352   19.1135 O   0  0  0  0  0  0
  -31.6776  -20.4205   20.5664 F   0  0  0  0  0  0
  -31.4867  -12.6248   19.1467 H   0  0  0  0  0  0
  -30.4290  -11.4748   19.9230 H   0  0  0  0  0  0
  -29.7976  -11.7545   17.5048 H   0  0  0  0  0  0
  -29.6375  -13.4780   17.7271 H   0  0  0  0  0  0
  -27.8966  -11.2838   18.8965 H   0  0  0  0  0  0
  -27.3850  -12.5366   17.7985 H   0  0  0  0  0  0
  -27.6522  -14.2458   19.4879 H   0  0  0  0  0  0
  -28.7344  -12.1013   21.3842 H   0  0  0  0  0  0
  -28.4236  -13.7537   21.8297 H   0  0  0  0  0  0
  -25.2749   -9.5682   22.4764 H   0  0  0  0  0  0
  -23.9998   -7.4625   22.7464 H   0  0  0  0  0  0
  -21.0831   -8.8779   19.8952 H   0  0  0  0  0  0
  -22.3689  -10.9674   19.6181 H   0  0  0  0  0  0
  -21.1994   -7.6133   23.9711 H   0  0  0  0  0  0
  -21.1487   -6.0507   25.9074 H   0  0  0  0  0  0
  -22.0594   -2.7602   23.2847 H   0  0  0  0  0  0
  -22.4017  -11.9900   22.4847 H   0  0  0  0  0  0
  -21.1067  -13.1293   22.2570 H   0  0  0  0  0  0
  -24.6368  -15.8280   20.4595 H   0  0  0  0  0  0
  -26.2304  -15.6055   19.9548 H   0  0  0  0  0  0
  -26.7206  -32.5461   23.1089 H   0  0  0  0  0  0
  -25.0017  -33.9695   25.0381 H   0  0  0  0  0  0
  -22.7246  -31.2985   21.3920 H   0  0  0  0  0  0
  -23.3787  -35.9568   23.3226 H   0  0  0  0  0  0
  -24.3579  -36.8968   22.2054 H   0  0  0  0  0  0
  -23.7162  -37.6439   23.6688 H   0  0  0  0  0  0
  -26.0956  -31.5285   20.5925 H   0  0  0  0  0  0
  -26.8554  -30.8431   21.9961 H   0  0  0  0  0  0
  -28.1344  -28.9428   21.2067 H   0  0  0  0  0  0
  -26.0073  -25.8865   19.0388 H   0  0  0  0  0  0
  -23.9825  -27.2843   19.0268 H   0  0  0  0  0  0
  -23.7795  -30.5793   19.4006 H   0  0  0  0  0  0
  -22.7697  -29.2405   19.8514 H   0  0  0  0  0  0
  -25.1262  -36.1951   25.0815 H   0  0  0  0  0  0
  -21.0004  -28.3323   24.1402 H   0  0  0  0  0  0
  -20.5690  -26.2331   23.3626 H   0  0  0  0  0  0
  -21.6651  -26.7469   22.1217 H   0  0  0  0  0  0
  -19.6901  -25.6338   21.1243 H   0  0  0  0  0  0
  -19.6688  -27.3239   20.6757 H   0  0  0  0  0  0
  -17.4199  -26.6741   21.4040 H   0  0  0  0  0  0
  -18.0325  -26.0110   22.9022 H   0  0  0  0  0  0
  -19.7948  -30.7301   24.2311 H   0  0  0  0  0  0
  -17.5026  -31.6286   24.5211 H   0  0  0  0  0  0
  -15.5369  -30.3044   23.7625 H   0  0  0  0  0  0
  -15.8683  -28.0863   22.7064 H   0  0  0  0  0  0
  -24.5914  -30.7043   25.7770 H   0  0  0  0  0  0
  -24.8875  -32.2900   26.4824 H   0  0  0  0  0  0
  -25.8040  -30.8948   27.0229 H   0  0  0  0  0  0
  -26.2830  -29.6787   24.1176 H   0  0  0  0  0  0
  -27.3989  -29.7225   25.4629 H   0  0  0  0  0  0
  -27.8712  -30.4265   23.9329 H   0  0  0  0  0  0
  -27.2757  -33.3618   26.2003 H   0  0  0  0  0  0
  -28.3919  -32.6751   25.0282 H   0  0  0  0  0  0
  -28.0715  -31.8398   26.5401 H   0  0  0  0  0  0
  -28.2560  -38.0146   24.7626 H   0  0  0  0  0  0
  -28.1155  -36.2696   24.6094 H   0  0  0  0  0  0
  -27.2345  -37.1224   25.8849 H   0  0  0  0  0  0
  -20.9411  -29.8786   21.6855 H   0  0  0  0  0  0
  -26.0162  -38.2858   24.1532 H   0  0  0  0  0  0
  -27.2075  -19.7267   20.9126 H   0  0  0  0  0  0
  -27.4942  -17.3153   20.8456 H   0  0  0  0  0  0
  -31.7533  -17.8022   20.4792 H   0  0  0  0  0  0
  -28.0793  -25.8919   22.0610 H   0  0  0  0  0  0
  -27.9664  -21.3636   22.8560 H   0  0  0  0  0  0
  -29.6974  -21.6839   23.0966 H   0  0  0  0  0  0
  -28.7755  -15.4070   20.9655 H   0  0  0  0  0  0
  1 25  1  0  0  0
  1 30  2  0  0  0
  1 83  1  0  0  0
  2  3  1  0  0  0
  2 25  1  0  0  0
  2 87  1  0  0  0
  2 88  1  0  0  0
  3  4  1  0  0  0
  3 89  1  0  0  0
  3 90  1  0  0  0
  4  5  1  0  0  0
  4 91  1  0  0  0
  4 92  1  0  0  0
  5  6  1  0  0  0
  5 26  1  0  0  0
  5 93  1  0  0  0
  6 25  1  0  0  0
  6 94  1  0  0  0
  6 95  1  0  0  0
  7  8  2  0  0  0
  7 26  1  0  0  0
  7 29  1  0  0  0
  8  9  1  0  0  0
  8 22  1  0  0  0
  9 10  1  0  0  0
  9 27  2  0  0  0
 10 11  2  0  0  0
 10 15  1  0  0  0
 11 12  1  0  0  0
 11 96  1  0  0  0
 12 13  2  0  0  0
 12 97  1  0  0  0
 13 14  1  0  0  0
 13 31  1  0  0  0
 14 15  2  0  0  0
 14 98  1  0  0  0
 15 99  1  0  0  0
 16 17  2  0  0  0
 16 21  1  0  0  0
 16 31  1  0  0  0
 17 18  1  0  0  0
 17100  1  0  0  0
 18 19  2  0  0  0
 18101  1  0  0  0
 19 20  1  0  0  0
 19 24  1  0  0  0
 20 21  2  0  0  0
 20102  1  0  0  0
 21 23  1  0  0  0
 22 28  1  0  0  0
 22 32  2  0  0  0
 26 27  1  0  0  0
 28103  1  0  0  0
 28104  1  0  0  0
 29105  1  0  0  0
 29106  1  0  0  0
 33 34  1  0  0  0
 33 66  1  0  0  0
 33 70  2  0  0  0
 34 36  1  0  0  0
 34 59  1  0  0  0
 34107  1  0  0  0
 35 44  2  0  0  0
 35 45  1  0  0  0
 35 68  1  0  0  0
 36 56  1  0  0  0
 36108  1  0  0  0
 37 39  1  0  0  0
 37 47  1  0  0  0
 37 66  1  0  0  0
 37109  1  0  0  0
 38 43  2  0  0  0
 38 46  1  0  0  0
 38 47  1  0  0  0
 39 64  1  0  0  0
 39 67  2  0  0  0
 40 52  1  0  0  0
 40 53  2  0  0  0
 40 58  1  0  0  0
 41110  1  0  0  0
 41111  1  0  0  0
 41112  1  0  0  0
 41 48  1  0  0  0
 42 43  1  0  0  0
 42 66  1  0  0  0
 42113  1  0  0  0
 42114  1  0  0  0
 43 44  1  0  0  0
 44115  1  0  0  0
 45 46  2  0  0  0
 45116  1  0  0  0
 46117  1  0  0  0
 47118  1  0  0  0
 47119  1  0  0  0
 48 56  1  0  0  0
 48 65  1  0  0  0
 48120  1  0  0  0
 49 50  1  0  0  0
 49 53  1  0  0  0
 49 64  1  0  0  0
 49121  1  0  0  0
 50 51  1  0  0  0
 50122  1  0  0  0
 50123  1  0  0  0
 51 52  1  0  0  0
 51124  1  0  0  0
 51125  1  0  0  0
 52126  1  0  0  0
 52127  1  0  0  0
 53 54  1  0  0  0
 54 55  2  0  0  0
 54128  1  0  0  0
 55 57  1  0  0  0
 55129  1  0  0  0
 56 69  2  0  0  0
 57 58  2  0  0  0
 57130  1  0  0  0
 58131  1  0  0  0
 59 60  1  0  0  0
 59 61  1  0  0  0
 59 62  1  0  0  0
 60132  1  0  0  0
 60133  1  0  0  0
 60134  1  0  0  0
 61135  1  0  0  0
 61136  1  0  0  0
 61137  1  0  0  0
 62138  1  0  0  0
 62139  1  0  0  0
 62140  1  0  0  0
 63 65  1  0  0  0
 63141  1  0  0  0
 63142  1  0  0  0
 63143  1  0  0  0
 64144  1  0  0  0
 65145  1  0  0  0
 68 80  1  0  0  0
 71 72  2  0  0  0
 71 74  1  0  0  0
 71146  1  0  0  0
 72 75  1  0  0  0
 72147  1  0  0  0
 73 75  2  0  0  0
 73 76  1  0  0  0
 73148  1  0  0  0
 74 76  2  0  0  0
 74 82  1  0  0  0
 75 83  1  0  0  0
 76 86  1  0  0  0
 77 78  1  0  0  0
 77 79  1  0  0  0
 77 80  2  0  0  0
 78 81  1  0  0  0
 78 84  2  0  0  0
 79 82  1  0  0  0
 79 85  2  0  0  0
 80149  1  0  0  0
 81 82  1  0  0  0
 81150  1  0  0  0
 81151  1  0  0  0
 83152  1  0  0  0
M  ISO  4   1 100  68 101  80 101  83 100
M  END
> <chiral flag>
0

> <version>
0

> <s_m_source_file>
/data/baiqing/PycharmProjects/Reinvent-master-3.2/result/LINK_invent/BTK/process_docking_weight1_custom_product_contain_oxygen_bond_distance_aromatic_linkinvent_7_9_3/rearranged_h_0088.sdf

> <i_m_source_file_index>
88

> <r_mmod_Potential_Energy-OPLS-2005>
280.198608398438

> <r_mmod_Stretch_Energy-OPLS-2005>
112.381683349609

> <r_mmod_Bend_Energy-OPLS-2005>
260.190368652344

> <r_mmod_Torsional_Energy-OPLS-2005>
301.230712890625

> <r_mmod_Improper_Torsional_Energy-OPLS-2005>
7.79251050949097

> <r_mmod_Van_der_Waal_Energy-OPLS-2005>
125.019226074219

> <r_mmod_Electrostatic_Energy-OPLS-2005>
-373.0458984375

> <r_mmod_Solvation_Energy-OPLS-2005>
-239.428329467773

> <b_mmod_Minimization_Converged-OPLS-2005>
0

> <r_mmod_RMS_Derivative-OPLS-2005>
2.17042231559753

$$$$
88
                    3D
 Structure written by MMmdl.
157166  0  0  1  0            999 V2000
  -30.6119  -14.6758   20.4659 C   0  0  0  0  0  0
  -30.4464  -12.4135   19.4498 C   0  0  0  0  0  0
  -29.5120  -12.5062   18.2229 C   0  0  0  0  0  0
  -28.0347  -12.3378   18.6349 C   0  0  0  0  0  0
  -27.6504  -13.2122   19.8581 C   0  0  2  0  0  0
  -28.7005  -13.0941   20.9857 C   0  0  0  0  0  0
  -25.2557  -13.8127   20.5734 C   0  0  0  0  0  0
  -24.1818  -13.0400   20.9213 C   0  0  0  0  0  0
  -24.6383  -11.6871   20.8735 C   0  0  0  0  0  0
  -23.9057  -10.4264   21.0405 C   0  0  0  0  0  0
  -24.3609   -9.4179   21.9177 C   0  0  0  0  0  0
  -23.6280   -8.2221   22.0760 C   0  0  0  0  0  0
  -22.4253   -8.0270   21.3558 C   0  0  0  0  0  0
  -21.9893   -9.0248   20.4659 C   0  0  0  0  0  0
  -22.7235  -10.2116   20.3056 C   0  0  0  0  0  0
  -21.6849   -6.0723   22.5276 C   0  0  0  0  0  0
  -21.4010   -6.5630   23.8209 C   0  0  0  0  0  0
  -21.3663   -5.6790   24.9180 C   0  0  0  0  0  0
  -21.6043   -4.3053   24.7236 C   0  0  0  0  0  0
  -21.8811   -3.8144   23.4359 C   0  0  0  0  0  0
  -21.9190   -4.6953   22.3407 C   0  0  0  0  0  0
  -22.7840  -13.5205   21.1860 C   0  0  0  0  0  0
  -22.1652   -4.2139   21.0985 F   0  0  0  0  0  0
  -21.5642   -3.4536   25.7758 F   0  0  0  0  0  0
  -30.0128  -13.4410   20.4159 N   0  0  0  0  0  0
  -26.2976  -12.9299   20.3313 N   0  0  0  0  0  0
  -25.9300  -11.6457   20.5728 N   0  0  0  0  0  0
  -22.0463  -12.8224   22.0426 N   0  0  0  0  0  0
  -25.4261  -15.1862   20.4228 N   0  0  0  0  0  0
  -31.7859  -14.8342   20.1204 O   0  0  0  0  0  0
  -21.6622   -6.8868   21.4241 O   0  0  0  0  0  0
  -22.3536  -14.5507   20.6698 O   0  0  0  0  0  0
  -24.6288  -31.8596   23.2020 C   0  0  0  0  0  0
  -25.9115  -32.4786   23.8366 C   0  0  1  0  0  0
  -27.2324  -27.3056   20.0941 C   0  0  0  0  0  0
  -25.5904  -33.8581   24.2285 N   0  0  0  0  0  0
  -23.4253  -30.4849   21.5466 C   0  0  2  0  0  0
  -24.8735  -28.9440   20.1138 C   0  0  0  0  0  0
  -22.7502  -29.4634   22.4930 C   0  0  0  0  0  0
  -18.0300  -28.1399   22.8502 C   0  0  0  0  0  0
  -24.1485  -36.7302   23.2632 C   0  0  0  0  0  0
  -25.9705  -30.7836   21.3787 C   0  0  0  0  0  0
  -26.0454  -29.4098   20.7218 C   0  0  0  0  0  0
  -27.2258  -28.6003   20.7099 C   0  0  0  0  0  0
  -26.0288  -26.9138   19.4521 C   0  0  0  0  0  0
  -24.8680  -27.7008   19.4736 C   0  0  0  0  0  0
  -23.6418  -29.8234   20.1628 C   0  0  0  0  0  0
  -25.4094  -36.3086   24.0338 C   0  0  1  0  0  0
  -20.5906  -28.3702   23.1278 C   0  0  2  0  0  0
  -20.6783  -26.9415   22.5416 C   0  0  0  0  0  0
  -19.5752  -26.6397   21.5219 C   0  0  0  0  0  0
  -18.1933  -26.7946   22.1633 C   0  0  0  0  0  0
  -19.1556  -28.8868   23.2894 C   0  0  0  0  0  0
  -18.9467  -30.1469   23.8910 C   0  0  0  0  0  0
  -17.6463  -30.6590   24.0571 C   0  0  0  0  0  0
  -25.9038  -34.9454   23.5112 C   0  0  0  0  0  0
  -16.5360  -29.9093   23.6321 C   0  0  0  0  0  0
  -16.7284  -28.6516   23.0340 C   0  0  0  0  0  0
  -26.4459  -31.6597   25.0749 C   0  0  0  0  0  0
  -25.3670  -31.3758   26.1474 C   0  0  0  0  0  0
  -27.0288  -30.3017   24.6205 C   0  0  0  0  0  0
  -27.6046  -32.4301   25.7502 C   0  0  0  0  0  0
  -27.5583  -37.1791   24.8446 C   0  0  0  0  0  0
  -21.4211  -29.3059   22.3675 N   0  0  0  0  0  0
  -26.4267  -37.3790   23.9430 N   0  0  0  0  0  0
  -24.6944  -31.0593   22.0992 N   0  0  0  0  0  0
  -23.4209  -28.8155   23.3006 O   0  0  0  0  0  0
  -28.3368  -26.4234   20.1296 O   0  0  0  0  0  0
  -26.5626  -34.8920   22.4689 O   0  0  0  0  0  0
  -23.5436  -32.1407   23.7313 O   0  0  0  0  0  0
  -29.1169  -19.2968   19.3861 C   0  0  0  0  0  0
  -30.5523  -19.4286   21.2951 C   0  0  0  0  0  0
  -29.1301  -17.8625   19.4583 C   0  0  0  0  0  0
  -29.8039  -20.1361   20.3077 C   0  0  0  0  0  0
  -29.8910  -17.1731   20.4649 C   0  0  0  0  0  0
  -30.5972  -18.0032   21.3743 C   0  0  0  0  0  0
  -30.3318  -23.8199   20.4089 C   0  0  0  0  0  0
  -29.0448  -23.8197   20.0555 C   0  0  0  0  0  0
  -30.7963  -22.4462   20.5267 C   0  0  0  0  0  0
  -28.6667  -22.3985   19.9405 C   0  0  0  0  0  0
  -28.3585  -17.1180   18.4180 C   0  0  0  0  0  0
  -27.0495  -17.7328   17.9325 C   0  0  0  0  0  0
  -28.0630  -25.0066   19.7557 C   0  0  0  0  0  0
  -29.7515  -21.6229   20.2513 N   0  0  0  0  0  0
  -29.7725  -15.7285   20.7220 N   0  0  0  0  0  0
  -31.9474  -22.0884   20.7987 O   0  0  0  0  0  0
  -27.5561  -21.9618   19.6165 O   0  0  0  0  0  0
  -28.7049  -16.0294   17.9554 O   0  0  0  0  0  0
  -31.2854  -17.4302   22.3901 F   0  0  0  0  0  0
  -31.4837  -12.5504   19.1413 H   0  0  0  0  0  0
  -30.3978  -11.4229   19.9029 H   0  0  0  0  0  0
  -29.7830  -11.7505   17.4850 H   0  0  0  0  0  0
  -29.6485  -13.4700   17.7310 H   0  0  0  0  0  0
  -27.8748  -11.2849   18.8715 H   0  0  0  0  0  0
  -27.3847  -12.5641   17.7884 H   0  0  0  0  0  0
  -27.6546  -14.2410   19.5044 H   0  0  0  0  0  0
  -28.7192  -12.0774   21.3831 H   0  0  0  0  0  0
  -28.4425  -13.7399   21.8269 H   0  0  0  0  0  0
  -25.2743   -9.5647   22.4760 H   0  0  0  0  0  0
  -23.9988   -7.4602   22.7466 H   0  0  0  0  0  0
  -21.0829   -8.8769   19.8956 H   0  0  0  0  0  0
  -22.3693  -10.9662   19.6171 H   0  0  0  0  0  0
  -21.1983   -7.6131   23.9714 H   0  0  0  0  0  0
  -21.1500   -6.0521   25.9090 H   0  0  0  0  0  0
  -22.0588   -2.7604   23.2864 H   0  0  0  0  0  0
  -22.4051  -11.9894   22.4850 H   0  0  0  0  0  0
  -21.1080  -13.1275   22.2588 H   0  0  0  0  0  0
  -24.6621  -15.8396   20.5594 H   0  0  0  0  0  0
  -26.2778  -15.6331   20.1191 H   0  0  0  0  0  0
  -26.7200  -32.5463   23.1132 H   0  0  0  0  0  0
  -25.0008  -33.9716   25.0399 H   0  0  0  0  0  0
  -22.7210  -31.3060   21.4007 H   0  0  0  0  0  0
  -23.3755  -35.9629   23.3254 H   0  0  0  0  0  0
  -24.3597  -36.8957   22.2060 H   0  0  0  0  0  0
  -23.7225  -37.6483   23.6676 H   0  0  0  0  0  0
  -26.0994  -31.5404   20.6036 H   0  0  0  0  0  0
  -26.8518  -30.8396   22.0065 H   0  0  0  0  0  0
  -28.1223  -28.9486   21.2030 H   0  0  0  0  0  0
  -25.9372  -25.9779   18.9244 H   0  0  0  0  0  0
  -23.9729  -27.3406   18.9861 H   0  0  0  0  0  0
  -23.7634  -30.5973   19.4038 H   0  0  0  0  0  0
  -22.7628  -29.2512   19.8622 H   0  0  0  0  0  0
  -25.1264  -36.1930   25.0830 H   0  0  0  0  0  0
  -21.0009  -28.3277   24.1396 H   0  0  0  0  0  0
  -20.5658  -26.2309   23.3622 H   0  0  0  0  0  0
  -21.6647  -26.7431   22.1219 H   0  0  0  0  0  0
  -19.6885  -25.6304   21.1255 H   0  0  0  0  0  0
  -19.6660  -27.3203   20.6745 H   0  0  0  0  0  0
  -17.4195  -26.6708   21.4046 H   0  0  0  0  0  0
  -18.0310  -26.0086   22.9019 H   0  0  0  0  0  0
  -19.7938  -30.7300   24.2267 H   0  0  0  0  0  0
  -17.5009  -31.6265   24.5185 H   0  0  0  0  0  0
  -15.5354  -30.2985   23.7635 H   0  0  0  0  0  0
  -15.8695  -28.0831   22.7024 H   0  0  0  0  0  0
  -24.5836  -30.7105   25.7814 H   0  0  0  0  0  0
  -24.8854  -32.2930   26.4883 H   0  0  0  0  0  0
  -25.7969  -30.8954   27.0275 H   0  0  0  0  0  0
  -26.2875  -29.6801   24.1171 H   0  0  0  0  0  0
  -27.3916  -29.7237   25.4714 H   0  0  0  0  0  0
  -27.8773  -30.4302   23.9480 H   0  0  0  0  0  0
  -27.2704  -33.3616   26.2082 H   0  0  0  0  0  0
  -28.3853  -32.6822   25.0313 H   0  0  0  0  0  0
  -28.0716  -31.8410   26.5405 H   0  0  0  0  0  0
  -28.2556  -38.0133   24.7566 H   0  0  0  0  0  0
  -28.1118  -36.2667   24.6157 H   0  0  0  0  0  0
  -27.2333  -37.1345   25.8855 H   0  0  0  0  0  0
  -20.9371  -29.8810   21.6924 H   0  0  0  0  0  0
  -26.0139  -38.2858   24.1451 H   0  0  0  0  0  0
  -28.5547  -19.7700   18.5924 H   0  0  0  0  0  0
  -31.0922  -19.9815   22.0475 H   0  0  0  0  0  0
  -30.9443  -24.6929   20.5671 H   0  0  0  0  0  0
  -26.6028  -18.3660   18.6990 H   0  0  0  0  0  0
  -26.3341  -16.9491   17.6866 H   0  0  0  0  0  0
  -27.2237  -18.3298   17.0386 H   0  0  0  0  0  0
  -27.1380  -24.7025   20.2469 H   0  0  0  0  0  0
  -27.8857  -24.9739   18.6785 H   0  0  0  0  0  0
  -28.8417  -15.4236   20.9541 H   0  0  0  0  0  0
  1 25  1  0  0  0
  1 30  2  0  0  0
  1 85  1  0  0  0
  2  3  1  0  0  0
  2 25  1  0  0  0
  2 90  1  0  0  0
  2 91  1  0  0  0
  3  4  1  0  0  0
  3 92  1  0  0  0
  3 93  1  0  0  0
  4  5  1  0  0  0
  4 94  1  0  0  0
  4 95  1  0  0  0
  5  6  1  0  0  0
  5 26  1  0  0  0
  5 96  1  0  0  0
  6 25  1  0  0  0
  6 97  1  0  0  0
  6 98  1  0  0  0
  7  8  2  0  0  0
  7 26  1  0  0  0
  7 29  1  0  0  0
  8  9  1  0  0  0
  8 22  1  0  0  0
  9 10  1  0  0  0
  9 27  2  0  0  0
 10 11  2  0  0  0
 10 15  1  0  0  0
 11 12  1  0  0  0
 11 99  1  0  0  0
 12 13  2  0  0  0
 12100  1  0  0  0
 13 14  1  0  0  0
 13 31  1  0  0  0
 14 15  2  0  0  0
 14101  1  0  0  0
 15102  1  0  0  0
 16 17  2  0  0  0
 16 21  1  0  0  0
 16 31  1  0  0  0
 17 18  1  0  0  0
 17103  1  0  0  0
 18 19  2  0  0  0
 18104  1  0  0  0
 19 20  1  0  0  0
 19 24  1  0  0  0
 20 21  2  0  0  0
 20105  1  0  0  0
 21 23  1  0  0  0
 22 28  1  0  0  0
 22 32  2  0  0  0
 26 27  1  0  0  0
 28106  1  0  0  0
 28107  1  0  0  0
 29108  1  0  0  0
 29109  1  0  0  0
 33 34  1  0  0  0
 33 66  1  0  0  0
 33 70  2  0  0  0
 34 36  1  0  0  0
 34 59  1  0  0  0
 34110  1  0  0  0
 35 44  2  0  0  0
 35 45  1  0  0  0
 35 68  1  0  0  0
 36 56  1  0  0  0
 36111  1  0  0  0
 37 39  1  0  0  0
 37 47  1  0  0  0
 37 66  1  0  0  0
 37112  1  0  0  0
 38 43  2  0  0  0
 38 46  1  0  0  0
 38 47  1  0  0  0
 39 64  1  0  0  0
 39 67  2  0  0  0
 40 52  1  0  0  0
 40 53  2  0  0  0
 40 58  1  0  0  0
 41113  1  0  0  0
 41114  1  0  0  0
 41115  1  0  0  0
 41 48  1  0  0  0
 42 43  1  0  0  0
 42 66  1  0  0  0
 42116  1  0  0  0
 42117  1  0  0  0
 43 44  1  0  0  0
 44118  1  0  0  0
 45 46  2  0  0  0
 45119  1  0  0  0
 46120  1  0  0  0
 47121  1  0  0  0
 47122  1  0  0  0
 48 56  1  0  0  0
 48 65  1  0  0  0
 48123  1  0  0  0
 49 50  1  0  0  0
 49 53  1  0  0  0
 49 64  1  0  0  0
 49124  1  0  0  0
 50 51  1  0  0  0
 50125  1  0  0  0
 50126  1  0  0  0
 51 52  1  0  0  0
 51127  1  0  0  0
 51128  1  0  0  0
 52129  1  0  0  0
 52130  1  0  0  0
 53 54  1  0  0  0
 54 55  2  0  0  0
 54131  1  0  0  0
 55 57  1  0  0  0
 55132  1  0  0  0
 56 69  2  0  0  0
 57 58  2  0  0  0
 57133  1  0  0  0
 58134  1  0  0  0
 59 60  1  0  0  0
 59 61  1  0  0  0
 59 62  1  0  0  0
 60135  1  0  0  0
 60136  1  0  0  0
 60137  1  0  0  0
 61138  1  0  0  0
 61139  1  0  0  0
 61140  1  0  0  0
 62141  1  0  0  0
 62142  1  0  0  0
 62143  1  0  0  0
 63 65  1  0  0  0
 63144  1  0  0  0
 63145  1  0  0  0
 63146  1  0  0  0
 64147  1  0  0  0
 65148  1  0  0  0
 68 83  1  0  0  0
 71 73  2  0  0  0
 71 74  1  0  0  0
 71149  1  0  0  0
 72 74  2  0  0  0
 72 76  1  0  0  0
 72150  1  0  0  0
 73 75  1  0  0  0
 73 81  1  0  0  0
 74 84  1  0  0  0
 75 76  2  0  0  0
 75 85  1  0  0  0
 76 89  1  0  0  0
 77 78  2  0  0  0
 77 79  1  0  0  0
 77151  1  0  0  0
 78 80  1  0  0  0
 78 83  1  0  0  0
 79 84  1  0  0  0
 79 86  2  0  0  0
 80 84  1  0  0  0
 80 87  2  0  0  0
 81 82  1  0  0  0
 81 88  2  0  0  0
 82152  1  0  0  0
 82153  1  0  0  0
 82154  1  0  0  0
 83155  1  0  0  0
 83156  1  0  0  0
 85157  1  0  0  0
M  ISO  4   1 100  68 101  83 101  85 100
M  END
> <chiral flag>
0

> <version>
0

> <s_m_source_file>
/data/baiqing/PycharmProjects/Reinvent-master-3.2/result/LINK_invent/BTK/process_docking_weight1_custom_product_contain_oxygen_bond_distance_aromatic_linkinvent_7_9_3/rearranged_h_0088.sdf

> <i_m_source_file_index>
89

> <r_mmod_Potential_Energy-OPLS-2005>
113.238021850586

> <r_mmod_Stretch_Energy-OPLS-2005>
91.1719512939453

> <r_mmod_Bend_Energy-OPLS-2005>
184.099182128906

> <r_mmod_Torsional_Energy-OPLS-2005>
293.418762207031

> <r_mmod_Improper_Torsional_Energy-OPLS-2005>
6.59316253662109

> <r_mmod_Van_der_Waal_Energy-OPLS-2005>
143.87922668457

> <r_mmod_Electrostatic_Energy-OPLS-2005>
-417.162475585938

> <r_mmod_Solvation_Energy-OPLS-2005>
-248.927032470703

> <b_mmod_Minimization_Converged-OPLS-2005>
0

> <r_mmod_RMS_Derivative-OPLS-2005>
2.63632988929749

$$$$
89
                    3D
 Structure written by MMmdl.
154163  0  0  1  0            999 V2000
  -30.7762  -14.4667   20.5213 C   0  0  0  0  0  0
  -30.3887  -12.2876   19.4740 C   0  0  0  0  0  0
  -29.5034  -12.4678   18.2264 C   0  0  0  0  0  0
  -28.0112  -12.3792   18.6098 C   0  0  0  0  0  0
  -27.6488  -13.2208   19.8669 C   0  0  2  0  0  0
  -28.6842  -13.0891   21.0069 C   0  0  0  0  0  0
  -25.2525  -13.8130   20.5540 C   0  0  0  0  0  0
  -24.1813  -13.0470   20.9180 C   0  0  0  0  0  0
  -24.6382  -11.6920   20.8824 C   0  0  0  0  0  0
  -23.9078  -10.4325   21.0464 C   0  0  0  0  0  0
  -24.3617   -9.4229   21.9228 C   0  0  0  0  0  0
  -23.6293   -8.2259   22.0782 C   0  0  0  0  0  0
  -22.4267   -8.0315   21.3555 C   0  0  0  0  0  0
  -21.9933   -9.0315   20.4668 C   0  0  0  0  0  0
  -22.7287  -10.2189   20.3085 C   0  0  0  0  0  0
  -21.6842   -6.0770   22.5290 C   0  0  0  0  0  0
  -21.4013   -6.5662   23.8250 C   0  0  0  0  0  0
  -21.3666   -5.6795   24.9193 C   0  0  0  0  0  0
  -21.6056   -4.3065   24.7223 C   0  0  0  0  0  0
  -21.8809   -3.8168   23.4335 C   0  0  0  0  0  0
  -21.9168   -4.6988   22.3391 C   0  0  0  0  0  0
  -22.7860  -13.5331   21.1801 C   0  0  0  0  0  0
  -22.1612   -4.2164   21.0962 F   0  0  0  0  0  0
  -21.5651   -3.4540   25.7707 F   0  0  0  0  0  0
  -30.0147  -13.3393   20.4332 N   0  0  0  0  0  0
  -26.2956  -12.9333   20.3308 N   0  0  0  0  0  0
  -25.9311  -11.6508   20.5831 N   0  0  0  0  0  0
  -22.0379  -12.8415   22.0316 N   0  0  0  0  0  0
  -25.4329  -15.1816   20.3589 N   0  0  0  0  0  0
  -31.9563  -14.4782   20.1488 O   0  0  0  0  0  0
  -21.6619   -6.8917   21.4245 O   0  0  0  0  0  0
  -22.3672  -14.5678   20.6659 O   0  0  0  0  0  0
  -24.6121  -31.8743   23.2109 C   0  0  0  0  0  0
  -25.8993  -32.4884   23.8439 C   0  0  1  0  0  0
  -27.2179  -27.4495   20.0905 C   0  0  0  0  0  0
  -25.5824  -33.8690   24.2367 N   0  0  0  0  0  0
  -23.4018  -30.4959   21.5549 C   0  0  2  0  0  0
  -24.8489  -28.9809   20.1050 C   0  0  0  0  0  0
  -22.7454  -29.4640   22.5001 C   0  0  0  0  0  0
  -18.0275  -28.1365   22.8514 C   0  0  0  0  0  0
  -24.1481  -36.7327   23.2655 C   0  0  0  0  0  0
  -25.9321  -30.8490   21.3614 C   0  0  0  0  0  0
  -26.0124  -29.4896   20.6962 C   0  0  0  0  0  0
  -27.2106  -28.7384   20.6704 C   0  0  0  0  0  0
  -26.0424  -26.9567   19.4862 C   0  0  0  0  0  0
  -24.8598  -27.7196   19.4829 C   0  0  0  0  0  0
  -23.6114  -29.8508   20.1615 C   0  0  0  0  0  0
  -25.4120  -36.3192   24.0367 C   0  0  1  0  0  0
  -20.5880  -28.3643   23.1366 C   0  0  2  0  0  0
  -20.6763  -26.9387   22.5446 C   0  0  0  0  0  0
  -19.5729  -26.6370   21.5268 C   0  0  0  0  0  0
  -18.1911  -26.7936   22.1660 C   0  0  0  0  0  0
  -19.1524  -28.8834   23.2942 C   0  0  0  0  0  0
  -18.9420  -30.1456   23.8939 C   0  0  0  0  0  0
  -17.6412  -30.6581   24.0544 C   0  0  0  0  0  0
  -25.9044  -34.9539   23.5203 C   0  0  0  0  0  0
  -16.5316  -29.9076   23.6306 C   0  0  0  0  0  0
  -16.7259  -28.6484   23.0355 C   0  0  0  0  0  0
  -26.4414  -31.6597   25.0712 C   0  0  0  0  0  0
  -25.3635  -31.3636   26.1423 C   0  0  0  0  0  0
  -27.0192  -30.3067   24.5997 C   0  0  0  0  0  0
  -27.6040  -32.4289   25.7398 C   0  0  0  0  0  0
  -27.5621  -37.1844   24.8485 C   0  0  0  0  0  0
  -21.4187  -29.2999   22.3748 N   0  0  0  0  0  0
  -26.4344  -37.3843   23.9406 N   0  0  0  0  0  0
  -24.6680  -31.0864   22.1003 N   0  0  0  0  0  0
  -23.4256  -28.8187   23.3023 O   0  0  0  0  0  0
  -28.3415  -26.6541   20.1230 O   0  0  0  0  0  0
  -26.5668  -34.8963   22.4800 O   0  0  0  0  0  0
  -23.5300  -32.1488   23.7485 O   0  0  0  0  0  0
  -28.9785  -18.5604   21.6341 C   0  0  0  0  0  0
  -28.6403  -19.9530   21.6225 C   0  0  0  0  0  0
  -30.0266  -18.2471   20.8050 C   0  0  0  0  0  0
  -29.4060  -20.7591   20.7969 C   0  0  0  0  0  0
  -28.9030  -24.3428   20.5189 C   0  0  0  0  0  0
  -28.7123  -23.0850   21.2237 C   0  0  0  0  0  0
  -28.1939  -25.4578   20.7996 C   0  0  0  0  0  0
  -30.7315  -16.9802   20.5707 C   0  0  0  0  0  0
  -29.9235  -24.1946   19.4403 C   0  0  0  0  0  0
  -30.0929  -22.6759   19.3749 C   0  0  0  0  0  0
  -29.3665  -22.1128   20.5308 N   0  0  0  0  0  0
  -30.1432  -15.7503   20.7795 N   0  0  0  0  0  0
  -31.9958  -17.1040   20.1101 N   0  3  0  0  0  0
  -28.1080  -22.9372   22.2859 O   0  0  0  0  0  0
  -27.6340  -20.3762   22.3516 F   0  0  0  0  0  0
  -30.5607  -19.7105   19.9822 S   0  0  0  0  0  0
  -31.4413  -12.3291   19.1903 H   0  0  0  0  0  0
  -30.2379  -11.3015   19.9212 H   0  0  0  0  0  0
  -29.7546  -11.7074   17.4845 H   0  0  0  0  0  0
  -29.7130  -13.4295   17.7514 H   0  0  0  0  0  0
  -27.7674  -11.3283   18.7790 H   0  0  0  0  0  0
  -27.4012  -12.6942   17.7620 H   0  0  0  0  0  0
  -27.6762  -14.2604   19.5438 H   0  0  0  0  0  0
  -28.6409  -12.0932   21.4592 H   0  0  0  0  0  0
  -28.4523  -13.7904   21.8097 H   0  0  0  0  0  0
  -25.2708   -9.5704   22.4870 H   0  0  0  0  0  0
  -23.9977   -7.4636   22.7494 H   0  0  0  0  0  0
  -21.0871   -8.8927   19.8936 H   0  0  0  0  0  0
  -22.3802  -10.9789   19.6244 H   0  0  0  0  0  0
  -21.2041   -7.6147   23.9773 H   0  0  0  0  0  0
  -21.1494   -6.0485   25.9099 H   0  0  0  0  0  0
  -22.0584   -2.7610   23.2804 H   0  0  0  0  0  0
  -22.3785  -12.0033   22.4784 H   0  0  0  0  0  0
  -21.1050  -13.1686   22.2436 H   0  0  0  0  0  0
  -24.6339  -15.8037   20.3247 H   0  0  0  0  0  0
  -26.2352  -15.5473   19.8624 H   0  0  0  0  0  0
  -26.7050  -32.5616   23.1194 H   0  0  0  0  0  0
  -24.9713  -33.9843   25.0326 H   0  0  0  0  0  0
  -22.6858  -31.3118   21.4326 H   0  0  0  0  0  0
  -23.3786  -35.9625   23.3365 H   0  0  0  0  0  0
  -24.3554  -36.8892   22.2057 H   0  0  0  0  0  0
  -23.7167  -37.6526   23.6613 H   0  0  0  0  0  0
  -26.0535  -31.6272   20.6101 H   0  0  0  0  0  0
  -26.8122  -30.8877   21.9886 H   0  0  0  0  0  0
  -28.1171  -29.1349   21.1036 H   0  0  0  0  0  0
  -26.0420  -25.9772   19.0262 H   0  0  0  0  0  0
  -23.9731  -27.3356   19.0043 H   0  0  0  0  0  0
  -23.7295  -30.6457   19.4225 H   0  0  0  0  0  0
  -22.7279  -29.2918   19.8510 H   0  0  0  0  0  0
  -25.1304  -36.2119   25.0873 H   0  0  0  0  0  0
  -20.9987  -28.3197   24.1498 H   0  0  0  0  0  0
  -20.5725  -26.2257   23.3613 H   0  0  0  0  0  0
  -21.6612  -26.7463   22.1200 H   0  0  0  0  0  0
  -19.6868  -25.6297   21.1272 H   0  0  0  0  0  0
  -19.6675  -27.3201   20.6809 H   0  0  0  0  0  0
  -17.4206  -26.6759   21.4018 H   0  0  0  0  0  0
  -18.0246  -26.0057   22.9015 H   0  0  0  0  0  0
  -19.7871  -30.7271   24.2349 H   0  0  0  0  0  0
  -17.4925  -31.6284   24.5090 H   0  0  0  0  0  0
  -15.5308  -30.2952   23.7553 H   0  0  0  0  0  0
  -15.8687  -28.0766   22.7070 H   0  0  0  0  0  0
  -24.5724  -30.7170   25.7592 H   0  0  0  0  0  0
  -24.8898  -32.2739   26.5079 H   0  0  0  0  0  0
  -25.7883  -30.8494   27.0052 H   0  0  0  0  0  0
  -26.2683  -29.6854   24.1086 H   0  0  0  0  0  0
  -27.4037  -29.7268   25.4397 H   0  0  0  0  0  0
  -27.8505  -30.4416   23.9074 H   0  0  0  0  0  0
  -27.2754  -33.3568   26.2074 H   0  0  0  0  0  0
  -28.3712  -32.6897   25.0088 H   0  0  0  0  0  0
  -28.0859  -31.8341   26.5166 H   0  0  0  0  0  0
  -28.2693  -38.0096   24.7547 H   0  0  0  0  0  0
  -28.1081  -36.2653   24.6326 H   0  0  0  0  0  0
  -27.2341  -37.1498   25.8887 H   0  0  0  0  0  0
  -20.9330  -29.8751   21.6995 H   0  0  0  0  0  0
  -26.0293  -38.2970   24.1328 H   0  0  0  0  0  0
  -28.4340  -17.8645   22.2553 H   0  0  0  0  0  0
  -27.4333  -25.5012   21.5753 H   0  0  0  0  0  0
  -30.8480  -24.6755   19.7660 H   0  0  0  0  0  0
  -29.6031  -24.6433   18.4975 H   0  0  0  0  0  0
  -31.1522  -22.4233   19.3966 H   0  0  0  0  0  0
  -29.6746  -22.2848   18.4465 H   0  0  0  0  0  0
  -29.1761  -15.8011   21.0417 H   0  0  0  0  0  0
  -32.3419  -17.9747   19.7372 H   0  0  0  0  0  0
  -32.5283  -16.2536   19.9268 H   0  0  0  0  0  0
  1 25  1  0  0  0
  1 30  2  0  0  0
  1 82  1  0  0  0
  2  3  1  0  0  0
  2 25  1  0  0  0
  2 87  1  0  0  0
  2 88  1  0  0  0
  3  4  1  0  0  0
  3 89  1  0  0  0
  3 90  1  0  0  0
  4  5  1  0  0  0
  4 91  1  0  0  0
  4 92  1  0  0  0
  5  6  1  0  0  0
  5 26  1  0  0  0
  5 93  1  0  0  0
  6 25  1  0  0  0
  6 94  1  0  0  0
  6 95  1  0  0  0
  7  8  2  0  0  0
  7 26  1  0  0  0
  7 29  1  0  0  0
  8  9  1  0  0  0
  8 22  1  0  0  0
  9 10  1  0  0  0
  9 27  2  0  0  0
 10 11  2  0  0  0
 10 15  1  0  0  0
 11 12  1  0  0  0
 11 96  1  0  0  0
 12 13  2  0  0  0
 12 97  1  0  0  0
 13 14  1  0  0  0
 13 31  1  0  0  0
 14 15  2  0  0  0
 14 98  1  0  0  0
 15 99  1  0  0  0
 16 17  2  0  0  0
 16 21  1  0  0  0
 16 31  1  0  0  0
 17 18  1  0  0  0
 17100  1  0  0  0
 18 19  2  0  0  0
 18101  1  0  0  0
 19 20  1  0  0  0
 19 24  1  0  0  0
 20 21  2  0  0  0
 20102  1  0  0  0
 21 23  1  0  0  0
 22 28  1  0  0  0
 22 32  2  0  0  0
 26 27  1  0  0  0
 28103  1  0  0  0
 28104  1  0  0  0
 29105  1  0  0  0
 29106  1  0  0  0
 33 34  1  0  0  0
 33 66  1  0  0  0
 33 70  2  0  0  0
 34 36  1  0  0  0
 34 59  1  0  0  0
 34107  1  0  0  0
 35 44  2  0  0  0
 35 45  1  0  0  0
 35 68  1  0  0  0
 36 56  1  0  0  0
 36108  1  0  0  0
 37 39  1  0  0  0
 37 47  1  0  0  0
 37 66  1  0  0  0
 37109  1  0  0  0
 38 43  2  0  0  0
 38 46  1  0  0  0
 38 47  1  0  0  0
 39 64  1  0  0  0
 39 67  2  0  0  0
 40 52  1  0  0  0
 40 53  2  0  0  0
 40 58  1  0  0  0
 41110  1  0  0  0
 41111  1  0  0  0
 41112  1  0  0  0
 41 48  1  0  0  0
 42 43  1  0  0  0
 42 66  1  0  0  0
 42113  1  0  0  0
 42114  1  0  0  0
 43 44  1  0  0  0
 44115  1  0  0  0
 45 46  2  0  0  0
 45116  1  0  0  0
 46117  1  0  0  0
 47118  1  0  0  0
 47119  1  0  0  0
 48 56  1  0  0  0
 48 65  1  0  0  0
 48120  1  0  0  0
 49 50  1  0  0  0
 49 53  1  0  0  0
 49 64  1  0  0  0
 49121  1  0  0  0
 50 51  1  0  0  0
 50122  1  0  0  0
 50123  1  0  0  0
 51 52  1  0  0  0
 51124  1  0  0  0
 51125  1  0  0  0
 52126  1  0  0  0
 52127  1  0  0  0
 53 54  1  0  0  0
 54 55  2  0  0  0
 54128  1  0  0  0
 55 57  1  0  0  0
 55129  1  0  0  0
 56 69  2  0  0  0
 57 58  2  0  0  0
 57130  1  0  0  0
 58131  1  0  0  0
 59 60  1  0  0  0
 59 61  1  0  0  0
 59 62  1  0  0  0
 60132  1  0  0  0
 60133  1  0  0  0
 60134  1  0  0  0
 61135  1  0  0  0
 61136  1  0  0  0
 61137  1  0  0  0
 62138  1  0  0  0
 62139  1  0  0  0
 62140  1  0  0  0
 63 65  1  0  0  0
 63141  1  0  0  0
 63142  1  0  0  0
 63143  1  0  0  0
 64144  1  0  0  0
 65145  1  0  0  0
 68 77  1  0  0  0
 71 72  1  0  0  0
 71 73  2  0  0  0
 71146  1  0  0  0
 72 74  2  0  0  0
 72 85  1  0  0  0
 73 78  1  0  0  0
 73 86  1  0  0  0
 74 81  1  0  0  0
 74 86  1  0  0  0
 75 76  1  0  0  0
 75 77  2  0  0  0
 75 79  1  0  0  0
 76 81  1  0  0  0
 76 84  2  0  0  0
 77147  1  0  0  0
 78 82  1  0  0  0
 78 83  2  0  0  0
 79 80  1  0  0  0
 79148  1  0  0  0
 79149  1  0  0  0
 80 81  1  0  0  0
 80150  1  0  0  0
 80151  1  0  0  0
 82152  1  0  0  0
 83153  1  0  0  0
 83154  1  0  0  0
M  CHG  1  83   1
M  ISO  4   1 100  68 101  77 101  82 100
M  END
> <chiral flag>
0

> <version>
0

> <s_m_source_file>
/data/baiqing/PycharmProjects/Reinvent-master-3.2/result/LINK_invent/BTK/process_docking_weight1_custom_product_contain_oxygen_bond_distance_aromatic_linkinvent_7_9_3/rearranged_h_0088.sdf

> <i_m_source_file_index>
90

> <r_mmod_Potential_Energy-OPLS-2005>
-146.735794067383

> <r_mmod_Stretch_Energy-OPLS-2005>
44.9522819519043

> <r_mmod_Bend_Energy-OPLS-2005>
140.185150146484

> <r_mmod_Torsional_Energy-OPLS-2005>
245.772079467773

> <r_mmod_Improper_Torsional_Energy-OPLS-2005>
8.77945995330811

> <r_mmod_Van_der_Waal_Energy-OPLS-2005>
153.851547241211

> <r_mmod_Electrostatic_Energy-OPLS-2005>
-287.797515869141

> <r_mmod_Solvation_Energy-OPLS-2005>
-478.731414794922

> <b_mmod_Minimization_Converged-OPLS-2005>
0

> <r_mmod_RMS_Derivative-OPLS-2005>
7.26882266998291

$$$$
90
                    3D
 Structure written by MMmdl.
157166  0  0  1  0            999 V2000
  -30.6586  -14.7011   20.5687 C   0  0  0  0  0  0
  -30.4338  -12.4518   19.4735 C   0  0  0  0  0  0
  -29.5119  -12.5294   18.2365 C   0  0  0  0  0  0
  -28.0380  -12.3437   18.6420 C   0  0  0  0  0  0
  -27.6463  -13.2269   19.8535 C   0  0  2  0  0  0
  -28.6833  -13.1193   20.9902 C   0  0  0  0  0  0
  -25.2465  -13.8127   20.5611 C   0  0  0  0  0  0
  -24.1791  -13.0389   20.9217 C   0  0  0  0  0  0
  -24.6400  -11.6882   20.8754 C   0  0  0  0  0  0
  -23.9075  -10.4269   21.0412 C   0  0  0  0  0  0
  -24.3620   -9.4186   21.9190 C   0  0  0  0  0  0
  -23.6289   -8.2226   22.0756 C   0  0  0  0  0  0
  -22.4271   -8.0271   21.3545 C   0  0  0  0  0  0
  -21.9911   -9.0248   20.4649 C   0  0  0  0  0  0
  -22.7247  -10.2121   20.3058 C   0  0  0  0  0  0
  -21.6849   -6.0730   22.5280 C   0  0  0  0  0  0
  -21.4012   -6.5634   23.8213 C   0  0  0  0  0  0
  -21.3659   -5.6787   24.9176 C   0  0  0  0  0  0
  -21.6044   -4.3050   24.7228 C   0  0  0  0  0  0
  -21.8818   -3.8142   23.4348 C   0  0  0  0  0  0
  -21.9191   -4.6959   22.3404 C   0  0  0  0  0  0
  -22.7814  -13.5183   21.1881 C   0  0  0  0  0  0
  -22.1659   -4.2144   21.0982 F   0  0  0  0  0  0
  -21.5630   -3.4534   25.7741 F   0  0  0  0  0  0
  -30.0019  -13.4886   20.4446 N   0  0  0  0  0  0
  -26.2936  -12.9367   20.3233 N   0  0  0  0  0  0
  -25.9329  -11.6513   20.5739 N   0  0  0  0  0  0
  -22.0462  -12.8183   22.0446 N   0  0  0  0  0  0
  -25.3983  -15.1821   20.3874 N   0  0  0  0  0  0
  -31.7652  -14.8504   20.0401 O   0  0  0  0  0  0
  -21.6631   -6.8872   21.4242 O   0  0  0  0  0  0
  -22.3498  -14.5490   20.6728 O   0  0  0  0  0  0
  -24.6309  -31.8566   23.2001 C   0  0  0  0  0  0
  -25.9139  -32.4762   23.8340 C   0  0  1  0  0  0
  -27.2240  -27.2705   20.1140 C   0  0  0  0  0  0
  -25.5934  -33.8563   24.2261 N   0  0  0  0  0  0
  -23.4266  -30.4810   21.5442 C   0  0  2  0  0  0
  -24.8725  -28.9322   20.1116 C   0  0  0  0  0  0
  -22.7501  -29.4610   22.4920 C   0  0  0  0  0  0
  -18.0291  -28.1391   22.8484 C   0  0  0  0  0  0
  -24.1493  -36.7285   23.2639 C   0  0  0  0  0  0
  -25.9734  -30.7705   21.3807 C   0  0  0  0  0  0
  -26.0450  -29.3945   20.7212 C   0  0  0  0  0  0
  -27.2194  -28.5751   20.7154 C   0  0  0  0  0  0
  -26.0183  -26.8758   19.4835 C   0  0  0  0  0  0
  -24.8637  -27.6793   19.4856 C   0  0  0  0  0  0
  -23.6442  -29.8187   20.1595 C   0  0  0  0  0  0
  -25.4119  -36.3073   24.0325 C   0  0  1  0  0  0
  -20.5896  -28.3701   23.1270 C   0  0  2  0  0  0
  -20.6783  -26.9420   22.5407 C   0  0  0  0  0  0
  -19.5755  -26.6386   21.5214 C   0  0  0  0  0  0
  -18.1935  -26.7933   22.1626 C   0  0  0  0  0  0
  -19.1545  -28.8863   23.2872 C   0  0  0  0  0  0
  -18.9466  -30.1463   23.8892 C   0  0  0  0  0  0
  -17.6464  -30.6591   24.0563 C   0  0  0  0  0  0
  -25.9060  -34.9442   23.5097 C   0  0  0  0  0  0
  -16.5356  -29.9088   23.6331 C   0  0  0  0  0  0
  -16.7278  -28.6506   23.0352 C   0  0  0  0  0  0
  -26.4508  -31.6586   25.0728 C   0  0  0  0  0  0
  -25.3725  -31.3731   26.1442 C   0  0  0  0  0  0
  -27.0356  -30.3002   24.6217 C   0  0  0  0  0  0
  -27.6060  -32.4329   25.7501 C   0  0  0  0  0  0
  -27.5580  -37.1798   24.8466 C   0  0  0  0  0  0
  -21.4210  -29.3047   22.3660 N   0  0  0  0  0  0
  -26.4294  -37.3770   23.9406 N   0  0  0  0  0  0
  -24.6960  -31.0539   22.0977 N   0  0  0  0  0  0
  -23.4205  -28.8146   23.3013 O   0  0  0  0  0  0
  -28.3387  -26.3959   20.1691 O   0  0  0  0  0  0
  -26.5635  -34.8915   22.4668 O   0  0  0  0  0  0
  -23.5459  -32.1387   23.7299 O   0  0  0  0  0  0
  -28.7447  -19.2548   20.2653 C   0  0  0  0  0  0
  -31.0761  -18.0869   21.2413 C   0  0  0  0  0  0
  -29.7675  -20.1668   20.6720 C   0  0  0  0  0  0
  -28.8642  -17.8267   20.3914 C   0  0  0  0  0  0
  -30.0346  -17.1856   20.8922 C   0  0  0  0  0  0
  -30.9526  -19.5102   21.1411 C   0  0  0  0  0  0
  -28.9052  -23.9090   20.3825 C   0  0  0  0  0  0
  -29.8991  -23.9245   21.4286 C   0  0  0  0  0  0
  -28.7587  -22.4832   19.9689 C   0  0  0  0  0  0
  -28.2347  -25.0049   19.8570 C   0  0  0  0  0  0
  -30.4243  -22.5015   21.5978 C   0  0  0  0  0  0
  -29.9792  -15.5466   22.7232 C   0  0  0  0  0  0
  -29.6102  -21.6614   20.6924 N   0  0  0  0  0  0
  -27.7555  -17.0396   20.1077 N   0  0  0  0  0  0
  -30.0681  -15.7466   21.2698 N   0  0  0  0  0  0
  -30.3032  -24.8921   22.0830 O   0  0  0  0  0  0
  -27.9894  -22.0743   19.0912 O   0  0  0  0  0  0
  -32.0201  -20.2415   21.5372 F   0  0  0  0  0  0
  -31.4751  -12.5730   19.1709 H   0  0  0  0  0  0
  -30.3778  -11.4626   19.9309 H   0  0  0  0  0  0
  -29.7963  -11.7717   17.5051 H   0  0  0  0  0  0
  -29.6389  -13.4946   17.7437 H   0  0  0  0  0  0
  -27.8928  -11.2916   18.8900 H   0  0  0  0  0  0
  -27.3825  -12.5500   17.7951 H   0  0  0  0  0  0
  -27.6548  -14.2568   19.4974 H   0  0  0  0  0  0
  -28.7123  -12.1055   21.3922 H   0  0  0  0  0  0
  -28.3728  -13.7548   21.8163 H   0  0  0  0  0  0
  -25.2766   -9.5658   22.4766 H   0  0  0  0  0  0
  -23.9994   -7.4613   22.7472 H   0  0  0  0  0  0
  -21.0843   -8.8773   19.8954 H   0  0  0  0  0  0
  -22.3713  -10.9662   19.6165 H   0  0  0  0  0  0
  -21.2003   -7.6142   23.9717 H   0  0  0  0  0  0
  -21.1483   -6.0516   25.9079 H   0  0  0  0  0  0
  -22.0598   -2.7604   23.2850 H   0  0  0  0  0  0
  -22.4080  -11.9846   22.4835 H   0  0  0  0  0  0
  -21.1084  -13.1214   22.2661 H   0  0  0  0  0  0
  -24.6009  -15.8046   20.4563 H   0  0  0  0  0  0
  -26.1907  -15.6073   19.9166 H   0  0  0  0  0  0
  -26.7203  -32.5415   23.1081 H   0  0  0  0  0  0
  -25.0060  -33.9703   25.0392 H   0  0  0  0  0  0
  -22.7223  -31.3030   21.4002 H   0  0  0  0  0  0
  -23.3756  -35.9618   23.3303 H   0  0  0  0  0  0
  -24.3583  -36.8907   22.2053 H   0  0  0  0  0  0
  -23.7247  -37.6485   23.6666 H   0  0  0  0  0  0
  -26.1143  -31.5320   20.6125 H   0  0  0  0  0  0
  -26.8505  -30.8168   22.0146 H   0  0  0  0  0  0
  -28.1172  -28.9249   21.2056 H   0  0  0  0  0  0
  -25.9100  -25.9230   18.9930 H   0  0  0  0  0  0
  -23.9644  -27.3172   19.0064 H   0  0  0  0  0  0
  -23.7702  -30.5968   19.4057 H   0  0  0  0  0  0
  -22.7619  -29.2540   19.8530 H   0  0  0  0  0  0
  -25.1302  -36.1920   25.0817 H   0  0  0  0  0  0
  -20.9987  -28.3282   24.1391 H   0  0  0  0  0  0
  -20.5691  -26.2312   23.3611 H   0  0  0  0  0  0
  -21.6649  -26.7449   22.1194 H   0  0  0  0  0  0
  -19.6919  -25.6296   21.1245 H   0  0  0  0  0  0
  -19.6693  -27.3196   20.6743 H   0  0  0  0  0  0
  -17.4204  -26.6677   21.4030 H   0  0  0  0  0  0
  -18.0338  -26.0080   22.9027 H   0  0  0  0  0  0
  -19.7941  -30.7281   24.2261 H   0  0  0  0  0  0
  -17.5018  -31.6270   24.5168 H   0  0  0  0  0  0
  -15.5356  -30.2988   23.7659 H   0  0  0  0  0  0
  -15.8678  -28.0823   22.7070 H   0  0  0  0  0  0
  -24.5912  -30.7069   25.7763 H   0  0  0  0  0  0
  -24.8900  -32.2898   26.4846 H   0  0  0  0  0  0
  -25.8033  -30.8922   27.0232 H   0  0  0  0  0  0
  -27.4034  -29.7272   25.4738 H   0  0  0  0  0  0
  -26.2937  -29.6744   24.1242 H   0  0  0  0  0  0
  -27.8823  -30.4277   23.9468 H   0  0  0  0  0  0
  -27.2671  -33.3637   26.2063 H   0  0  0  0  0  0
  -28.3879  -32.6877   25.0335 H   0  0  0  0  0  0
  -28.0722  -31.8468   26.5431 H   0  0  0  0  0  0
  -28.2597  -38.0094   24.7509 H   0  0  0  0  0  0
  -28.1075  -36.2623   24.6303 H   0  0  0  0  0  0
  -27.2295  -37.1460   25.8869 H   0  0  0  0  0  0
  -20.9398  -29.8771   21.6865 H   0  0  0  0  0  0
  -26.0173  -38.2845   24.1403 H   0  0  0  0  0  0
  -27.8076  -19.6594   19.9123 H   0  0  0  0  0  0
  -31.9893  -17.6869   21.6557 H   0  0  0  0  0  0
  -27.5715  -24.8252   19.0281 H   0  0  0  0  0  0
  -30.3270  -22.1764   22.6335 H   0  0  0  0  0  0
  -31.4751  -22.4946   21.3117 H   0  0  0  0  0  0
  -30.6960  -16.1801   23.2469 H   0  0  0  0  0  0
  -30.1786  -14.5217   23.0435 H   0  0  0  0  0  0
  -28.9825  -15.8146   23.0752 H   0  0  0  0  0  0
  -26.8758  -17.5443   20.0846 H   0  0  0  0  0  0
  -27.6903  -16.2337   20.7196 H   0  0  0  0  0  0
  1 25  1  0  0  0
  1 30  2  0  0  0
  1 85  1  0  0  0
  2  3  1  0  0  0
  2 25  1  0  0  0
  2 89  1  0  0  0
  2 90  1  0  0  0
  3  4  1  0  0  0
  3 91  1  0  0  0
  3 92  1  0  0  0
  4  5  1  0  0  0
  4 93  1  0  0  0
  4 94  1  0  0  0
  5  6  1  0  0  0
  5 26  1  0  0  0
  5 95  1  0  0  0
  6 25  1  0  0  0
  6 96  1  0  0  0
  6 97  1  0  0  0
  7  8  2  0  0  0
  7 26  1  0  0  0
  7 29  1  0  0  0
  8  9  1  0  0  0
  8 22  1  0  0  0
  9 10  1  0  0  0
  9 27  2  0  0  0
 10 11  2  0  0  0
 10 15  1  0  0  0
 11 12  1  0  0  0
 11 98  1  0  0  0
 12 13  2  0  0  0
 12 99  1  0  0  0
 13 14  1  0  0  0
 13 31  1  0  0  0
 14 15  2  0  0  0
 14100  1  0  0  0
 15101  1  0  0  0
 16 17  2  0  0  0
 16 21  1  0  0  0
 16 31  1  0  0  0
 17 18  1  0  0  0
 17102  1  0  0  0
 18 19  2  0  0  0
 18103  1  0  0  0
 19 20  1  0  0  0
 19 24  1  0  0  0
 20 21  2  0  0  0
 20104  1  0  0  0
 21 23  1  0  0  0
 22 28  1  0  0  0
 22 32  2  0  0  0
 26 27  1  0  0  0
 28105  1  0  0  0
 28106  1  0  0  0
 29107  1  0  0  0
 29108  1  0  0  0
 33 34  1  0  0  0
 33 66  1  0  0  0
 33 70  2  0  0  0
 34 36  1  0  0  0
 34 59  1  0  0  0
 34109  1  0  0  0
 35 44  2  0  0  0
 35 45  1  0  0  0
 35 68  1  0  0  0
 36 56  1  0  0  0
 36110  1  0  0  0
 37 39  1  0  0  0
 37 47  1  0  0  0
 37 66  1  0  0  0
 37111  1  0  0  0
 38 43  2  0  0  0
 38 46  1  0  0  0
 38 47  1  0  0  0
 39 64  1  0  0  0
 39 67  2  0  0  0
 40 52  1  0  0  0
 40 53  2  0  0  0
 40 58  1  0  0  0
 41112  1  0  0  0
 41113  1  0  0  0
 41114  1  0  0  0
 41 48  1  0  0  0
 42 43  1  0  0  0
 42 66  1  0  0  0
 42115  1  0  0  0
 42116  1  0  0  0
 43 44  1  0  0  0
 44117  1  0  0  0
 45 46  2  0  0  0
 45118  1  0  0  0
 46119  1  0  0  0
 47120  1  0  0  0
 47121  1  0  0  0
 48 56  1  0  0  0
 48 65  1  0  0  0
 48122  1  0  0  0
 49 50  1  0  0  0
 49 53  1  0  0  0
 49 64  1  0  0  0
 49123  1  0  0  0
 50 51  1  0  0  0
 50124  1  0  0  0
 50125  1  0  0  0
 51 52  1  0  0  0
 51126  1  0  0  0
 51127  1  0  0  0
 52128  1  0  0  0
 52129  1  0  0  0
 53 54  1  0  0  0
 54 55  2  0  0  0
 54130  1  0  0  0
 55 57  1  0  0  0
 55131  1  0  0  0
 56 69  2  0  0  0
 57 58  2  0  0  0
 57132  1  0  0  0
 58133  1  0  0  0
 59 60  1  0  0  0
 59 61  1  0  0  0
 59 62  1  0  0  0
 60134  1  0  0  0
 60135  1  0  0  0
 60136  1  0  0  0
 61137  1  0  0  0
 61138  1  0  0  0
 61139  1  0  0  0
 62140  1  0  0  0
 62141  1  0  0  0
 62142  1  0  0  0
 63 65  1  0  0  0
 63143  1  0  0  0
 63144  1  0  0  0
 63145  1  0  0  0
 64146  1  0  0  0
 65147  1  0  0  0
 68 80  1  0  0  0
 71 73  2  0  0  0
 71 74  1  0  0  0
 71148  1  0  0  0
 72 75  1  0  0  0
 72 76  2  0  0  0
 72149  1  0  0  0
 73 76  1  0  0  0
 73 83  1  0  0  0
 74 75  2  0  0  0
 74 84  1  0  0  0
 75 85  1  0  0  0
 76 88  1  0  0  0
 77 78  1  0  0  0
 77 79  1  0  0  0
 77 80  2  0  0  0
 78 81  1  0  0  0
 78 86  2  0  0  0
 79 83  1  0  0  0
 79 87  2  0  0  0
 80150  1  0  0  0
 81 83  1  0  0  0
 81151  1  0  0  0
 81152  1  0  0  0
 82 85  1  0  0  0
 82153  1  0  0  0
 82154  1  0  0  0
 82155  1  0  0  0
 84156  1  0  0  0
 84157  1  0  0  0
M  ISO  4   1 100  68 101  80 101  85 100
M  END
> <chiral flag>
0

> <version>
0

> <s_m_source_file>
/data/baiqing/PycharmProjects/Reinvent-master-3.2/result/LINK_invent/BTK/process_docking_weight1_custom_product_contain_oxygen_bond_distance_aromatic_linkinvent_7_9_3/rearranged_h_0088.sdf

> <i_m_source_file_index>
91

> <r_mmod_Potential_Energy-OPLS-2005>
280.985076904297

> <r_mmod_Stretch_Energy-OPLS-2005>
114.28148651123

> <r_mmod_Bend_Energy-OPLS-2005>
206.231796264648

> <r_mmod_Torsional_Energy-OPLS-2005>
351.610595703125

> <r_mmod_Improper_Torsional_Energy-OPLS-2005>
11.8518733978271

> <r_mmod_Van_der_Waal_Energy-OPLS-2005>
148.500244140625

> <r_mmod_Electrostatic_Energy-OPLS-2005>
-400.580261230469

> <r_mmod_Solvation_Energy-OPLS-2005>
-220.124053955078

> <b_mmod_Minimization_Converged-OPLS-2005>
0

> <r_mmod_RMS_Derivative-OPLS-2005>
0.337058573961258

$$$$
