0
                    3D
 Structure written by MMmdl.
154162  0  0  1  0            999 V2000
  -30.5878  -14.7872   20.4440 C   0  0  0  0  0  0
  -30.4269  -12.4757   19.4916 C   0  0  0  0  0  0
  -29.5132  -12.5338   18.2472 C   0  0  0  0  0  0
  -28.0373  -12.3522   18.6486 C   0  0  0  0  0  0
  -27.6414  -13.2423   19.8551 C   0  0  2  0  0  0
  -28.6826  -13.1819   20.9958 C   0  0  0  0  0  0
  -25.2493  -13.8230   20.5660 C   0  0  0  0  0  0
  -24.1790  -13.0460   20.9148 C   0  0  0  0  0  0
  -24.6391  -11.6941   20.8687 C   0  0  0  0  0  0
  -23.9054  -10.4317   21.0345 C   0  0  0  0  0  0
  -24.3613   -9.4253   21.9144 C   0  0  0  0  0  0
  -23.6291   -8.2285   22.0730 C   0  0  0  0  0  0
  -22.4275   -8.0299   21.3525 C   0  0  0  0  0  0
  -21.9898   -9.0259   20.4615 C   0  0  0  0  0  0
  -22.7212  -10.2147   20.3006 C   0  0  0  0  0  0
  -21.6877   -6.0735   22.5269 C   0  0  0  0  0  0
  -21.4035   -6.5637   23.8204 C   0  0  0  0  0  0
  -21.3673   -5.6787   24.9163 C   0  0  0  0  0  0
  -21.6054   -4.3051   24.7208 C   0  0  0  0  0  0
  -21.8818   -3.8146   23.4328 C   0  0  0  0  0  0
  -21.9205   -4.6962   22.3394 C   0  0  0  0  0  0
  -22.7815  -13.5230   21.1835 C   0  0  0  0  0  0
  -22.1647   -4.2156   21.0961 F   0  0  0  0  0  0
  -21.5630   -3.4530   25.7721 F   0  0  0  0  0  0
  -29.9870  -13.5415   20.4279 N   0  0  0  0  0  0
  -26.2929  -12.9448   20.3275 N   0  0  0  0  0  0
  -25.9334  -11.6575   20.5735 N   0  0  0  0  0  0
  -22.0486  -12.8205   22.0392 N   0  0  0  0  0  0
  -25.4191  -15.1956   20.4095 N   0  0  0  0  0  0
  -31.7461  -14.9002   20.0332 O   0  0  0  0  0  0
  -21.6659   -6.8885   21.4235 O   0  0  0  0  0  0
  -22.3503  -14.5546   20.6699 O   0  0  0  0  0  0
  -24.6401  -31.8507   23.1975 C   0  0  0  0  0  0
  -25.9207  -32.4735   23.8326 C   0  0  1  0  0  0
  -27.2135  -27.2054   20.1339 C   0  0  0  0  0  0
  -25.5983  -33.8541   24.2233 N   0  0  0  0  0  0
  -23.4381  -30.4754   21.5419 C   0  0  2  0  0  0
  -24.8847  -28.9173   20.1105 C   0  0  0  0  0  0
  -22.7524  -29.4617   22.4907 C   0  0  0  0  0  0
  -18.0299  -28.1398   22.8508 C   0  0  0  0  0  0
  -24.1493  -36.7267   23.2640 C   0  0  0  0  0  0
  -25.9911  -30.7408   21.3936 C   0  0  0  0  0  0
  -26.0591  -29.3611   20.7321 C   0  0  0  0  0  0
  -27.2232  -28.5168   20.7380 C   0  0  0  0  0  0
  -26.0240  -26.8648   19.4490 C   0  0  0  0  0  0
  -24.8744  -27.6765   19.4589 C   0  0  0  0  0  0
  -23.6584  -29.8105   20.1586 C   0  0  0  0  0  0
  -25.4131  -36.3062   24.0315 C   0  0  1  0  0  0
  -20.5912  -28.3724   23.1248 C   0  0  2  0  0  0
  -20.6807  -26.9431   22.5415 C   0  0  0  0  0  0
  -19.5761  -26.6382   21.5242 C   0  0  0  0  0  0
  -18.1933  -26.7945   22.1637 C   0  0  0  0  0  0
  -19.1555  -28.8879   23.2871 C   0  0  0  0  0  0
  -18.9472  -30.1483   23.8879 C   0  0  0  0  0  0
  -17.6470  -30.6599   24.0571 C   0  0  0  0  0  0
  -25.9079  -34.9430   23.5074 C   0  0  0  0  0  0
  -16.5365  -29.9090   23.6356 C   0  0  0  0  0  0
  -16.7285  -28.6513   23.0376 C   0  0  0  0  0  0
  -26.4532  -31.6608   25.0756 C   0  0  0  0  0  0
  -25.3717  -31.3796   26.1447 C   0  0  0  0  0  0
  -27.0437  -30.3019   24.6348 C   0  0  0  0  0  0
  -27.6048  -32.4399   25.7529 C   0  0  0  0  0  0
  -27.5583  -37.1787   24.8461 C   0  0  0  0  0  0
  -21.4229  -29.3062   22.3622 N   0  0  0  0  0  0
  -26.4297  -37.3767   23.9406 N   0  0  0  0  0  0
  -24.7085  -31.0419   22.0986 N   0  0  0  0  0  0
  -23.4188  -28.8156   23.3036 O   0  0  0  0  0  0
  -28.2763  -26.2514   20.1941 O   0  0  0  0  0  0
  -26.5625  -34.8914   22.4630 O   0  0  0  0  0  0
  -23.5539  -32.1365   23.7227 O   0  0  0  0  0  0
  -28.7154  -19.5055   18.6109 C   0  0  0  0  0  0
  -29.1278  -17.0879   18.7887 C   0  0  0  0  0  0
  -29.6251  -18.5656   20.6600 C   0  0  0  0  0  0
  -28.6722  -18.2039   18.0470 C   0  0  0  0  0  0
  -29.1870  -19.7586   19.9208 C   0  0  0  0  0  0
  -29.6041  -17.2022   20.1112 C   0  0  0  0  0  0
  -28.8731  -23.7214   20.2302 C   0  0  0  0  0  0
  -28.0140  -24.8258   20.1720 C   0  0  0  0  0  0
  -28.1471  -17.9717   16.6671 C   0  0  0  0  0  0
  -28.4161  -22.2770   20.0556 C   0  0  0  0  0  0
  -27.5321  -19.1503   15.9177 C   0  0  0  0  0  0
  -29.2622  -21.2006   20.3616 N   0  0  0  0  0  0
  -29.8545  -15.9115   20.8283 N   0  0  0  0  0  0
  -28.1778  -16.8717   16.1071 O   0  0  0  0  0  0
  -27.2816  -22.0318   19.6375 O   0  0  0  0  0  0
  -31.4705  -12.5914   19.1959 H   0  0  0  0  0  0
  -30.3586  -11.4970   19.9713 H   0  0  0  0  0  0
  -29.8007  -11.7693   17.5254 H   0  0  0  0  0  0
  -29.6436  -13.4937   17.7446 H   0  0  0  0  0  0
  -27.8880  -11.3014   18.8993 H   0  0  0  0  0  0
  -27.3846  -12.5570   17.7982 H   0  0  0  0  0  0
  -27.6337  -14.2651   19.4785 H   0  0  0  0  0  0
  -28.7219  -12.1841   21.4337 H   0  0  0  0  0  0
  -28.4059  -13.8612   21.8038 H   0  0  0  0  0  0
  -25.2750   -9.5773   22.4725 H   0  0  0  0  0  0
  -24.0015   -7.4701   22.7455 H   0  0  0  0  0  0
  -21.0821   -8.8747   19.8944 H   0  0  0  0  0  0
  -22.3617  -10.9665   19.6117 H   0  0  0  0  0  0
  -21.2033   -7.6153   23.9718 H   0  0  0  0  0  0
  -21.1484   -6.0506   25.9070 H   0  0  0  0  0  0
  -22.0587   -2.7608   23.2821 H   0  0  0  0  0  0
  -22.4092  -11.9829   22.4719 H   0  0  0  0  0  0
  -21.1124  -13.1241   22.2637 H   0  0  0  0  0  0
  -24.6580  -15.8541   20.5307 H   0  0  0  0  0  0
  -26.2784  -15.6361   20.1052 H   0  0  0  0  0  0
  -26.7277  -32.5330   23.1059 H   0  0  0  0  0  0
  -25.0234  -33.9680   25.0452 H   0  0  0  0  0  0
  -22.7421  -31.3033   21.3954 H   0  0  0  0  0  0
  -23.3783  -35.9574   23.3296 H   0  0  0  0  0  0
  -24.3590  -36.8901   22.2059 H   0  0  0  0  0  0
  -23.7217  -37.6443   23.6691 H   0  0  0  0  0  0
  -26.1549  -31.5008   20.6290 H   0  0  0  0  0  0
  -26.8593  -30.7752   22.0395 H   0  0  0  0  0  0
  -28.1177  -28.8491   21.2447 H   0  0  0  0  0  0
  -25.9485  -25.9358   18.9053 H   0  0  0  0  0  0
  -23.9804  -27.3345   18.9552 H   0  0  0  0  0  0
  -23.7858  -30.5883   19.4045 H   0  0  0  0  0  0
  -22.7737  -29.2480   19.8535 H   0  0  0  0  0  0
  -25.1328  -36.1898   25.0809 H   0  0  0  0  0  0
  -21.0013  -28.3315   24.1361 H   0  0  0  0  0  0
  -20.5765  -26.2322   23.3632 H   0  0  0  0  0  0
  -21.6659  -26.7489   22.1151 H   0  0  0  0  0  0
  -19.6921  -25.6287   21.1273 H   0  0  0  0  0  0
  -19.6697  -27.3195   20.6771 H   0  0  0  0  0  0
  -17.4226  -26.6750   21.4010 H   0  0  0  0  0  0
  -18.0285  -26.0068   22.8999 H   0  0  0  0  0  0
  -19.7943  -30.7318   24.2216 H   0  0  0  0  0  0
  -17.5019  -31.6277   24.5168 H   0  0  0  0  0  0
  -15.5364  -30.2984   23.7696 H   0  0  0  0  0  0
  -15.8685  -28.0822   22.7105 H   0  0  0  0  0  0
  -24.5876  -30.7175   25.7754 H   0  0  0  0  0  0
  -24.8934  -32.2993   26.4834 H   0  0  0  0  0  0
  -25.7973  -30.8972   27.0255 H   0  0  0  0  0  0
  -26.3087  -29.6708   24.1335 H   0  0  0  0  0  0
  -27.4056  -29.7347   25.4938 H   0  0  0  0  0  0
  -27.8984  -30.4300   23.9696 H   0  0  0  0  0  0
  -27.2625  -33.3723   26.2039 H   0  0  0  0  0  0
  -28.3875  -32.6931   25.0364 H   0  0  0  0  0  0
  -28.0714  -31.8588   26.5493 H   0  0  0  0  0  0
  -28.2580  -38.0101   24.7554 H   0  0  0  0  0  0
  -28.1097  -36.2638   24.6257 H   0  0  0  0  0  0
  -27.2295  -37.1381   25.8854 H   0  0  0  0  0  0
  -20.9431  -29.8725   21.6767 H   0  0  0  0  0  0
  -26.0170  -38.2833   24.1422 H   0  0  0  0  0  0
  -28.3902  -20.3446   18.0147 H   0  0  0  0  0  0
  -29.0654  -16.1058   18.3397 H   0  0  0  0  0  0
  -29.9734  -18.7005   21.6741 H   0  0  0  0  0  0
  -29.9311  -23.9010   20.3563 H   0  0  0  0  0  0
  -26.9597  -24.6132   20.0905 H   0  0  0  0  0  0
  -26.7195  -19.5936   16.4934 H   0  0  0  0  0  0
  -27.1253  -18.8175   14.9636 H   0  0  0  0  0  0
  -28.2850  -19.9125   15.7208 H   0  0  0  0  0  0
  -30.0843  -21.4442   20.8976 H   0  0  0  0  0  0
  -29.1029  -15.6666   21.4567 H   0  0  0  0  0  0
  1 25  1  0  0  0
  1 30  2  0  0  0
  1 83  1  0  0  0
  2  3  1  0  0  0
  2 25  1  0  0  0
  2 86  1  0  0  0
  2 87  1  0  0  0
  3  4  1  0  0  0
  3 88  1  0  0  0
  3 89  1  0  0  0
  4  5  1  0  0  0
  4 90  1  0  0  0
  4 91  1  0  0  0
  5  6  1  0  0  0
  5 26  1  0  0  0
  5 92  1  0  0  0
  6 25  1  0  0  0
  6 93  1  0  0  0
  6 94  1  0  0  0
  7  8  2  0  0  0
  7 26  1  0  0  0
  7 29  1  0  0  0
  8  9  1  0  0  0
  8 22  1  0  0  0
  9 10  1  0  0  0
  9 27  2  0  0  0
 10 11  2  0  0  0
 10 15  1  0  0  0
 11 12  1  0  0  0
 11 95  1  0  0  0
 12 13  2  0  0  0
 12 96  1  0  0  0
 13 14  1  0  0  0
 13 31  1  0  0  0
 14 15  2  0  0  0
 14 97  1  0  0  0
 15 98  1  0  0  0
 16 17  2  0  0  0
 16 21  1  0  0  0
 16 31  1  0  0  0
 17 18  1  0  0  0
 17 99  1  0  0  0
 18 19  2  0  0  0
 18100  1  0  0  0
 19 20  1  0  0  0
 19 24  1  0  0  0
 20 21  2  0  0  0
 20101  1  0  0  0
 21 23  1  0  0  0
 22 28  1  0  0  0
 22 32  2  0  0  0
 26 27  1  0  0  0
 28102  1  0  0  0
 28103  1  0  0  0
 29104  1  0  0  0
 29105  1  0  0  0
 33 34  1  0  0  0
 33 66  1  0  0  0
 33 70  2  0  0  0
 34 36  1  0  0  0
 34 59  1  0  0  0
 34106  1  0  0  0
 35 44  2  0  0  0
 35 45  1  0  0  0
 35 68  1  0  0  0
 36 56  1  0  0  0
 36107  1  0  0  0
 37 39  1  0  0  0
 37 47  1  0  0  0
 37 66  1  0  0  0
 37108  1  0  0  0
 38 43  2  0  0  0
 38 46  1  0  0  0
 38 47  1  0  0  0
 39 64  1  0  0  0
 39 67  2  0  0  0
 40 52  1  0  0  0
 40 53  2  0  0  0
 40 58  1  0  0  0
 41109  1  0  0  0
 41110  1  0  0  0
 41111  1  0  0  0
 41 48  1  0  0  0
 42 43  1  0  0  0
 42 66  1  0  0  0
 42112  1  0  0  0
 42113  1  0  0  0
 43 44  1  0  0  0
 44114  1  0  0  0
 45 46  2  0  0  0
 45115  1  0  0  0
 46116  1  0  0  0
 47117  1  0  0  0
 47118  1  0  0  0
 48 56  1  0  0  0
 48 65  1  0  0  0
 48119  1  0  0  0
 49 50  1  0  0  0
 49 53  1  0  0  0
 49 64  1  0  0  0
 49120  1  0  0  0
 50 51  1  0  0  0
 50121  1  0  0  0
 50122  1  0  0  0
 51 52  1  0  0  0
 51123  1  0  0  0
 51124  1  0  0  0
 52125  1  0  0  0
 52126  1  0  0  0
 53 54  1  0  0  0
 54 55  2  0  0  0
 54127  1  0  0  0
 55 57  1  0  0  0
 55128  1  0  0  0
 56 69  2  0  0  0
 57 58  2  0  0  0
 57129  1  0  0  0
 58130  1  0  0  0
 59 60  1  0  0  0
 59 61  1  0  0  0
 59 62  1  0  0  0
 60131  1  0  0  0
 60132  1  0  0  0
 60133  1  0  0  0
 61134  1  0  0  0
 61135  1  0  0  0
 61136  1  0  0  0
 62137  1  0  0  0
 62138  1  0  0  0
 62139  1  0  0  0
 63 65  1  0  0  0
 63140  1  0  0  0
 63141  1  0  0  0
 63142  1  0  0  0
 64143  1  0  0  0
 65144  1  0  0  0
 68 78  1  0  0  0
 71 74  2  0  0  0
 71 75  1  0  0  0
 71145  1  0  0  0
 72 74  1  0  0  0
 72 76  2  0  0  0
 72146  1  0  0  0
 73 75  2  0  0  0
 73 76  1  0  0  0
 73147  1  0  0  0
 74 79  1  0  0  0
 75 82  1  0  0  0
 76 83  1  0  0  0
 77 78  2  0  0  0
 77 80  1  0  0  0
 77148  1  0  0  0
 78149  1  0  0  0
 79 81  1  0  0  0
 79 84  2  0  0  0
 80 82  1  0  0  0
 80 85  2  0  0  0
 81150  1  0  0  0
 81151  1  0  0  0
 81152  1  0  0  0
 82153  1  0  0  0
 83154  1  0  0  0
M  ISO  4   1 100  68 101  78 101  83 100
M  END
> <chiral flag>
0

> <version>
0

> <s_m_source_file>
/data/baiqing/PycharmProjects/Reinvent-master-3.2/result/LINK_invent/BTK/process_docking_weight1_custom_product_contain_oxygen_bond_distance_aromatic_linkinvent_7_9_3/rearranged_h_0067.sdf

> <i_m_source_file_index>
1

> <r_mmod_Potential_Energy-OPLS-2005>
209.35791015625

> <r_mmod_Stretch_Energy-OPLS-2005>
153.398345947266

> <r_mmod_Bend_Energy-OPLS-2005>
172.943740844727

> <r_mmod_Torsional_Energy-OPLS-2005>
293.614959716797

> <r_mmod_Improper_Torsional_Energy-OPLS-2005>
5.78903722763062

> <r_mmod_Van_der_Waal_Energy-OPLS-2005>
144.638229370117

> <r_mmod_Electrostatic_Energy-OPLS-2005>
-435.285064697266

> <r_mmod_Solvation_Energy-OPLS-2005>
-241.034408569336

> <b_mmod_Minimization_Converged-OPLS-2005>
0

> <r_mmod_RMS_Derivative-OPLS-2005>
2.53678369522095

$$$$
1
                    3D
 Structure written by MMmdl.
155163  0  0  1  0            999 V2000
  -30.5139  -14.9108   20.4622 C   0  0  0  0  0  0
  -30.4531  -12.5633   19.5019 C   0  0  0  0  0  0
  -29.5322  -12.5579   18.2580 C   0  0  0  0  0  0
  -28.0582  -12.3470   18.6589 C   0  0  0  0  0  0
  -27.6401  -13.2420   19.8544 C   0  0  2  0  0  0
  -28.6806  -13.2051   20.9953 C   0  0  0  0  0  0
  -25.2486  -13.8179   20.5696 C   0  0  0  0  0  0
  -24.1794  -13.0428   20.9210 C   0  0  0  0  0  0
  -24.6405  -11.6912   20.8731 C   0  0  0  0  0  0
  -23.9074  -10.4286   21.0385 C   0  0  0  0  0  0
  -24.3616   -9.4210   21.9180 C   0  0  0  0  0  0
  -23.6297   -8.2244   22.0750 C   0  0  0  0  0  0
  -22.4284   -8.0272   21.3545 C   0  0  0  0  0  0
  -21.9913   -9.0240   20.4648 C   0  0  0  0  0  0
  -22.7230  -10.2128   20.3053 C   0  0  0  0  0  0
  -21.6851   -6.0732   22.5282 C   0  0  0  0  0  0
  -21.4013   -6.5644   23.8216 C   0  0  0  0  0  0
  -21.3669   -5.6800   24.9177 C   0  0  0  0  0  0
  -21.6047   -4.3057   24.7232 C   0  0  0  0  0  0
  -21.8814   -3.8148   23.4352 C   0  0  0  0  0  0
  -21.9200   -4.6960   22.3410 C   0  0  0  0  0  0
  -22.7817  -13.5213   21.1871 C   0  0  0  0  0  0
  -22.1657   -4.2156   21.0985 F   0  0  0  0  0  0
  -21.5642   -3.4533   25.7740 F   0  0  0  0  0  0
  -29.9696  -13.6289   20.4235 N   0  0  0  0  0  0
  -26.2930  -12.9412   20.3270 N   0  0  0  0  0  0
  -25.9337  -11.6547   20.5713 N   0  0  0  0  0  0
  -22.0463  -12.8207   22.0428 N   0  0  0  0  0  0
  -25.4136  -15.1906   20.4087 N   0  0  0  0  0  0
  -31.6933  -15.0544   20.1196 O   0  0  0  0  0  0
  -21.6649   -6.8870   21.4249 O   0  0  0  0  0  0
  -22.3515  -14.5531   20.6717 O   0  0  0  0  0  0
  -24.6451  -31.8467   23.1924 C   0  0  0  0  0  0
  -25.9224  -32.4714   23.8322 C   0  0  1  0  0  0
  -27.2120  -27.1356   20.1589 C   0  0  0  0  0  0
  -25.6002  -33.8534   24.2240 N   0  0  0  0  0  0
  -23.4489  -30.4683   21.5374 C   0  0  2  0  0  0
  -24.8970  -28.8972   20.1144 C   0  0  0  0  0  0
  -22.7579  -29.4567   22.4868 C   0  0  0  0  0  0
  -18.0311  -28.1402   22.8463 C   0  0  0  0  0  0
  -24.1500  -36.7239   23.2635 C   0  0  0  0  0  0
  -26.0054  -30.7210   21.3913 C   0  0  0  0  0  0
  -26.0768  -29.3322   20.7320 C   0  0  0  0  0  0
  -27.2371  -28.4693   20.7346 C   0  0  0  0  0  0
  -26.0038  -26.8057   19.5020 C   0  0  0  0  0  0
  -24.8734  -27.6463   19.4842 C   0  0  0  0  0  0
  -23.6766  -29.8028   20.1551 C   0  0  0  0  0  0
  -25.4133  -36.3044   24.0317 C   0  0  1  0  0  0
  -20.5921  -28.3740   23.1225 C   0  0  2  0  0  0
  -20.6791  -26.9440   22.5410 C   0  0  0  0  0  0
  -19.5777  -26.6380   21.5212 C   0  0  0  0  0  0
  -18.1955  -26.7942   22.1605 C   0  0  0  0  0  0
  -19.1565  -28.8889   23.2835 C   0  0  0  0  0  0
  -18.9476  -30.1477   23.8866 C   0  0  0  0  0  0
  -17.6473  -30.6590   24.0566 C   0  0  0  0  0  0
  -25.9087  -34.9417   23.5079 C   0  0  0  0  0  0
  -16.5365  -29.9085   23.6329 C   0  0  0  0  0  0
  -16.7297  -28.6507   23.0348 C   0  0  0  0  0  0
  -26.4539  -31.6574   25.0762 C   0  0  0  0  0  0
  -25.3704  -31.3793   26.1449 C   0  0  0  0  0  0
  -27.0362  -30.2948   24.6346 C   0  0  0  0  0  0
  -27.6128  -32.4295   25.7511 C   0  0  0  0  0  0
  -27.5586  -37.1790   24.8462 C   0  0  0  0  0  0
  -21.4276  -29.3072   22.3604 N   0  0  0  0  0  0
  -26.4288  -37.3760   23.9413 N   0  0  0  0  0  0
  -24.7197  -31.0326   22.0954 N   0  0  0  0  0  0
  -23.4219  -28.8106   23.3019 O   0  0  0  0  0  0
  -28.2451  -26.1296   20.2436 O   0  0  0  0  0  0
  -26.5655  -34.8898   22.4646 O   0  0  0  0  0  0
  -23.5569  -32.1343   23.7138 O   0  0  0  0  0  0
  -28.2206  -18.0918   20.6550 C   0  0  0  0  0  0
  -27.9215  -19.5004   20.5702 C   0  0  0  0  0  0
  -30.5238  -18.5572   20.4717 C   0  0  0  0  0  0
  -29.5277  -17.5152   20.6014 C   0  0  0  0  0  0
  -28.8872  -20.5479   20.4282 C   0  0  0  0  0  0
  -30.2245  -20.0035   20.3794 C   0  0  0  0  0  0
  -32.4987  -20.9190   19.8386 C   0  0  0  0  0  0
  -28.8621  -23.3351   20.3822 C   0  0  0  0  0  0
  -33.2530  -22.2422   19.7893 C   0  0  0  0  0  0
  -27.8707  -24.6271   20.0658 C   0  0  0  0  0  0
  -28.3961  -21.9995   20.2774 N   0  0  0  0  0  0
  -31.2273  -20.9994   20.2526 N   0  0  0  0  0  0
  -29.6443  -15.9900   20.7480 N   0  0  0  0  0  0
  -33.0678  -19.8777   19.5039 O   0  0  0  0  0  0
  -30.0316  -23.5533   20.7104 O   0  0  0  0  0  0
  -31.4887  -12.7317   19.2038 H   0  0  0  0  0  0
  -30.4414  -11.5908   19.9970 H   0  0  0  0  0  0
  -29.8469  -11.7876   17.5535 H   0  0  0  0  0  0
  -29.6345  -13.5091   17.7338 H   0  0  0  0  0  0
  -27.9306  -11.2960   18.9189 H   0  0  0  0  0  0
  -27.4055  -12.5313   17.8038 H   0  0  0  0  0  0
  -27.6213  -14.2615   19.4691 H   0  0  0  0  0  0
  -28.7524  -12.2038   21.4237 H   0  0  0  0  0  0
  -28.3810  -13.8612   21.8140 H   0  0  0  0  0  0
  -25.2755   -9.5704   22.4768 H   0  0  0  0  0  0
  -24.0017   -7.4640   22.7465 H   0  0  0  0  0  0
  -21.0845   -8.8748   19.8953 H   0  0  0  0  0  0
  -22.3671  -10.9667   19.6172 H   0  0  0  0  0  0
  -21.1989   -7.6148   23.9728 H   0  0  0  0  0  0
  -21.1500   -6.0522   25.9091 H   0  0  0  0  0  0
  -22.0588   -2.7610   23.2850 H   0  0  0  0  0  0
  -22.4073  -11.9858   22.4827 H   0  0  0  0  0  0
  -21.1090  -13.1247   22.2628 H   0  0  0  0  0  0
  -24.6261  -15.8253   20.4823 H   0  0  0  0  0  0
  -26.2292  -15.6191   19.9931 H   0  0  0  0  0  0
  -26.7310  -32.5314   23.1074 H   0  0  0  0  0  0
  -25.0232  -33.9690   25.0442 H   0  0  0  0  0  0
  -22.7510  -31.2943   21.3850 H   0  0  0  0  0  0
  -23.3785  -35.9548   23.3287 H   0  0  0  0  0  0
  -24.3590  -36.8873   22.2052 H   0  0  0  0  0  0
  -23.7218  -37.6422   23.6662 H   0  0  0  0  0  0
  -26.1621  -31.4749   20.6196 H   0  0  0  0  0  0
  -26.8767  -30.7716   22.0332 H   0  0  0  0  0  0
  -28.1340  -28.7983   21.2414 H   0  0  0  0  0  0
  -25.8817  -25.8494   19.0169 H   0  0  0  0  0  0
  -23.9714  -27.3027   18.9963 H   0  0  0  0  0  0
  -23.8249  -30.5822   19.4069 H   0  0  0  0  0  0
  -22.7900  -29.2534   19.8350 H   0  0  0  0  0  0
  -25.1319  -36.1891   25.0805 H   0  0  0  0  0  0
  -21.0004  -28.3337   24.1348 H   0  0  0  0  0  0
  -20.5656  -26.2384   23.3648 H   0  0  0  0  0  0
  -21.6665  -26.7433   22.1232 H   0  0  0  0  0  0
  -19.6947  -25.6273   21.1287 H   0  0  0  0  0  0
  -19.6717  -27.3155   20.6711 H   0  0  0  0  0  0
  -17.4236  -26.6707   21.3990 H   0  0  0  0  0  0
  -18.0329  -26.0074   22.8981 H   0  0  0  0  0  0
  -19.7954  -30.7305   24.2221 H   0  0  0  0  0  0
  -17.5021  -31.6261   24.5193 H   0  0  0  0  0  0
  -15.5365  -30.2985   23.7643 H   0  0  0  0  0  0
  -15.8697  -28.0808   22.7077 H   0  0  0  0  0  0
  -24.6048  -30.6916   25.7834 H   0  0  0  0  0  0
  -24.8684  -32.2944   26.4587 H   0  0  0  0  0  0
  -25.7995  -30.9269   27.0391 H   0  0  0  0  0  0
  -26.2969  -29.6713   24.1303 H   0  0  0  0  0  0
  -27.3890  -29.7226   25.4934 H   0  0  0  0  0  0
  -27.8921  -30.4160   23.9710 H   0  0  0  0  0  0
  -27.2831  -33.3680   26.1963 H   0  0  0  0  0  0
  -28.3989  -32.6678   25.0338 H   0  0  0  0  0  0
  -28.0711  -31.8462   26.5504 H   0  0  0  0  0  0
  -28.2602  -38.0092   24.7520 H   0  0  0  0  0  0
  -28.1093  -36.2628   24.6267 H   0  0  0  0  0  0
  -27.2321  -37.1403   25.8872 H   0  0  0  0  0  0
  -20.9497  -29.8800   21.6783 H   0  0  0  0  0  0
  -26.0160  -38.2830   24.1427 H   0  0  0  0  0  0
  -27.3803  -17.4231   20.7693 H   0  0  0  0  0  0
  -26.8769  -19.7733   20.6227 H   0  0  0  0  0  0
  -31.5538  -18.2337   20.4669 H   0  0  0  0  0  0
  -32.6964  -22.9802   19.2096 H   0  0  0  0  0  0
  -34.2338  -22.1235   19.3292 H   0  0  0  0  0  0
  -33.3904  -22.6351   20.7973 H   0  0  0  0  0  0
  -26.9647  -24.4448   20.6454 H   0  0  0  0  0  0
  -27.5896  -24.4983   19.0217 H   0  0  0  0  0  0
  -27.4117  -22.0285   20.0515 H   0  0  0  0  0  0
  -30.8912  -21.9463   20.4221 H   0  0  0  0  0  0
  -28.7690  -15.5882   21.0494 H   0  0  0  0  0  0
  1 25  1  0  0  0
  1 30  2  0  0  0
  1 83  1  0  0  0
  2  3  1  0  0  0
  2 25  1  0  0  0
  2 86  1  0  0  0
  2 87  1  0  0  0
  3  4  1  0  0  0
  3 88  1  0  0  0
  3 89  1  0  0  0
  4  5  1  0  0  0
  4 90  1  0  0  0
  4 91  1  0  0  0
  5  6  1  0  0  0
  5 26  1  0  0  0
  5 92  1  0  0  0
  6 25  1  0  0  0
  6 93  1  0  0  0
  6 94  1  0  0  0
  7  8  2  0  0  0
  7 26  1  0  0  0
  7 29  1  0  0  0
  8  9  1  0  0  0
  8 22  1  0  0  0
  9 10  1  0  0  0
  9 27  2  0  0  0
 10 11  2  0  0  0
 10 15  1  0  0  0
 11 12  1  0  0  0
 11 95  1  0  0  0
 12 13  2  0  0  0
 12 96  1  0  0  0
 13 14  1  0  0  0
 13 31  1  0  0  0
 14 15  2  0  0  0
 14 97  1  0  0  0
 15 98  1  0  0  0
 16 17  2  0  0  0
 16 21  1  0  0  0
 16 31  1  0  0  0
 17 18  1  0  0  0
 17 99  1  0  0  0
 18 19  2  0  0  0
 18100  1  0  0  0
 19 20  1  0  0  0
 19 24  1  0  0  0
 20 21  2  0  0  0
 20101  1  0  0  0
 21 23  1  0  0  0
 22 28  1  0  0  0
 22 32  2  0  0  0
 26 27  1  0  0  0
 28102  1  0  0  0
 28103  1  0  0  0
 29104  1  0  0  0
 29105  1  0  0  0
 33 34  1  0  0  0
 33 66  1  0  0  0
 33 70  2  0  0  0
 34 36  1  0  0  0
 34 59  1  0  0  0
 34106  1  0  0  0
 35 44  2  0  0  0
 35 45  1  0  0  0
 35 68  1  0  0  0
 36 56  1  0  0  0
 36107  1  0  0  0
 37 39  1  0  0  0
 37 47  1  0  0  0
 37 66  1  0  0  0
 37108  1  0  0  0
 38 43  2  0  0  0
 38 46  1  0  0  0
 38 47  1  0  0  0
 39 64  1  0  0  0
 39 67  2  0  0  0
 40 52  1  0  0  0
 40 53  2  0  0  0
 40 58  1  0  0  0
 41109  1  0  0  0
 41110  1  0  0  0
 41111  1  0  0  0
 41 48  1  0  0  0
 42 43  1  0  0  0
 42 66  1  0  0  0
 42112  1  0  0  0
 42113  1  0  0  0
 43 44  1  0  0  0
 44114  1  0  0  0
 45 46  2  0  0  0
 45115  1  0  0  0
 46116  1  0  0  0
 47117  1  0  0  0
 47118  1  0  0  0
 48 56  1  0  0  0
 48 65  1  0  0  0
 48119  1  0  0  0
 49 50  1  0  0  0
 49 53  1  0  0  0
 49 64  1  0  0  0
 49120  1  0  0  0
 50 51  1  0  0  0
 50121  1  0  0  0
 50122  1  0  0  0
 51 52  1  0  0  0
 51123  1  0  0  0
 51124  1  0  0  0
 52125  1  0  0  0
 52126  1  0  0  0
 53 54  1  0  0  0
 54 55  2  0  0  0
 54127  1  0  0  0
 55 57  1  0  0  0
 55128  1  0  0  0
 56 69  2  0  0  0
 57 58  2  0  0  0
 57129  1  0  0  0
 58130  1  0  0  0
 59 60  1  0  0  0
 59 61  1  0  0  0
 59 62  1  0  0  0
 60131  1  0  0  0
 60132  1  0  0  0
 60133  1  0  0  0
 61134  1  0  0  0
 61135  1  0  0  0
 61136  1  0  0  0
 62137  1  0  0  0
 62138  1  0  0  0
 62139  1  0  0  0
 63 65  1  0  0  0
 63140  1  0  0  0
 63141  1  0  0  0
 63142  1  0  0  0
 64143  1  0  0  0
 65144  1  0  0  0
 68 80  1  0  0  0
 71 72  2  0  0  0
 71 74  1  0  0  0
 71145  1  0  0  0
 72 75  1  0  0  0
 72146  1  0  0  0
 73 74  2  0  0  0
 73 76  1  0  0  0
 73147  1  0  0  0
 74 83  1  0  0  0
 75 76  2  0  0  0
 75 81  1  0  0  0
 76 82  1  0  0  0
 77 79  1  0  0  0
 77 82  1  0  0  0
 77 84  2  0  0  0
 78 80  1  0  0  0
 78 81  1  0  0  0
 78 85  2  0  0  0
 79148  1  0  0  0
 79149  1  0  0  0
 79150  1  0  0  0
 80151  1  0  0  0
 80152  1  0  0  0
 81153  1  0  0  0
 82154  1  0  0  0
 83155  1  0  0  0
M  ISO  4   1 100  68 101  80 101  83 100
M  END
> <chiral flag>
0

> <version>
0

> <s_m_source_file>
/data/baiqing/PycharmProjects/Reinvent-master-3.2/result/LINK_invent/BTK/process_docking_weight1_custom_product_contain_oxygen_bond_distance_aromatic_linkinvent_7_9_3/rearranged_h_0067.sdf

> <i_m_source_file_index>
2

> <r_mmod_Potential_Energy-OPLS-2005>
317.566955566406

> <r_mmod_Stretch_Energy-OPLS-2005>
226.773315429688

> <r_mmod_Bend_Energy-OPLS-2005>
290.620239257812

> <r_mmod_Torsional_Energy-OPLS-2005>
233.97998046875

> <r_mmod_Improper_Torsional_Energy-OPLS-2005>
4.56814527511597

> <r_mmod_Van_der_Waal_Energy-OPLS-2005>
134.658615112305

> <r_mmod_Electrostatic_Energy-OPLS-2005>
-486.930023193359

> <r_mmod_Solvation_Energy-OPLS-2005>
-268.634216308594

> <b_mmod_Minimization_Converged-OPLS-2005>
0

> <r_mmod_RMS_Derivative-OPLS-2005>
2.57584643363953

$$$$
2
                    3D
 Structure written by MMmdl.
161170  0  0  1  0            999 V2000
  -30.5115  -14.9585   20.4318 C   0  0  0  0  0  0
  -30.4477  -12.5959   19.4972 C   0  0  0  0  0  0
  -29.5244  -12.5469   18.2554 C   0  0  0  0  0  0
  -28.0558  -12.3275   18.6669 C   0  0  0  0  0  0
  -27.6308  -13.2451   19.8437 C   0  0  2  0  0  0
  -28.6763  -13.2503   20.9814 C   0  0  0  0  0  0
  -25.2363  -13.8062   20.5582 C   0  0  0  0  0  0
  -24.1733  -13.0319   20.9232 C   0  0  0  0  0  0
  -24.6396  -11.6840   20.8774 C   0  0  0  0  0  0
  -23.9090  -10.4232   21.0422 C   0  0  0  0  0  0
  -24.3627   -9.4148   21.9204 C   0  0  0  0  0  0
  -23.6282   -8.2202   22.0763 C   0  0  0  0  0  0
  -22.4264   -8.0259   21.3548 C   0  0  0  0  0  0
  -21.9916   -9.0234   20.4640 C   0  0  0  0  0  0
  -22.7268  -10.2100   20.3057 C   0  0  0  0  0  0
  -21.6846   -6.0723   22.5279 C   0  0  0  0  0  0
  -21.4012   -6.5632   23.8216 C   0  0  0  0  0  0
  -21.3652   -5.6786   24.9177 C   0  0  0  0  0  0
  -21.6048   -4.3052   24.7226 C   0  0  0  0  0  0
  -21.8820   -3.8143   23.4350 C   0  0  0  0  0  0
  -21.9188   -4.6955   22.3406 C   0  0  0  0  0  0
  -22.7768  -13.5129   21.1883 C   0  0  0  0  0  0
  -22.1657   -4.2142   21.0982 F   0  0  0  0  0  0
  -21.5624   -3.4537   25.7740 F   0  0  0  0  0  0
  -29.9552  -13.6786   20.3952 N   0  0  0  0  0  0
  -26.2879  -12.9371   20.3243 N   0  0  0  0  0  0
  -25.9345  -11.6504   20.5779 N   0  0  0  0  0  0
  -22.0410  -12.8135   22.0453 N   0  0  0  0  0  0
  -25.3785  -15.1728   20.3732 N   0  0  0  0  0  0
  -31.7076  -15.0678   20.1353 O   0  0  0  0  0  0
  -21.6624   -6.8862   21.4242 O   0  0  0  0  0  0
  -22.3470  -14.5453   20.6734 O   0  0  0  0  0  0
  -24.6413  -31.8430   23.1837 C   0  0  0  0  0  0
  -25.9189  -32.4685   23.8228 C   0  0  1  0  0  0
  -27.2365  -27.1466   20.1659 C   0  0  0  0  0  0
  -25.5944  -33.8490   24.2157 N   0  0  0  0  0  0
  -23.4445  -30.4566   21.5298 C   0  0  2  0  0  0
  -24.8960  -28.8677   20.1238 C   0  0  0  0  0  0
  -22.7559  -29.4544   22.4883 C   0  0  0  0  0  0
  -18.0305  -28.1410   22.8465 C   0  0  0  0  0  0
  -24.1486  -36.7239   23.2644 C   0  0  0  0  0  0
  -25.9962  -30.7217   21.3762 C   0  0  0  0  0  0
  -26.0710  -29.3267   20.7323 C   0  0  0  0  0  0
  -27.2427  -28.4841   20.7272 C   0  0  0  0  0  0
  -26.0311  -26.7678   19.5423 C   0  0  0  0  0  0
  -24.8863  -27.5993   19.5174 C   0  0  0  0  0  0
  -23.6708  -29.7702   20.1546 C   0  0  0  0  0  0
  -25.4113  -36.3005   24.0321 C   0  0  1  0  0  0
  -20.5916  -28.3718   23.1252 C   0  0  2  0  0  0
  -20.6800  -26.9435   22.5390 C   0  0  0  0  0  0
  -19.5771  -26.6396   21.5204 C   0  0  0  0  0  0
  -18.1948  -26.7949   22.1607 C   0  0  0  0  0  0
  -19.1565  -28.8882   23.2845 C   0  0  0  0  0  0
  -18.9489  -30.1479   23.8866 C   0  0  0  0  0  0
  -17.6492  -30.6598   24.0578 C   0  0  0  0  0  0
  -25.9074  -34.9393   23.5046 C   0  0  0  0  0  0
  -16.5384  -29.9096   23.6356 C   0  0  0  0  0  0
  -16.7298  -28.6530   23.0338 C   0  0  0  0  0  0
  -26.4524  -31.6544   25.0656 C   0  0  0  0  0  0
  -25.3713  -31.3721   26.1347 C   0  0  0  0  0  0
  -27.0433  -30.2974   24.6196 C   0  0  0  0  0  0
  -27.6040  -32.4328   25.7463 C   0  0  0  0  0  0
  -27.5552  -37.1766   24.8465 C   0  0  0  0  0  0
  -21.4252  -29.3050   22.3640 N   0  0  0  0  0  0
  -26.4261  -37.3722   23.9420 N   0  0  0  0  0  0
  -24.7138  -31.0284   22.0859 N   0  0  0  0  0  0
  -23.4203  -28.8115   23.3053 O   0  0  0  0  0  0
  -28.3571  -26.2514   20.0972 O   0  0  0  0  0  0
  -26.5663  -34.8914   22.4628 O   0  0  0  0  0  0
  -23.5537  -32.1298   23.7061 O   0  0  0  0  0  0
  -30.6153  -19.9725   20.2444 C   0  0  0  0  0  0
  -30.7332  -18.5170   20.2862 C   0  0  0  0  0  0
  -28.3067  -19.8368   20.6316 C   0  0  0  0  0  0
  -28.4210  -18.3870   20.7216 C   0  0  0  0  0  0
  -29.3956  -20.7357   20.4133 C   0  0  0  0  0  0
  -29.6395  -17.6196   20.5350 C   0  0  0  0  0  0
  -30.2006  -23.0412   21.1560 C   0  0  0  0  0  0
  -28.3031  -23.3198   19.9320 C   0  0  0  0  0  0
  -28.4574  -24.7972   20.6476 C   0  0  1  0  0  0
  -29.9015  -24.5770   21.1935 C   0  0  0  0  0  0
  -27.1340  -17.6750   21.0818 C   0  0  0  0  0  0
  -30.0324  -25.1029   22.6375 C   0  0  0  0  0  0
  -30.9498  -25.2940   20.3100 C   0  0  0  0  0  0
  -29.3119  -22.2813   20.4764 N   0  0  0  0  0  0
  -29.6521  -16.0767   20.6283 N   0  0  0  0  0  0
  -31.2031  -22.5929   21.7247 O   0  0  0  0  0  0
  -31.4798  -12.7673   19.1900 H   0  0  0  0  0  0
  -30.4463  -11.6355   20.0159 H   0  0  0  0  0  0
  -29.8438  -11.7557   17.5756 H   0  0  0  0  0  0
  -29.6121  -13.4802   17.6975 H   0  0  0  0  0  0
  -27.9508  -11.2823   18.9621 H   0  0  0  0  0  0
  -27.3926  -12.4711   17.8126 H   0  0  0  0  0  0
  -27.5951  -14.2545   19.4329 H   0  0  0  0  0  0
  -28.7636  -12.2600   21.4327 H   0  0  0  0  0  0
  -28.3724  -13.9242   21.7839 H   0  0  0  0  0  0
  -25.2762   -9.5631   22.4790 H   0  0  0  0  0  0
  -23.9973   -7.4600   22.7497 H   0  0  0  0  0  0
  -21.0850   -8.8774   19.8945 H   0  0  0  0  0  0
  -22.3742  -10.9649   19.6171 H   0  0  0  0  0  0
  -21.2007   -7.6143   23.9724 H   0  0  0  0  0  0
  -21.1470   -6.0514   25.9084 H   0  0  0  0  0  0
  -22.0602   -2.7599   23.2857 H   0  0  0  0  0  0
  -22.4010  -11.9782   22.4823 H   0  0  0  0  0  0
  -21.1038  -13.1180   22.2641 H   0  0  0  0  0  0
  -24.5886  -15.8007   20.4681 H   0  0  0  0  0  0
  -26.1863  -15.6098   19.9547 H   0  0  0  0  0  0
  -26.7260  -32.5311   23.0953 H   0  0  0  0  0  0
  -25.0082  -33.9610   25.0302 H   0  0  0  0  0  0
  -22.7451  -31.2797   21.3659 H   0  0  0  0  0  0
  -23.3766  -35.9551   23.3270 H   0  0  0  0  0  0
  -24.3568  -36.8891   22.2062 H   0  0  0  0  0  0
  -23.7240  -37.6418   23.6711 H   0  0  0  0  0  0
  -26.1347  -31.4680   20.5935 H   0  0  0  0  0  0
  -26.8748  -30.7854   22.0065 H   0  0  0  0  0  0
  -28.1518  -28.8398   21.1893 H   0  0  0  0  0  0
  -25.9729  -25.7978   19.0693 H   0  0  0  0  0  0
  -23.9867  -27.2378   19.0391 H   0  0  0  0  0  0
  -23.8088  -30.5371   19.3918 H   0  0  0  0  0  0
  -22.7875  -29.2061   19.8479 H   0  0  0  0  0  0
  -25.1311  -36.1792   25.0812 H   0  0  0  0  0  0
  -20.9986  -28.3290   24.1385 H   0  0  0  0  0  0
  -20.5724  -26.2332   23.3596 H   0  0  0  0  0  0
  -21.6665  -26.7460   22.1168 H   0  0  0  0  0  0
  -19.6950  -25.6314   21.1223 H   0  0  0  0  0  0
  -19.6714  -27.3224   20.6749 H   0  0  0  0  0  0
  -17.4221  -26.6702   21.4013 H   0  0  0  0  0  0
  -18.0342  -26.0096   22.9009 H   0  0  0  0  0  0
  -19.7970  -30.7298   24.2218 H   0  0  0  0  0  0
  -17.5057  -31.6280   24.5180 H   0  0  0  0  0  0
  -15.5392  -30.2994   23.7713 H   0  0  0  0  0  0
  -15.8690  -28.0864   22.7041 H   0  0  0  0  0  0
  -24.5923  -30.7034   25.7652 H   0  0  0  0  0  0
  -24.8878  -32.2900   26.4695 H   0  0  0  0  0  0
  -25.7993  -30.8935   27.0171 H   0  0  0  0  0  0
  -26.3058  -29.6655   24.1223 H   0  0  0  0  0  0
  -27.4144  -29.7274   25.4722 H   0  0  0  0  0  0
  -27.8893  -30.4267   23.9447 H   0  0  0  0  0  0
  -27.2634  -33.3700   26.1883 H   0  0  0  0  0  0
  -28.3937  -32.6760   25.0341 H   0  0  0  0  0  0
  -28.0604  -31.8546   26.5498 H   0  0  0  0  0  0
  -28.2516  -38.0106   24.7523 H   0  0  0  0  0  0
  -28.1102  -36.2627   24.6274 H   0  0  0  0  0  0
  -27.2277  -37.1364   25.8868 H   0  0  0  0  0  0
  -20.9483  -29.8743   21.6790 H   0  0  0  0  0  0
  -26.0108  -38.2780   24.1459 H   0  0  0  0  0  0
  -31.5310  -20.5246   20.0813 H   0  0  0  0  0  0
  -31.7153  -18.0899   20.1403 H   0  0  0  0  0  0
  -27.3349  -20.2798   20.8021 H   0  0  0  0  0  0
  -28.4908  -23.4218   18.8629 H   0  0  0  0  0  0
  -27.2842  -22.9467   20.0318 H   0  0  0  0  0  0
  -27.7736  -24.7792   21.4968 H   0  0  0  0  0  0
  -26.6862  -18.1285   21.9671 H   0  0  0  0  0  0
  -27.2852  -16.6257   21.3182 H   0  0  0  0  0  0
  -26.4182  -17.7589   20.2631 H   0  0  0  0  0  0
  -29.4203  -24.5249   23.3305 H   0  0  0  0  0  0
  -29.7173  -26.1441   22.7116 H   0  0  0  0  0  0
  -31.0639  -25.0454   22.9875 H   0  0  0  0  0  0
  -30.8449  -25.0151   19.2612 H   0  0  0  0  0  0
  -31.9684  -25.0505   20.6152 H   0  0  0  0  0  0
  -30.8523  -26.3779   20.3730 H   0  0  0  0  0  0
  -28.7342  -15.7240   20.8462 H   0  0  0  0  0  0
  1 25  1  0  0  0
  1 30  2  0  0  0
  1 85  1  0  0  0
  2  3  1  0  0  0
  2 25  1  0  0  0
  2 87  1  0  0  0
  2 88  1  0  0  0
  3  4  1  0  0  0
  3 89  1  0  0  0
  3 90  1  0  0  0
  4  5  1  0  0  0
  4 91  1  0  0  0
  4 92  1  0  0  0
  5  6  1  0  0  0
  5 26  1  0  0  0
  5 93  1  0  0  0
  6 25  1  0  0  0
  6 94  1  0  0  0
  6 95  1  0  0  0
  7  8  2  0  0  0
  7 26  1  0  0  0
  7 29  1  0  0  0
  8  9  1  0  0  0
  8 22  1  0  0  0
  9 10  1  0  0  0
  9 27  2  0  0  0
 10 11  2  0  0  0
 10 15  1  0  0  0
 11 12  1  0  0  0
 11 96  1  0  0  0
 12 13  2  0  0  0
 12 97  1  0  0  0
 13 14  1  0  0  0
 13 31  1  0  0  0
 14 15  2  0  0  0
 14 98  1  0  0  0
 15 99  1  0  0  0
 16 17  2  0  0  0
 16 21  1  0  0  0
 16 31  1  0  0  0
 17 18  1  0  0  0
 17100  1  0  0  0
 18 19  2  0  0  0
 18101  1  0  0  0
 19 20  1  0  0  0
 19 24  1  0  0  0
 20 21  2  0  0  0
 20102  1  0  0  0
 21 23  1  0  0  0
 22 28  1  0  0  0
 22 32  2  0  0  0
 26 27  1  0  0  0
 28103  1  0  0  0
 28104  1  0  0  0
 29105  1  0  0  0
 29106  1  0  0  0
 33 34  1  0  0  0
 33 66  1  0  0  0
 33 70  2  0  0  0
 34 36  1  0  0  0
 34 59  1  0  0  0
 34107  1  0  0  0
 35 44  2  0  0  0
 35 45  1  0  0  0
 35 68  1  0  0  0
 36 56  1  0  0  0
 36108  1  0  0  0
 37 39  1  0  0  0
 37 47  1  0  0  0
 37 66  1  0  0  0
 37109  1  0  0  0
 38 43  2  0  0  0
 38 46  1  0  0  0
 38 47  1  0  0  0
 39 64  1  0  0  0
 39 67  2  0  0  0
 40 52  1  0  0  0
 40 53  2  0  0  0
 40 58  1  0  0  0
 41110  1  0  0  0
 41111  1  0  0  0
 41112  1  0  0  0
 41 48  1  0  0  0
 42 43  1  0  0  0
 42 66  1  0  0  0
 42113  1  0  0  0
 42114  1  0  0  0
 43 44  1  0  0  0
 44115  1  0  0  0
 45 46  2  0  0  0
 45116  1  0  0  0
 46117  1  0  0  0
 47118  1  0  0  0
 47119  1  0  0  0
 48 56  1  0  0  0
 48 65  1  0  0  0
 48120  1  0  0  0
 49 50  1  0  0  0
 49 53  1  0  0  0
 49 64  1  0  0  0
 49121  1  0  0  0
 50 51  1  0  0  0
 50122  1  0  0  0
 50123  1  0  0  0
 51 52  1  0  0  0
 51124  1  0  0  0
 51125  1  0  0  0
 52126  1  0  0  0
 52127  1  0  0  0
 53 54  1  0  0  0
 54 55  2  0  0  0
 54128  1  0  0  0
 55 57  1  0  0  0
 55129  1  0  0  0
 56 69  2  0  0  0
 57 58  2  0  0  0
 57130  1  0  0  0
 58131  1  0  0  0
 59 60  1  0  0  0
 59 61  1  0  0  0
 59 62  1  0  0  0
 60132  1  0  0  0
 60133  1  0  0  0
 60134  1  0  0  0
 61135  1  0  0  0
 61136  1  0  0  0
 61137  1  0  0  0
 62138  1  0  0  0
 62139  1  0  0  0
 62140  1  0  0  0
 63 65  1  0  0  0
 63141  1  0  0  0
 63142  1  0  0  0
 63143  1  0  0  0
 64144  1  0  0  0
 65145  1  0  0  0
 68 79  1  0  0  0
 71 72  2  0  0  0
 71 75  1  0  0  0
 71146  1  0  0  0
 72 76  1  0  0  0
 72147  1  0  0  0
 73 74  1  0  0  0
 73 75  2  0  0  0
 73148  1  0  0  0
 74 76  2  0  0  0
 74 81  1  0  0  0
 75 84  1  0  0  0
 76 85  1  0  0  0
 77 80  1  0  0  0
 77 84  1  0  0  0
 77 86  2  0  0  0
 78 79  1  0  0  0
 78 84  1  0  0  0
 78149  1  0  0  0
 78150  1  0  0  0
 79 80  1  0  0  0
 79151  1  0  0  0
 80 82  1  0  0  0
 80 83  1  0  0  0
 81152  1  0  0  0
 81153  1  0  0  0
 81154  1  0  0  0
 82155  1  0  0  0
 82156  1  0  0  0
 82157  1  0  0  0
 83158  1  0  0  0
 83159  1  0  0  0
 83160  1  0  0  0
 85161  1  0  0  0
M  ISO  4   1 100  68 101  79 101  85 100
M  END
> <chiral flag>
0

> <version>
0

> <s_m_source_file>
/data/baiqing/PycharmProjects/Reinvent-master-3.2/result/LINK_invent/BTK/process_docking_weight1_custom_product_contain_oxygen_bond_distance_aromatic_linkinvent_7_9_3/rearranged_h_0067.sdf

> <i_m_source_file_index>
3

> <r_mmod_Potential_Energy-OPLS-2005>
576.314147949219

> <r_mmod_Stretch_Energy-OPLS-2005>
228.88525390625

> <r_mmod_Bend_Energy-OPLS-2005>
311.002197265625

> <r_mmod_Torsional_Energy-OPLS-2005>
302.439117431641

> <r_mmod_Improper_Torsional_Energy-OPLS-2005>
5.01251554489136

> <r_mmod_Van_der_Waal_Energy-OPLS-2005>
129.764755249023

> <r_mmod_Electrostatic_Energy-OPLS-2005>
-366.714935302734

> <r_mmod_Solvation_Energy-OPLS-2005>
-214.760589599609

> <b_mmod_Minimization_Converged-OPLS-2005>
0

> <r_mmod_RMS_Derivative-OPLS-2005>
2.518878698349

$$$$
3
                    3D
 Structure written by MMmdl.
151159  0  0  1  0            999 V2000
  -30.6495  -14.7007   20.4561 C   0  0  0  0  0  0
  -30.4222  -12.4246   19.4783 C   0  0  0  0  0  0
  -29.5062  -12.4975   18.2380 C   0  0  0  0  0  0
  -28.0319  -12.3311   18.6511 C   0  0  0  0  0  0
  -27.6424  -13.2331   19.8533 C   0  0  2  0  0  0
  -28.6864  -13.1686   20.9907 C   0  0  0  0  0  0
  -25.2505  -13.8205   20.5700 C   0  0  0  0  0  0
  -24.1796  -13.0446   20.9206 C   0  0  0  0  0  0
  -24.6392  -11.6925   20.8751 C   0  0  0  0  0  0
  -23.9073  -10.4297   21.0408 C   0  0  0  0  0  0
  -24.3622   -9.4212   21.9187 C   0  0  0  0  0  0
  -23.6293   -8.2247   22.0757 C   0  0  0  0  0  0
  -22.4276   -8.0281   21.3546 C   0  0  0  0  0  0
  -21.9916   -9.0257   20.4650 C   0  0  0  0  0  0
  -22.7245  -10.2137   20.3058 C   0  0  0  0  0  0
  -21.6854   -6.0735   22.5277 C   0  0  0  0  0  0
  -21.4015   -6.5640   23.8209 C   0  0  0  0  0  0
  -21.3658   -5.6793   24.9172 C   0  0  0  0  0  0
  -21.6045   -4.3055   24.7221 C   0  0  0  0  0  0
  -21.8820   -3.8147   23.4342 C   0  0  0  0  0  0
  -21.9193   -4.6964   22.3399 C   0  0  0  0  0  0
  -22.7817  -13.5224   21.1861 C   0  0  0  0  0  0
  -22.1662   -4.2148   21.0976 F   0  0  0  0  0  0
  -21.5628   -3.4539   25.7735 F   0  0  0  0  0  0
  -29.9932  -13.4936   20.4093 N   0  0  0  0  0  0
  -26.2938  -12.9422   20.3303 N   0  0  0  0  0  0
  -25.9325  -11.6562   20.5772 N   0  0  0  0  0  0
  -22.0467  -12.8211   22.0419 N   0  0  0  0  0  0
  -25.4193  -15.1929   20.4111 N   0  0  0  0  0  0
  -31.8355  -14.7644   20.1242 O   0  0  0  0  0  0
  -21.6641   -6.8878   21.4239 O   0  0  0  0  0  0
  -22.3503  -14.5528   20.6705 O   0  0  0  0  0  0
  -24.6304  -31.8571   23.2024 C   0  0  0  0  0  0
  -25.9139  -32.4763   23.8357 C   0  0  1  0  0  0
  -27.2068  -27.2679   20.1193 C   0  0  0  0  0  0
  -25.5943  -33.8564   24.2274 N   0  0  0  0  0  0
  -23.4254  -30.4844   21.5458 C   0  0  2  0  0  0
  -24.8702  -28.9434   20.1046 C   0  0  0  0  0  0
  -22.7498  -29.4615   22.4913 C   0  0  0  0  0  0
  -18.0291  -28.1385   22.8486 C   0  0  0  0  0  0
  -24.1490  -36.7285   23.2642 C   0  0  0  0  0  0
  -25.9730  -30.7695   21.3860 C   0  0  0  0  0  0
  -26.0417  -29.3955   20.7248 C   0  0  0  0  0  0
  -27.2101  -28.5671   20.7298 C   0  0  0  0  0  0
  -26.0195  -26.9067   19.4365 C   0  0  0  0  0  0
  -24.8647  -27.7063   19.4503 C   0  0  0  0  0  0
  -23.6412  -29.8282   20.1583 C   0  0  0  0  0  0
  -25.4116  -36.3072   24.0326 C   0  0  1  0  0  0
  -20.5896  -28.3692   23.1267 C   0  0  2  0  0  0
  -20.6780  -26.9411   22.5404 C   0  0  0  0  0  0
  -19.5753  -26.6382   21.5215 C   0  0  0  0  0  0
  -18.1933  -26.7930   22.1624 C   0  0  0  0  0  0
  -19.1548  -28.8855   23.2874 C   0  0  0  0  0  0
  -18.9468  -30.1457   23.8894 C   0  0  0  0  0  0
  -17.6467  -30.6588   24.0561 C   0  0  0  0  0  0
  -25.9053  -34.9441   23.5099 C   0  0  0  0  0  0
  -16.5358  -29.9083   23.6335 C   0  0  0  0  0  0
  -16.7278  -28.6501   23.0356 C   0  0  0  0  0  0
  -26.4506  -31.6580   25.0738 C   0  0  0  0  0  0
  -25.3730  -31.3728   26.1456 C   0  0  0  0  0  0
  -27.0363  -30.3001   24.6226 C   0  0  0  0  0  0
  -27.6059  -32.4328   25.7511 C   0  0  0  0  0  0
  -27.5573  -37.1803   24.8470 C   0  0  0  0  0  0
  -21.4205  -29.3047   22.3659 N   0  0  0  0  0  0
  -26.4291  -37.3769   23.9404 N   0  0  0  0  0  0
  -24.6955  -31.0547   22.1007 N   0  0  0  0  0  0
  -23.4211  -28.8140   23.2992 O   0  0  0  0  0  0
  -28.2806  -26.3481   20.2119 O   0  0  0  0  0  0
  -26.5624  -34.8910   22.4664 O   0  0  0  0  0  0
  -23.5453  -32.1395   23.7318 O   0  0  0  0  0  0
  -29.2170  -20.6323   21.6449 C   0  0  0  0  0  0
  -29.5639  -19.2178   21.7122 C   0  0  0  0  0  0
  -29.7752  -18.6160   20.4864 C   0  0  0  0  0  0
  -29.1206  -21.1837   20.3810 C   0  0  0  0  0  0
  -28.8159  -23.7219   20.5276 C   0  0  0  0  0  0
  -29.7298  -18.4870   23.0095 C   0  0  0  0  0  0
  -30.3993  -17.2222   20.1079 C   0  0  0  0  0  0
  -28.0245  -24.9164   19.8255 C   0  0  0  0  0  0
  -28.7492  -22.4644   19.9546 N   0  0  0  0  0  0
  -29.9258  -15.8685   20.6154 N   0  0  0  0  0  0
  -29.4456  -23.9326   21.5680 O   0  0  0  0  0  0
  -29.4570  -19.8550   19.2453 S   0  0  0  0  0  0
  -31.4668  -12.5222   19.1785 H   0  0  0  0  0  0
  -30.3433  -11.4485   19.9598 H   0  0  0  0  0  0
  -29.7820  -11.7254   17.5183 H   0  0  0  0  0  0
  -29.6429  -13.4539   17.7307 H   0  0  0  0  0  0
  -27.8835  -11.2830   18.9133 H   0  0  0  0  0  0
  -27.3753  -12.5266   17.8023 H   0  0  0  0  0  0
  -27.6384  -14.2544   19.4717 H   0  0  0  0  0  0
  -28.7079  -12.1767   21.4443 H   0  0  0  0  0  0
  -28.4300  -13.8664   21.7894 H   0  0  0  0  0  0
  -25.2767   -9.5685   22.4763 H   0  0  0  0  0  0
  -23.9998   -7.4641   22.7480 H   0  0  0  0  0  0
  -21.0847   -8.8775   19.8957 H   0  0  0  0  0  0
  -22.3701  -10.9674   19.6165 H   0  0  0  0  0  0
  -21.2007   -7.6149   23.9710 H   0  0  0  0  0  0
  -21.1480   -6.0525   25.9073 H   0  0  0  0  0  0
  -22.0600   -2.7610   23.2842 H   0  0  0  0  0  0
  -22.4087  -11.9866   22.4795 H   0  0  0  0  0  0
  -21.1086  -13.1237   22.2634 H   0  0  0  0  0  0
  -24.6510  -15.8455   20.5198 H   0  0  0  0  0  0
  -26.2658  -15.6345   20.0758 H   0  0  0  0  0  0
  -26.7192  -32.5407   23.1084 H   0  0  0  0  0  0
  -25.0100  -33.9715   25.0427 H   0  0  0  0  0  0
  -22.7216  -31.3074   21.4048 H   0  0  0  0  0  0
  -23.3752  -35.9620   23.3318 H   0  0  0  0  0  0
  -24.3581  -36.8891   22.2054 H   0  0  0  0  0  0
  -23.7246  -37.6492   23.6653 H   0  0  0  0  0  0
  -26.1153  -31.5312   20.6181 H   0  0  0  0  0  0
  -26.8508  -30.8139   22.0189 H   0  0  0  0  0  0
  -28.1000  -28.9012   21.2446 H   0  0  0  0  0  0
  -25.9338  -25.9830   18.8856 H   0  0  0  0  0  0
  -23.9740  -27.3634   18.9423 H   0  0  0  0  0  0
  -23.7638  -30.6094   19.4075 H   0  0  0  0  0  0
  -22.7592  -29.2633   19.8504 H   0  0  0  0  0  0
  -25.1298  -36.1923   25.0821 H   0  0  0  0  0  0
  -20.9985  -28.3259   24.1389 H   0  0  0  0  0  0
  -20.5689  -26.2303   23.3608 H   0  0  0  0  0  0
  -21.6643  -26.7441   22.1190 H   0  0  0  0  0  0
  -19.6919  -25.6295   21.1235 H   0  0  0  0  0  0
  -19.6686  -27.3197   20.6750 H   0  0  0  0  0  0
  -17.4203  -26.6680   21.4023 H   0  0  0  0  0  0
  -18.0327  -26.0078   22.9023 H   0  0  0  0  0  0
  -19.7948  -30.7270   24.2261 H   0  0  0  0  0  0
  -17.5026  -31.6272   24.5156 H   0  0  0  0  0  0
  -15.5358  -30.2981   23.7673 H   0  0  0  0  0  0
  -15.8676  -28.0814   22.7078 H   0  0  0  0  0  0
  -24.5916  -30.7063   25.7785 H   0  0  0  0  0  0
  -24.8911  -32.2897   26.4858 H   0  0  0  0  0  0
  -25.8050  -30.8925   27.0243 H   0  0  0  0  0  0
  -26.2950  -29.6745   24.1240 H   0  0  0  0  0  0
  -27.4041  -29.7262   25.4741 H   0  0  0  0  0  0
  -27.8826  -30.4289   23.9477 H   0  0  0  0  0  0
  -27.2666  -33.3640   26.2057 H   0  0  0  0  0  0
  -28.3882  -32.6866   25.0345 H   0  0  0  0  0  0
  -28.0710  -31.8473   26.5451 H   0  0  0  0  0  0
  -28.2601  -38.0089   24.7493 H   0  0  0  0  0  0
  -28.1058  -36.2618   24.6327 H   0  0  0  0  0  0
  -27.2290  -37.1478   25.8875 H   0  0  0  0  0  0
  -20.9377  -29.8788   21.6882 H   0  0  0  0  0  0
  -26.0172  -38.2846   24.1397 H   0  0  0  0  0  0
  -29.0400  -21.1994   22.5484 H   0  0  0  0  0  0
  -29.3807  -19.0809   23.8546 H   0  0  0  0  0  0
  -30.7757  -18.2408   23.1928 H   0  0  0  0  0  0
  -29.1654  -17.5539   23.0135 H   0  0  0  0  0  0
  -31.4603  -17.2938   20.3525 H   0  0  0  0  0  0
  -30.3832  -17.1446   19.0198 H   0  0  0  0  0  0
  -26.9976  -24.6476   20.0686 H   0  0  0  0  0  0
  -28.1321  -24.8246   18.7439 H   0  0  0  0  0  0
  -28.3262  -22.4795   19.0355 H   0  0  0  0  0  0
  -28.9515  -15.7786   20.8588 H   0  0  0  0  0  0
  1 25  1  0  0  0
  1 30  2  0  0  0
  1 80  1  0  0  0
  2  3  1  0  0  0
  2 25  1  0  0  0
  2 83  1  0  0  0
  2 84  1  0  0  0
  3  4  1  0  0  0
  3 85  1  0  0  0
  3 86  1  0  0  0
  4  5  1  0  0  0
  4 87  1  0  0  0
  4 88  1  0  0  0
  5  6  1  0  0  0
  5 26  1  0  0  0
  5 89  1  0  0  0
  6 25  1  0  0  0
  6 90  1  0  0  0
  6 91  1  0  0  0
  7  8  2  0  0  0
  7 26  1  0  0  0
  7 29  1  0  0  0
  8  9  1  0  0  0
  8 22  1  0  0  0
  9 10  1  0  0  0
  9 27  2  0  0  0
 10 11  2  0  0  0
 10 15  1  0  0  0
 11 12  1  0  0  0
 11 92  1  0  0  0
 12 13  2  0  0  0
 12 93  1  0  0  0
 13 14  1  0  0  0
 13 31  1  0  0  0
 14 15  2  0  0  0
 14 94  1  0  0  0
 15 95  1  0  0  0
 16 17  2  0  0  0
 16 21  1  0  0  0
 16 31  1  0  0  0
 17 18  1  0  0  0
 17 96  1  0  0  0
 18 19  2  0  0  0
 18 97  1  0  0  0
 19 20  1  0  0  0
 19 24  1  0  0  0
 20 21  2  0  0  0
 20 98  1  0  0  0
 21 23  1  0  0  0
 22 28  1  0  0  0
 22 32  2  0  0  0
 26 27  1  0  0  0
 28 99  1  0  0  0
 28100  1  0  0  0
 29101  1  0  0  0
 29102  1  0  0  0
 33 34  1  0  0  0
 33 66  1  0  0  0
 33 70  2  0  0  0
 34 36  1  0  0  0
 34 59  1  0  0  0
 34103  1  0  0  0
 35 44  2  0  0  0
 35 45  1  0  0  0
 35 68  1  0  0  0
 36 56  1  0  0  0
 36104  1  0  0  0
 37 39  1  0  0  0
 37 47  1  0  0  0
 37 66  1  0  0  0
 37105  1  0  0  0
 38 43  2  0  0  0
 38 46  1  0  0  0
 38 47  1  0  0  0
 39 64  1  0  0  0
 39 67  2  0  0  0
 40 52  1  0  0  0
 40 53  2  0  0  0
 40 58  1  0  0  0
 41106  1  0  0  0
 41107  1  0  0  0
 41108  1  0  0  0
 41 48  1  0  0  0
 42 43  1  0  0  0
 42 66  1  0  0  0
 42109  1  0  0  0
 42110  1  0  0  0
 43 44  1  0  0  0
 44111  1  0  0  0
 45 46  2  0  0  0
 45112  1  0  0  0
 46113  1  0  0  0
 47114  1  0  0  0
 47115  1  0  0  0
 48 56  1  0  0  0
 48 65  1  0  0  0
 48116  1  0  0  0
 49 50  1  0  0  0
 49 53  1  0  0  0
 49 64  1  0  0  0
 49117  1  0  0  0
 50 51  1  0  0  0
 50118  1  0  0  0
 50119  1  0  0  0
 51 52  1  0  0  0
 51120  1  0  0  0
 51121  1  0  0  0
 52122  1  0  0  0
 52123  1  0  0  0
 53 54  1  0  0  0
 54 55  2  0  0  0
 54124  1  0  0  0
 55 57  1  0  0  0
 55125  1  0  0  0
 56 69  2  0  0  0
 57 58  2  0  0  0
 57126  1  0  0  0
 58127  1  0  0  0
 59 60  1  0  0  0
 59 61  1  0  0  0
 59 62  1  0  0  0
 60128  1  0  0  0
 60129  1  0  0  0
 60130  1  0  0  0
 61131  1  0  0  0
 61132  1  0  0  0
 61133  1  0  0  0
 62134  1  0  0  0
 62135  1  0  0  0
 62136  1  0  0  0
 63 65  1  0  0  0
 63137  1  0  0  0
 63138  1  0  0  0
 63139  1  0  0  0
 64140  1  0  0  0
 65141  1  0  0  0
 68 78  1  0  0  0
 71 72  1  0  0  0
 71 74  2  0  0  0
 71142  1  0  0  0
 72 73  2  0  0  0
 72 76  1  0  0  0
 73 77  1  0  0  0
 73 82  1  0  0  0
 74 79  1  0  0  0
 74 82  1  0  0  0
 75 78  1  0  0  0
 75 79  1  0  0  0
 75 81  2  0  0  0
 76143  1  0  0  0
 76144  1  0  0  0
 76145  1  0  0  0
 77 80  1  0  0  0
 77146  1  0  0  0
 77147  1  0  0  0
 78148  1  0  0  0
 78149  1  0  0  0
 79150  1  0  0  0
 80151  1  0  0  0
M  ISO  4   1 100  68 101  78 101  80 100
M  END
> <chiral flag>
0

> <version>
0

> <s_m_source_file>
/data/baiqing/PycharmProjects/Reinvent-master-3.2/result/LINK_invent/BTK/process_docking_weight1_custom_product_contain_oxygen_bond_distance_aromatic_linkinvent_7_9_3/rearranged_h_0067.sdf

> <i_m_source_file_index>
4

> <r_mmod_Potential_Energy-OPLS-2005>
63.5341415405273

> <r_mmod_Stretch_Energy-OPLS-2005>
98.4500579833984

> <r_mmod_Bend_Energy-OPLS-2005>
175.088912963867

> <r_mmod_Torsional_Energy-OPLS-2005>
222.332641601562

> <r_mmod_Improper_Torsional_Energy-OPLS-2005>
7.73523044586182

> <r_mmod_Van_der_Waal_Energy-OPLS-2005>
124.394836425781

> <r_mmod_Electrostatic_Energy-OPLS-2005>
-402.030395507812

> <r_mmod_Solvation_Energy-OPLS-2005>
-241.995864868164

> <b_mmod_Minimization_Converged-OPLS-2005>
0

> <r_mmod_RMS_Derivative-OPLS-2005>
0.81770533323288

$$$$
4
                    3D
 Structure written by MMmdl.
160169  0  0  1  0            999 V2000
  -30.6214  -14.7332   20.4778 C   0  0  0  0  0  0
  -30.4390  -12.4464   19.4899 C   0  0  0  0  0  0
  -29.5227  -12.5100   18.2459 C   0  0  0  0  0  0
  -28.0447  -12.3424   18.6511 C   0  0  0  0  0  0
  -27.6521  -13.2349   19.8585 C   0  0  2  0  0  0
  -28.6921  -13.1535   21.0004 C   0  0  0  0  0  0
  -25.2558  -13.8204   20.5694 C   0  0  0  0  0  0
  -24.1827  -13.0449   20.9181 C   0  0  0  0  0  0
  -24.6403  -11.6918   20.8701 C   0  0  0  0  0  0
  -23.9072  -10.4291   21.0368 C   0  0  0  0  0  0
  -24.3610   -9.4214   21.9160 C   0  0  0  0  0  0
  -23.6291   -8.2238   22.0744 C   0  0  0  0  0  0
  -22.4272   -8.0259   21.3528 C   0  0  0  0  0  0
  -21.9892   -9.0250   20.4650 C   0  0  0  0  0  0
  -22.7223  -10.2138   20.3047 C   0  0  0  0  0  0
  -21.6861   -6.0717   22.5273 C   0  0  0  0  0  0
  -21.4019   -6.5641   23.8205 C   0  0  0  0  0  0
  -21.3657   -5.6788   24.9161 C   0  0  0  0  0  0
  -21.6053   -4.3057   24.7216 C   0  0  0  0  0  0
  -21.8822   -3.8131   23.4349 C   0  0  0  0  0  0
  -21.9202   -4.6936   22.3399 C   0  0  0  0  0  0
  -22.7844  -13.5231   21.1857 C   0  0  0  0  0  0
  -22.1667   -4.2120   21.0978 F   0  0  0  0  0  0
  -21.5627   -3.4557   25.7741 F   0  0  0  0  0  0
  -30.0045  -13.5020   20.4392 N   0  0  0  0  0  0
  -26.2988  -12.9428   20.3291 N   0  0  0  0  0  0
  -25.9346  -11.6563   20.5699 N   0  0  0  0  0  0
  -22.0485  -12.8235   22.0420 N   0  0  0  0  0  0
  -25.4312  -15.1912   20.4136 N   0  0  0  0  0  0
  -31.7784  -14.8497   20.0619 O   0  0  0  0  0  0
  -21.6639   -6.8854   21.4231 O   0  0  0  0  0  0
  -22.3533  -14.5538   20.6698 O   0  0  0  0  0  0
  -24.6331  -31.8568   23.1998 C   0  0  0  0  0  0
  -25.9149  -32.4766   23.8351 C   0  0  1  0  0  0
  -27.2085  -27.2454   20.1256 C   0  0  0  0  0  0
  -25.5936  -33.8570   24.2263 N   0  0  0  0  0  0
  -23.4296  -30.4820   21.5448 C   0  0  2  0  0  0
  -24.8734  -28.9347   20.1053 C   0  0  0  0  0  0
  -22.7522  -29.4611   22.4920 C   0  0  0  0  0  0
  -18.0302  -28.1390   22.8478 C   0  0  0  0  0  0
  -24.1484  -36.7290   23.2638 C   0  0  0  0  0  0
  -25.9794  -30.7598   21.3887 C   0  0  0  0  0  0
  -26.0457  -29.3844   20.7251 C   0  0  0  0  0  0
  -27.2121  -28.5500   20.7298 C   0  0  0  0  0  0
  -26.0185  -26.8870   19.4452 C   0  0  0  0  0  0
  -24.8669  -27.6942   19.4535 C   0  0  0  0  0  0
  -23.6454  -29.8231   20.1585 C   0  0  0  0  0  0
  -25.4108  -36.3079   24.0330 C   0  0  1  0  0  0
  -20.5906  -28.3708   23.1267 C   0  0  2  0  0  0
  -20.6786  -26.9425   22.5419 C   0  0  0  0  0  0
  -19.5757  -26.6383   21.5223 C   0  0  0  0  0  0
  -18.1936  -26.7932   22.1625 C   0  0  0  0  0  0
  -19.1555  -28.8868   23.2860 C   0  0  0  0  0  0
  -18.9475  -30.1469   23.8881 C   0  0  0  0  0  0
  -17.6472  -30.6592   24.0573 C   0  0  0  0  0  0
  -25.9054  -34.9448   23.5096 C   0  0  0  0  0  0
  -16.5363  -29.9091   23.6335 C   0  0  0  0  0  0
  -16.7289  -28.6508   23.0349 C   0  0  0  0  0  0
  -26.4484  -31.6603   25.0763 C   0  0  0  0  0  0
  -25.3683  -31.3817   26.1477 C   0  0  0  0  0  0
  -27.0337  -30.2998   24.6312 C   0  0  0  0  0  0
  -27.6026  -32.4370   25.7528 C   0  0  0  0  0  0
  -27.5584  -37.1795   24.8453 C   0  0  0  0  0  0
  -21.4232  -29.3045   22.3651 N   0  0  0  0  0  0
  -26.4283  -37.3781   23.9417 N   0  0  0  0  0  0
  -24.6996  -31.0508   22.0996 N   0  0  0  0  0  0
  -23.4209  -28.8156   23.3032 O   0  0  0  0  0  0
  -28.2884  -26.3261   20.2256 O   0  0  0  0  0  0
  -26.5640  -34.8922   22.4674 O   0  0  0  0  0  0
  -23.5473  -32.1423   23.7258 O   0  0  0  0  0  0
  -29.1647  -19.5065   18.6070 C   0  0  0  0  0  0
  -29.6783  -18.4861   20.7608 C   0  0  0  0  0  0
  -29.5396  -17.0864   18.7660 C   0  0  0  0  0  0
  -29.3960  -19.6962   19.9873 C   0  0  0  0  0  0
  -29.2450  -18.2351   18.0046 C   0  0  0  0  0  0
  -29.7541  -17.1535   20.1615 C   0  0  0  0  0  0
  -30.4854  -21.8342   20.6949 C   0  0  0  0  0  0
  -28.2989  -22.1256   20.1528 C   0  0  0  0  0  0
  -30.2745  -23.3748   20.6068 C   0  0  1  0  0  0
  -28.7491  -23.5837   20.6250 C   0  0  1  0  0  0
  -31.0189  -24.1529   21.7073 C   0  0  0  0  0  0
  -28.0897  -24.8681   19.8756 C   0  0  0  0  0  0
  -29.3663  -21.1108   20.4645 N   0  0  0  0  0  0
  -29.0187  -18.1056   16.6358 N   0  0  0  0  0  0
  -29.9033  -15.8544   20.8694 N   0  0  0  0  0  0
  -31.5917  -21.3501   20.9589 O   0  0  0  0  0  0
  -31.4825  -12.5620   19.1901 H   0  0  0  0  0  0
  -30.3812  -11.4660   19.9661 H   0  0  0  0  0  0
  -29.8067  -11.7351   17.5329 H   0  0  0  0  0  0
  -29.6634  -13.4626   17.7325 H   0  0  0  0  0  0
  -27.8940  -11.2935   18.9070 H   0  0  0  0  0  0
  -27.3940  -12.5469   17.8013 H   0  0  0  0  0  0
  -27.6563  -14.2613   19.4929 H   0  0  0  0  0  0
  -28.7176  -12.1534   21.4339 H   0  0  0  0  0  0
  -28.4221  -13.8271   21.8162 H   0  0  0  0  0  0
  -25.2750   -9.5715   22.4734 H   0  0  0  0  0  0
  -24.0025   -7.4643   22.7482 H   0  0  0  0  0  0
  -21.0811   -8.8767   19.8973 H   0  0  0  0  0  0
  -22.3653  -10.9677   19.6155 H   0  0  0  0  0  0
  -21.2008   -7.6145   23.9710 H   0  0  0  0  0  0
  -21.1478   -6.0506   25.9082 H   0  0  0  0  0  0
  -22.0601   -2.7587   23.2845 H   0  0  0  0  0  0
  -22.4095  -11.9913   22.4831 H   0  0  0  0  0  0
  -21.1103  -13.1272   22.2601 H   0  0  0  0  0  0
  -24.6783  -15.8552   20.5577 H   0  0  0  0  0  0
  -26.2898  -15.6262   20.1015 H   0  0  0  0  0  0
  -26.7223  -32.5387   23.1097 H   0  0  0  0  0  0
  -25.0061  -33.9718   25.0393 H   0  0  0  0  0  0
  -22.7251  -31.3047   21.4040 H   0  0  0  0  0  0
  -23.3760  -35.9606   23.3276 H   0  0  0  0  0  0
  -24.3582  -36.8945   22.2059 H   0  0  0  0  0  0
  -23.7220  -37.6474   23.6684 H   0  0  0  0  0  0
  -26.1282  -31.5205   20.6211 H   0  0  0  0  0  0
  -26.8523  -30.7987   22.0291 H   0  0  0  0  0  0
  -28.1038  -28.8826   21.2418 H   0  0  0  0  0  0
  -25.9272  -25.9608   18.9005 H   0  0  0  0  0  0
  -23.9748  -27.3506   18.9481 H   0  0  0  0  0  0
  -23.7698  -30.6036   19.4075 H   0  0  0  0  0  0
  -22.7612  -29.2621   19.8514 H   0  0  0  0  0  0
  -25.1281  -36.1929   25.0822 H   0  0  0  0  0  0
  -20.9990  -28.3295   24.1390 H   0  0  0  0  0  0
  -20.5695  -26.2332   23.3633 H   0  0  0  0  0  0
  -21.6654  -26.7455   22.1219 H   0  0  0  0  0  0
  -19.6927  -25.6290   21.1266 H   0  0  0  0  0  0
  -19.6691  -27.3187   20.6745 H   0  0  0  0  0  0
  -17.4220  -26.6703   21.4010 H   0  0  0  0  0  0
  -18.0312  -26.0077   22.9014 H   0  0  0  0  0  0
  -19.7951  -30.7290   24.2235 H   0  0  0  0  0  0
  -17.5031  -31.6255   24.5193 H   0  0  0  0  0  0
  -15.5366  -30.2988   23.7657 H   0  0  0  0  0  0
  -15.8692  -28.0829   22.7057 H   0  0  0  0  0  0
  -24.5823  -30.7198   25.7822 H   0  0  0  0  0  0
  -24.8913  -32.3021   26.4853 H   0  0  0  0  0  0
  -25.7958  -30.9024   27.0292 H   0  0  0  0  0  0
  -26.2953  -29.6750   24.1270 H   0  0  0  0  0  0
  -27.3901  -29.7262   25.4879 H   0  0  0  0  0  0
  -27.8877  -30.4236   23.9652 H   0  0  0  0  0  0
  -27.2596  -33.3654   26.2103 H   0  0  0  0  0  0
  -28.3811  -32.6973   25.0350 H   0  0  0  0  0  0
  -28.0722  -31.8527   26.5448 H   0  0  0  0  0  0
  -28.2583  -38.0110   24.7530 H   0  0  0  0  0  0
  -28.1098  -36.2649   24.6221 H   0  0  0  0  0  0
  -27.2326  -37.1378   25.8862 H   0  0  0  0  0  0
  -20.9433  -29.8749   21.6834 H   0  0  0  0  0  0
  -26.0164  -38.2854   24.1428 H   0  0  0  0  0  0
  -28.9484  -20.3632   17.9841 H   0  0  0  0  0  0
  -29.8351  -18.5849   21.8267 H   0  0  0  0  0  0
  -29.5681  -16.1268   18.2693 H   0  0  0  0  0  0
  -28.1085  -22.1322   19.0793 H   0  0  0  0  0  0
  -27.3661  -21.8363   20.6380 H   0  0  0  0  0  0
  -30.6631  -23.6836   19.6359 H   0  0  0  0  0  0
  -28.4504  -23.6705   21.6712 H   0  0  0  0  0  0
  -30.6235  -23.9207   22.6958 H   0  0  0  0  0  0
  -30.9255  -25.2279   21.5554 H   0  0  0  0  0  0
  -32.0834  -23.9150   21.7137 H   0  0  0  0  0  0
  -27.0350  -24.6401   20.0100 H   0  0  0  0  0  0
  -28.2818  -24.7725   18.8061 H   0  0  0  0  0  0
  -29.0193  -18.9201   16.0288 H   0  0  0  0  0  0
  -29.2219  -17.2329   16.1569 H   0  0  0  0  0  0
  -29.1308  -15.6367   21.4824 H   0  0  0  0  0  0
  1 25  1  0  0  0
  1 30  2  0  0  0
  1 85  1  0  0  0
  2  3  1  0  0  0
  2 25  1  0  0  0
  2 87  1  0  0  0
  2 88  1  0  0  0
  3  4  1  0  0  0
  3 89  1  0  0  0
  3 90  1  0  0  0
  4  5  1  0  0  0
  4 91  1  0  0  0
  4 92  1  0  0  0
  5  6  1  0  0  0
  5 26  1  0  0  0
  5 93  1  0  0  0
  6 25  1  0  0  0
  6 94  1  0  0  0
  6 95  1  0  0  0
  7  8  2  0  0  0
  7 26  1  0  0  0
  7 29  1  0  0  0
  8  9  1  0  0  0
  8 22  1  0  0  0
  9 10  1  0  0  0
  9 27  2  0  0  0
 10 11  2  0  0  0
 10 15  1  0  0  0
 11 12  1  0  0  0
 11 96  1  0  0  0
 12 13  2  0  0  0
 12 97  1  0  0  0
 13 14  1  0  0  0
 13 31  1  0  0  0
 14 15  2  0  0  0
 14 98  1  0  0  0
 15 99  1  0  0  0
 16 17  2  0  0  0
 16 21  1  0  0  0
 16 31  1  0  0  0
 17 18  1  0  0  0
 17100  1  0  0  0
 18 19  2  0  0  0
 18101  1  0  0  0
 19 20  1  0  0  0
 19 24  1  0  0  0
 20 21  2  0  0  0
 20102  1  0  0  0
 21 23  1  0  0  0
 22 28  1  0  0  0
 22 32  2  0  0  0
 26 27  1  0  0  0
 28103  1  0  0  0
 28104  1  0  0  0
 29105  1  0  0  0
 29106  1  0  0  0
 33 34  1  0  0  0
 33 66  1  0  0  0
 33 70  2  0  0  0
 34 36  1  0  0  0
 34 59  1  0  0  0
 34107  1  0  0  0
 35 44  2  0  0  0
 35 45  1  0  0  0
 35 68  1  0  0  0
 36 56  1  0  0  0
 36108  1  0  0  0
 37 39  1  0  0  0
 37 47  1  0  0  0
 37 66  1  0  0  0
 37109  1  0  0  0
 38 43  2  0  0  0
 38 46  1  0  0  0
 38 47  1  0  0  0
 39 64  1  0  0  0
 39 67  2  0  0  0
 40 52  1  0  0  0
 40 53  2  0  0  0
 40 58  1  0  0  0
 41110  1  0  0  0
 41111  1  0  0  0
 41112  1  0  0  0
 41 48  1  0  0  0
 42 43  1  0  0  0
 42 66  1  0  0  0
 42113  1  0  0  0
 42114  1  0  0  0
 43 44  1  0  0  0
 44115  1  0  0  0
 45 46  2  0  0  0
 45116  1  0  0  0
 46117  1  0  0  0
 47118  1  0  0  0
 47119  1  0  0  0
 48 56  1  0  0  0
 48 65  1  0  0  0
 48120  1  0  0  0
 49 50  1  0  0  0
 49 53  1  0  0  0
 49 64  1  0  0  0
 49121  1  0  0  0
 50 51  1  0  0  0
 50122  1  0  0  0
 50123  1  0  0  0
 51 52  1  0  0  0
 51124  1  0  0  0
 51125  1  0  0  0
 52126  1  0  0  0
 52127  1  0  0  0
 53 54  1  0  0  0
 54 55  2  0  0  0
 54128  1  0  0  0
 55 57  1  0  0  0
 55129  1  0  0  0
 56 69  2  0  0  0
 57 58  2  0  0  0
 57130  1  0  0  0
 58131  1  0  0  0
 59 60  1  0  0  0
 59 61  1  0  0  0
 59 62  1  0  0  0
 60132  1  0  0  0
 60133  1  0  0  0
 60134  1  0  0  0
 61135  1  0  0  0
 61136  1  0  0  0
 61137  1  0  0  0
 62138  1  0  0  0
 62139  1  0  0  0
 62140  1  0  0  0
 63 65  1  0  0  0
 63141  1  0  0  0
 63142  1  0  0  0
 63143  1  0  0  0
 64144  1  0  0  0
 65145  1  0  0  0
 68 82  1  0  0  0
 71 74  2  0  0  0
 71 75  1  0  0  0
 71146  1  0  0  0
 72 74  1  0  0  0
 72 76  2  0  0  0
 72147  1  0  0  0
 73 75  2  0  0  0
 73 76  1  0  0  0
 73148  1  0  0  0
 74 83  1  0  0  0
 75 84  1  0  0  0
 76 85  1  0  0  0
 77 79  1  0  0  0
 77 83  1  0  0  0
 77 86  2  0  0  0
 78 80  1  0  0  0
 78 83  1  0  0  0
 78149  1  0  0  0
 78150  1  0  0  0
 79 80  1  0  0  0
 79 81  1  0  0  0
 79151  1  0  0  0
 80 82  1  0  0  0
 80152  1  0  0  0
 81153  1  0  0  0
 81154  1  0  0  0
 81155  1  0  0  0
 82156  1  0  0  0
 82157  1  0  0  0
 84158  1  0  0  0
 84159  1  0  0  0
 85160  1  0  0  0
M  ISO  4   1 100  68 101  82 101  85 100
M  END
> <chiral flag>
0

> <version>
0

> <s_m_source_file>
/data/baiqing/PycharmProjects/Reinvent-master-3.2/result/LINK_invent/BTK/process_docking_weight1_custom_product_contain_oxygen_bond_distance_aromatic_linkinvent_7_9_3/rearranged_h_0067.sdf

> <i_m_source_file_index>
5

> <r_mmod_Potential_Energy-OPLS-2005>
326.791778564453

> <r_mmod_Stretch_Energy-OPLS-2005>
127.777137756348

> <r_mmod_Bend_Energy-OPLS-2005>
205.810302734375

> <r_mmod_Torsional_Energy-OPLS-2005>
323.861541748047

> <r_mmod_Improper_Torsional_Energy-OPLS-2005>
7.9940185546875

> <r_mmod_Van_der_Waal_Energy-OPLS-2005>
133.870086669922

> <r_mmod_Electrostatic_Energy-OPLS-2005>
-321.230072021484

> <r_mmod_Solvation_Energy-OPLS-2005>
-240.668960571289

> <b_mmod_Minimization_Converged-OPLS-2005>
0

> <r_mmod_RMS_Derivative-OPLS-2005>
2.95302104949951

$$$$
5
                    3D
 Structure written by MMmdl.
157165  0  0  1  0            999 V2000
  -30.6048  -14.7383   20.4644 C   0  0  0  0  0  0
  -30.4363  -12.4447   19.4951 C   0  0  0  0  0  0
  -29.5208  -12.4990   18.2505 C   0  0  0  0  0  0
  -28.0427  -12.3355   18.6540 C   0  0  0  0  0  0
  -27.6460  -13.2324   19.8578 C   0  0  2  0  0  0
  -28.6852  -13.1493   20.9995 C   0  0  0  0  0  0
  -25.2517  -13.8203   20.5693 C   0  0  0  0  0  0
  -24.1794  -13.0456   20.9201 C   0  0  0  0  0  0
  -24.6391  -11.6927   20.8734 C   0  0  0  0  0  0
  -23.9061  -10.4310   21.0409 C   0  0  0  0  0  0
  -24.3619   -9.4229   21.9176 C   0  0  0  0  0  0
  -23.6312   -8.2255   22.0737 C   0  0  0  0  0  0
  -22.4303   -8.0290   21.3523 C   0  0  0  0  0  0
  -21.9924   -9.0263   20.4628 C   0  0  0  0  0  0
  -22.7238  -10.2147   20.3049 C   0  0  0  0  0  0
  -21.6865   -6.0751   22.5275 C   0  0  0  0  0  0
  -21.4024   -6.5647   23.8215 C   0  0  0  0  0  0
  -21.3661   -5.6783   24.9167 C   0  0  0  0  0  0
  -21.6054   -4.3048   24.7202 C   0  0  0  0  0  0
  -21.8817   -3.8160   23.4321 C   0  0  0  0  0  0
  -21.9191   -4.6983   22.3389 C   0  0  0  0  0  0
  -22.7816  -13.5239   21.1858 C   0  0  0  0  0  0
  -22.1651   -4.2178   21.0964 F   0  0  0  0  0  0
  -21.5629   -3.4529   25.7712 F   0  0  0  0  0  0
  -29.9946  -13.5022   20.4356 N   0  0  0  0  0  0
  -26.2948  -12.9414   20.3278 N   0  0  0  0  0  0
  -25.9329  -11.6557   20.5761 N   0  0  0  0  0  0
  -22.0437  -12.8231   22.0408 N   0  0  0  0  0  0
  -25.4208  -15.1939   20.4132 N   0  0  0  0  0  0
  -31.7717  -14.8517   20.0772 O   0  0  0  0  0  0
  -21.6643   -6.8912   21.4249 O   0  0  0  0  0  0
  -22.3502  -14.5543   20.6710 O   0  0  0  0  0  0
  -24.6326  -31.8571   23.2005 C   0  0  0  0  0  0
  -25.9153  -32.4760   23.8355 C   0  0  1  0  0  0
  -27.2121  -27.2617   20.1317 C   0  0  0  0  0  0
  -25.5957  -33.8564   24.2289 N   0  0  0  0  0  0
  -23.4281  -30.4838   21.5417 C   0  0  2  0  0  0
  -24.8724  -28.9340   20.1085 C   0  0  0  0  0  0
  -22.7506  -29.4636   22.4892 C   0  0  0  0  0  0
  -18.0299  -28.1386   22.8460 C   0  0  0  0  0  0
  -24.1489  -36.7296   23.2641 C   0  0  0  0  0  0
  -25.9733  -30.7710   21.3788 C   0  0  0  0  0  0
  -26.0451  -29.3935   20.7222 C   0  0  0  0  0  0
  -27.2173  -28.5705   20.7238 C   0  0  0  0  0  0
  -26.0187  -26.8801   19.4741 C   0  0  0  0  0  0
  -24.8654  -27.6850   19.4722 C   0  0  0  0  0  0
  -23.6462  -29.8241   20.1557 C   0  0  0  0  0  0
  -25.4112  -36.3078   24.0340 C   0  0  1  0  0  0
  -20.5900  -28.3727   23.1230 C   0  0  2  0  0  0
  -20.6778  -26.9440   22.5384 C   0  0  0  0  0  0
  -19.5757  -26.6385   21.5182 C   0  0  0  0  0  0
  -18.1945  -26.7924   22.1603 C   0  0  0  0  0  0
  -19.1549  -28.8864   23.2843 C   0  0  0  0  0  0
  -18.9476  -30.1449   23.8887 C   0  0  0  0  0  0
  -17.6481  -30.6582   24.0561 C   0  0  0  0  0  0
  -25.9052  -34.9450   23.5112 C   0  0  0  0  0  0
  -16.5370  -29.9090   23.6313 C   0  0  0  0  0  0
  -16.7288  -28.6504   23.0337 C   0  0  0  0  0  0
  -26.4514  -31.6570   25.0741 C   0  0  0  0  0  0
  -25.3742  -31.3708   26.1466 C   0  0  0  0  0  0
  -27.0371  -30.2997   24.6205 C   0  0  0  0  0  0
  -27.6079  -32.4298   25.7515 C   0  0  0  0  0  0
  -27.5580  -37.1808   24.8469 C   0  0  0  0  0  0
  -21.4215  -29.3087   22.3629 N   0  0  0  0  0  0
  -26.4281  -37.3782   23.9417 N   0  0  0  0  0  0
  -24.6973  -31.0553   22.0968 N   0  0  0  0  0  0
  -23.4204  -28.8159   23.2981 O   0  0  0  0  0  0
  -28.2934  -26.3490   20.2109 O   0  0  0  0  0  0
  -26.5619  -34.8922   22.4675 O   0  0  0  0  0  0
  -23.5477  -32.1395   23.7297 O   0  0  0  0  0  0
  -29.4482  -18.1803   17.8600 C   0  0  0  0  0  0
  -29.6354  -18.4877   20.6125 C   0  0  0  0  0  0
  -29.3736  -19.4882   18.3888 C   0  0  0  0  0  0
  -29.4305  -19.7007   19.8119 C   0  0  0  0  0  0
  -29.7470  -17.1384   20.0570 C   0  0  0  0  0  0
  -29.6142  -17.0416   18.6557 C   0  0  0  0  0  0
  -29.2950  -20.5222   17.3377 C   0  0  0  0  0  0
  -28.6017  -22.1637   20.1997 C   0  0  0  0  0  0
  -29.0258  -23.6879   20.4727 C   0  0  0  0  0  0
  -28.0038  -24.8766   20.0560 C   0  0  0  0  0  0
  -30.2257  -20.5696   16.3858 N   0  0  0  0  0  0
  -29.4559  -21.0837   20.3870 N   0  0  0  0  0  0
  -29.8648  -15.8600   20.8057 N   0  0  0  0  0  0
  -28.2768  -21.3728   17.2516 N   0  3  0  0  0  0
  -27.4516  -21.9542   19.8049 O   0  0  0  0  0  0
  -29.6064  -15.8357   18.0402 F   0  0  0  0  0  0
  -31.4813  -12.5622   19.1992 H   0  0  0  0  0  0
  -30.3745  -11.4667   19.9763 H   0  0  0  0  0  0
  -29.8038  -11.7184   17.5426 H   0  0  0  0  0  0
  -29.6573  -13.4438   17.7243 H   0  0  0  0  0  0
  -27.8922  -11.2867   18.9117 H   0  0  0  0  0  0
  -27.3934  -12.5354   17.8015 H   0  0  0  0  0  0
  -27.6484  -14.2589   19.4865 H   0  0  0  0  0  0
  -28.7116  -12.1444   21.4253 H   0  0  0  0  0  0
  -28.4134  -13.8186   21.8171 H   0  0  0  0  0  0
  -25.2777   -9.5722   22.4727 H   0  0  0  0  0  0
  -24.0036   -7.4662   22.7456 H   0  0  0  0  0  0
  -21.0852   -8.8784   19.8940 H   0  0  0  0  0  0
  -22.3705  -10.9678   19.6152 H   0  0  0  0  0  0
  -21.2013   -7.6157   23.9730 H   0  0  0  0  0  0
  -21.1485   -6.0501   25.9068 H   0  0  0  0  0  0
  -22.0596   -2.7625   23.2793 H   0  0  0  0  0  0
  -22.4069  -11.9938   22.4869 H   0  0  0  0  0  0
  -21.1044  -13.1261   22.2563 H   0  0  0  0  0  0
  -24.6544  -15.8476   20.5279 H   0  0  0  0  0  0
  -26.2659  -15.6308   20.0697 H   0  0  0  0  0  0
  -26.7232  -32.5411   23.1109 H   0  0  0  0  0  0
  -25.0133  -33.9695   25.0455 H   0  0  0  0  0  0
  -22.7256  -31.3082   21.3994 H   0  0  0  0  0  0
  -23.3747  -35.9628   23.3286 H   0  0  0  0  0  0
  -24.3588  -36.8927   22.2057 H   0  0  0  0  0  0
  -23.7239  -37.6497   23.6664 H   0  0  0  0  0  0
  -26.1125  -31.5279   20.6055 H   0  0  0  0  0  0
  -26.8519  -30.8210   22.0109 H   0  0  0  0  0  0
  -28.1098  -28.9161   21.2272 H   0  0  0  0  0  0
  -25.9388  -25.9323   18.9648 H   0  0  0  0  0  0
  -23.9723  -27.3297   18.9775 H   0  0  0  0  0  0
  -23.7814  -30.6049   19.4061 H   0  0  0  0  0  0
  -22.7605  -29.2684   19.8415 H   0  0  0  0  0  0
  -25.1280  -36.1936   25.0831 H   0  0  0  0  0  0
  -20.9997  -28.3318   24.1346 H   0  0  0  0  0  0
  -20.5635  -26.2370   23.3615 H   0  0  0  0  0  0
  -21.6658  -26.7440   22.1215 H   0  0  0  0  0  0
  -19.6930  -25.6286   21.1238 H   0  0  0  0  0  0
  -19.6669  -27.3170   20.6687 H   0  0  0  0  0  0
  -17.4208  -26.6649   21.4013 H   0  0  0  0  0  0
  -18.0364  -26.0065   22.9003 H   0  0  0  0  0  0
  -19.7961  -30.7245   24.2272 H   0  0  0  0  0  0
  -17.5049  -31.6254   24.5180 H   0  0  0  0  0  0
  -15.5373  -30.3001   23.7623 H   0  0  0  0  0  0
  -15.8690  -28.0820   22.7056 H   0  0  0  0  0  0
  -24.5926  -30.7042   25.7802 H   0  0  0  0  0  0
  -24.8921  -32.2867   26.4891 H   0  0  0  0  0  0
  -25.8066  -30.8897   27.0250 H   0  0  0  0  0  0
  -26.2954  -29.6730   24.1240 H   0  0  0  0  0  0
  -27.4090  -29.7263   25.4707 H   0  0  0  0  0  0
  -27.8813  -30.4290   23.9431 H   0  0  0  0  0  0
  -27.2704  -33.3605   26.2087 H   0  0  0  0  0  0
  -28.3894  -32.6836   25.0341 H   0  0  0  0  0  0
  -28.0746  -31.8426   26.5433 H   0  0  0  0  0  0
  -28.2597  -38.0107   24.7518 H   0  0  0  0  0  0
  -28.1071  -36.2641   24.6270 H   0  0  0  0  0  0
  -27.2312  -37.1443   25.8876 H   0  0  0  0  0  0
  -20.9402  -29.8881   21.6896 H   0  0  0  0  0  0
  -26.0164  -38.2860   24.1391 H   0  0  0  0  0  0
  -29.3700  -18.0302   16.7923 H   0  0  0  0  0  0
  -29.7186  -18.5936   21.6842 H   0  0  0  0  0  0
  -29.9617  -23.8517   19.9380 H   0  0  0  0  0  0
  -29.2623  -23.7811   21.5321 H   0  0  0  0  0  0
  -27.0846  -24.6753   20.6078 H   0  0  0  0  0  0
  -27.7647  -24.7197   19.0044 H   0  0  0  0  0  0
  -31.0150  -19.9418   16.4393 H   0  0  0  0  0  0
  -30.2198  -21.2478   15.6409 H   0  0  0  0  0  0
  -30.2808  -21.3019   20.9321 H   0  0  0  0  0  0
  -29.0699  -15.6633   21.3937 H   0  0  0  0  0  0
  -27.6596  -21.4558   18.0601 H   0  0  0  0  0  0
  -28.1590  -22.0195   16.4885 H   0  0  0  0  0  0
  1 25  1  0  0  0
  1 30  2  0  0  0
  1 83  1  0  0  0
  2  3  1  0  0  0
  2 25  1  0  0  0
  2 87  1  0  0  0
  2 88  1  0  0  0
  3  4  1  0  0  0
  3 89  1  0  0  0
  3 90  1  0  0  0
  4  5  1  0  0  0
  4 91  1  0  0  0
  4 92  1  0  0  0
  5  6  1  0  0  0
  5 26  1  0  0  0
  5 93  1  0  0  0
  6 25  1  0  0  0
  6 94  1  0  0  0
  6 95  1  0  0  0
  7  8  2  0  0  0
  7 26  1  0  0  0
  7 29  1  0  0  0
  8  9  1  0  0  0
  8 22  1  0  0  0
  9 10  1  0  0  0
  9 27  2  0  0  0
 10 11  2  0  0  0
 10 15  1  0  0  0
 11 12  1  0  0  0
 11 96  1  0  0  0
 12 13  2  0  0  0
 12 97  1  0  0  0
 13 14  1  0  0  0
 13 31  1  0  0  0
 14 15  2  0  0  0
 14 98  1  0  0  0
 15 99  1  0  0  0
 16 17  2  0  0  0
 16 21  1  0  0  0
 16 31  1  0  0  0
 17 18  1  0  0  0
 17100  1  0  0  0
 18 19  2  0  0  0
 18101  1  0  0  0
 19 20  1  0  0  0
 19 24  1  0  0  0
 20 21  2  0  0  0
 20102  1  0  0  0
 21 23  1  0  0  0
 22 28  1  0  0  0
 22 32  2  0  0  0
 26 27  1  0  0  0
 28103  1  0  0  0
 28104  1  0  0  0
 29105  1  0  0  0
 29106  1  0  0  0
 33 34  1  0  0  0
 33 66  1  0  0  0
 33 70  2  0  0  0
 34 36  1  0  0  0
 34 59  1  0  0  0
 34107  1  0  0  0
 35 44  2  0  0  0
 35 45  1  0  0  0
 35 68  1  0  0  0
 36 56  1  0  0  0
 36108  1  0  0  0
 37 39  1  0  0  0
 37 47  1  0  0  0
 37 66  1  0  0  0
 37109  1  0  0  0
 38 43  2  0  0  0
 38 46  1  0  0  0
 38 47  1  0  0  0
 39 64  1  0  0  0
 39 67  2  0  0  0
 40 52  1  0  0  0
 40 53  2  0  0  0
 40 58  1  0  0  0
 41110  1  0  0  0
 41111  1  0  0  0
 41112  1  0  0  0
 41 48  1  0  0  0
 42 43  1  0  0  0
 42 66  1  0  0  0
 42113  1  0  0  0
 42114  1  0  0  0
 43 44  1  0  0  0
 44115  1  0  0  0
 45 46  2  0  0  0
 45116  1  0  0  0
 46117  1  0  0  0
 47118  1  0  0  0
 47119  1  0  0  0
 48 56  1  0  0  0
 48 65  1  0  0  0
 48120  1  0  0  0
 49 50  1  0  0  0
 49 53  1  0  0  0
 49 64  1  0  0  0
 49121  1  0  0  0
 50 51  1  0  0  0
 50122  1  0  0  0
 50123  1  0  0  0
 51 52  1  0  0  0
 51124  1  0  0  0
 51125  1  0  0  0
 52126  1  0  0  0
 52127  1  0  0  0
 53 54  1  0  0  0
 54 55  2  0  0  0
 54128  1  0  0  0
 55 57  1  0  0  0
 55129  1  0  0  0
 56 69  2  0  0  0
 57 58  2  0  0  0
 57130  1  0  0  0
 58131  1  0  0  0
 59 60  1  0  0  0
 59 61  1  0  0  0
 59 62  1  0  0  0
 60132  1  0  0  0
 60133  1  0  0  0
 60134  1  0  0  0
 61135  1  0  0  0
 61136  1  0  0  0
 61137  1  0  0  0
 62138  1  0  0  0
 62139  1  0  0  0
 62140  1  0  0  0
 63 65  1  0  0  0
 63141  1  0  0  0
 63142  1  0  0  0
 63143  1  0  0  0
 64144  1  0  0  0
 65145  1  0  0  0
 68 80  1  0  0  0
 71 73  2  0  0  0
 71 76  1  0  0  0
 71146  1  0  0  0
 72 74  2  0  0  0
 72 75  1  0  0  0
 72147  1  0  0  0
 73 74  1  0  0  0
 73 77  1  0  0  0
 74 82  1  0  0  0
 75 76  2  0  0  0
 75 83  1  0  0  0
 76 86  1  0  0  0
 77 81  1  0  0  0
 77 84  2  0  0  0
 78 79  1  0  0  0
 78 82  1  0  0  0
 78 85  2  0  0  0
 79 80  1  0  0  0
 79148  1  0  0  0
 79149  1  0  0  0
 80150  1  0  0  0
 80151  1  0  0  0
 81152  1  0  0  0
 81153  1  0  0  0
 82154  1  0  0  0
 83155  1  0  0  0
 84156  1  0  0  0
 84157  1  0  0  0
M  CHG  1  84   1
M  ISO  4   1 100  68 101  80 101  83 100
M  END
> <chiral flag>
0

> <version>
0

> <s_m_source_file>
/data/baiqing/PycharmProjects/Reinvent-master-3.2/result/LINK_invent/BTK/process_docking_weight1_custom_product_contain_oxygen_bond_distance_aromatic_linkinvent_7_9_3/rearranged_h_0067.sdf

> <i_m_source_file_index>
6

> <r_mmod_Potential_Energy-OPLS-2005>
-112.416015625

> <r_mmod_Stretch_Energy-OPLS-2005>
132.657775878906

> <r_mmod_Bend_Energy-OPLS-2005>
167.791519165039

> <r_mmod_Torsional_Energy-OPLS-2005>
286.45654296875

> <r_mmod_Improper_Torsional_Energy-OPLS-2005>
6.57376098632812

> <r_mmod_Van_der_Waal_Energy-OPLS-2005>
158.101745605469

> <r_mmod_Electrostatic_Energy-OPLS-2005>
-485.158081054688

> <r_mmod_Solvation_Energy-OPLS-2005>
-464.203033447266

> <b_mmod_Minimization_Converged-OPLS-2005>
0

> <r_mmod_RMS_Derivative-OPLS-2005>
2.44803619384766

$$$$
6
                    3D
 Structure written by MMmdl.
154162  0  0  1  0            999 V2000
  -30.6283  -14.7585   20.4317 C   0  0  0  0  0  0
  -30.4313  -12.4567   19.4565 C   0  0  0  0  0  0
  -29.5049  -12.4813   18.2203 C   0  0  0  0  0  0
  -28.0334  -12.3020   18.6501 C   0  0  0  0  0  0
  -27.6333  -13.2299   19.8254 C   0  0  2  0  0  0
  -28.6829  -13.2013   20.9569 C   0  0  0  0  0  0
  -25.2473  -13.8184   20.5673 C   0  0  0  0  0  0
  -24.1784  -13.0427   20.9226 C   0  0  0  0  0  0
  -24.6384  -11.6894   20.8733 C   0  0  0  0  0  0
  -23.9044  -10.4286   21.0402 C   0  0  0  0  0  0
  -24.3605   -9.4188   21.9179 C   0  0  0  0  0  0
  -23.6296   -8.2219   22.0744 C   0  0  0  0  0  0
  -22.4260   -8.0274   21.3545 C   0  0  0  0  0  0
  -21.9904   -9.0230   20.4630 C   0  0  0  0  0  0
  -22.7228  -10.2118   20.3042 C   0  0  0  0  0  0
  -21.6845   -6.0700   22.5282 C   0  0  0  0  0  0
  -21.4013   -6.5614   23.8206 C   0  0  0  0  0  0
  -21.3658   -5.6767   24.9176 C   0  0  0  0  0  0
  -21.6055   -4.3048   24.7228 C   0  0  0  0  0  0
  -21.8810   -3.8117   23.4357 C   0  0  0  0  0  0
  -21.9192   -4.6916   22.3411 C   0  0  0  0  0  0
  -22.7799  -13.5203   21.1899 C   0  0  0  0  0  0
  -22.1653   -4.2112   21.0992 F   0  0  0  0  0  0
  -21.5634   -3.4540   25.7748 F   0  0  0  0  0  0
  -29.9816  -13.5434   20.3576 N   0  0  0  0  0  0
  -26.2898  -12.9399   20.3182 N   0  0  0  0  0  0
  -25.9312  -11.6545   20.5715 N   0  0  0  0  0  0
  -22.0439  -12.8184   22.0452 N   0  0  0  0  0  0
  -25.4144  -15.1914   20.4050 N   0  0  0  0  0  0
  -31.8394  -14.8106   20.2101 O   0  0  0  0  0  0
  -21.6633   -6.8856   21.4254 O   0  0  0  0  0  0
  -22.3466  -14.5484   20.6701 O   0  0  0  0  0  0
  -24.6332  -31.8538   23.1954 C   0  0  0  0  0  0
  -25.9160  -32.4739   23.8312 C   0  0  1  0  0  0
  -27.2356  -27.2685   20.1223 C   0  0  0  0  0  0
  -25.5924  -33.8541   24.2218 N   0  0  0  0  0  0
  -23.4303  -30.4762   21.5338 C   0  0  2  0  0  0
  -24.8810  -28.9193   20.1047 C   0  0  0  0  0  0
  -22.7507  -29.4583   22.4822 C   0  0  0  0  0  0
  -18.0299  -28.1418   22.8485 C   0  0  0  0  0  0
  -24.1485  -36.7282   23.2640 C   0  0  0  0  0  0
  -25.9753  -30.7722   21.3684 C   0  0  0  0  0  0
  -26.0482  -29.3916   20.7162 C   0  0  0  0  0  0
  -27.2229  -28.5759   20.7156 C   0  0  0  0  0  0
  -26.0386  -26.8495   19.5015 C   0  0  0  0  0  0
  -24.8808  -27.6568   19.4859 C   0  0  0  0  0  0
  -23.6534  -29.8099   20.1471 C   0  0  0  0  0  0
  -25.4108  -36.3051   24.0320 C   0  0  1  0  0  0
  -20.5923  -28.3732   23.1233 C   0  0  2  0  0  0
  -20.6790  -26.9439   22.5406 C   0  0  0  0  0  0
  -19.5747  -26.6393   21.5227 C   0  0  0  0  0  0
  -18.1923  -26.7957   22.1631 C   0  0  0  0  0  0
  -19.1572  -28.8884   23.2866 C   0  0  0  0  0  0
  -18.9484  -30.1476   23.8905 C   0  0  0  0  0  0
  -17.6479  -30.6598   24.0591 C   0  0  0  0  0  0
  -25.9056  -34.9426   23.5073 C   0  0  0  0  0  0
  -16.5370  -29.9105   23.6332 C   0  0  0  0  0  0
  -16.7293  -28.6537   23.0342 C   0  0  0  0  0  0
  -26.4536  -31.6591   25.0704 C   0  0  0  0  0  0
  -25.3767  -31.3785   26.1431 C   0  0  0  0  0  0
  -27.0385  -30.3006   24.6166 C   0  0  0  0  0  0
  -27.6056  -32.4365   25.7500 C   0  0  0  0  0  0
  -27.5564  -37.1765   24.8447 C   0  0  0  0  0  0
  -21.4221  -29.3073   22.3608 N   0  0  0  0  0  0
  -26.4249  -37.3773   23.9429 N   0  0  0  0  0  0
  -24.6990  -31.0515   22.0908 N   0  0  0  0  0  0
  -23.4222  -28.8111   23.2900 O   0  0  0  0  0  0
  -28.3661  -26.4228   20.1996 O   0  0  0  0  0  0
  -26.5606  -34.8915   22.4624 O   0  0  0  0  0  0
  -23.5458  -32.1332   23.7237 O   0  0  0  0  0  0
  -30.8484  -20.0084   21.6606 C   0  0  0  0  0  0
  -31.3030  -17.5898   21.6045 C   0  0  0  0  0  0
  -29.4683  -18.5314   20.3125 C   0  0  0  0  0  0
  -31.5836  -18.8844   22.0923 C   0  0  0  0  0  0
  -29.7799  -19.8975   20.7357 C   0  0  0  0  0  0
  -30.2132  -17.3448   20.7424 C   0  0  0  0  0  0
  -29.3170  -22.4817   20.4131 C   0  0  0  0  0  0
  -32.6516  -19.0579   23.1543 C   0  0  0  0  0  0
  -28.2089  -23.6436   20.2926 C   0  0  0  0  0  0
  -28.4849  -25.0694   19.5552 C   0  0  0  0  0  0
  -28.9989  -21.1211   20.3633 N   0  0  0  0  0  0
  -29.8630  -15.9263   20.4345 N   0  0  0  0  0  0
  -30.4869  -22.8460   20.5615 O   0  0  0  0  0  0
  -31.4738  -12.5766   19.1511 H   0  0  0  0  0  0
  -30.3768  -11.4897   19.9584 H   0  0  0  0  0  0
  -29.7882  -11.6881   17.5238 H   0  0  0  0  0  0
  -29.6288  -13.4209   17.6787 H   0  0  0  0  0  0
  -27.9151  -11.2628   18.9526 H   0  0  0  0  0  0
  -27.3634  -12.4450   17.8016 H   0  0  0  0  0  0
  -27.6157  -14.2406   19.4159 H   0  0  0  0  0  0
  -28.7176  -12.2179   21.4294 H   0  0  0  0  0  0
  -28.4174  -13.9178   21.7369 H   0  0  0  0  0  0
  -25.2754   -9.5639   22.4751 H   0  0  0  0  0  0
  -23.9980   -7.4595   22.7464 H   0  0  0  0  0  0
  -21.0828   -8.8751   19.8946 H   0  0  0  0  0  0
  -22.3703  -10.9641   19.6131 H   0  0  0  0  0  0
  -21.2009   -7.6126   23.9703 H   0  0  0  0  0  0
  -21.1496   -6.0513   25.9085 H   0  0  0  0  0  0
  -22.0596   -2.7581   23.2882 H   0  0  0  0  0  0
  -22.4054  -11.9885   22.4897 H   0  0  0  0  0  0
  -21.1038  -13.1170   22.2593 H   0  0  0  0  0  0
  -24.6401  -15.8407   20.5022 H   0  0  0  0  0  0
  -26.2555  -15.6364   20.0615 H   0  0  0  0  0  0
  -26.7231  -32.5394   23.1057 H   0  0  0  0  0  0
  -25.0177  -33.9680   25.0427 H   0  0  0  0  0  0
  -22.7303  -31.3015   21.3820 H   0  0  0  0  0  0
  -23.3714  -35.9639   23.3281 H   0  0  0  0  0  0
  -24.3615  -36.8924   22.2062 H   0  0  0  0  0  0
  -23.7252  -37.6476   23.6700 H   0  0  0  0  0  0
  -26.1040  -31.5289   20.5926 H   0  0  0  0  0  0
  -26.8595  -30.8335   21.9932 H   0  0  0  0  0  0
  -28.1169  -28.9331   21.2087 H   0  0  0  0  0  0
  -25.9574  -25.8736   19.0497 H   0  0  0  0  0  0
  -23.9874  -27.2866   19.0044 H   0  0  0  0  0  0
  -23.7884  -30.5891   19.3936 H   0  0  0  0  0  0
  -22.7732  -29.2453   19.8296 H   0  0  0  0  0  0
  -25.1283  -36.1880   25.0805 H   0  0  0  0  0  0
  -21.0060  -28.3343   24.1338 H   0  0  0  0  0  0
  -20.5694  -26.2368   23.3635 H   0  0  0  0  0  0
  -21.6645  -26.7449   22.1190 H   0  0  0  0  0  0
  -19.6907  -25.6309   21.1232 H   0  0  0  0  0  0
  -19.6655  -27.3239   20.6782 H   0  0  0  0  0  0
  -17.4202  -26.6735   21.4020 H   0  0  0  0  0  0
  -18.0291  -26.0113   22.9042 H   0  0  0  0  0  0
  -19.7984  -30.7289   24.2260 H   0  0  0  0  0  0
  -17.5055  -31.6275   24.5217 H   0  0  0  0  0  0
  -15.5389  -30.3018   23.7640 H   0  0  0  0  0  0
  -15.8708  -28.0866   22.7017 H   0  0  0  0  0  0
  -24.5920  -30.7155   25.7776 H   0  0  0  0  0  0
  -24.8997  -32.2989   26.4803 H   0  0  0  0  0  0
  -25.8080  -30.9001   27.0236 H   0  0  0  0  0  0
  -26.2966  -29.6731   24.1206 H   0  0  0  0  0  0
  -27.4115  -29.7287   25.4679 H   0  0  0  0  0  0
  -27.8841  -30.4268   23.9404 H   0  0  0  0  0  0
  -27.2613  -33.3668   26.2039 H   0  0  0  0  0  0
  -28.3906  -32.6918   25.0378 H   0  0  0  0  0  0
  -28.0704  -31.8538   26.5458 H   0  0  0  0  0  0
  -28.2511  -38.0126   24.7544 H   0  0  0  0  0  0
  -28.1115  -36.2639   24.6187 H   0  0  0  0  0  0
  -27.2309  -37.1331   25.8856 H   0  0  0  0  0  0
  -20.9417  -29.8869   21.6877 H   0  0  0  0  0  0
  -26.0094  -38.2819   24.1491 H   0  0  0  0  0  0
  -31.1028  -20.9709   22.0868 H   0  0  0  0  0  0
  -31.9108  -16.7697   21.9599 H   0  0  0  0  0  0
  -28.6272  -18.3934   19.6446 H   0  0  0  0  0  0
  -33.2802  -18.1719   23.2562 H   0  0  0  0  0  0
  -32.1763  -19.2345   24.1222 H   0  0  0  0  0  0
  -33.2977  -19.9063   22.9326 H   0  0  0  0  0  0
  -27.8678  -23.8597   21.3063 H   0  0  0  0  0  0
  -27.3517  -23.1911   19.7913 H   0  0  0  0  0  0
  -29.5127  -25.0419   19.1912 H   0  0  0  0  0  0
  -27.9093  -25.0796   18.6286 H   0  0  0  0  0  0
  -28.0474  -20.9443   20.0680 H   0  0  0  0  0  0
  -28.8841  -15.7636   20.2539 H   0  0  0  0  0  0
  1 25  1  0  0  0
  1 30  2  0  0  0
  1 82  1  0  0  0
  2  3  1  0  0  0
  2 25  1  0  0  0
  2 84  1  0  0  0
  2 85  1  0  0  0
  3  4  1  0  0  0
  3 86  1  0  0  0
  3 87  1  0  0  0
  4  5  1  0  0  0
  4 88  1  0  0  0
  4 89  1  0  0  0
  5  6  1  0  0  0
  5 26  1  0  0  0
  5 90  1  0  0  0
  6 25  1  0  0  0
  6 91  1  0  0  0
  6 92  1  0  0  0
  7  8  2  0  0  0
  7 26  1  0  0  0
  7 29  1  0  0  0
  8  9  1  0  0  0
  8 22  1  0  0  0
  9 10  1  0  0  0
  9 27  2  0  0  0
 10 11  2  0  0  0
 10 15  1  0  0  0
 11 12  1  0  0  0
 11 93  1  0  0  0
 12 13  2  0  0  0
 12 94  1  0  0  0
 13 14  1  0  0  0
 13 31  1  0  0  0
 14 15  2  0  0  0
 14 95  1  0  0  0
 15 96  1  0  0  0
 16 17  2  0  0  0
 16 21  1  0  0  0
 16 31  1  0  0  0
 17 18  1  0  0  0
 17 97  1  0  0  0
 18 19  2  0  0  0
 18 98  1  0  0  0
 19 20  1  0  0  0
 19 24  1  0  0  0
 20 21  2  0  0  0
 20 99  1  0  0  0
 21 23  1  0  0  0
 22 28  1  0  0  0
 22 32  2  0  0  0
 26 27  1  0  0  0
 28100  1  0  0  0
 28101  1  0  0  0
 29102  1  0  0  0
 29103  1  0  0  0
 33 34  1  0  0  0
 33 66  1  0  0  0
 33 70  2  0  0  0
 34 36  1  0  0  0
 34 59  1  0  0  0
 34104  1  0  0  0
 35 44  2  0  0  0
 35 45  1  0  0  0
 35 68  1  0  0  0
 36 56  1  0  0  0
 36105  1  0  0  0
 37 39  1  0  0  0
 37 47  1  0  0  0
 37 66  1  0  0  0
 37106  1  0  0  0
 38 43  2  0  0  0
 38 46  1  0  0  0
 38 47  1  0  0  0
 39 64  1  0  0  0
 39 67  2  0  0  0
 40 52  1  0  0  0
 40 53  2  0  0  0
 40 58  1  0  0  0
 41107  1  0  0  0
 41108  1  0  0  0
 41109  1  0  0  0
 41 48  1  0  0  0
 42 43  1  0  0  0
 42 66  1  0  0  0
 42110  1  0  0  0
 42111  1  0  0  0
 43 44  1  0  0  0
 44112  1  0  0  0
 45 46  2  0  0  0
 45113  1  0  0  0
 46114  1  0  0  0
 47115  1  0  0  0
 47116  1  0  0  0
 48 56  1  0  0  0
 48 65  1  0  0  0
 48117  1  0  0  0
 49 50  1  0  0  0
 49 53  1  0  0  0
 49 64  1  0  0  0
 49118  1  0  0  0
 50 51  1  0  0  0
 50119  1  0  0  0
 50120  1  0  0  0
 51 52  1  0  0  0
 51121  1  0  0  0
 51122  1  0  0  0
 52123  1  0  0  0
 52124  1  0  0  0
 53 54  1  0  0  0
 54 55  2  0  0  0
 54125  1  0  0  0
 55 57  1  0  0  0
 55126  1  0  0  0
 56 69  2  0  0  0
 57 58  2  0  0  0
 57127  1  0  0  0
 58128  1  0  0  0
 59 60  1  0  0  0
 59 61  1  0  0  0
 59 62  1  0  0  0
 60129  1  0  0  0
 60130  1  0  0  0
 60131  1  0  0  0
 61132  1  0  0  0
 61133  1  0  0  0
 61134  1  0  0  0
 62135  1  0  0  0
 62136  1  0  0  0
 62137  1  0  0  0
 63 65  1  0  0  0
 63138  1  0  0  0
 63139  1  0  0  0
 63140  1  0  0  0
 64141  1  0  0  0
 65142  1  0  0  0
 68 80  1  0  0  0
 71 74  2  0  0  0
 71 75  1  0  0  0
 71143  1  0  0  0
 72 74  1  0  0  0
 72 76  2  0  0  0
 72144  1  0  0  0
 73 75  2  0  0  0
 73 76  1  0  0  0
 73145  1  0  0  0
 74 78  1  0  0  0
 75 81  1  0  0  0
 76 82  1  0  0  0
 77 79  1  0  0  0
 77 81  1  0  0  0
 77 83  2  0  0  0
 78146  1  0  0  0
 78147  1  0  0  0
 78148  1  0  0  0
 79 80  1  0  0  0
 79149  1  0  0  0
 79150  1  0  0  0
 80151  1  0  0  0
 80152  1  0  0  0
 81153  1  0  0  0
 82154  1  0  0  0
M  ISO  4   1 100  68 101  80 101  82 100
M  END
> <chiral flag>
0

> <version>
0

> <s_m_source_file>
/data/baiqing/PycharmProjects/Reinvent-master-3.2/result/LINK_invent/BTK/process_docking_weight1_custom_product_contain_oxygen_bond_distance_aromatic_linkinvent_7_9_3/rearranged_h_0067.sdf

> <i_m_source_file_index>
7

> <r_mmod_Potential_Energy-OPLS-2005>
179.576324462891

> <r_mmod_Stretch_Energy-OPLS-2005>
135.895095825195

> <r_mmod_Bend_Energy-OPLS-2005>
183.284194946289

> <r_mmod_Torsional_Energy-OPLS-2005>
236.21647644043

> <r_mmod_Improper_Torsional_Energy-OPLS-2005>
8.60268115997314

> <r_mmod_Van_der_Waal_Energy-OPLS-2005>
137.448715209961

> <r_mmod_Electrostatic_Energy-OPLS-2005>
-368.944854736328

> <r_mmod_Solvation_Energy-OPLS-2005>
-242.350021362305

> <b_mmod_Minimization_Converged-OPLS-2005>
0

> <r_mmod_RMS_Derivative-OPLS-2005>
5.53964376449585

$$$$
7
                    3D
 Structure written by MMmdl.
154162  0  0  1  0            999 V2000
  -30.5238  -15.0401   20.4008 C   0  0  0  0  0  0
  -30.4361  -12.6493   19.5069 C   0  0  0  0  0  0
  -29.5229  -12.5413   18.2634 C   0  0  0  0  0  0
  -28.0593  -12.3133   18.6827 C   0  0  0  0  0  0
  -27.6224  -13.2586   19.8319 C   0  0  2  0  0  0
  -28.6636  -13.3349   20.9683 C   0  0  0  0  0  0
  -25.2433  -13.8232   20.5726 C   0  0  0  0  0  0
  -24.1764  -13.0442   20.9243 C   0  0  0  0  0  0
  -24.6395  -11.6930   20.8757 C   0  0  0  0  0  0
  -23.9081  -10.4293   21.0402 C   0  0  0  0  0  0
  -24.3628   -9.4207   21.9181 C   0  0  0  0  0  0
  -23.6300   -8.2244   22.0752 C   0  0  0  0  0  0
  -22.4281   -8.0281   21.3544 C   0  0  0  0  0  0
  -21.9920   -9.0254   20.4644 C   0  0  0  0  0  0
  -22.7251  -10.2132   20.3053 C   0  0  0  0  0  0
  -21.6857   -6.0734   22.5276 C   0  0  0  0  0  0
  -21.4017   -6.5637   23.8208 C   0  0  0  0  0  0
  -21.3659   -5.6791   24.9170 C   0  0  0  0  0  0
  -21.6044   -4.3054   24.7223 C   0  0  0  0  0  0
  -21.8818   -3.8145   23.4344 C   0  0  0  0  0  0
  -21.9195   -4.6961   22.3400 C   0  0  0  0  0  0
  -22.7781  -13.5206   21.1893 C   0  0  0  0  0  0
  -22.1663   -4.2146   21.0978 F   0  0  0  0  0  0
  -21.5627   -3.4538   25.7736 F   0  0  0  0  0  0
  -29.9265  -13.7710   20.3577 N   0  0  0  0  0  0
  -26.2855  -12.9481   20.3231 N   0  0  0  0  0  0
  -25.9329  -11.6601   20.5732 N   0  0  0  0  0  0
  -22.0438  -12.8183   22.0444 N   0  0  0  0  0  0
  -25.4087  -15.1962   20.4138 N   0  0  0  0  0  0
  -31.7365  -15.0517   20.1599 O   0  0  0  0  0  0
  -21.6646   -6.8877   21.4239 O   0  0  0  0  0  0
  -22.3461  -14.5511   20.6736 O   0  0  0  0  0  0
  -24.6505  -31.8375   23.1829 C   0  0  0  0  0  0
  -25.9246  -32.4664   23.8243 C   0  0  1  0  0  0
  -27.2113  -27.0636   20.1650 C   0  0  0  0  0  0
  -25.5971  -33.8471   24.2155 N   0  0  0  0  0  0
  -23.4576  -30.4560   21.5300 C   0  0  2  0  0  0
  -24.9081  -28.8728   20.1099 C   0  0  0  0  0  0
  -22.7603  -29.4514   22.4831 C   0  0  0  0  0  0
  -18.0311  -28.1405   22.8476 C   0  0  0  0  0  0
  -24.1489  -36.7232   23.2639 C   0  0  0  0  0  0
  -26.0193  -30.6883   21.3937 C   0  0  0  0  0  0
  -26.0886  -29.2928   20.7360 C   0  0  0  0  0  0
  -27.2405  -28.4062   20.7446 C   0  0  0  0  0  0
  -26.0082  -26.7723   19.4841 C   0  0  0  0  0  0
  -24.8855  -27.6284   19.4657 C   0  0  0  0  0  0
  -23.6882  -29.7833   20.1511 C   0  0  0  0  0  0
  -25.4120  -36.3007   24.0313 C   0  0  1  0  0  0
  -20.5929  -28.3735   23.1220 C   0  0  2  0  0  0
  -20.6793  -26.9431   22.5403 C   0  0  0  0  0  0
  -19.5764  -26.6379   21.5220 C   0  0  0  0  0  0
  -18.1946  -26.7942   22.1628 C   0  0  0  0  0  0
  -19.1570  -28.8889   23.2840 C   0  0  0  0  0  0
  -18.9486  -30.1485   23.8866 C   0  0  0  0  0  0
  -17.6480  -30.6600   24.0559 C   0  0  0  0  0  0
  -25.9081  -34.9390   23.5041 C   0  0  0  0  0  0
  -16.5371  -29.9086   23.6348 C   0  0  0  0  0  0
  -16.7293  -28.6508   23.0364 C   0  0  0  0  0  0
  -26.4537  -31.6558   25.0714 C   0  0  0  0  0  0
  -25.3697  -31.3785   26.1395 C   0  0  0  0  0  0
  -27.0409  -30.2942   24.6349 C   0  0  0  0  0  0
  -27.6061  -32.4332   25.7499 C   0  0  0  0  0  0
  -27.5580  -37.1754   24.8451 C   0  0  0  0  0  0
  -21.4287  -29.3049   22.3583 N   0  0  0  0  0  0
  -26.4266  -37.3742   23.9432 N   0  0  0  0  0  0
  -24.7295  -31.0169   22.0898 N   0  0  0  0  0  0
  -23.4214  -28.8061   23.3008 O   0  0  0  0  0  0
  -28.2284  -26.0162   20.2424 O   0  0  0  0  0  0
  -26.5671  -34.8904   22.4623 O   0  0  0  0  0  0
  -23.5607  -32.1278   23.7009 O   0  0  0  0  0  0
  -31.8675  -19.5060   20.3322 C   0  0  0  0  0  0
  -30.9823  -20.6051   20.3144 C   0  0  0  0  0  0
  -31.4392  -18.1631   20.3878 C   0  0  0  0  0  0
  -29.1599  -19.0046   20.4178 C   0  0  0  0  0  0
  -29.5764  -20.4625   20.3547 C   0  0  0  0  0  0
  -30.0765  -17.7970   20.4311 C   0  0  0  0  0  0
  -28.9995  -23.2074   20.2871 C   0  0  0  0  0  0
  -27.6732  -18.7120   20.4684 C   0  0  0  0  0  0
  -26.9748  -24.2638   21.5271 C   0  0  0  0  0  0
  -27.8680  -24.4616   20.2885 C   0  0  1  0  0  0
  -28.7226  -21.7814   20.3285 N   0  0  0  0  0  0
  -29.7555  -16.2642   20.4985 N   0  0  0  0  0  0
  -30.1713  -23.5866   20.2421 O   0  0  0  0  0  0
  -31.4677  -12.8113   19.1902 H   0  0  0  0  0  0
  -30.4442  -11.7122   20.0657 H   0  0  0  0  0  0
  -29.8580  -11.7311   17.6144 H   0  0  0  0  0  0
  -29.5968  -13.4575   17.6751 H   0  0  0  0  0  0
  -27.9678  -11.2754   19.0055 H   0  0  0  0  0  0
  -27.3950  -12.4238   17.8246 H   0  0  0  0  0  0
  -27.5692  -14.2505   19.3819 H   0  0  0  0  0  0
  -28.7740  -12.3725   21.4700 H   0  0  0  0  0  0
  -28.3476  -14.0485   21.7310 H   0  0  0  0  0  0
  -25.2769   -9.5684   22.4759 H   0  0  0  0  0  0
  -24.0006   -7.4635   22.7472 H   0  0  0  0  0  0
  -21.0850   -8.8772   19.8949 H   0  0  0  0  0  0
  -22.3705  -10.9670   19.6162 H   0  0  0  0  0  0
  -21.2010   -7.6144   23.9712 H   0  0  0  0  0  0
  -21.1482   -6.0520   25.9073 H   0  0  0  0  0  0
  -22.0599   -2.7608   23.2845 H   0  0  0  0  0  0
  -22.4070  -11.9847   22.4826 H   0  0  0  0  0  0
  -21.1051  -13.1190   22.2651 H   0  0  0  0  0  0
  -24.6349  -15.8433   20.5178 H   0  0  0  0  0  0
  -26.2394  -15.6314   20.0366 H   0  0  0  0  0  0
  -26.7306  -32.5242   23.0961 H   0  0  0  0  0  0
  -25.0118  -33.9579   25.0304 H   0  0  0  0  0  0
  -22.7639  -31.2842   21.3714 H   0  0  0  0  0  0
  -23.3777  -35.9534   23.3245 H   0  0  0  0  0  0
  -24.3585  -36.8921   22.2065 H   0  0  0  0  0  0
  -23.7207  -37.6395   23.6712 H   0  0  0  0  0  0
  -26.1847  -31.4380   20.6187 H   0  0  0  0  0  0
  -26.8857  -30.7387   22.0411 H   0  0  0  0  0  0
  -28.1345  -28.7217   21.2637 H   0  0  0  0  0  0
  -25.8945  -25.8267   18.9777 H   0  0  0  0  0  0
  -23.9888  -27.3034   18.9566 H   0  0  0  0  0  0
  -23.8304  -30.5564   19.3950 H   0  0  0  0  0  0
  -22.8011  -29.2298   19.8381 H   0  0  0  0  0  0
  -25.1304  -36.1811   25.0802 H   0  0  0  0  0  0
  -21.0024  -28.3324   24.1341 H   0  0  0  0  0  0
  -20.5700  -26.2345   23.3627 H   0  0  0  0  0  0
  -21.6654  -26.7430   22.1195 H   0  0  0  0  0  0
  -19.6924  -25.6284   21.1267 H   0  0  0  0  0  0
  -19.6704  -27.3174   20.6741 H   0  0  0  0  0  0
  -17.4216  -26.6695   21.4028 H   0  0  0  0  0  0
  -18.0335  -26.0093   22.9030 H   0  0  0  0  0  0
  -19.7962  -30.7315   24.2215 H   0  0  0  0  0  0
  -17.5032  -31.6281   24.5159 H   0  0  0  0  0  0
  -15.5370  -30.2977   23.7697 H   0  0  0  0  0  0
  -15.8691  -28.0818   22.7098 H   0  0  0  0  0  0
  -24.5877  -30.7134   25.7712 H   0  0  0  0  0  0
  -24.8895  -32.2988   26.4730 H   0  0  0  0  0  0
  -25.7955  -30.9009   27.0229 H   0  0  0  0  0  0
  -26.3049  -29.6650   24.1332 H   0  0  0  0  0  0
  -27.3970  -29.7258   25.4952 H   0  0  0  0  0  0
  -27.8976  -30.4159   23.9718 H   0  0  0  0  0  0
  -27.2661  -33.3678   26.1972 H   0  0  0  0  0  0
  -28.3927  -32.6811   25.0358 H   0  0  0  0  0  0
  -28.0660  -31.8517   26.5499 H   0  0  0  0  0  0
  -28.2524  -38.0124   24.7595 H   0  0  0  0  0  0
  -28.1151  -36.2659   24.6146 H   0  0  0  0  0  0
  -27.2320  -37.1234   25.8855 H   0  0  0  0  0  0
  -20.9505  -29.8756   21.6751 H   0  0  0  0  0  0
  -26.0118  -38.2788   24.1505 H   0  0  0  0  0  0
  -32.9300  -19.7035   20.3029 H   0  0  0  0  0  0
  -31.4364  -21.5816   20.2691 H   0  0  0  0  0  0
  -32.2109  -17.4092   20.4024 H   0  0  0  0  0  0
  -27.0963  -19.5930   20.7466 H   0  0  0  0  0  0
  -27.4594  -17.9343   21.2019 H   0  0  0  0  0  0
  -27.3243  -18.3688   19.4943 H   0  0  0  0  0  0
  -26.6748  -23.2228   21.6502 H   0  0  0  0  0  0
  -26.0576  -24.8479   21.4654 H   0  0  0  0  0  0
  -27.5003  -24.5647   22.4335 H   0  0  0  0  0  0
  -27.2726  -24.2487   19.4023 H   0  0  0  0  0  0
  -27.7271  -21.6088   20.3512 H   0  0  0  0  0  0
  -28.7738  -16.0667   20.6157 H   0  0  0  0  0  0
  1 25  1  0  0  0
  1 30  2  0  0  0
  1 82  1  0  0  0
  2  3  1  0  0  0
  2 25  1  0  0  0
  2 84  1  0  0  0
  2 85  1  0  0  0
  3  4  1  0  0  0
  3 86  1  0  0  0
  3 87  1  0  0  0
  4  5  1  0  0  0
  4 88  1  0  0  0
  4 89  1  0  0  0
  5  6  1  0  0  0
  5 26  1  0  0  0
  5 90  1  0  0  0
  6 25  1  0  0  0
  6 91  1  0  0  0
  6 92  1  0  0  0
  7  8  2  0  0  0
  7 26  1  0  0  0
  7 29  1  0  0  0
  8  9  1  0  0  0
  8 22  1  0  0  0
  9 10  1  0  0  0
  9 27  2  0  0  0
 10 11  2  0  0  0
 10 15  1  0  0  0
 11 12  1  0  0  0
 11 93  1  0  0  0
 12 13  2  0  0  0
 12 94  1  0  0  0
 13 14  1  0  0  0
 13 31  1  0  0  0
 14 15  2  0  0  0
 14 95  1  0  0  0
 15 96  1  0  0  0
 16 17  2  0  0  0
 16 21  1  0  0  0
 16 31  1  0  0  0
 17 18  1  0  0  0
 17 97  1  0  0  0
 18 19  2  0  0  0
 18 98  1  0  0  0
 19 20  1  0  0  0
 19 24  1  0  0  0
 20 21  2  0  0  0
 20 99  1  0  0  0
 21 23  1  0  0  0
 22 28  1  0  0  0
 22 32  2  0  0  0
 26 27  1  0  0  0
 28100  1  0  0  0
 28101  1  0  0  0
 29102  1  0  0  0
 29103  1  0  0  0
 33 34  1  0  0  0
 33 66  1  0  0  0
 33 70  2  0  0  0
 34 36  1  0  0  0
 34 59  1  0  0  0
 34104  1  0  0  0
 35 44  2  0  0  0
 35 45  1  0  0  0
 35 68  1  0  0  0
 36 56  1  0  0  0
 36105  1  0  0  0
 37 39  1  0  0  0
 37 47  1  0  0  0
 37 66  1  0  0  0
 37106  1  0  0  0
 38 43  2  0  0  0
 38 46  1  0  0  0
 38 47  1  0  0  0
 39 64  1  0  0  0
 39 67  2  0  0  0
 40 52  1  0  0  0
 40 53  2  0  0  0
 40 58  1  0  0  0
 41107  1  0  0  0
 41108  1  0  0  0
 41109  1  0  0  0
 41 48  1  0  0  0
 42 43  1  0  0  0
 42 66  1  0  0  0
 42110  1  0  0  0
 42111  1  0  0  0
 43 44  1  0  0  0
 44112  1  0  0  0
 45 46  2  0  0  0
 45113  1  0  0  0
 46114  1  0  0  0
 47115  1  0  0  0
 47116  1  0  0  0
 48 56  1  0  0  0
 48 65  1  0  0  0
 48117  1  0  0  0
 49 50  1  0  0  0
 49 53  1  0  0  0
 49 64  1  0  0  0
 49118  1  0  0  0
 50 51  1  0  0  0
 50119  1  0  0  0
 50120  1  0  0  0
 51 52  1  0  0  0
 51121  1  0  0  0
 51122  1  0  0  0
 52123  1  0  0  0
 52124  1  0  0  0
 53 54  1  0  0  0
 54 55  2  0  0  0
 54125  1  0  0  0
 55 57  1  0  0  0
 55126  1  0  0  0
 56 69  2  0  0  0
 57 58  2  0  0  0
 57127  1  0  0  0
 58128  1  0  0  0
 59 60  1  0  0  0
 59 61  1  0  0  0
 59 62  1  0  0  0
 60129  1  0  0  0
 60130  1  0  0  0
 60131  1  0  0  0
 61132  1  0  0  0
 61133  1  0  0  0
 61134  1  0  0  0
 62135  1  0  0  0
 62136  1  0  0  0
 62137  1  0  0  0
 63 65  1  0  0  0
 63138  1  0  0  0
 63139  1  0  0  0
 63140  1  0  0  0
 64141  1  0  0  0
 65142  1  0  0  0
 68 80  1  0  0  0
 71 72  2  0  0  0
 71 73  1  0  0  0
 71143  1  0  0  0
 72 75  1  0  0  0
 72144  1  0  0  0
 73 76  2  0  0  0
 73145  1  0  0  0
 74 75  2  0  0  0
 74 76  1  0  0  0
 74 78  1  0  0  0
 75 81  1  0  0  0
 76 82  1  0  0  0
 77 80  1  0  0  0
 77 81  1  0  0  0
 77 83  2  0  0  0
 78146  1  0  0  0
 78147  1  0  0  0
 78148  1  0  0  0
 79149  1  0  0  0
 79150  1  0  0  0
 79151  1  0  0  0
 79 80  1  0  0  0
 80152  1  0  0  0
 81153  1  0  0  0
 82154  1  0  0  0
M  ISO  4   1 100  68 101  80 101  82 100
M  END
> <chiral flag>
0

> <version>
0

> <s_m_source_file>
/data/baiqing/PycharmProjects/Reinvent-master-3.2/result/LINK_invent/BTK/process_docking_weight1_custom_product_contain_oxygen_bond_distance_aromatic_linkinvent_7_9_3/rearranged_h_0067.sdf

> <i_m_source_file_index>
8

> <r_mmod_Potential_Energy-OPLS-2005>
621.122619628906

> <r_mmod_Stretch_Energy-OPLS-2005>
352.162048339844

> <r_mmod_Bend_Energy-OPLS-2005>
270.001251220703

> <r_mmod_Torsional_Energy-OPLS-2005>
227.664901733398

> <r_mmod_Improper_Torsional_Energy-OPLS-2005>
4.57394647598267

> <r_mmod_Van_der_Waal_Energy-OPLS-2005>
133.640289306641

> <r_mmod_Electrostatic_Energy-OPLS-2005>
-390.526641845703

> <r_mmod_Solvation_Energy-OPLS-2005>
-240.897888183594

> <b_mmod_Minimization_Converged-OPLS-2005>
0

> <r_mmod_RMS_Derivative-OPLS-2005>
0.675991415977478

$$$$
8
                    3D
 Structure written by MMmdl.
149157  0  0  1  0            999 V2000
  -30.5860  -14.8176   20.4625 C   0  0  0  0  0  0
  -30.4347  -12.5085   19.4732 C   0  0  0  0  0  0
  -29.5115  -12.5171   18.2349 C   0  0  0  0  0  0
  -28.0420  -12.3193   18.6537 C   0  0  0  0  0  0
  -27.6336  -13.2330   19.8398 C   0  0  2  0  0  0
  -28.6777  -13.2076   20.9755 C   0  0  0  0  0  0
  -25.2476  -13.8182   20.5667 C   0  0  0  0  0  0
  -24.1782  -13.0429   20.9208 C   0  0  0  0  0  0
  -24.6389  -11.6911   20.8751 C   0  0  0  0  0  0
  -23.9065  -10.4287   21.0406 C   0  0  0  0  0  0
  -24.3614   -9.4202   21.9182 C   0  0  0  0  0  0
  -23.6291   -8.2241   22.0760 C   0  0  0  0  0  0
  -22.4278   -8.0272   21.3548 C   0  0  0  0  0  0
  -21.9905   -9.0243   20.4652 C   0  0  0  0  0  0
  -22.7233  -10.2123   20.3052 C   0  0  0  0  0  0
  -21.6851   -6.0728   22.5278 C   0  0  0  0  0  0
  -21.4016   -6.5638   23.8211 C   0  0  0  0  0  0
  -21.3660   -5.6795   24.9178 C   0  0  0  0  0  0
  -21.6039   -4.3059   24.7230 C   0  0  0  0  0  0
  -21.8820   -3.8146   23.4357 C   0  0  0  0  0  0
  -21.9195   -4.6957   22.3409 C   0  0  0  0  0  0
  -22.7808  -13.5207   21.1873 C   0  0  0  0  0  0
  -22.1662   -4.2143   21.0986 F   0  0  0  0  0  0
  -21.5628   -3.4541   25.7744 F   0  0  0  0  0  0
  -29.9672  -13.5839   20.3835 N   0  0  0  0  0  0
  -26.2896  -12.9393   20.3223 N   0  0  0  0  0  0
  -25.9305  -11.6537   20.5727 N   0  0  0  0  0  0
  -22.0463  -12.8194   22.0435 N   0  0  0  0  0  0
  -25.4138  -15.1907   20.4062 N   0  0  0  0  0  0
  -31.7899  -14.8910   20.1936 O   0  0  0  0  0  0
  -21.6647   -6.8870   21.4242 O   0  0  0  0  0  0
  -22.3494  -14.5516   20.6722 O   0  0  0  0  0  0
  -24.6356  -31.8515   23.1963 C   0  0  0  0  0  0
  -25.9171  -32.4737   23.8316 C   0  0  1  0  0  0
  -27.2229  -27.2251   20.1484 C   0  0  0  0  0  0
  -25.5946  -33.8536   24.2235 N   0  0  0  0  0  0
  -23.4342  -30.4705   21.5406 C   0  0  2  0  0  0
  -24.8815  -28.9043   20.1198 C   0  0  0  0  0  0
  -22.7513  -29.4569   22.4917 C   0  0  0  0  0  0
  -18.0279  -28.1395   22.8494 C   0  0  0  0  0  0
  -24.1481  -36.7265   23.2643 C   0  0  0  0  0  0
  -25.9817  -30.7530   21.3793 C   0  0  0  0  0  0
  -26.0542  -29.3679   20.7303 C   0  0  0  0  0  0
  -27.2303  -28.5434   20.7296 C   0  0  0  0  0  0
  -26.0264  -26.8289   19.5182 C   0  0  0  0  0  0
  -24.8727  -27.6423   19.5029 C   0  0  0  0  0  0
  -23.6566  -29.7997   20.1587 C   0  0  0  0  0  0
  -25.4117  -36.3055   24.0325 C   0  0  1  0  0  0
  -20.5889  -28.3694   23.1279 C   0  0  2  0  0  0
  -20.6770  -26.9410   22.5414 C   0  0  0  0  0  0
  -19.5737  -26.6386   21.5219 C   0  0  0  0  0  0
  -18.1920  -26.7933   22.1646 C   0  0  0  0  0  0
  -19.1535  -28.8867   23.2877 C   0  0  0  0  0  0
  -18.9455  -30.1473   23.8885 C   0  0  0  0  0  0
  -17.6454  -30.6595   24.0563 C   0  0  0  0  0  0
  -25.9062  -34.9426   23.5079 C   0  0  0  0  0  0
  -16.5348  -29.9091   23.6339 C   0  0  0  0  0  0
  -16.7267  -28.6511   23.0361 C   0  0  0  0  0  0
  -26.4521  -31.6581   25.0719 C   0  0  0  0  0  0
  -25.3733  -31.3779   26.1437 C   0  0  0  0  0  0
  -27.0344  -30.2986   24.6223 C   0  0  0  0  0  0
  -27.6078  -32.4311   25.7482 C   0  0  0  0  0  0
  -27.5566  -37.1802   24.8479 C   0  0  0  0  0  0
  -21.4210  -29.3038   22.3670 N   0  0  0  0  0  0
  -26.4291  -37.3760   23.9401 N   0  0  0  0  0  0
  -24.7037  -31.0440   22.0956 N   0  0  0  0  0  0
  -23.4185  -28.8109   23.3037 O   0  0  0  0  0  0
  -28.3162  -26.3219   20.1017 O   0  0  0  0  0  0
  -26.5622  -34.8915   22.4638 O   0  0  0  0  0  0
  -23.5496  -32.1345   23.7244 O   0  0  0  0  0  0
  -31.7030  -19.0292   21.8449 C   0  0  0  0  0  0
  -30.9318  -20.1413   21.4512 C   0  0  0  0  0  0
  -31.3254  -17.7078   21.5318 C   0  0  0  0  0  0
  -29.3627  -18.6037   20.4066 C   0  0  0  0  0  0
  -29.7354  -19.9956   20.7138 C   0  0  0  0  0  0
  -30.1492  -17.4214   20.8034 C   0  0  0  0  0  0
  -28.7862  -23.7975   20.1511 C   0  0  0  0  0  0
  -28.2439  -24.9918   20.6445 C   0  0  0  0  0  0
  -28.8696  -22.4779   20.9098 C   0  0  0  0  0  0
  -29.0912  -21.2710   20.2326 N   0  0  0  0  0  0
  -29.7977  -15.9746   20.5795 N   0  0  0  0  0  0
  -28.7588  -22.4493   22.1375 O   0  0  0  0  0  0
  -31.4722  -12.6501   19.1659 H   0  0  0  0  0  0
  -30.3994  -11.5412   19.9760 H   0  0  0  0  0  0
  -29.8110  -11.7368   17.5332 H   0  0  0  0  0  0
  -29.6176  -13.4645   17.7038 H   0  0  0  0  0  0
  -27.9200  -11.2722   18.9354 H   0  0  0  0  0  0
  -27.3795  -12.4823   17.8032 H   0  0  0  0  0  0
  -27.6140  -14.2452   19.4365 H   0  0  0  0  0  0
  -28.7354  -12.2207   21.4358 H   0  0  0  0  0  0
  -28.3977  -13.9027   21.7689 H   0  0  0  0  0  0
  -25.2760   -9.5688   22.4759 H   0  0  0  0  0  0
  -24.0007   -7.4631   22.7474 H   0  0  0  0  0  0
  -21.0840   -8.8747   19.8955 H   0  0  0  0  0  0
  -22.3678  -10.9656   19.6162 H   0  0  0  0  0  0
  -21.2006   -7.6146   23.9709 H   0  0  0  0  0  0
  -21.1478   -6.0531   25.9078 H   0  0  0  0  0  0
  -22.0597   -2.7606   23.2858 H   0  0  0  0  0  0
  -22.4094  -11.9861   22.4821 H   0  0  0  0  0  0
  -21.1076  -13.1219   22.2646 H   0  0  0  0  0  0
  -24.6359  -15.8350   20.4994 H   0  0  0  0  0  0
  -26.2484  -15.6321   20.0440 H   0  0  0  0  0  0
  -26.7216  -32.5373   23.1034 H   0  0  0  0  0  0
  -25.0123  -33.9661   25.0404 H   0  0  0  0  0  0
  -22.7334  -31.2956   21.3926 H   0  0  0  0  0  0
  -23.3735  -35.9609   23.3351 H   0  0  0  0  0  0
  -24.3559  -36.8834   22.2045 H   0  0  0  0  0  0
  -23.7251  -37.6493   23.6633 H   0  0  0  0  0  0
  -26.1181  -31.5082   20.6040 H   0  0  0  0  0  0
  -26.8595  -30.8105   22.0112 H   0  0  0  0  0  0
  -28.1344  -28.9006   21.2006 H   0  0  0  0  0  0
  -25.9829  -25.8620   19.0361 H   0  0  0  0  0  0
  -23.9750  -27.2803   19.0198 H   0  0  0  0  0  0
  -23.7892  -30.5749   19.4034 H   0  0  0  0  0  0
  -22.7730  -29.2389   19.8511 H   0  0  0  0  0  0
  -25.1304  -36.1896   25.0821 H   0  0  0  0  0  0
  -20.9981  -28.3248   24.1406 H   0  0  0  0  0  0
  -20.5667  -26.2292   23.3613 H   0  0  0  0  0  0
  -21.6633  -26.7425   22.1214 H   0  0  0  0  0  0
  -19.6886  -25.6290   21.1257 H   0  0  0  0  0  0
  -19.6675  -27.3191   20.6742 H   0  0  0  0  0  0
  -17.4192  -26.6677   21.4052 H   0  0  0  0  0  0
  -18.0326  -26.0077   22.9048 H   0  0  0  0  0  0
  -19.7927  -30.7299   24.2244 H   0  0  0  0  0  0
  -17.5005  -31.6273   24.5165 H   0  0  0  0  0  0
  -15.5346  -30.2990   23.7674 H   0  0  0  0  0  0
  -15.8670  -28.0828   22.7079 H   0  0  0  0  0  0
  -24.5859  -30.7174   25.7778 H   0  0  0  0  0  0
  -24.8981  -32.2976   26.4857 H   0  0  0  0  0  0
  -25.8029  -30.8941   27.0215 H   0  0  0  0  0  0
  -26.2916  -29.6747   24.1235 H   0  0  0  0  0  0
  -27.3991  -29.7246   25.4751 H   0  0  0  0  0  0
  -27.8821  -30.4247   23.9483 H   0  0  0  0  0  0
  -27.2713  -33.3659   26.1977 H   0  0  0  0  0  0
  -28.3940  -32.6781   25.0333 H   0  0  0  0  0  0
  -28.0679  -31.8467   26.5459 H   0  0  0  0  0  0
  -28.2634  -38.0051   24.7461 H   0  0  0  0  0  0
  -28.1002  -36.2577   24.6385 H   0  0  0  0  0  0
  -27.2268  -37.1553   25.8882 H   0  0  0  0  0  0
  -20.9393  -29.8792   21.6904 H   0  0  0  0  0  0
  -26.0158  -38.2834   24.1386 H   0  0  0  0  0  0
  -32.6173  -19.1948   22.3979 H   0  0  0  0  0  0
  -31.2984  -21.1280   21.6981 H   0  0  0  0  0  0
  -31.9603  -16.9056   21.8815 H   0  0  0  0  0  0
  -28.4523  -18.4407   19.8477 H   0  0  0  0  0  0
  -29.2531  -23.8297   19.1774 H   0  0  0  0  0  0
  -27.7325  -25.0023   21.5975 H   0  0  0  0  0  0
  -28.9127  -21.3104   19.2387 H   0  0  0  0  0  0
  -28.8083  -15.7850   20.5410 H   0  0  0  0  0  0
  1 25  1  0  0  0
  1 30  2  0  0  0
  1 81  1  0  0  0
  2  3  1  0  0  0
  2 25  1  0  0  0
  2 83  1  0  0  0
  2 84  1  0  0  0
  3  4  1  0  0  0
  3 85  1  0  0  0
  3 86  1  0  0  0
  4  5  1  0  0  0
  4 87  1  0  0  0
  4 88  1  0  0  0
  5  6  1  0  0  0
  5 26  1  0  0  0
  5 89  1  0  0  0
  6 25  1  0  0  0
  6 90  1  0  0  0
  6 91  1  0  0  0
  7  8  2  0  0  0
  7 26  1  0  0  0
  7 29  1  0  0  0
  8  9  1  0  0  0
  8 22  1  0  0  0
  9 10  1  0  0  0
  9 27  2  0  0  0
 10 11  2  0  0  0
 10 15  1  0  0  0
 11 12  1  0  0  0
 11 92  1  0  0  0
 12 13  2  0  0  0
 12 93  1  0  0  0
 13 14  1  0  0  0
 13 31  1  0  0  0
 14 15  2  0  0  0
 14 94  1  0  0  0
 15 95  1  0  0  0
 16 17  2  0  0  0
 16 21  1  0  0  0
 16 31  1  0  0  0
 17 18  1  0  0  0
 17 96  1  0  0  0
 18 19  2  0  0  0
 18 97  1  0  0  0
 19 20  1  0  0  0
 19 24  1  0  0  0
 20 21  2  0  0  0
 20 98  1  0  0  0
 21 23  1  0  0  0
 22 28  1  0  0  0
 22 32  2  0  0  0
 26 27  1  0  0  0
 28 99  1  0  0  0
 28100  1  0  0  0
 29101  1  0  0  0
 29102  1  0  0  0
 33 34  1  0  0  0
 33 66  1  0  0  0
 33 70  2  0  0  0
 34 36  1  0  0  0
 34 59  1  0  0  0
 34103  1  0  0  0
 35 44  2  0  0  0
 35 45  1  0  0  0
 35 68  1  0  0  0
 36 56  1  0  0  0
 36104  1  0  0  0
 37 39  1  0  0  0
 37 47  1  0  0  0
 37 66  1  0  0  0
 37105  1  0  0  0
 38 43  2  0  0  0
 38 46  1  0  0  0
 38 47  1  0  0  0
 39 64  1  0  0  0
 39 67  2  0  0  0
 40 52  1  0  0  0
 40 53  2  0  0  0
 40 58  1  0  0  0
 41106  1  0  0  0
 41107  1  0  0  0
 41108  1  0  0  0
 41 48  1  0  0  0
 42 43  1  0  0  0
 42 66  1  0  0  0
 42109  1  0  0  0
 42110  1  0  0  0
 43 44  1  0  0  0
 44111  1  0  0  0
 45 46  2  0  0  0
 45112  1  0  0  0
 46113  1  0  0  0
 47114  1  0  0  0
 47115  1  0  0  0
 48 56  1  0  0  0
 48 65  1  0  0  0
 48116  1  0  0  0
 49 50  1  0  0  0
 49 53  1  0  0  0
 49 64  1  0  0  0
 49117  1  0  0  0
 50 51  1  0  0  0
 50118  1  0  0  0
 50119  1  0  0  0
 51 52  1  0  0  0
 51120  1  0  0  0
 51121  1  0  0  0
 52122  1  0  0  0
 52123  1  0  0  0
 53 54  1  0  0  0
 54 55  2  0  0  0
 54124  1  0  0  0
 55 57  1  0  0  0
 55125  1  0  0  0
 56 69  2  0  0  0
 57 58  2  0  0  0
 57126  1  0  0  0
 58127  1  0  0  0
 59 60  1  0  0  0
 59 61  1  0  0  0
 59 62  1  0  0  0
 60128  1  0  0  0
 60129  1  0  0  0
 60130  1  0  0  0
 61131  1  0  0  0
 61132  1  0  0  0
 61133  1  0  0  0
 62134  1  0  0  0
 62135  1  0  0  0
 62136  1  0  0  0
 63 65  1  0  0  0
 63137  1  0  0  0
 63138  1  0  0  0
 63139  1  0  0  0
 64140  1  0  0  0
 65141  1  0  0  0
 68 78  1  0  0  0
 71 72  2  0  0  0
 71 73  1  0  0  0
 71142  1  0  0  0
 72 75  1  0  0  0
 72143  1  0  0  0
 73 76  2  0  0  0
 73144  1  0  0  0
 74 75  2  0  0  0
 74 76  1  0  0  0
 74145  1  0  0  0
 75 80  1  0  0  0
 76 81  1  0  0  0
 77 78  2  0  0  0
 77 79  1  0  0  0
 77146  1  0  0  0
 78147  1  0  0  0
 79 80  1  0  0  0
 79 82  2  0  0  0
 80148  1  0  0  0
 81149  1  0  0  0
M  ISO  4   1 100  68 101  78 101  81 100
M  END
> <chiral flag>
0

> <version>
0

> <s_m_source_file>
/data/baiqing/PycharmProjects/Reinvent-master-3.2/result/LINK_invent/BTK/process_docking_weight1_custom_product_contain_oxygen_bond_distance_aromatic_linkinvent_7_9_3/rearranged_h_0067.sdf

> <i_m_source_file_index>
9

> <r_mmod_Potential_Energy-OPLS-2005>
225.721710205078

> <r_mmod_Stretch_Energy-OPLS-2005>
150.955795288086

> <r_mmod_Bend_Energy-OPLS-2005>
168.483627319336

> <r_mmod_Torsional_Energy-OPLS-2005>
266.281341552734

> <r_mmod_Improper_Torsional_Energy-OPLS-2005>
8.213942527771

> <r_mmod_Van_der_Waal_Energy-OPLS-2005>
133.450607299805

> <r_mmod_Electrostatic_Energy-OPLS-2005>
-381.644805908203

> <r_mmod_Solvation_Energy-OPLS-2005>
-232.530303955078

> <b_mmod_Minimization_Converged-OPLS-2005>
0

> <r_mmod_RMS_Derivative-OPLS-2005>
2.62025117874146

$$$$
9
                    3D
 Structure written by MMmdl.
175185  0  0  1  0            999 V2000
  -30.5890  -14.6668   20.4700 C   0  0  0  0  0  0
  -30.4554  -12.3917   19.4561 C   0  0  0  0  0  0
  -29.5308  -12.4566   18.2200 C   0  0  0  0  0  0
  -28.0372  -12.3715   18.6103 C   0  0  0  0  0  0
  -27.6608  -13.2152   19.8554 C   0  0  2  0  0  0
  -28.7054  -13.0623   20.9851 C   0  0  0  0  0  0
  -25.2658  -13.8130   20.5709 C   0  0  0  0  0  0
  -24.1871  -13.0451   20.9120 C   0  0  0  0  0  0
  -24.6340  -11.6909   20.8625 C   0  0  0  0  0  0
  -23.8985  -10.4305   21.0367 C   0  0  0  0  0  0
  -24.3567   -9.4244   21.9160 C   0  0  0  0  0  0
  -23.6236   -8.2289   22.0764 C   0  0  0  0  0  0
  -22.4209   -8.0321   21.3570 C   0  0  0  0  0  0
  -21.9852   -9.0274   20.4670 C   0  0  0  0  0  0
  -22.7141  -10.2151   20.3021 C   0  0  0  0  0  0
  -21.6864   -6.0710   22.5242 C   0  0  0  0  0  0
  -21.4053   -6.5610   23.8171 C   0  0  0  0  0  0
  -21.3680   -5.6767   24.9116 C   0  0  0  0  0  0
  -21.6007   -4.3026   24.7181 C   0  0  0  0  0  0
  -21.8825   -3.8119   23.4313 C   0  0  0  0  0  0
  -21.9230   -4.6944   22.3355 C   0  0  0  0  0  0
  -22.7871  -13.5346   21.1728 C   0  0  0  0  0  0
  -22.1681   -4.2109   21.0938 F   0  0  0  0  0  0
  -21.5620   -3.4526   25.7727 F   0  0  0  0  0  0
  -30.0140  -13.4214   20.4186 N   0  0  0  0  0  0
  -26.3038  -12.9295   20.3210 N   0  0  0  0  0  0
  -25.9269  -11.6476   20.5609 N   0  0  0  0  0  0
  -22.0446  -12.8432   22.0306 N   0  0  0  0  0  0
  -25.4534  -15.1835   20.4192 N   0  0  0  0  0  0
  -31.7588  -14.8440   20.1142 O   0  0  0  0  0  0
  -21.6656   -6.8873   21.4203 O   0  0  0  0  0  0
  -22.3617  -14.5640   20.6556 O   0  0  0  0  0  0
  -24.6274  -31.8550   23.2040 C   0  0  0  0  0  0
  -25.9099  -32.4758   23.8382 C   0  0  1  0  0  0
  -27.2143  -27.2687   20.1277 C   0  0  0  0  0  0
  -25.5902  -33.8572   24.2273 N   0  0  0  0  0  0
  -23.4273  -30.4827   21.5411 C   0  0  2  0  0  0
  -24.8785  -28.9366   20.1048 C   0  0  0  0  0  0
  -22.7512  -29.4589   22.4855 C   0  0  0  0  0  0
  -18.0289  -28.1415   22.8478 C   0  0  0  0  0  0
  -24.1471  -36.7271   23.2645 C   0  0  0  0  0  0
  -25.9749  -30.7627   21.3975 C   0  0  0  0  0  0
  -26.0406  -29.3853   20.7426 C   0  0  0  0  0  0
  -27.2011  -28.5513   20.7695 C   0  0  0  0  0  0
  -26.0340  -26.8908   19.4492 C   0  0  0  0  0  0
  -24.8798  -27.6984   19.4479 C   0  0  0  0  0  0
  -23.6537  -29.8290   20.1489 C   0  0  0  0  0  0
  -25.4085  -36.3059   24.0329 C   0  0  1  0  0  0
  -20.5898  -28.3697   23.1296 C   0  0  2  0  0  0
  -20.6765  -26.9400   22.5454 C   0  0  0  0  0  0
  -19.5751  -26.6374   21.5243 C   0  0  0  0  0  0
  -18.1911  -26.7964   22.1609 C   0  0  0  0  0  0
  -19.1545  -28.8871   23.2896 C   0  0  0  0  0  0
  -18.9466  -30.1466   23.8928 C   0  0  0  0  0  0
  -17.6467  -30.6600   24.0573 C   0  0  0  0  0  0
  -25.9029  -34.9438   23.5101 C   0  0  0  0  0  0
  -16.5356  -29.9116   23.6316 C   0  0  0  0  0  0
  -16.7274  -28.6531   23.0339 C   0  0  0  0  0  0
  -26.4456  -31.6623   25.0792 C   0  0  0  0  0  0
  -25.3665  -31.3837   26.1528 C   0  0  0  0  0  0
  -27.0282  -30.3030   24.6292 C   0  0  0  0  0  0
  -27.6028  -32.4374   25.7526 C   0  0  0  0  0  0
  -27.5564  -37.1773   24.8435 C   0  0  0  0  0  0
  -21.4214  -29.3042   22.3660 N   0  0  0  0  0  0
  -26.4258  -37.3750   23.9417 N   0  0  0  0  0  0
  -24.6940  -31.0538   22.1021 N   0  0  0  0  0  0
  -23.4232  -28.8076   23.2898 O   0  0  0  0  0  0
  -28.3001  -26.3735   20.2200 O   0  0  0  0  0  0
  -26.5622  -34.8904   22.4685 O   0  0  0  0  0  0
  -23.5426  -32.1405   23.7313 O   0  0  0  0  0  0
  -29.4601  -19.4262   21.5527 C   0  0  0  0  0  0
  -29.7209  -18.0296   21.7014 C   0  0  0  0  0  0
  -29.3028  -19.1364   19.1741 C   0  0  0  0  0  0
  -29.2236  -20.0247   20.2864 C   0  0  0  0  0  0
  -29.5512  -17.7205   19.3152 C   0  0  0  0  0  0
  -29.7630  -17.1356   20.5986 C   0  0  0  0  0  0
  -27.0258  -23.0663   19.8162 C   0  0  0  0  0  0
  -29.3033  -22.5690   19.7750 C   0  0  0  0  0  0
  -27.2370  -21.6135   20.2537 C   0  0  0  0  0  0
  -28.2976  -15.8470   16.3249 C   0  0  0  0  0  0
  -29.4729  -16.1291   15.3714 C   0  0  0  0  0  0
  -28.2581  -16.8718   17.4692 C   0  0  0  0  0  0
  -30.7023  -17.1501   17.3475 C   0  0  0  0  0  0
  -30.8030  -16.1911   16.1481 C   0  0  2  0  0  0
  -28.3069  -23.6615   19.2089 C   0  0  1  0  0  0
  -31.9770  -16.6385   15.2648 C   0  0  0  0  0  0
  -28.3237  -23.3635   17.6675 C   0  0  0  0  0  0
  -28.5275  -25.2994   19.2121 C   0  0  0  0  0  0
  -28.6857  -21.3962   20.1554 N   0  0  0  0  0  0
  -29.5373  -16.8886   18.1829 N   0  0  0  0  0  0
  -29.7517  -15.6866   20.8412 N   0  0  0  0  0  0
  -25.9262  -23.6303   19.8867 O   0  0  0  0  0  0
  -30.5307  -22.7436   19.7909 O   0  0  0  0  0  0
  -31.4988  -12.5248   19.1627 H   0  0  0  0  0  0
  -30.4154  -11.4042   19.9112 H   0  0  0  0  0  0
  -29.7647  -11.6412   17.5354 H   0  0  0  0  0  0
  -29.7373  -13.3733   17.6667 H   0  0  0  0  0  0
  -27.7856  -11.3242   18.7740 H   0  0  0  0  0  0
  -27.4339  -12.6961   17.7645 H   0  0  0  0  0  0
  -27.6893  -14.2509   19.5221 H   0  0  0  0  0  0
  -28.7211  -12.0369   21.3527 H   0  0  0  0  0  0
  -28.4535  -13.6846   21.8477 H   0  0  0  0  0  0
  -25.2699   -9.5737   22.4729 H   0  0  0  0  0  0
  -23.9969   -7.4668   22.7473 H   0  0  0  0  0  0
  -21.0775   -8.8711   19.8978 H   0  0  0  0  0  0
  -22.3545  -10.9671   19.6130 H   0  0  0  0  0  0
  -21.2064   -7.6126   23.9630 H   0  0  0  0  0  0
  -21.1481   -6.0516   25.9012 H   0  0  0  0  0  0
  -22.0603   -2.7586   23.2789 H   0  0  0  0  0  0
  -22.4010  -12.0176   22.4894 H   0  0  0  0  0  0
  -21.0997  -13.1495   22.2288 H   0  0  0  0  0  0
  -24.7151  -15.8593   20.5566 H   0  0  0  0  0  0
  -26.3108  -15.6018   20.0893 H   0  0  0  0  0  0
  -26.7163  -32.5394   23.1132 H   0  0  0  0  0  0
  -24.9973  -33.9692   25.0365 H   0  0  0  0  0  0
  -22.7230  -31.3049   21.3991 H   0  0  0  0  0  0
  -23.3733  -35.9599   23.3269 H   0  0  0  0  0  0
  -24.3555  -36.8943   22.2064 H   0  0  0  0  0  0
  -23.7220  -37.6454   23.6705 H   0  0  0  0  0  0
  -26.1211  -31.5170   20.6241 H   0  0  0  0  0  0
  -26.8528  -30.8153   22.0308 H   0  0  0  0  0  0
  -28.0766  -28.8621   21.3256 H   0  0  0  0  0  0
  -25.9634  -25.9427   18.9391 H   0  0  0  0  0  0
  -23.9939  -27.3602   18.9342 H   0  0  0  0  0  0
  -23.7978  -30.6175   19.4080 H   0  0  0  0  0  0
  -22.7707  -29.2775   19.8192 H   0  0  0  0  0  0
  -25.1262  -36.1895   25.0815 H   0  0  0  0  0  0
  -20.9988  -28.3294   24.1427 H   0  0  0  0  0  0
  -20.5635  -26.2292   23.3655 H   0  0  0  0  0  0
  -21.6648  -26.7386   22.1289 H   0  0  0  0  0  0
  -19.6882  -25.6280   21.1290 H   0  0  0  0  0  0
  -19.6715  -27.3179   20.6774 H   0  0  0  0  0  0
  -17.4188  -26.6771   21.3993 H   0  0  0  0  0  0
  -18.0247  -26.0115   22.8999 H   0  0  0  0  0  0
  -19.7932  -30.7304   24.2313 H   0  0  0  0  0  0
  -17.5001  -31.6270   24.5172 H   0  0  0  0  0  0
  -15.5370  -30.3037   23.7580 H   0  0  0  0  0  0
  -15.8680  -28.0859   22.7049 H   0  0  0  0  0  0
  -24.5836  -30.7160   25.7921 H   0  0  0  0  0  0
  -24.8849  -32.3033   26.4863 H   0  0  0  0  0  0
  -25.7988  -30.9118   27.0355 H   0  0  0  0  0  0
  -26.2875  -29.6837   24.1224 H   0  0  0  0  0  0
  -27.3854  -29.7262   25.4826 H   0  0  0  0  0  0
  -27.8810  -30.4313   23.9625 H   0  0  0  0  0  0
  -27.2638  -33.3695   26.2060 H   0  0  0  0  0  0
  -28.3832  -32.6894   25.0334 H   0  0  0  0  0  0
  -28.0680  -31.8520   26.5465 H   0  0  0  0  0  0
  -28.2560  -38.0089   24.7497 H   0  0  0  0  0  0
  -28.1093  -36.2630   24.6220 H   0  0  0  0  0  0
  -27.2312  -37.1382   25.8847 H   0  0  0  0  0  0
  -20.9369  -29.8849   21.6965 H   0  0  0  0  0  0
  -26.0137  -38.2814   24.1465 H   0  0  0  0  0  0
  -29.3912  -20.0263   22.4469 H   0  0  0  0  0  0
  -29.8232  -17.6346   22.7041 H   0  0  0  0  0  0
  -29.1043  -19.5310   18.1887 H   0  0  0  0  0  0
  -26.6868  -20.9324   19.5956 H   0  0  0  0  0  0
  -26.8710  -21.4738   21.2772 H   0  0  0  0  0  0
  -28.3738  -14.8402   16.7327 H   0  0  0  0  0  0
  -27.3572  -15.8658   15.7743 H   0  0  0  0  0  0
  -29.2970  -17.0726   14.8525 H   0  0  0  0  0  0
  -29.5175  -15.3590   14.5996 H   0  0  0  0  0  0
  -27.4559  -16.6185   18.1598 H   0  0  0  0  0  0
  -28.0183  -17.8560   17.0607 H   0  0  0  0  0  0
  -30.6861  -18.1807   16.9879 H   0  0  0  0  0  0
  -31.6022  -17.0562   17.9566 H   0  0  0  0  0  0
  -31.0186  -15.1884   16.5200 H   0  0  0  0  0  0
  -31.8398  -17.6598   14.9029 H   0  0  0  0  0  0
  -32.1172  -15.9963   14.3979 H   0  0  0  0  0  0
  -32.9079  -16.6309   15.8335 H   0  0  0  0  0  0
  -28.2324  -22.3090   17.3946 H   0  0  0  0  0  0
  -29.2558  -23.7220   17.2170 H   0  0  0  0  0  0
  -27.5104  -23.8743   17.1472 H   0  0  0  0  0  0
  -28.0423  -25.6788   18.3110 H   0  0  0  0  0  0
  -29.5807  -25.4510   18.9654 H   0  0  0  0  0  0
  -28.8566  -15.3457   21.1579 H   0  0  0  0  0  0
  1 25  1  0  0  0
  1 30  2  0  0  0
  1 91  1  0  0  0
  2  3  1  0  0  0
  2 25  1  0  0  0
  2 94  1  0  0  0
  2 95  1  0  0  0
  3  4  1  0  0  0
  3 96  1  0  0  0
  3 97  1  0  0  0
  4  5  1  0  0  0
  4 98  1  0  0  0
  4 99  1  0  0  0
  5  6  1  0  0  0
  5 26  1  0  0  0
  5100  1  0  0  0
  6 25  1  0  0  0
  6101  1  0  0  0
  6102  1  0  0  0
  7  8  2  0  0  0
  7 26  1  0  0  0
  7 29  1  0  0  0
  8  9  1  0  0  0
  8 22  1  0  0  0
  9 10  1  0  0  0
  9 27  2  0  0  0
 10 11  2  0  0  0
 10 15  1  0  0  0
 11 12  1  0  0  0
 11103  1  0  0  0
 12 13  2  0  0  0
 12104  1  0  0  0
 13 14  1  0  0  0
 13 31  1  0  0  0
 14 15  2  0  0  0
 14105  1  0  0  0
 15106  1  0  0  0
 16 17  2  0  0  0
 16 21  1  0  0  0
 16 31  1  0  0  0
 17 18  1  0  0  0
 17107  1  0  0  0
 18 19  2  0  0  0
 18108  1  0  0  0
 19 20  1  0  0  0
 19 24  1  0  0  0
 20 21  2  0  0  0
 20109  1  0  0  0
 21 23  1  0  0  0
 22 28  1  0  0  0
 22 32  2  0  0  0
 26 27  1  0  0  0
 28110  1  0  0  0
 28111  1  0  0  0
 29112  1  0  0  0
 29113  1  0  0  0
 33 34  1  0  0  0
 33 66  1  0  0  0
 33 70  2  0  0  0
 34 36  1  0  0  0
 34 59  1  0  0  0
 34114  1  0  0  0
 35 44  2  0  0  0
 35 45  1  0  0  0
 35 68  1  0  0  0
 36 56  1  0  0  0
 36115  1  0  0  0
 37 39  1  0  0  0
 37 47  1  0  0  0
 37 66  1  0  0  0
 37116  1  0  0  0
 38 43  2  0  0  0
 38 46  1  0  0  0
 38 47  1  0  0  0
 39 64  1  0  0  0
 39 67  2  0  0  0
 40 52  1  0  0  0
 40 53  2  0  0  0
 40 58  1  0  0  0
 41117  1  0  0  0
 41118  1  0  0  0
 41119  1  0  0  0
 41 48  1  0  0  0
 42 43  1  0  0  0
 42 66  1  0  0  0
 42120  1  0  0  0
 42121  1  0  0  0
 43 44  1  0  0  0
 44122  1  0  0  0
 45 46  2  0  0  0
 45123  1  0  0  0
 46124  1  0  0  0
 47125  1  0  0  0
 47126  1  0  0  0
 48 56  1  0  0  0
 48 65  1  0  0  0
 48127  1  0  0  0
 49 50  1  0  0  0
 49 53  1  0  0  0
 49 64  1  0  0  0
 49128  1  0  0  0
 50 51  1  0  0  0
 50129  1  0  0  0
 50130  1  0  0  0
 51 52  1  0  0  0
 51131  1  0  0  0
 51132  1  0  0  0
 52133  1  0  0  0
 52134  1  0  0  0
 53 54  1  0  0  0
 54 55  2  0  0  0
 54135  1  0  0  0
 55 57  1  0  0  0
 55136  1  0  0  0
 56 69  2  0  0  0
 57 58  2  0  0  0
 57137  1  0  0  0
 58138  1  0  0  0
 59 60  1  0  0  0
 59 61  1  0  0  0
 59 62  1  0  0  0
 60139  1  0  0  0
 60140  1  0  0  0
 60141  1  0  0  0
 61142  1  0  0  0
 61143  1  0  0  0
 61144  1  0  0  0
 62145  1  0  0  0
 62146  1  0  0  0
 62147  1  0  0  0
 63 65  1  0  0  0
 63148  1  0  0  0
 63149  1  0  0  0
 63150  1  0  0  0
 64151  1  0  0  0
 65152  1  0  0  0
 68 88  1  0  0  0
 71 72  2  0  0  0
 71 74  1  0  0  0
 71153  1  0  0  0
 72 76  1  0  0  0
 72154  1  0  0  0
 73 74  2  0  0  0
 73 75  1  0  0  0
 73155  1  0  0  0
 74 89  1  0  0  0
 75 76  2  0  0  0
 75 90  1  0  0  0
 76 91  1  0  0  0
 77 79  1  0  0  0
 77 85  1  0  0  0
 77 92  2  0  0  0
 78 85  1  0  0  0
 78 89  1  0  0  0
 78 93  2  0  0  0
 79 89  1  0  0  0
 79156  1  0  0  0
 79157  1  0  0  0
 80 81  1  0  0  0
 80 82  1  0  0  0
 80158  1  0  0  0
 80159  1  0  0  0
 81 84  1  0  0  0
 81160  1  0  0  0
 81161  1  0  0  0
 82 90  1  0  0  0
 82162  1  0  0  0
 82163  1  0  0  0
 83 84  1  0  0  0
 83 90  1  0  0  0
 83164  1  0  0  0
 83165  1  0  0  0
 84 86  1  0  0  0
 84166  1  0  0  0
 85 87  1  0  0  0
 85 88  1  0  0  0
 86167  1  0  0  0
 86168  1  0  0  0
 86169  1  0  0  0
 87170  1  0  0  0
 87171  1  0  0  0
 87172  1  0  0  0
 88173  1  0  0  0
 88174  1  0  0  0
 91175  1  0  0  0
M  ISO  4   1 100  68 101  88 101  91 100
M  END
> <chiral flag>
0

> <version>
0

> <s_m_source_file>
/data/baiqing/PycharmProjects/Reinvent-master-3.2/result/LINK_invent/BTK/process_docking_weight1_custom_product_contain_oxygen_bond_distance_aromatic_linkinvent_7_9_3/rearranged_h_0067.sdf

> <i_m_source_file_index>
10

> <r_mmod_Potential_Energy-OPLS-2005>
277.134735107422

> <r_mmod_Stretch_Energy-OPLS-2005>
107.241645812988

> <r_mmod_Bend_Energy-OPLS-2005>
248.879608154297

> <r_mmod_Torsional_Energy-OPLS-2005>
386.180084228516

> <r_mmod_Improper_Torsional_Energy-OPLS-2005>
12.5639476776123

> <r_mmod_Van_der_Waal_Energy-OPLS-2005>
123.705558776855

> <r_mmod_Electrostatic_Energy-OPLS-2005>
-428.5390625

> <r_mmod_Solvation_Energy-OPLS-2005>
-244.610565185547

> <b_mmod_Minimization_Converged-OPLS-2005>
0

> <r_mmod_RMS_Derivative-OPLS-2005>
9.11474895477295

$$$$
10
                    3D
 Structure written by MMmdl.
158167  0  0  1  0            999 V2000
  -30.6301  -14.7390   20.4439 C   0  0  0  0  0  0
  -30.4249  -12.4488   19.4663 C   0  0  0  0  0  0
  -29.5037  -12.4982   18.2290 C   0  0  0  0  0  0
  -28.0309  -12.3260   18.6458 C   0  0  0  0  0  0
  -27.6381  -13.2319   19.8434 C   0  0  2  0  0  0
  -28.6855  -13.1821   20.9769 C   0  0  0  0  0  0
  -25.2500  -13.8201   20.5701 C   0  0  0  0  0  0
  -24.1787  -13.0444   20.9216 C   0  0  0  0  0  0
  -24.6370  -11.6920   20.8749 C   0  0  0  0  0  0
  -23.9045  -10.4294   21.0408 C   0  0  0  0  0  0
  -24.3607   -9.4213   21.9182 C   0  0  0  0  0  0
  -23.6293   -8.2241   22.0749 C   0  0  0  0  0  0
  -22.4280   -8.0270   21.3535 C   0  0  0  0  0  0
  -21.9901   -9.0244   20.4646 C   0  0  0  0  0  0
  -22.7220  -10.2128   20.3054 C   0  0  0  0  0  0
  -21.6855   -6.0726   22.5280 C   0  0  0  0  0  0
  -21.4013   -6.5634   23.8211 C   0  0  0  0  0  0
  -21.3663   -5.6788   24.9175 C   0  0  0  0  0  0
  -21.6050   -4.3049   24.7229 C   0  0  0  0  0  0
  -21.8820   -3.8138   23.4349 C   0  0  0  0  0  0
  -21.9193   -4.6955   22.3407 C   0  0  0  0  0  0
  -22.7808  -13.5228   21.1880 C   0  0  0  0  0  0
  -22.1664   -4.2138   21.0983 F   0  0  0  0  0  0
  -21.5630   -3.4537   25.7740 F   0  0  0  0  0  0
  -29.9836  -13.5250   20.3842 N   0  0  0  0  0  0
  -26.2920  -12.9408   20.3253 N   0  0  0  0  0  0
  -25.9303  -11.6557   20.5743 N   0  0  0  0  0  0
  -22.0450  -12.8213   22.0433 N   0  0  0  0  0  0
  -25.4175  -15.1930   20.4118 N   0  0  0  0  0  0
  -31.8243  -14.7920   20.1402 O   0  0  0  0  0  0
  -21.6642   -6.8871   21.4242 O   0  0  0  0  0  0
  -22.3497  -14.5535   20.6726 O   0  0  0  0  0  0
  -24.6317  -31.8546   23.1978 C   0  0  0  0  0  0
  -25.9149  -32.4751   23.8313 C   0  0  1  0  0  0
  -27.2180  -27.2724   20.1268 C   0  0  0  0  0  0
  -25.5947  -33.8550   24.2257 N   0  0  0  0  0  0
  -23.4273  -30.4782   21.5396 C   0  0  2  0  0  0
  -24.8720  -28.9189   20.1126 C   0  0  0  0  0  0
  -22.7501  -29.4605   22.4906 C   0  0  0  0  0  0
  -18.0298  -28.1390   22.8484 C   0  0  0  0  0  0
  -24.1489  -36.7279   23.2634 C   0  0  0  0  0  0
  -25.9717  -30.7725   21.3714 C   0  0  0  0  0  0
  -26.0449  -29.3940   20.7162 C   0  0  0  0  0  0
  -27.2248  -28.5848   20.7072 C   0  0  0  0  0  0
  -26.0244  -26.8564   19.5040 C   0  0  0  0  0  0
  -24.8662  -27.6580   19.4947 C   0  0  0  0  0  0
  -23.6439  -29.8074   20.1573 C   0  0  0  0  0  0
  -25.4113  -36.3070   24.0329 C   0  0  1  0  0  0
  -20.5900  -28.3689   23.1276 C   0  0  2  0  0  0
  -20.6784  -26.9406   22.5409 C   0  0  0  0  0  0
  -19.5750  -26.6380   21.5219 C   0  0  0  0  0  0
  -18.1933  -26.7932   22.1630 C   0  0  0  0  0  0
  -19.1549  -28.8857   23.2877 C   0  0  0  0  0  0
  -18.9468  -30.1470   23.8884 C   0  0  0  0  0  0
  -17.6464  -30.6582   24.0565 C   0  0  0  0  0  0
  -25.9064  -34.9438   23.5099 C   0  0  0  0  0  0
  -16.5357  -29.9076   23.6336 C   0  0  0  0  0  0
  -16.7287  -28.6501   23.0343 C   0  0  0  0  0  0
  -26.4514  -31.6572   25.0705 C   0  0  0  0  0  0
  -25.3742  -31.3710   26.1435 C   0  0  0  0  0  0
  -27.0341  -30.2981   24.6190 C   0  0  0  0  0  0
  -27.6087  -32.4289   25.7475 C   0  0  0  0  0  0
  -27.5583  -37.1793   24.8457 C   0  0  0  0  0  0
  -21.4209  -29.3038   22.3656 N   0  0  0  0  0  0
  -26.4281  -37.3780   23.9417 N   0  0  0  0  0  0
  -24.6963  -31.0540   22.0925 N   0  0  0  0  0  0
  -23.4210  -28.8154   23.3003 O   0  0  0  0  0  0
  -28.3139  -26.3882   20.1263 O   0  0  0  0  0  0
  -26.5621  -34.8918   22.4662 O   0  0  0  0  0  0
  -23.5474  -32.1354   23.7293 O   0  0  0  0  0  0
  -31.6170  -17.6104   21.1404 C   0  0  0  0  0  0
  -29.4813  -18.5036   20.4116 C   0  0  0  0  0  0
  -32.0937  -18.9258   21.3012 C   0  0  0  0  0  0
  -29.9284  -19.8945   20.5608 C   0  0  0  0  0  0
  -30.3096  -17.3326   20.6893 C   0  0  0  0  0  0
  -31.2648  -20.0368   21.0293 C   0  0  0  0  0  0
  -27.9596  -21.2437   19.6156 C   0  0  0  0  0  0
  -27.4174  -22.6881   19.5183 C   0  0  0  0  0  0
  -29.4982  -22.5724   20.6508 C   0  0  0  0  0  0
  -28.5622  -23.6355   19.9275 C   0  0  2  0  0  0
  -28.1283  -25.0085   20.6856 C   0  0  0  0  0  0
  -33.5229  -19.1630   21.7807 C   0  0  0  0  0  0
  -29.1354  -21.1494   20.2729 N   0  0  0  0  0  0
  -29.8801  -15.9057   20.5899 N   0  0  0  0  0  0
  -27.3354  -20.3040   19.1154 O   0  0  0  0  0  0
  -31.8019  -21.2606   21.2354 F   0  0  0  0  0  0
  -34.1851  -18.0232   21.9910 F   0  0  0  0  0  0
  -34.1998  -19.8625   20.8694 F   0  0  0  0  0  0
  -33.5140  -19.8448   22.9264 F   0  0  0  0  0  0
  -31.4670  -12.5601   19.1607 H   0  0  0  0  0  0
  -30.3604  -11.4773   19.9604 H   0  0  0  0  0  0
  -29.7853  -11.7214   17.5172 H   0  0  0  0  0  0
  -29.6289  -13.4512   17.7109 H   0  0  0  0  0  0
  -27.8859  -11.2783   18.9137 H   0  0  0  0  0  0
  -27.3719  -12.5162   17.7981 H   0  0  0  0  0  0
  -27.6272  -14.2493   19.4528 H   0  0  0  0  0  0
  -28.7221  -12.1917   21.4335 H   0  0  0  0  0  0
  -28.4248  -13.8801   21.7744 H   0  0  0  0  0  0
  -25.2752   -9.5703   22.4748 H   0  0  0  0  0  0
  -24.0014   -7.4633   22.7457 H   0  0  0  0  0  0
  -21.0831   -8.8759   19.8953 H   0  0  0  0  0  0
  -22.3675  -10.9662   19.6161 H   0  0  0  0  0  0
  -21.2001   -7.6141   23.9714 H   0  0  0  0  0  0
  -21.1489   -6.0514   25.9077 H   0  0  0  0  0  0
  -22.0597   -2.7600   23.2851 H   0  0  0  0  0  0
  -22.4076  -11.9884   22.4831 H   0  0  0  0  0  0
  -21.1067  -13.1231   22.2649 H   0  0  0  0  0  0
  -24.6470  -15.8427   20.5222 H   0  0  0  0  0  0
  -26.2581  -15.6350   20.0636 H   0  0  0  0  0  0
  -26.7217  -32.5411   23.1049 H   0  0  0  0  0  0
  -25.0116  -33.9668   25.0420 H   0  0  0  0  0  0
  -22.7229  -31.3003   21.3921 H   0  0  0  0  0  0
  -23.3757  -35.9604   23.3274 H   0  0  0  0  0  0
  -24.3592  -36.8919   22.2052 H   0  0  0  0  0  0
  -23.7218  -37.6466   23.6668 H   0  0  0  0  0  0
  -26.1065  -31.5320   20.5992 H   0  0  0  0  0  0
  -26.8508  -30.8243   22.0033 H   0  0  0  0  0  0
  -28.1266  -28.9472   21.1800 H   0  0  0  0  0  0
  -25.9839  -25.8871   19.0268 H   0  0  0  0  0  0
  -23.9695  -27.2890   19.0133 H   0  0  0  0  0  0
  -23.7711  -30.5800   19.3976 H   0  0  0  0  0  0
  -22.7607  -29.2416   19.8533 H   0  0  0  0  0  0
  -25.1291  -36.1905   25.0819 H   0  0  0  0  0  0
  -21.0019  -28.3272   24.1387 H   0  0  0  0  0  0
  -20.5683  -26.2305   23.3613 H   0  0  0  0  0  0
  -21.6656  -26.7427   22.1211 H   0  0  0  0  0  0
  -19.6907  -25.6292   21.1239 H   0  0  0  0  0  0
  -19.6687  -27.3202   20.6753 H   0  0  0  0  0  0
  -17.4216  -26.6693   21.4020 H   0  0  0  0  0  0
  -18.0321  -26.0074   22.9022 H   0  0  0  0  0  0
  -19.7943  -30.7295   24.2229 H   0  0  0  0  0  0
  -17.5014  -31.6258   24.5167 H   0  0  0  0  0  0
  -15.5350  -30.2965   23.7664 H   0  0  0  0  0  0
  -15.8699  -28.0825   22.7029 H   0  0  0  0  0  0
  -24.5957  -30.7008   25.7777 H   0  0  0  0  0  0
  -24.8887  -32.2864   26.4823 H   0  0  0  0  0  0
  -25.8087  -30.8936   27.0226 H   0  0  0  0  0  0
  -26.2913  -29.6728   24.1231 H   0  0  0  0  0  0
  -27.4013  -29.7260   25.4717 H   0  0  0  0  0  0
  -27.8800  -30.4227   23.9430 H   0  0  0  0  0  0
  -27.2721  -33.3600   26.2040 H   0  0  0  0  0  0
  -28.3909  -32.6811   25.0304 H   0  0  0  0  0  0
  -28.0736  -31.8402   26.5390 H   0  0  0  0  0  0
  -28.2586  -38.0114   24.7566 H   0  0  0  0  0  0
  -28.1102  -36.2649   24.6211 H   0  0  0  0  0  0
  -27.2321  -37.1362   25.8868 H   0  0  0  0  0  0
  -20.9391  -29.8749   21.6858 H   0  0  0  0  0  0
  -26.0152  -38.2846   24.1454 H   0  0  0  0  0  0
  -32.2866  -16.8059   21.3963 H   0  0  0  0  0  0
  -28.4709  -18.3209   20.0773 H   0  0  0  0  0  0
  -26.5721  -22.7733   20.2012 H   0  0  0  0  0  0
  -27.0594  -22.9007   18.5111 H   0  0  0  0  0  0
  -29.4229  -22.6707   21.7340 H   0  0  0  0  0  0
  -30.5184  -22.8180   20.3626 H   0  0  0  0  0  0
  -29.0711  -23.9340   19.0098 H   0  0  0  0  0  0
  -28.6836  -25.0309   21.6231 H   0  0  0  0  0  0
  -27.0951  -24.8986   21.0186 H   0  0  0  0  0  0
  -28.8842  -15.7493   20.6324 H   0  0  0  0  0  0
  1 25  1  0  0  0
  1 30  2  0  0  0
  1 84  1  0  0  0
  2  3  1  0  0  0
  2 25  1  0  0  0
  2 90  1  0  0  0
  2 91  1  0  0  0
  3  4  1  0  0  0
  3 92  1  0  0  0
  3 93  1  0  0  0
  4  5  1  0  0  0
  4 94  1  0  0  0
  4 95  1  0  0  0
  5  6  1  0  0  0
  5 26  1  0  0  0
  5 96  1  0  0  0
  6 25  1  0  0  0
  6 97  1  0  0  0
  6 98  1  0  0  0
  7  8  2  0  0  0
  7 26  1  0  0  0
  7 29  1  0  0  0
  8  9  1  0  0  0
  8 22  1  0  0  0
  9 10  1  0  0  0
  9 27  2  0  0  0
 10 11  2  0  0  0
 10 15  1  0  0  0
 11 12  1  0  0  0
 11 99  1  0  0  0
 12 13  2  0  0  0
 12100  1  0  0  0
 13 14  1  0  0  0
 13 31  1  0  0  0
 14 15  2  0  0  0
 14101  1  0  0  0
 15102  1  0  0  0
 16 17  2  0  0  0
 16 21  1  0  0  0
 16 31  1  0  0  0
 17 18  1  0  0  0
 17103  1  0  0  0
 18 19  2  0  0  0
 18104  1  0  0  0
 19 20  1  0  0  0
 19 24  1  0  0  0
 20 21  2  0  0  0
 20105  1  0  0  0
 21 23  1  0  0  0
 22 28  1  0  0  0
 22 32  2  0  0  0
 26 27  1  0  0  0
 28106  1  0  0  0
 28107  1  0  0  0
 29108  1  0  0  0
 29109  1  0  0  0
 33 34  1  0  0  0
 33 66  1  0  0  0
 33 70  2  0  0  0
 34 36  1  0  0  0
 34 59  1  0  0  0
 34110  1  0  0  0
 35 44  2  0  0  0
 35 45  1  0  0  0
 35 68  1  0  0  0
 36 56  1  0  0  0
 36111  1  0  0  0
 37 39  1  0  0  0
 37 47  1  0  0  0
 37 66  1  0  0  0
 37112  1  0  0  0
 38 43  2  0  0  0
 38 46  1  0  0  0
 38 47  1  0  0  0
 39 64  1  0  0  0
 39 67  2  0  0  0
 40 52  1  0  0  0
 40 53  2  0  0  0
 40 58  1  0  0  0
 41113  1  0  0  0
 41114  1  0  0  0
 41115  1  0  0  0
 41 48  1  0  0  0
 42 43  1  0  0  0
 42 66  1  0  0  0
 42116  1  0  0  0
 42117  1  0  0  0
 43 44  1  0  0  0
 44118  1  0  0  0
 45 46  2  0  0  0
 45119  1  0  0  0
 46120  1  0  0  0
 47121  1  0  0  0
 47122  1  0  0  0
 48 56  1  0  0  0
 48 65  1  0  0  0
 48123  1  0  0  0
 49 50  1  0  0  0
 49 53  1  0  0  0
 49 64  1  0  0  0
 49124  1  0  0  0
 50 51  1  0  0  0
 50125  1  0  0  0
 50126  1  0  0  0
 51 52  1  0  0  0
 51127  1  0  0  0
 51128  1  0  0  0
 52129  1  0  0  0
 52130  1  0  0  0
 53 54  1  0  0  0
 54 55  2  0  0  0
 54131  1  0  0  0
 55 57  1  0  0  0
 55132  1  0  0  0
 56 69  2  0  0  0
 57 58  2  0  0  0
 57133  1  0  0  0
 58134  1  0  0  0
 59 60  1  0  0  0
 59 61  1  0  0  0
 59 62  1  0  0  0
 60135  1  0  0  0
 60136  1  0  0  0
 60137  1  0  0  0
 61138  1  0  0  0
 61139  1  0  0  0
 61140  1  0  0  0
 62141  1  0  0  0
 62142  1  0  0  0
 62143  1  0  0  0
 63 65  1  0  0  0
 63144  1  0  0  0
 63145  1  0  0  0
 63146  1  0  0  0
 64147  1  0  0  0
 65148  1  0  0  0
 68 81  1  0  0  0
 71 73  2  0  0  0
 71 75  1  0  0  0
 71149  1  0  0  0
 72 74  1  0  0  0
 72 75  2  0  0  0
 72150  1  0  0  0
 73 76  1  0  0  0
 73 82  1  0  0  0
 74 76  2  0  0  0
 74 83  1  0  0  0
 75 84  1  0  0  0
 76 86  1  0  0  0
 77 78  1  0  0  0
 77 83  1  0  0  0
 77 85  2  0  0  0
 78 80  1  0  0  0
 78151  1  0  0  0
 78152  1  0  0  0
 79 80  1  0  0  0
 79 83  1  0  0  0
 79153  1  0  0  0
 79154  1  0  0  0
 80 81  1  0  0  0
 80155  1  0  0  0
 81156  1  0  0  0
 81157  1  0  0  0
 82 87  1  0  0  0
 82 88  1  0  0  0
 82 89  1  0  0  0
 84158  1  0  0  0
M  ISO  4   1 100  68 101  81 101  84 100
M  END
> <chiral flag>
0

> <version>
0

> <s_m_source_file>
/data/baiqing/PycharmProjects/Reinvent-master-3.2/result/LINK_invent/BTK/process_docking_weight1_custom_product_contain_oxygen_bond_distance_aromatic_linkinvent_7_9_3/rearranged_h_0067.sdf

> <i_m_source_file_index>
11

> <r_mmod_Potential_Energy-OPLS-2005>
255.555862426758

> <r_mmod_Stretch_Energy-OPLS-2005>
130.537704467773

> <r_mmod_Bend_Energy-OPLS-2005>
193.034118652344

> <r_mmod_Torsional_Energy-OPLS-2005>
290.168548583984

> <r_mmod_Improper_Torsional_Energy-OPLS-2005>
5.83638715744019

> <r_mmod_Van_der_Waal_Energy-OPLS-2005>
151.037368774414

> <r_mmod_Electrostatic_Energy-OPLS-2005>
-381.083679199219

> <r_mmod_Solvation_Energy-OPLS-2005>
-214.735870361328

> <b_mmod_Minimization_Converged-OPLS-2005>
0

> <r_mmod_RMS_Derivative-OPLS-2005>
2.03711271286011

$$$$
11
                    3D
 Structure written by MMmdl.
154162  0  0  1  0            999 V2000
  -30.5941  -14.7575   20.4041 C   0  0  0  0  0  0
  -30.4288  -12.4512   19.4754 C   0  0  0  0  0  0
  -29.5117  -12.5080   18.2340 C   0  0  0  0  0  0
  -28.0365  -12.3297   18.6447 C   0  0  0  0  0  0
  -27.6389  -13.2325   19.8439 C   0  0  2  0  0  0
  -28.6830  -13.1768   20.9805 C   0  0  0  0  0  0
  -25.2510  -13.8196   20.5678 C   0  0  0  0  0  0
  -24.1802  -13.0442   20.9196 C   0  0  0  0  0  0
  -24.6391  -11.6919   20.8733 C   0  0  0  0  0  0
  -23.9068  -10.4297   21.0387 C   0  0  0  0  0  0
  -24.3623   -9.4224   21.9166 C   0  0  0  0  0  0
  -23.6304   -8.2259   22.0743 C   0  0  0  0  0  0
  -22.4291   -8.0282   21.3535 C   0  0  0  0  0  0
  -21.9919   -9.0250   20.4638 C   0  0  0  0  0  0
  -22.7239  -10.2130   20.3044 C   0  0  0  0  0  0
  -21.6859   -6.0735   22.5273 C   0  0  0  0  0  0
  -21.4021   -6.5631   23.8204 C   0  0  0  0  0  0
  -21.3672   -5.6787   24.9166 C   0  0  0  0  0  0
  -21.6049   -4.3049   24.7212 C   0  0  0  0  0  0
  -21.8825   -3.8141   23.4336 C   0  0  0  0  0  0
  -21.9194   -4.6962   22.3396 C   0  0  0  0  0  0
  -22.7824  -13.5222   21.1839 C   0  0  0  0  0  0
  -22.1657   -4.2147   21.0974 F   0  0  0  0  0  0
  -21.5637   -3.4532   25.7730 F   0  0  0  0  0  0
  -29.9836  -13.5225   20.3964 N   0  0  0  0  0  0
  -26.2926  -12.9398   20.3241 N   0  0  0  0  0  0
  -25.9321  -11.6541   20.5730 N   0  0  0  0  0  0
  -22.0470  -12.8233   22.0412 N   0  0  0  0  0  0
  -25.4209  -15.1922   20.4114 N   0  0  0  0  0  0
  -31.8005  -14.8307   20.1615 O   0  0  0  0  0  0
  -21.6653   -6.8881   21.4239 O   0  0  0  0  0  0
  -22.3522  -14.5524   20.6672 O   0  0  0  0  0  0
  -24.6315  -31.8536   23.1935 C   0  0  0  0  0  0
  -25.9131  -32.4749   23.8299 C   0  0  1  0  0  0
  -27.2254  -27.2584   20.1359 C   0  0  0  0  0  0
  -25.5914  -33.8553   24.2222 N   0  0  0  0  0  0
  -23.4294  -30.4704   21.5391 C   0  0  2  0  0  0
  -24.8759  -28.9047   20.1203 C   0  0  0  0  0  0
  -22.7510  -29.4580   22.4936 C   0  0  0  0  0  0
  -18.0286  -28.1378   22.8479 C   0  0  0  0  0  0
  -24.1488  -36.7296   23.2640 C   0  0  0  0  0  0
  -25.9729  -30.7679   21.3687 C   0  0  0  0  0  0
  -26.0482  -29.3849   20.7200 C   0  0  0  0  0  0
  -27.2299  -28.5759   20.7073 C   0  0  0  0  0  0
  -26.0282  -26.8301   19.5306 C   0  0  0  0  0  0
  -24.8699  -27.6354   19.5161 C   0  0  0  0  0  0
  -23.6469  -29.7939   20.1592 C   0  0  0  0  0  0
  -25.4119  -36.3077   24.0316 C   0  0  1  0  0  0
  -20.5888  -28.3682   23.1279 C   0  0  2  0  0  0
  -20.6769  -26.9400   22.5412 C   0  0  0  0  0  0
  -19.5749  -26.6373   21.5212 C   0  0  0  0  0  0
  -18.1930  -26.7915   22.1621 C   0  0  0  0  0  0
  -19.1539  -28.8850   23.2868 C   0  0  0  0  0  0
  -18.9460  -30.1455   23.8879 C   0  0  0  0  0  0
  -17.6456  -30.6574   24.0558 C   0  0  0  0  0  0
  -25.9062  -34.9445   23.5081 C   0  0  0  0  0  0
  -16.5348  -29.9072   23.6318 C   0  0  0  0  0  0
  -16.7272  -28.6495   23.0332 C   0  0  0  0  0  0
  -26.4474  -31.6582   25.0699 C   0  0  0  0  0  0
  -25.3680  -31.3756   26.1411 C   0  0  0  0  0  0
  -27.0307  -30.2990   24.6186 C   0  0  0  0  0  0
  -27.6022  -32.4322   25.7487 C   0  0  0  0  0  0
  -27.5582  -37.1800   24.8455 C   0  0  0  0  0  0
  -21.4214  -29.3028   22.3679 N   0  0  0  0  0  0
  -26.4291  -37.3779   23.9406 N   0  0  0  0  0  0
  -24.6977  -31.0492   22.0910 N   0  0  0  0  0  0
  -23.4212  -28.8137   23.3045 O   0  0  0  0  0  0
  -28.3446  -26.4027   20.0878 O   0  0  0  0  0  0
  -26.5660  -34.8926   22.4666 O   0  0  0  0  0  0
  -23.5454  -32.1361   23.7218 O   0  0  0  0  0  0
  -30.3137  -19.8434   18.6654 C   0  0  0  0  0  0
  -29.3387  -18.4879   20.4336 C   0  0  0  0  0  0
  -30.8852  -18.6752   18.1198 C   0  0  0  0  0  0
  -29.4946  -19.8053   19.8155 C   0  0  0  0  0  0
  -29.9713  -17.2646   19.9343 C   0  0  0  0  0  0
  -30.7044  -17.4137   18.7270 C   0  0  0  0  0  0
  -29.1469  -22.3960   20.0280 C   0  0  0  0  0  0
  -31.6629  -18.7664   16.8182 C   0  0  0  0  0  0
  -28.0933  -23.6103   19.9510 C   0  0  0  0  0  0
  -28.3188  -25.0325   20.7111 C   0  0  0  0  0  0
  -28.7763  -21.0600   20.1912 N   0  0  0  0  0  0
  -29.8025  -15.8979   20.5242 N   0  0  0  0  0  0
  -30.3393  -22.6900   19.9275 O   0  0  0  0  0  0
  -31.1944  -16.3326   18.0744 F   0  0  0  0  0  0
  -31.4717  -12.5689   19.1764 H   0  0  0  0  0  0
  -30.3620  -11.4765   19.9613 H   0  0  0  0  0  0
  -29.7971  -11.7403   17.5136 H   0  0  0  0  0  0
  -29.6393  -13.4655   17.7255 H   0  0  0  0  0  0
  -27.8952  -11.2808   18.9082 H   0  0  0  0  0  0
  -27.3816  -12.5177   17.7922 H   0  0  0  0  0  0
  -27.6283  -14.2519   19.4589 H   0  0  0  0  0  0
  -28.7182  -12.1843   21.4321 H   0  0  0  0  0  0
  -28.4191  -13.8707   21.7805 H   0  0  0  0  0  0
  -25.2758   -9.5708   22.4741 H   0  0  0  0  0  0
  -24.0007   -7.4662   22.7470 H   0  0  0  0  0  0
  -21.0841   -8.8768   19.8955 H   0  0  0  0  0  0
  -22.3676  -10.9670   19.6161 H   0  0  0  0  0  0
  -21.2010   -7.6140   23.9707 H   0  0  0  0  0  0
  -21.1491   -6.0510   25.9066 H   0  0  0  0  0  0
  -22.0592   -2.7604   23.2831 H   0  0  0  0  0  0
  -22.4073  -11.9912   22.4857 H   0  0  0  0  0  0
  -21.1072  -13.1256   22.2557 H   0  0  0  0  0  0
  -24.6555  -15.8463   20.5295 H   0  0  0  0  0  0
  -26.2656  -15.6347   20.0731 H   0  0  0  0  0  0
  -26.7218  -32.5390   23.1060 H   0  0  0  0  0  0
  -24.9990  -33.9689   25.0316 H   0  0  0  0  0  0
  -22.7242  -31.2905   21.3871 H   0  0  0  0  0  0
  -23.3752  -35.9625   23.3283 H   0  0  0  0  0  0
  -24.3579  -36.8944   22.2059 H   0  0  0  0  0  0
  -23.7236  -37.6486   23.6685 H   0  0  0  0  0  0
  -26.1026  -31.5231   20.5915 H   0  0  0  0  0  0
  -26.8547  -30.8258   21.9965 H   0  0  0  0  0  0
  -28.1374  -28.9476   21.1624 H   0  0  0  0  0  0
  -25.9906  -25.8546   19.0665 H   0  0  0  0  0  0
  -23.9710  -27.2608   19.0466 H   0  0  0  0  0  0
  -23.7716  -30.5634   19.3959 H   0  0  0  0  0  0
  -22.7650  -29.2242   19.8606 H   0  0  0  0  0  0
  -25.1301  -36.1916   25.0806 H   0  0  0  0  0  0
  -20.9972  -28.3251   24.1404 H   0  0  0  0  0  0
  -20.5655  -26.2294   23.3618 H   0  0  0  0  0  0
  -21.6640  -26.7410   22.1213 H   0  0  0  0  0  0
  -19.6909  -25.6287   21.1239 H   0  0  0  0  0  0
  -19.6683  -27.3185   20.6745 H   0  0  0  0  0  0
  -17.4198  -26.6658   21.4022 H   0  0  0  0  0  0
  -18.0324  -26.0054   22.9016 H   0  0  0  0  0  0
  -19.7939  -30.7281   24.2227 H   0  0  0  0  0  0
  -17.5007  -31.6247   24.5170 H   0  0  0  0  0  0
  -15.5346  -30.2969   23.7646 H   0  0  0  0  0  0
  -15.8676  -28.0824   22.7027 H   0  0  0  0  0  0
  -24.5833  -30.7132   25.7738 H   0  0  0  0  0  0
  -24.8891  -32.2935   26.4831 H   0  0  0  0  0  0
  -25.7963  -30.8925   27.0200 H   0  0  0  0  0  0
  -26.2886  -29.6755   24.1182 H   0  0  0  0  0  0
  -27.3946  -29.7235   25.4710 H   0  0  0  0  0  0
  -27.8779  -30.4251   23.9443 H   0  0  0  0  0  0
  -27.2613  -33.3615   26.2066 H   0  0  0  0  0  0
  -28.3833  -32.6897   25.0322 H   0  0  0  0  0  0
  -28.0685  -31.8447   26.5404 H   0  0  0  0  0  0
  -28.2587  -38.0112   24.7522 H   0  0  0  0  0  0
  -28.1090  -36.2642   24.6247 H   0  0  0  0  0  0
  -27.2306  -37.1408   25.8861 H   0  0  0  0  0  0
  -20.9415  -29.8750   21.6876 H   0  0  0  0  0  0
  -26.0163  -38.2849   24.1414 H   0  0  0  0  0  0
  -30.4592  -20.7755   18.1378 H   0  0  0  0  0  0
  -28.7074  -18.4119   21.3068 H   0  0  0  0  0  0
  -31.9357  -19.7945   16.5793 H   0  0  0  0  0  0
  -31.0626  -18.3747   15.9963 H   0  0  0  0  0  0
  -32.5808  -18.1803   16.8713 H   0  0  0  0  0  0
  -27.1302  -23.2104   20.2682 H   0  0  0  0  0  0
  -27.9667  -23.8248   18.8891 H   0  0  0  0  0  0
  -29.2730  -24.9523   21.2317 H   0  0  0  0  0  0
  -27.5897  -25.0763   21.5210 H   0  0  0  0  0  0
  -27.8197  -20.9260   20.4946 H   0  0  0  0  0  0
  -28.9013  -15.7256   20.9413 H   0  0  0  0  0  0
  1 25  1  0  0  0
  1 30  2  0  0  0
  1 82  1  0  0  0
  2  3  1  0  0  0
  2 25  1  0  0  0
  2 85  1  0  0  0
  2 86  1  0  0  0
  3  4  1  0  0  0
  3 87  1  0  0  0
  3 88  1  0  0  0
  4  5  1  0  0  0
  4 89  1  0  0  0
  4 90  1  0  0  0
  5  6  1  0  0  0
  5 26  1  0  0  0
  5 91  1  0  0  0
  6 25  1  0  0  0
  6 92  1  0  0  0
  6 93  1  0  0  0
  7  8  2  0  0  0
  7 26  1  0  0  0
  7 29  1  0  0  0
  8  9  1  0  0  0
  8 22  1  0  0  0
  9 10  1  0  0  0
  9 27  2  0  0  0
 10 11  2  0  0  0
 10 15  1  0  0  0
 11 12  1  0  0  0
 11 94  1  0  0  0
 12 13  2  0  0  0
 12 95  1  0  0  0
 13 14  1  0  0  0
 13 31  1  0  0  0
 14 15  2  0  0  0
 14 96  1  0  0  0
 15 97  1  0  0  0
 16 17  2  0  0  0
 16 21  1  0  0  0
 16 31  1  0  0  0
 17 18  1  0  0  0
 17 98  1  0  0  0
 18 19  2  0  0  0
 18 99  1  0  0  0
 19 20  1  0  0  0
 19 24  1  0  0  0
 20 21  2  0  0  0
 20100  1  0  0  0
 21 23  1  0  0  0
 22 28  1  0  0  0
 22 32  2  0  0  0
 26 27  1  0  0  0
 28101  1  0  0  0
 28102  1  0  0  0
 29103  1  0  0  0
 29104  1  0  0  0
 33 34  1  0  0  0
 33 66  1  0  0  0
 33 70  2  0  0  0
 34 36  1  0  0  0
 34 59  1  0  0  0
 34105  1  0  0  0
 35 44  2  0  0  0
 35 45  1  0  0  0
 35 68  1  0  0  0
 36 56  1  0  0  0
 36106  1  0  0  0
 37 39  1  0  0  0
 37 47  1  0  0  0
 37 66  1  0  0  0
 37107  1  0  0  0
 38 43  2  0  0  0
 38 46  1  0  0  0
 38 47  1  0  0  0
 39 64  1  0  0  0
 39 67  2  0  0  0
 40 52  1  0  0  0
 40 53  2  0  0  0
 40 58  1  0  0  0
 41108  1  0  0  0
 41109  1  0  0  0
 41110  1  0  0  0
 41 48  1  0  0  0
 42 43  1  0  0  0
 42 66  1  0  0  0
 42111  1  0  0  0
 42112  1  0  0  0
 43 44  1  0  0  0
 44113  1  0  0  0
 45 46  2  0  0  0
 45114  1  0  0  0
 46115  1  0  0  0
 47116  1  0  0  0
 47117  1  0  0  0
 48 56  1  0  0  0
 48 65  1  0  0  0
 48118  1  0  0  0
 49 50  1  0  0  0
 49 53  1  0  0  0
 49 64  1  0  0  0
 49119  1  0  0  0
 50 51  1  0  0  0
 50120  1  0  0  0
 50121  1  0  0  0
 51 52  1  0  0  0
 51122  1  0  0  0
 51123  1  0  0  0
 52124  1  0  0  0
 52125  1  0  0  0
 53 54  1  0  0  0
 54 55  2  0  0  0
 54126  1  0  0  0
 55 57  1  0  0  0
 55127  1  0  0  0
 56 69  2  0  0  0
 57 58  2  0  0  0
 57128  1  0  0  0
 58129  1  0  0  0
 59 60  1  0  0  0
 59 61  1  0  0  0
 59 62  1  0  0  0
 60130  1  0  0  0
 60131  1  0  0  0
 60132  1  0  0  0
 61133  1  0  0  0
 61134  1  0  0  0
 61135  1  0  0  0
 62136  1  0  0  0
 62137  1  0  0  0
 62138  1  0  0  0
 63 65  1  0  0  0
 63139  1  0  0  0
 63140  1  0  0  0
 63141  1  0  0  0
 64142  1  0  0  0
 65143  1  0  0  0
 68 80  1  0  0  0
 71 73  2  0  0  0
 71 74  1  0  0  0
 71144  1  0  0  0
 72 74  2  0  0  0
 72 75  1  0  0  0
 72145  1  0  0  0
 73 76  1  0  0  0
 73 78  1  0  0  0
 74 81  1  0  0  0
 75 76  2  0  0  0
 75 82  1  0  0  0
 76 84  1  0  0  0
 77 79  1  0  0  0
 77 81  1  0  0  0
 77 83  2  0  0  0
 78146  1  0  0  0
 78147  1  0  0  0
 78148  1  0  0  0
 79 80  1  0  0  0
 79149  1  0  0  0
 79150  1  0  0  0
 80151  1  0  0  0
 80152  1  0  0  0
 81153  1  0  0  0
 82154  1  0  0  0
M  ISO  4   1 100  68 101  80 101  82 100
M  END
> <chiral flag>
0

> <version>
0

> <s_m_source_file>
/data/baiqing/PycharmProjects/Reinvent-master-3.2/result/LINK_invent/BTK/process_docking_weight1_custom_product_contain_oxygen_bond_distance_aromatic_linkinvent_7_9_3/rearranged_h_0067.sdf

> <i_m_source_file_index>
12

> <r_mmod_Potential_Energy-OPLS-2005>
165.605773925781

> <r_mmod_Stretch_Energy-OPLS-2005>
133.341674804688

> <r_mmod_Bend_Energy-OPLS-2005>
175.83122253418

> <r_mmod_Torsional_Energy-OPLS-2005>
278.616516113281

> <r_mmod_Improper_Torsional_Energy-OPLS-2005>
5.32285261154175

> <r_mmod_Van_der_Waal_Energy-OPLS-2005>
138.793899536133

> <r_mmod_Electrostatic_Energy-OPLS-2005>
-407.368865966797

> <r_mmod_Solvation_Energy-OPLS-2005>
-245.394317626953

> <b_mmod_Minimization_Converged-OPLS-2005>
0

> <r_mmod_RMS_Derivative-OPLS-2005>
1.94581651687622

$$$$
12
                    3D
 Structure written by MMmdl.
157165  0  0  1  0            999 V2000
  -30.6515  -14.7700   20.5061 C   0  0  0  0  0  0
  -30.4342  -12.4846   19.4776 C   0  0  0  0  0  0
  -29.5079  -12.5362   18.2397 C   0  0  0  0  0  0
  -28.0335  -12.3554   18.6438 C   0  0  0  0  0  0
  -27.6475  -13.2294   19.8659 C   0  0  2  0  0  0
  -28.6968  -13.0966   20.9877 C   0  0  0  0  0  0
  -25.2514  -13.8187   20.5714 C   0  0  0  0  0  0
  -24.1802  -13.0414   20.9213 C   0  0  0  0  0  0
  -24.6391  -11.6914   20.8758 C   0  0  0  0  0  0
  -23.9067  -10.4293   21.0411 C   0  0  0  0  0  0
  -24.3624   -9.4215   21.9193 C   0  0  0  0  0  0
  -23.6299   -8.2251   22.0766 C   0  0  0  0  0  0
  -22.4284   -8.0279   21.3551 C   0  0  0  0  0  0
  -21.9922   -9.0250   20.4649 C   0  0  0  0  0  0
  -22.7242  -10.2132   20.3049 C   0  0  0  0  0  0
  -21.6848   -6.0750   22.5284 C   0  0  0  0  0  0
  -21.4006   -6.5646   23.8216 C   0  0  0  0  0  0
  -21.3658   -5.6802   24.9179 C   0  0  0  0  0  0
  -21.6050   -4.3066   24.7233 C   0  0  0  0  0  0
  -21.8814   -3.8156   23.4351 C   0  0  0  0  0  0
  -21.9193   -4.6981   22.3406 C   0  0  0  0  0  0
  -22.7826  -13.5214   21.1859 C   0  0  0  0  0  0
  -22.1670   -4.2156   21.0997 F   0  0  0  0  0  0
  -21.5632   -3.4546   25.7751 F   0  0  0  0  0  0
  -29.9899  -13.5420   20.4323 N   0  0  0  0  0  0
  -26.2956  -12.9393   20.3357 N   0  0  0  0  0  0
  -25.9317  -11.6533   20.5775 N   0  0  0  0  0  0
  -22.0459  -12.8180   22.0407 N   0  0  0  0  0  0
  -25.4207  -15.1903   20.4152 N   0  0  0  0  0  0
  -31.7831  -14.8028   20.0186 O   0  0  0  0  0  0
  -21.6636   -6.8884   21.4246 O   0  0  0  0  0  0
  -22.3510  -14.5514   20.6696 O   0  0  0  0  0  0
  -24.6316  -31.8534   23.1990 C   0  0  0  0  0  0
  -25.9129  -32.4755   23.8348 C   0  0  1  0  0  0
  -27.2346  -27.2707   20.0975 C   0  0  0  0  0  0
  -25.5912  -33.8558   24.2270 N   0  0  0  0  0  0
  -23.4276  -30.4740   21.5422 C   0  0  2  0  0  0
  -24.8739  -28.9163   20.1103 C   0  0  0  0  0  0
  -22.7503  -29.4591   22.4934 C   0  0  0  0  0  0
  -18.0293  -28.1385   22.8493 C   0  0  0  0  0  0
  -24.1497  -36.7281   23.2647 C   0  0  0  0  0  0
  -25.9727  -30.7686   21.3725 C   0  0  0  0  0  0
  -26.0451  -29.3890   20.7130 C   0  0  0  0  0  0
  -27.2231  -28.5768   20.6958 C   0  0  0  0  0  0
  -26.0285  -26.8463   19.4989 C   0  0  0  0  0  0
  -24.8692  -27.6490   19.5019 C   0  0  0  0  0  0
  -23.6453  -29.8052   20.1593 C   0  0  0  0  0  0
  -25.4109  -36.3061   24.0329 C   0  0  1  0  0  0
  -20.5894  -28.3701   23.1286 C   0  0  2  0  0  0
  -20.6787  -26.9421   22.5405 C   0  0  0  0  0  0
  -19.5761  -26.6396   21.5210 C   0  0  0  0  0  0
  -18.1945  -26.7934   22.1627 C   0  0  0  0  0  0
  -19.1542  -28.8857   23.2884 C   0  0  0  0  0  0
  -18.9468  -30.1460   23.8897 C   0  0  0  0  0  0
  -17.6464  -30.6590   24.0562 C   0  0  0  0  0  0
  -25.9056  -34.9430   23.5110 C   0  0  0  0  0  0
  -16.5357  -29.9081   23.6329 C   0  0  0  0  0  0
  -16.7276  -28.6500   23.0343 C   0  0  0  0  0  0
  -26.4494  -31.6575   25.0737 C   0  0  0  0  0  0
  -25.3731  -31.3722   26.1461 C   0  0  0  0  0  0
  -27.0364  -30.2995   24.6232 C   0  0  0  0  0  0
  -27.6037  -32.4323   25.7483 C   0  0  0  0  0  0
  -27.5574  -37.1797   24.8465 C   0  0  0  0  0  0
  -21.4207  -29.3058   22.3688 N   0  0  0  0  0  0
  -26.4291  -37.3759   23.9393 N   0  0  0  0  0  0
  -24.6965  -31.0527   22.0938 N   0  0  0  0  0  0
  -23.4209  -28.8118   23.3017 O   0  0  0  0  0  0
  -28.3680  -26.4256   20.1534 O   0  0  0  0  0  0
  -26.5639  -34.8903   22.4683 O   0  0  0  0  0  0
  -23.5458  -32.1337   23.7292 O   0  0  0  0  0  0
  -31.3828  -20.1052   20.1866 C   0  0  0  0  0  0
  -32.2696  -19.0474   20.4495 C   0  0  0  0  0  0
  -29.5362  -18.5200   20.3155 C   0  0  0  0  0  0
  -29.9855  -19.9066   20.1572 C   0  0  0  0  0  0
  -30.4431  -17.3846   20.5711 C   0  0  0  0  0  0
  -31.8156  -17.7380   20.6894 C   0  0  0  0  0  0
  -29.3455  -22.4228   19.7047 C   0  0  0  0  0  0
  -28.0425  -18.2747   20.2272 C   0  0  0  0  0  0
  -29.1372  -15.9492   22.0807 C   0  0  0  0  0  0
  -28.4010  -23.6483   20.1392 C   0  0  0  0  0  0
  -28.5178  -25.1134   19.4324 C   0  0  0  0  0  0
  -29.0951  -21.1054   20.0925 N   0  0  0  0  0  0
  -30.0202  -15.9745   20.9093 N   0  0  0  0  0  0
  -30.3039  -22.6839   18.9734 O   0  0  0  0  0  0
  -32.7346  -16.8548   21.1420 F   0  0  0  0  0  0
  -31.4719  -12.6008   19.1599 H   0  0  0  0  0  0
  -30.4002  -11.5000   19.9473 H   0  0  0  0  0  0
  -29.7903  -11.7682   17.5192 H   0  0  0  0  0  0
  -29.6294  -13.4948   17.7342 H   0  0  0  0  0  0
  -27.8814  -11.3004   18.8815 H   0  0  0  0  0  0
  -27.3791  -12.5727   17.7979 H   0  0  0  0  0  0
  -27.6573  -14.2644   19.5238 H   0  0  0  0  0  0
  -28.7602  -12.0558   21.3029 H   0  0  0  0  0  0
  -28.3792  -13.6089   21.8872 H   0  0  0  0  0  0
  -25.2774   -9.5684   22.4752 H   0  0  0  0  0  0
  -24.0008   -7.4629   22.7465 H   0  0  0  0  0  0
  -21.0866   -8.8751   19.8930 H   0  0  0  0  0  0
  -22.3707  -10.9666   19.6137 H   0  0  0  0  0  0
  -21.1980   -7.6149   23.9720 H   0  0  0  0  0  0
  -21.1491   -6.0539   25.9089 H   0  0  0  0  0  0
  -22.0593   -2.7617   23.2854 H   0  0  0  0  0  0
  -22.4106  -11.9830   22.4737 H   0  0  0  0  0  0
  -21.1048  -13.1153   22.2608 H   0  0  0  0  0  0
  -24.6470  -15.8412   20.4999 H   0  0  0  0  0  0
  -26.2734  -15.6301   20.0943 H   0  0  0  0  0  0
  -26.7223  -32.5391   23.1111 H   0  0  0  0  0  0
  -25.0015  -33.9723   25.0381 H   0  0  0  0  0  0
  -22.7248  -31.2964   21.3963 H   0  0  0  0  0  0
  -23.3745  -35.9637   23.3330 H   0  0  0  0  0  0
  -24.3571  -36.8885   22.2060 H   0  0  0  0  0  0
  -23.7271  -37.6494   23.6667 H   0  0  0  0  0  0
  -26.1091  -31.5292   20.6024 H   0  0  0  0  0  0
  -26.8533  -30.8223   22.0029 H   0  0  0  0  0  0
  -28.1234  -28.9433   21.1692 H   0  0  0  0  0  0
  -25.9460  -25.8654   19.0565 H   0  0  0  0  0  0
  -23.9619  -27.2688   19.0529 H   0  0  0  0  0  0
  -23.7726  -30.5824   19.4053 H   0  0  0  0  0  0
  -22.7608  -29.2437   19.8537 H   0  0  0  0  0  0
  -25.1309  -36.1933   25.0825 H   0  0  0  0  0  0
  -20.9975  -28.3273   24.1409 H   0  0  0  0  0  0
  -20.5689  -26.2312   23.3592 H   0  0  0  0  0  0
  -21.6651  -26.7449   22.1186 H   0  0  0  0  0  0
  -19.6916  -25.6313   21.1220 H   0  0  0  0  0  0
  -19.6676  -27.3220   20.6747 H   0  0  0  0  0  0
  -17.4202  -26.6675   21.4030 H   0  0  0  0  0  0
  -18.0350  -26.0076   22.9032 H   0  0  0  0  0  0
  -19.7935  -30.7280   24.2263 H   0  0  0  0  0  0
  -17.5007  -31.6260   24.5172 H   0  0  0  0  0  0
  -15.5347  -30.2968   23.7663 H   0  0  0  0  0  0
  -15.8684  -28.0816   22.7038 H   0  0  0  0  0  0
  -24.5875  -30.7124   25.7767 H   0  0  0  0  0  0
  -24.8990  -32.2905   26.4955 H   0  0  0  0  0  0
  -25.8064  -30.8815   27.0173 H   0  0  0  0  0  0
  -26.2988  -29.6720   24.1220 H   0  0  0  0  0  0
  -27.4046  -29.7281   25.4775 H   0  0  0  0  0  0
  -27.8836  -30.4277   23.9500 H   0  0  0  0  0  0
  -27.2656  -33.3604   26.2101 H   0  0  0  0  0  0
  -28.3835  -32.6930   25.0324 H   0  0  0  0  0  0
  -28.0736  -31.8450   26.5374 H   0  0  0  0  0  0
  -28.2615  -38.0076   24.7463 H   0  0  0  0  0  0
  -28.1056  -36.2600   24.6366 H   0  0  0  0  0  0
  -27.2283  -37.1532   25.8871 H   0  0  0  0  0  0
  -20.9388  -29.8826   21.6929 H   0  0  0  0  0  0
  -26.0173  -38.2845   24.1375 H   0  0  0  0  0  0
  -31.8115  -21.0889   20.0815 H   0  0  0  0  0  0
  -33.3265  -19.2554   20.5333 H   0  0  0  0  0  0
  -27.5892  -18.9167   19.4710 H   0  0  0  0  0  0
  -27.5726  -18.4900   21.1864 H   0  0  0  0  0  0
  -27.8241  -17.2459   19.9448 H   0  0  0  0  0  0
  -29.4655  -15.2193   22.8244 H   0  0  0  0  0  0
  -28.1039  -15.7532   21.7962 H   0  0  0  0  0  0
  -29.1442  -16.9084   22.6011 H   0  0  0  0  0  0
  -28.5843  -23.7884   21.2031 H   0  0  0  0  0  0
  -27.3697  -23.3056   20.0501 H   0  0  0  0  0  0
  -27.9071  -25.1151   18.5316 H   0  0  0  0  0  0
  -29.5291  -25.1774   19.0303 H   0  0  0  0  0  0
  -28.1736  -20.9658   20.4827 H   0  0  0  0  0  0
  1 25  1  0  0  0
  1 30  2  0  0  0
  1 83  1  0  0  0
  2  3  1  0  0  0
  2 25  1  0  0  0
  2 86  1  0  0  0
  2 87  1  0  0  0
  3  4  1  0  0  0
  3 88  1  0  0  0
  3 89  1  0  0  0
  4  5  1  0  0  0
  4 90  1  0  0  0
  4 91  1  0  0  0
  5  6  1  0  0  0
  5 26  1  0  0  0
  5 92  1  0  0  0
  6 25  1  0  0  0
  6 93  1  0  0  0
  6 94  1  0  0  0
  7  8  2  0  0  0
  7 26  1  0  0  0
  7 29  1  0  0  0
  8  9  1  0  0  0
  8 22  1  0  0  0
  9 10  1  0  0  0
  9 27  2  0  0  0
 10 11  2  0  0  0
 10 15  1  0  0  0
 11 12  1  0  0  0
 11 95  1  0  0  0
 12 13  2  0  0  0
 12 96  1  0  0  0
 13 14  1  0  0  0
 13 31  1  0  0  0
 14 15  2  0  0  0
 14 97  1  0  0  0
 15 98  1  0  0  0
 16 17  2  0  0  0
 16 21  1  0  0  0
 16 31  1  0  0  0
 17 18  1  0  0  0
 17 99  1  0  0  0
 18 19  2  0  0  0
 18100  1  0  0  0
 19 20  1  0  0  0
 19 24  1  0  0  0
 20 21  2  0  0  0
 20101  1  0  0  0
 21 23  1  0  0  0
 22 28  1  0  0  0
 22 32  2  0  0  0
 26 27  1  0  0  0
 28102  1  0  0  0
 28103  1  0  0  0
 29104  1  0  0  0
 29105  1  0  0  0
 33 34  1  0  0  0
 33 66  1  0  0  0
 33 70  2  0  0  0
 34 36  1  0  0  0
 34 59  1  0  0  0
 34106  1  0  0  0
 35 44  2  0  0  0
 35 45  1  0  0  0
 35 68  1  0  0  0
 36 56  1  0  0  0
 36107  1  0  0  0
 37 39  1  0  0  0
 37 47  1  0  0  0
 37 66  1  0  0  0
 37108  1  0  0  0
 38 43  2  0  0  0
 38 46  1  0  0  0
 38 47  1  0  0  0
 39 64  1  0  0  0
 39 67  2  0  0  0
 40 52  1  0  0  0
 40 53  2  0  0  0
 40 58  1  0  0  0
 41109  1  0  0  0
 41110  1  0  0  0
 41111  1  0  0  0
 41 48  1  0  0  0
 42 43  1  0  0  0
 42 66  1  0  0  0
 42112  1  0  0  0
 42113  1  0  0  0
 43 44  1  0  0  0
 44114  1  0  0  0
 45 46  2  0  0  0
 45115  1  0  0  0
 46116  1  0  0  0
 47117  1  0  0  0
 47118  1  0  0  0
 48 56  1  0  0  0
 48 65  1  0  0  0
 48119  1  0  0  0
 49 50  1  0  0  0
 49 53  1  0  0  0
 49 64  1  0  0  0
 49120  1  0  0  0
 50 51  1  0  0  0
 50121  1  0  0  0
 50122  1  0  0  0
 51 52  1  0  0  0
 51123  1  0  0  0
 51124  1  0  0  0
 52125  1  0  0  0
 52126  1  0  0  0
 53 54  1  0  0  0
 54 55  2  0  0  0
 54127  1  0  0  0
 55 57  1  0  0  0
 55128  1  0  0  0
 56 69  2  0  0  0
 57 58  2  0  0  0
 57129  1  0  0  0
 58130  1  0  0  0
 59 60  1  0  0  0
 59 61  1  0  0  0
 59 62  1  0  0  0
 60131  1  0  0  0
 60132  1  0  0  0
 60133  1  0  0  0
 61134  1  0  0  0
 61135  1  0  0  0
 61136  1  0  0  0
 62137  1  0  0  0
 62138  1  0  0  0
 62139  1  0  0  0
 63 65  1  0  0  0
 63140  1  0  0  0
 63141  1  0  0  0
 63142  1  0  0  0
 64143  1  0  0  0
 65144  1  0  0  0
 68 81  1  0  0  0
 71 72  2  0  0  0
 71 74  1  0  0  0
 71145  1  0  0  0
 72 76  1  0  0  0
 72146  1  0  0  0
 73 74  2  0  0  0
 73 75  1  0  0  0
 73 78  1  0  0  0
 74 82  1  0  0  0
 75 76  2  0  0  0
 75 83  1  0  0  0
 76 85  1  0  0  0
 77 80  1  0  0  0
 77 82  1  0  0  0
 77 84  2  0  0  0
 78147  1  0  0  0
 78148  1  0  0  0
 78149  1  0  0  0
 79 83  1  0  0  0
 79150  1  0  0  0
 79151  1  0  0  0
 79152  1  0  0  0
 80 81  1  0  0  0
 80153  1  0  0  0
 80154  1  0  0  0
 81155  1  0  0  0
 81156  1  0  0  0
 82157  1  0  0  0
M  ISO  4   1 100  68 101  81 101  83 100
M  END
> <chiral flag>
0

> <version>
0

> <s_m_source_file>
/data/baiqing/PycharmProjects/Reinvent-master-3.2/result/LINK_invent/BTK/process_docking_weight1_custom_product_contain_oxygen_bond_distance_aromatic_linkinvent_7_9_3/rearranged_h_0067.sdf

> <i_m_source_file_index>
13

> <r_mmod_Potential_Energy-OPLS-2005>
324.990325927734

> <r_mmod_Stretch_Energy-OPLS-2005>
155.131500244141

> <r_mmod_Bend_Energy-OPLS-2005>
206.451065063477

> <r_mmod_Torsional_Energy-OPLS-2005>
300.357635498047

> <r_mmod_Improper_Torsional_Energy-OPLS-2005>
7.5323805809021

> <r_mmod_Van_der_Waal_Energy-OPLS-2005>
161.656784057617

> <r_mmod_Electrostatic_Energy-OPLS-2005>
-359.265380859375

> <r_mmod_Solvation_Energy-OPLS-2005>
-223.821563720703

> <b_mmod_Minimization_Converged-OPLS-2005>
0

> <r_mmod_RMS_Derivative-OPLS-2005>
3.73819708824158

$$$$
13
                    3D
 Structure written by MMmdl.
157166  0  0  1  0            999 V2000
  -30.6098  -14.7085   20.4358 C   0  0  0  0  0  0
  -30.4302  -12.4144   19.4806 C   0  0  0  0  0  0
  -29.5117  -12.4609   18.2387 C   0  0  0  0  0  0
  -28.0324  -12.3165   18.6454 C   0  0  0  0  0  0
  -27.6428  -13.2253   19.8430 C   0  0  2  0  0  0
  -28.6822  -13.1436   20.9832 C   0  0  0  0  0  0
  -25.2551  -13.8225   20.5729 C   0  0  0  0  0  0
  -24.1811  -13.0480   20.9196 C   0  0  0  0  0  0
  -24.6369  -11.6941   20.8730 C   0  0  0  0  0  0
  -23.9064  -10.4318   21.0403 C   0  0  0  0  0  0
  -24.3620   -9.4230   21.9166 C   0  0  0  0  0  0
  -23.6311   -8.2258   22.0733 C   0  0  0  0  0  0
  -22.4287   -8.0288   21.3528 C   0  0  0  0  0  0
  -21.9912   -9.0261   20.4624 C   0  0  0  0  0  0
  -22.7244  -10.2144   20.3050 C   0  0  0  0  0  0
  -21.6870   -6.0731   22.5274 C   0  0  0  0  0  0
  -21.4019   -6.5624   23.8202 C   0  0  0  0  0  0
  -21.3660   -5.6764   24.9161 C   0  0  0  0  0  0
  -21.6049   -4.3028   24.7207 C   0  0  0  0  0  0
  -21.8831   -3.8127   23.4331 C   0  0  0  0  0  0
  -21.9210   -4.6959   22.3391 C   0  0  0  0  0  0
  -22.7837  -13.5297   21.1859 C   0  0  0  0  0  0
  -22.1671   -4.2153   21.0959 F   0  0  0  0  0  0
  -21.5618   -3.4505   25.7721 F   0  0  0  0  0  0
  -29.9941  -13.4786   20.4144 N   0  0  0  0  0  0
  -26.2929  -12.9400   20.3219 N   0  0  0  0  0  0
  -25.9290  -11.6553   20.5707 N   0  0  0  0  0  0
  -22.0473  -12.8307   22.0408 N   0  0  0  0  0  0
  -25.4365  -15.1949   20.4298 N   0  0  0  0  0  0
  -31.7861  -14.8159   20.0759 O   0  0  0  0  0  0
  -21.6653   -6.8889   21.4235 O   0  0  0  0  0  0
  -22.3543  -14.5596   20.6691 O   0  0  0  0  0  0
  -24.6313  -31.8564   23.1993 C   0  0  0  0  0  0
  -25.9135  -32.4768   23.8341 C   0  0  1  0  0  0
  -27.2223  -27.2734   20.1269 C   0  0  0  0  0  0
  -25.5927  -33.8568   24.2256 N   0  0  0  0  0  0
  -23.4269  -30.4801   21.5429 C   0  0  2  0  0  0
  -24.8735  -28.9321   20.1078 C   0  0  0  0  0  0
  -22.7504  -29.4609   22.4918 C   0  0  0  0  0  0
  -18.0287  -28.1398   22.8467 C   0  0  0  0  0  0
  -24.1486  -36.7283   23.2643 C   0  0  0  0  0  0
  -25.9723  -30.7737   21.3770 C   0  0  0  0  0  0
  -26.0456  -29.3984   20.7167 C   0  0  0  0  0  0
  -27.2222  -28.5828   20.7135 C   0  0  0  0  0  0
  -26.0250  -26.8764   19.4844 C   0  0  0  0  0  0
  -24.8689  -27.6789   19.4786 C   0  0  0  0  0  0
  -23.6432  -29.8170   20.1574 C   0  0  0  0  0  0
  -25.4111  -36.3077   24.0331 C   0  0  1  0  0  0
  -20.5886  -28.3696   23.1263 C   0  0  2  0  0  0
  -20.6768  -26.9414   22.5401 C   0  0  0  0  0  0
  -19.5747  -26.6381   21.5200 C   0  0  0  0  0  0
  -18.1930  -26.7938   22.1611 C   0  0  0  0  0  0
  -19.1540  -28.8865   23.2858 C   0  0  0  0  0  0
  -18.9475  -30.1461   23.8883 C   0  0  0  0  0  0
  -17.6477  -30.6590   24.0557 C   0  0  0  0  0  0
  -25.9053  -34.9451   23.5100 C   0  0  0  0  0  0
  -16.5364  -29.9086   23.6332 C   0  0  0  0  0  0
  -16.7277  -28.6507   23.0345 C   0  0  0  0  0  0
  -26.4492  -31.6604   25.0737 C   0  0  0  0  0  0
  -25.3716  -31.3751   26.1459 C   0  0  0  0  0  0
  -27.0337  -30.3023   24.6226 C   0  0  0  0  0  0
  -27.6047  -32.4351   25.7506 C   0  0  0  0  0  0
  -27.5576  -37.1796   24.8461 C   0  0  0  0  0  0
  -21.4210  -29.3039   22.3662 N   0  0  0  0  0  0
  -26.4278  -37.3784   23.9422 N   0  0  0  0  0  0
  -24.6960  -31.0541   22.0961 N   0  0  0  0  0  0
  -23.4206  -28.8140   23.3011 O   0  0  0  0  0  0
  -28.3189  -26.3806   20.2027 O   0  0  0  0  0  0
  -26.5633  -34.8931   22.4673 O   0  0  0  0  0  0
  -23.5458  -32.1391   23.7281 O   0  0  0  0  0  0
  -29.5949  -19.6543   18.6025 C   0  0  0  0  0  0
  -29.6925  -18.4314   17.9177 C   0  0  0  0  0  0
  -29.6983  -18.4318   20.6973 C   0  0  0  0  0  0
  -29.5844  -19.7229   20.0119 C   0  0  0  0  0  0
  -29.8102  -17.2038   18.5964 C   0  0  0  0  0  0
  -29.8366  -17.1518   20.0160 C   0  0  0  0  0  0
  -29.7845  -22.7207   22.4495 C   0  0  0  0  0  0
  -30.0533  -21.3405   21.8471 C   0  0  0  0  0  0
  -28.7119  -22.2356   19.9819 C   0  0  0  0  0  0
  -29.0867  -23.7367   20.4364 C   0  0  1  0  0  0
  -28.0657  -24.9146   20.0011 C   0  0  0  0  0  0
  -29.2979  -23.7637   21.8767 N   0  0  0  0  0  0
  -29.4730  -21.0812   20.6389 N   0  0  0  0  0  0
  -29.8548  -16.0550   17.8098 N   0  0  0  0  0  0
  -29.8411  -15.8289   20.6932 N   0  0  0  0  0  0
  -30.7674  -20.5428   22.4674 O   0  0  0  0  0  0
  -31.4737  -12.5215   19.1820 H   0  0  0  0  0  0
  -30.3596  -11.4417   19.9680 H   0  0  0  0  0  0
  -29.7796  -11.6642   17.5423 H   0  0  0  0  0  0
  -29.6564  -13.3927   17.6958 H   0  0  0  0  0  0
  -27.8698  -11.2706   18.9110 H   0  0  0  0  0  0
  -27.3882  -12.5113   17.7873 H   0  0  0  0  0  0
  -27.6449  -14.2484   19.4627 H   0  0  0  0  0  0
  -28.7009  -12.1421   21.4157 H   0  0  0  0  0  0
  -28.4160  -13.8204   21.7953 H   0  0  0  0  0  0
  -25.2756   -9.5723   22.4748 H   0  0  0  0  0  0
  -24.0027   -7.4666   22.7469 H   0  0  0  0  0  0
  -21.0841   -8.8815   19.8929 H   0  0  0  0  0  0
  -22.3728  -10.9699   19.6177 H   0  0  0  0  0  0
  -21.1993   -7.6118   23.9715 H   0  0  0  0  0  0
  -21.1485   -6.0475   25.9072 H   0  0  0  0  0  0
  -22.0622   -2.7594   23.2834 H   0  0  0  0  0  0
  -22.4074  -11.9949   22.4752 H   0  0  0  0  0  0
  -21.1103  -13.1384   22.2643 H   0  0  0  0  0  0
  -24.6914  -15.8666   20.5794 H   0  0  0  0  0  0
  -26.3002  -15.6259   20.1226 H   0  0  0  0  0  0
  -26.7213  -32.5416   23.1094 H   0  0  0  0  0  0
  -25.0047  -33.9700   25.0381 H   0  0  0  0  0  0
  -22.7225  -31.3022   21.3993 H   0  0  0  0  0  0
  -23.3763  -35.9599   23.3300 H   0  0  0  0  0  0
  -24.3580  -36.8910   22.2058 H   0  0  0  0  0  0
  -23.7222  -37.6475   23.6674 H   0  0  0  0  0  0
  -26.1118  -31.5349   20.6085 H   0  0  0  0  0  0
  -26.8502  -30.8200   22.0096 H   0  0  0  0  0  0
  -28.1188  -28.9352   21.2044 H   0  0  0  0  0  0
  -25.9449  -25.9187   18.9919 H   0  0  0  0  0  0
  -23.9725  -27.3157   18.9935 H   0  0  0  0  0  0
  -23.7651  -30.5957   19.4036 H   0  0  0  0  0  0
  -22.7611  -29.2505   19.8525 H   0  0  0  0  0  0
  -25.1289  -36.1930   25.0821 H   0  0  0  0  0  0
  -20.9960  -28.3279   24.1392 H   0  0  0  0  0  0
  -20.5645  -26.2316   23.3608 H   0  0  0  0  0  0
  -21.6648  -26.7426   22.1220 H   0  0  0  0  0  0
  -19.6906  -25.6286   21.1245 H   0  0  0  0  0  0
  -19.6688  -27.3172   20.6716 H   0  0  0  0  0  0
  -17.4194  -26.6667   21.4026 H   0  0  0  0  0  0
  -18.0338  -26.0089   22.9016 H   0  0  0  0  0  0
  -19.7958  -30.7272   24.2255 H   0  0  0  0  0  0
  -17.5039  -31.6277   24.5151 H   0  0  0  0  0  0
  -15.5365  -30.2986   23.7678 H   0  0  0  0  0  0
  -15.8673  -28.0824   22.7067 H   0  0  0  0  0  0
  -24.5866  -30.7132   25.7785 H   0  0  0  0  0  0
  -24.8936  -32.2916   26.4928 H   0  0  0  0  0  0
  -25.8027  -30.8893   27.0219 H   0  0  0  0  0  0
  -26.2918  -29.6781   24.1228 H   0  0  0  0  0  0
  -27.3992  -29.7288   25.4756 H   0  0  0  0  0  0
  -27.8814  -30.4311   23.9490 H   0  0  0  0  0  0
  -27.2650  -33.3640   26.2103 H   0  0  0  0  0  0
  -28.3839  -32.6933   25.0322 H   0  0  0  0  0  0
  -28.0742  -31.8474   26.5405 H   0  0  0  0  0  0
  -28.2592  -38.0096   24.7540 H   0  0  0  0  0  0
  -28.1077  -36.2640   24.6246 H   0  0  0  0  0  0
  -27.2313  -37.1398   25.8867 H   0  0  0  0  0  0
  -20.9401  -29.8786   21.6881 H   0  0  0  0  0  0
  -26.0161  -38.2857   24.1439 H   0  0  0  0  0  0
  -29.5465  -20.5402   17.9907 H   0  0  0  0  0  0
  -29.6695  -18.4524   16.8374 H   0  0  0  0  0  0
  -29.6726  -18.4093   21.7767 H   0  0  0  0  0  0
  -30.0478  -22.8144   23.5062 H   0  0  0  0  0  0
  -28.7971  -22.2133   18.8989 H   0  0  0  0  0  0
  -27.6539  -22.0637   20.1863 H   0  0  0  0  0  0
  -30.0415  -23.9730   19.9608 H   0  0  0  0  0  0
  -27.1238  -24.6748   20.4953 H   0  0  0  0  0  0
  -27.8879  -24.7838   18.9333 H   0  0  0  0  0  0
  -29.9595  -16.1953   16.8116 H   0  0  0  0  0  0
  -30.4664  -15.3185   18.1415 H   0  0  0  0  0  0
  -28.9759  -15.6121   21.1643 H   0  0  0  0  0  0
  1 25  1  0  0  0
  1 30  2  0  0  0
  1 85  1  0  0  0
  2  3  1  0  0  0
  2 25  1  0  0  0
  2 87  1  0  0  0
  2 88  1  0  0  0
  3  4  1  0  0  0
  3 89  1  0  0  0
  3 90  1  0  0  0
  4  5  1  0  0  0
  4 91  1  0  0  0
  4 92  1  0  0  0
  5  6  1  0  0  0
  5 26  1  0  0  0
  5 93  1  0  0  0
  6 25  1  0  0  0
  6 94  1  0  0  0
  6 95  1  0  0  0
  7  8  2  0  0  0
  7 26  1  0  0  0
  7 29  1  0  0  0
  8  9  1  0  0  0
  8 22  1  0  0  0
  9 10  1  0  0  0
  9 27  2  0  0  0
 10 11  2  0  0  0
 10 15  1  0  0  0
 11 12  1  0  0  0
 11 96  1  0  0  0
 12 13  2  0  0  0
 12 97  1  0  0  0
 13 14  1  0  0  0
 13 31  1  0  0  0
 14 15  2  0  0  0
 14 98  1  0  0  0
 15 99  1  0  0  0
 16 17  2  0  0  0
 16 21  1  0  0  0
 16 31  1  0  0  0
 17 18  1  0  0  0
 17100  1  0  0  0
 18 19  2  0  0  0
 18101  1  0  0  0
 19 20  1  0  0  0
 19 24  1  0  0  0
 20 21  2  0  0  0
 20102  1  0  0  0
 21 23  1  0  0  0
 22 28  1  0  0  0
 22 32  2  0  0  0
 26 27  1  0  0  0
 28103  1  0  0  0
 28104  1  0  0  0
 29105  1  0  0  0
 29106  1  0  0  0
 33 34  1  0  0  0
 33 66  1  0  0  0
 33 70  2  0  0  0
 34 36  1  0  0  0
 34 59  1  0  0  0
 34107  1  0  0  0
 35 44  2  0  0  0
 35 45  1  0  0  0
 35 68  1  0  0  0
 36 56  1  0  0  0
 36108  1  0  0  0
 37 39  1  0  0  0
 37 47  1  0  0  0
 37 66  1  0  0  0
 37109  1  0  0  0
 38 43  2  0  0  0
 38 46  1  0  0  0
 38 47  1  0  0  0
 39 64  1  0  0  0
 39 67  2  0  0  0
 40 52  1  0  0  0
 40 53  2  0  0  0
 40 58  1  0  0  0
 41110  1  0  0  0
 41111  1  0  0  0
 41112  1  0  0  0
 41 48  1  0  0  0
 42 43  1  0  0  0
 42 66  1  0  0  0
 42113  1  0  0  0
 42114  1  0  0  0
 43 44  1  0  0  0
 44115  1  0  0  0
 45 46  2  0  0  0
 45116  1  0  0  0
 46117  1  0  0  0
 47118  1  0  0  0
 47119  1  0  0  0
 48 56  1  0  0  0
 48 65  1  0  0  0
 48120  1  0  0  0
 49 50  1  0  0  0
 49 53  1  0  0  0
 49 64  1  0  0  0
 49121  1  0  0  0
 50 51  1  0  0  0
 50122  1  0  0  0
 50123  1  0  0  0
 51 52  1  0  0  0
 51124  1  0  0  0
 51125  1  0  0  0
 52126  1  0  0  0
 52127  1  0  0  0
 53 54  1  0  0  0
 54 55  2  0  0  0
 54128  1  0  0  0
 55 57  1  0  0  0
 55129  1  0  0  0
 56 69  2  0  0  0
 57 58  2  0  0  0
 57130  1  0  0  0
 58131  1  0  0  0
 59 60  1  0  0  0
 59 61  1  0  0  0
 59 62  1  0  0  0
 60132  1  0  0  0
 60133  1  0  0  0
 60134  1  0  0  0
 61135  1  0  0  0
 61136  1  0  0  0
 61137  1  0  0  0
 62138  1  0  0  0
 62139  1  0  0  0
 62140  1  0  0  0
 63 65  1  0  0  0
 63141  1  0  0  0
 63142  1  0  0  0
 63143  1  0  0  0
 64144  1  0  0  0
 65145  1  0  0  0
 68 81  1  0  0  0
 71 72  2  0  0  0
 71 74  1  0  0  0
 71146  1  0  0  0
 72 75  1  0  0  0
 72147  1  0  0  0
 73 74  2  0  0  0
 73 76  1  0  0  0
 73148  1  0  0  0
 74 83  1  0  0  0
 75 76  2  0  0  0
 75 84  1  0  0  0
 76 85  1  0  0  0
 77 78  1  0  0  0
 77 82  2  0  0  0
 77149  1  0  0  0
 78 83  1  0  0  0
 78 86  2  0  0  0
 79 80  1  0  0  0
 79 83  1  0  0  0
 79150  1  0  0  0
 79151  1  0  0  0
 80 81  1  0  0  0
 80 82  1  0  0  0
 80152  1  0  0  0
 81153  1  0  0  0
 81154  1  0  0  0
 84155  1  0  0  0
 84156  1  0  0  0
 85157  1  0  0  0
M  ISO  4   1 100  68 101  81 101  85 100
M  END
> <chiral flag>
0

> <version>
0

> <s_m_source_file>
/data/baiqing/PycharmProjects/Reinvent-master-3.2/result/LINK_invent/BTK/process_docking_weight1_custom_product_contain_oxygen_bond_distance_aromatic_linkinvent_7_9_3/rearranged_h_0067.sdf

> <i_m_source_file_index>
14

> <r_mmod_Potential_Energy-OPLS-2005>
211.589233398438

> <r_mmod_Stretch_Energy-OPLS-2005>
130.899353027344

> <r_mmod_Bend_Energy-OPLS-2005>
160.376083374023

> <r_mmod_Torsional_Energy-OPLS-2005>
292.759033203125

> <r_mmod_Improper_Torsional_Energy-OPLS-2005>
10.2139339447021

> <r_mmod_Van_der_Waal_Energy-OPLS-2005>
175.622116088867

> <r_mmod_Electrostatic_Energy-OPLS-2005>
-390.679077148438

> <r_mmod_Solvation_Energy-OPLS-2005>
-244.002410888672

> <b_mmod_Minimization_Converged-OPLS-2005>
0

> <r_mmod_RMS_Derivative-OPLS-2005>
2.70433592796326

$$$$
14
                    3D
 Structure written by MMmdl.
157165  0  0  1  0            999 V2000
  -30.7468  -14.4474   20.5615 C   0  0  0  0  0  0
  -30.4049  -12.2827   19.4436 C   0  0  0  0  0  0
  -29.4972  -12.5078   18.2200 C   0  0  0  0  0  0
  -28.0164  -12.3837   18.6215 C   0  0  0  0  0  0
  -27.6632  -13.2198   19.8813 C   0  0  2  0  0  0
  -28.7013  -13.0306   21.0113 C   0  0  0  0  0  0
  -25.2615  -13.8164   20.5738 C   0  0  0  0  0  0
  -24.1851  -13.0414   20.9182 C   0  0  0  0  0  0
  -24.6422  -11.6891   20.8751 C   0  0  0  0  0  0
  -23.9065  -10.4280   21.0411 C   0  0  0  0  0  0
  -24.3601   -9.4193   21.9188 C   0  0  0  0  0  0
  -23.6283   -8.2232   22.0754 C   0  0  0  0  0  0
  -22.4282   -8.0263   21.3538 C   0  0  0  0  0  0
  -21.9905   -9.0242   20.4658 C   0  0  0  0  0  0
  -22.7222  -10.2131   20.3080 C   0  0  0  0  0  0
  -21.6880   -6.0712   22.5277 C   0  0  0  0  0  0
  -21.4008   -6.5623   23.8193 C   0  0  0  0  0  0
  -21.3666   -5.6790   24.9161 C   0  0  0  0  0  0
  -21.6052   -4.3054   24.7227 C   0  0  0  0  0  0
  -21.8825   -3.8124   23.4359 C   0  0  0  0  0  0
  -21.9187   -4.6930   22.3398 C   0  0  0  0  0  0
  -22.7878  -13.5213   21.1857 C   0  0  0  0  0  0
  -22.1680   -4.2101   21.0988 F   0  0  0  0  0  0
  -21.5625   -3.4554   25.7751 F   0  0  0  0  0  0
  -30.0374  -13.2913   20.4547 N   0  0  0  0  0  0
  -26.3049  -12.9367   20.3416 N   0  0  0  0  0  0
  -25.9355  -11.6509   20.5765 N   0  0  0  0  0  0
  -22.0514  -12.8233   22.0440 N   0  0  0  0  0  0
  -25.4402  -15.1861   20.4206 N   0  0  0  0  0  0
  -31.8880  -14.5371   20.1029 O   0  0  0  0  0  0
  -21.6662   -6.8856   21.4239 O   0  0  0  0  0  0
  -22.3584  -14.5541   20.6734 O   0  0  0  0  0  0
  -24.6062  -31.8725   23.2142 C   0  0  0  0  0  0
  -25.8983  -32.4836   23.8437 C   0  0  1  0  0  0
  -27.2378  -27.4866   20.0844 C   0  0  0  0  0  0
  -25.5907  -33.8641   24.2382 N   0  0  0  0  0  0
  -23.3905  -30.4988   21.5535 C   0  0  2  0  0  0
  -24.8402  -28.9758   20.1076 C   0  0  0  0  0  0
  -22.7432  -29.4660   22.5021 C   0  0  0  0  0  0
  -18.0319  -28.1460   22.8467 C   0  0  0  0  0  0
  -24.1501  -36.7290   23.2650 C   0  0  0  0  0  0
  -25.9155  -30.8546   21.3613 C   0  0  0  0  0  0
  -25.9927  -29.4946   20.7061 C   0  0  0  0  0  0
  -27.1924  -28.7549   20.6967 C   0  0  0  0  0  0
  -26.0645  -26.9714   19.4805 C   0  0  0  0  0  0
  -24.8682  -27.7123   19.4924 C   0  0  0  0  0  0
  -23.5943  -29.8318   20.1632 C   0  0  0  0  0  0
  -25.4106  -36.3088   24.0354 C   0  0  1  0  0  0
  -20.5881  -28.3660   23.1368 C   0  0  2  0  0  0
  -20.6756  -26.9415   22.5432 C   0  0  0  0  0  0
  -19.5817  -26.6576   21.5110 C   0  0  0  0  0  0
  -18.1928  -26.8100   22.1404 C   0  0  0  0  0  0
  -19.1576  -28.8838   23.2972 C   0  0  0  0  0  0
  -18.9524  -30.1412   23.9056 C   0  0  0  0  0  0
  -17.6536  -30.6584   24.0732 C   0  0  0  0  0  0
  -25.9023  -34.9470   23.5148 C   0  0  0  0  0  0
  -16.5408  -29.9129   23.6457 C   0  0  0  0  0  0
  -16.7304  -28.6593   23.0384 C   0  0  0  0  0  0
  -26.4464  -31.6562   25.0715 C   0  0  0  0  0  0
  -25.3779  -31.3659   26.1491 C   0  0  0  0  0  0
  -27.0325  -30.3024   24.6054 C   0  0  0  0  0  0
  -27.6069  -32.4249   25.7447 C   0  0  0  0  0  0
  -27.5571  -37.1791   24.8464 C   0  0  0  0  0  0
  -21.4152  -29.3045   22.3807 N   0  0  0  0  0  0
  -26.4276  -37.3760   23.9422 N   0  0  0  0  0  0
  -24.6552  -31.0885   22.1013 N   0  0  0  0  0  0
  -23.4270  -28.8181   23.2995 O   0  0  0  0  0  0
  -28.4384  -26.8202   20.0799 O   0  0  0  0  0  0
  -26.5613  -34.8908   22.4725 O   0  0  0  0  0  0
  -23.5289  -32.1457   23.7580 O   0  0  0  0  0  0
  -31.6838  -18.7515   19.8876 C   0  0  0  0  0  0
  -30.7932  -19.6871   20.4235 C   0  0  0  0  0  0
  -31.4881  -17.3850   20.1207 C   0  0  0  0  0  0
  -29.4781  -17.8777   21.4050 C   0  0  0  0  0  0
  -29.6756  -19.2641   21.1795 C   0  0  0  0  0  0
  -30.3794  -16.9119   20.8792 C   0  0  0  0  0  0
  -29.3099  -22.6686   21.2539 C   0  0  0  0  0  0
  -28.6771  -20.2993   21.7082 C   0  0  0  0  0  0
  -30.0011  -23.4061   20.1024 C   0  0  0  0  0  0
  -29.8561  -24.9309   20.0940 C   0  0  0  0  0  0
  -28.4139  -25.4106   19.9342 C   0  0  0  0  0  0
  -30.1089  -15.5115   21.0941 N   0  0  0  0  0  0
  -28.7115  -21.5233   20.9082 N   0  0  0  0  0  0
  -29.4021  -23.0698   22.4160 O   0  0  0  0  0  0
  -31.4548  -12.3328   19.1477 H   0  0  0  0  0  0
  -30.2648  -11.2780   19.8442 H   0  0  0  0  0  0
  -29.7361  -11.7941   17.4291 H   0  0  0  0  0  0
  -29.6853  -13.4978   17.8046 H   0  0  0  0  0  0
  -27.8042  -11.3295   18.7929 H   0  0  0  0  0  0
  -27.3805  -12.6915   17.7903 H   0  0  0  0  0  0
  -27.7026  -14.2684   19.5820 H   0  0  0  0  0  0
  -28.6666  -12.0130   21.4024 H   0  0  0  0  0  0
  -28.4742  -13.6802   21.8563 H   0  0  0  0  0  0
  -25.2750   -9.5691   22.4752 H   0  0  0  0  0  0
  -24.0002   -7.4641   22.7490 H   0  0  0  0  0  0
  -21.0818   -8.8746   19.8999 H   0  0  0  0  0  0
  -22.3642  -10.9661   19.6204 H   0  0  0  0  0  0
  -21.2026   -7.6143   23.9672 H   0  0  0  0  0  0
  -21.1492   -6.0543   25.9058 H   0  0  0  0  0  0
  -22.0610   -2.7589   23.2883 H   0  0  0  0  0  0
  -22.4115  -11.9858   22.4770 H   0  0  0  0  0  0
  -21.1143  -13.1298   22.2681 H   0  0  0  0  0  0
  -24.6869  -15.8531   20.5413 H   0  0  0  0  0  0
  -26.3098  -15.6159   20.1264 H   0  0  0  0  0  0
  -26.7065  -32.5596   23.1232 H   0  0  0  0  0  0
  -24.9980  -33.9831   25.0466 H   0  0  0  0  0  0
  -22.6760  -31.3159   21.4206 H   0  0  0  0  0  0
  -23.3731  -35.9647   23.3302 H   0  0  0  0  0  0
  -24.3583  -36.8905   22.2062 H   0  0  0  0  0  0
  -23.7299  -37.6511   23.6664 H   0  0  0  0  0  0
  -26.0342  -31.6227   20.5943 H   0  0  0  0  0  0
  -26.7993  -30.9005   21.9821 H   0  0  0  0  0  0
  -28.0862  -29.1553   21.1595 H   0  0  0  0  0  0
  -26.0657  -26.0165   18.9764 H   0  0  0  0  0  0
  -23.9799  -27.3094   19.0241 H   0  0  0  0  0  0
  -23.6817  -30.6095   19.4041 H   0  0  0  0  0  0
  -22.7263  -29.2357   19.8759 H   0  0  0  0  0  0
  -25.1280  -36.1947   25.0844 H   0  0  0  0  0  0
  -20.9989  -28.3191   24.1480 H   0  0  0  0  0  0
  -20.5591  -26.2198   23.3539 H   0  0  0  0  0  0
  -21.6674  -26.7540   22.1301 H   0  0  0  0  0  0
  -19.7067  -25.6605   21.0882 H   0  0  0  0  0  0
  -19.6942  -27.3605   20.6848 H   0  0  0  0  0  0
  -17.4259  -26.6973   21.3719 H   0  0  0  0  0  0
  -18.0191  -26.0179   22.8678 H   0  0  0  0  0  0
  -19.8014  -30.7192   24.2451 H   0  0  0  0  0  0
  -17.5097  -31.6252   24.5327 H   0  0  0  0  0  0
  -15.5432  -30.3053   23.7804 H   0  0  0  0  0  0
  -15.8671  -28.0987   22.7010 H   0  0  0  0  0  0
  -24.5949  -30.7010   25.7836 H   0  0  0  0  0  0
  -24.8984  -32.2817   26.4953 H   0  0  0  0  0  0
  -25.8153  -30.8828   27.0236 H   0  0  0  0  0  0
  -26.2894  -29.6737   24.1132 H   0  0  0  0  0  0
  -27.4192  -29.7281   25.4488 H   0  0  0  0  0  0
  -27.8672  -30.4387   23.9169 H   0  0  0  0  0  0
  -27.2732  -33.3540   26.2073 H   0  0  0  0  0  0
  -28.3815  -32.6791   25.0201 H   0  0  0  0  0  0
  -28.0778  -31.8319   26.5299 H   0  0  0  0  0  0
  -28.2585  -38.0080   24.7461 H   0  0  0  0  0  0
  -28.1066  -36.2612   24.6313 H   0  0  0  0  0  0
  -27.2306  -37.1471   25.8870 H   0  0  0  0  0  0
  -20.9226  -29.8921   21.7214 H   0  0  0  0  0  0
  -26.0156  -38.2845   24.1336 H   0  0  0  0  0  0
  -32.5171  -19.0940   19.2896 H   0  0  0  0  0  0
  -30.9927  -20.7295   20.2218 H   0  0  0  0  0  0
  -32.2229  -16.7379   19.6697 H   0  0  0  0  0  0
  -28.6085  -17.5660   21.9705 H   0  0  0  0  0  0
  -28.8797  -20.5003   22.7631 H   0  0  0  0  0  0
  -27.6673  -19.8873   21.6562 H   0  0  0  0  0  0
  -29.6539  -23.0064   19.1492 H   0  0  0  0  0  0
  -31.0647  -23.1691   20.1509 H   0  0  0  0  0  0
  -30.4380  -25.3055   19.2486 H   0  0  0  0  0  0
  -30.3091  -25.3668   20.9858 H   0  0  0  0  0  0
  -27.7641  -24.9753   20.6957 H   0  0  0  0  0  0
  -28.0476  -25.1165   18.9495 H   0  0  0  0  0  0
  -29.2335  -15.2924   21.5456 H   0  0  0  0  0  0
  -28.6265  -21.3630   19.9130 H   0  0  0  0  0  0
  1 25  1  0  0  0
  1 30  2  0  0  0
  1 82  1  0  0  0
  2  3  1  0  0  0
  2 25  1  0  0  0
  2 85  1  0  0  0
  2 86  1  0  0  0
  3  4  1  0  0  0
  3 87  1  0  0  0
  3 88  1  0  0  0
  4  5  1  0  0  0
  4 89  1  0  0  0
  4 90  1  0  0  0
  5  6  1  0  0  0
  5 26  1  0  0  0
  5 91  1  0  0  0
  6 25  1  0  0  0
  6 92  1  0  0  0
  6 93  1  0  0  0
  7  8  2  0  0  0
  7 26  1  0  0  0
  7 29  1  0  0  0
  8  9  1  0  0  0
  8 22  1  0  0  0
  9 10  1  0  0  0
  9 27  2  0  0  0
 10 11  2  0  0  0
 10 15  1  0  0  0
 11 12  1  0  0  0
 11 94  1  0  0  0
 12 13  2  0  0  0
 12 95  1  0  0  0
 13 14  1  0  0  0
 13 31  1  0  0  0
 14 15  2  0  0  0
 14 96  1  0  0  0
 15 97  1  0  0  0
 16 17  2  0  0  0
 16 21  1  0  0  0
 16 31  1  0  0  0
 17 18  1  0  0  0
 17 98  1  0  0  0
 18 19  2  0  0  0
 18 99  1  0  0  0
 19 20  1  0  0  0
 19 24  1  0  0  0
 20 21  2  0  0  0
 20100  1  0  0  0
 21 23  1  0  0  0
 22 28  1  0  0  0
 22 32  2  0  0  0
 26 27  1  0  0  0
 28101  1  0  0  0
 28102  1  0  0  0
 29103  1  0  0  0
 29104  1  0  0  0
 33 34  1  0  0  0
 33 66  1  0  0  0
 33 70  2  0  0  0
 34 36  1  0  0  0
 34 59  1  0  0  0
 34105  1  0  0  0
 35 44  2  0  0  0
 35 45  1  0  0  0
 35 68  1  0  0  0
 36 56  1  0  0  0
 36106  1  0  0  0
 37 39  1  0  0  0
 37 47  1  0  0  0
 37 66  1  0  0  0
 37107  1  0  0  0
 38 43  2  0  0  0
 38 46  1  0  0  0
 38 47  1  0  0  0
 39 64  1  0  0  0
 39 67  2  0  0  0
 40 52  1  0  0  0
 40 53  2  0  0  0
 40 58  1  0  0  0
 41108  1  0  0  0
 41109  1  0  0  0
 41110  1  0  0  0
 41 48  1  0  0  0
 42 43  1  0  0  0
 42 66  1  0  0  0
 42111  1  0  0  0
 42112  1  0  0  0
 43 44  1  0  0  0
 44113  1  0  0  0
 45 46  2  0  0  0
 45114  1  0  0  0
 46115  1  0  0  0
 47116  1  0  0  0
 47117  1  0  0  0
 48 56  1  0  0  0
 48 65  1  0  0  0
 48118  1  0  0  0
 49 50  1  0  0  0
 49 53  1  0  0  0
 49 64  1  0  0  0
 49119  1  0  0  0
 50 51  1  0  0  0
 50120  1  0  0  0
 50121  1  0  0  0
 51 52  1  0  0  0
 51122  1  0  0  0
 51123  1  0  0  0
 52124  1  0  0  0
 52125  1  0  0  0
 53 54  1  0  0  0
 54 55  2  0  0  0
 54126  1  0  0  0
 55 57  1  0  0  0
 55127  1  0  0  0
 56 69  2  0  0  0
 57 58  2  0  0  0
 57128  1  0  0  0
 58129  1  0  0  0
 59 60  1  0  0  0
 59 61  1  0  0  0
 59 62  1  0  0  0
 60130  1  0  0  0
 60131  1  0  0  0
 60132  1  0  0  0
 61133  1  0  0  0
 61134  1  0  0  0
 61135  1  0  0  0
 62136  1  0  0  0
 62137  1  0  0  0
 62138  1  0  0  0
 63 65  1  0  0  0
 63139  1  0  0  0
 63140  1  0  0  0
 63141  1  0  0  0
 64142  1  0  0  0
 65143  1  0  0  0
 68 81  1  0  0  0
 71 72  2  0  0  0
 71 73  1  0  0  0
 71144  1  0  0  0
 72 75  1  0  0  0
 72145  1  0  0  0
 73 76  2  0  0  0
 73146  1  0  0  0
 74 75  2  0  0  0
 74 76  1  0  0  0
 74147  1  0  0  0
 75 78  1  0  0  0
 76 82  1  0  0  0
 77 79  1  0  0  0
 77 83  1  0  0  0
 77 84  2  0  0  0
 78 83  1  0  0  0
 78148  1  0  0  0
 78149  1  0  0  0
 79 80  1  0  0  0
 79150  1  0  0  0
 79151  1  0  0  0
 80 81  1  0  0  0
 80152  1  0  0  0
 80153  1  0  0  0
 81154  1  0  0  0
 81155  1  0  0  0
 82156  1  0  0  0
 83157  1  0  0  0
M  ISO  4   1 100  68 101  81 101  82 100
M  END
> <chiral flag>
0

> <version>
0

> <s_m_source_file>
/data/baiqing/PycharmProjects/Reinvent-master-3.2/result/LINK_invent/BTK/process_docking_weight1_custom_product_contain_oxygen_bond_distance_aromatic_linkinvent_7_9_3/rearranged_h_0067.sdf

> <i_m_source_file_index>
15

> <r_mmod_Potential_Energy-OPLS-2005>
-165.289016723633

> <r_mmod_Stretch_Energy-OPLS-2005>
35.4242286682129

> <r_mmod_Bend_Energy-OPLS-2005>
102.426948547363

> <r_mmod_Torsional_Energy-OPLS-2005>
210.467224121094

> <r_mmod_Improper_Torsional_Energy-OPLS-2005>
5.59003734588623

> <r_mmod_Van_der_Waal_Energy-OPLS-2005>
172.608367919922

> <r_mmod_Electrostatic_Energy-OPLS-2005>
-465.573211669922

> <r_mmod_Solvation_Energy-OPLS-2005>
-240.933349609375

> <b_mmod_Minimization_Converged-OPLS-2005>
0

> <r_mmod_RMS_Derivative-OPLS-2005>
6.16086769104004

$$$$
15
                    3D
 Structure written by MMmdl.
151159  0  0  1  0            999 V2000
  -30.6197  -14.7111   20.4502 C   0  0  0  0  0  0
  -30.4310  -12.4208   19.4960 C   0  0  0  0  0  0
  -29.5253  -12.5170   18.2481 C   0  0  0  0  0  0
  -28.0428  -12.3536   18.6418 C   0  0  0  0  0  0
  -27.6501  -13.2359   19.8581 C   0  0  2  0  0  0
  -28.6874  -13.1497   21.0007 C   0  0  0  0  0  0
  -25.2558  -13.8211   20.5710 C   0  0  0  0  0  0
  -24.1834  -13.0444   20.9191 C   0  0  0  0  0  0
  -24.6430  -11.6928   20.8731 C   0  0  0  0  0  0
  -23.9107  -10.4301   21.0384 C   0  0  0  0  0  0
  -24.3651   -9.4206   21.9165 C   0  0  0  0  0  0
  -23.6312   -8.2246   22.0747 C   0  0  0  0  0  0
  -22.4288   -8.0288   21.3543 C   0  0  0  0  0  0
  -21.9932   -9.0267   20.4647 C   0  0  0  0  0  0
  -22.7281  -10.2136   20.3038 C   0  0  0  0  0  0
  -21.6854   -6.0734   22.5276 C   0  0  0  0  0  0
  -21.4024   -6.5634   23.8216 C   0  0  0  0  0  0
  -21.3662   -5.6784   24.9174 C   0  0  0  0  0  0
  -21.6045   -4.3050   24.7219 C   0  0  0  0  0  0
  -21.8824   -3.8141   23.4344 C   0  0  0  0  0  0
  -21.9202   -4.6961   22.3403 C   0  0  0  0  0  0
  -22.7851  -13.5211   21.1847 C   0  0  0  0  0  0
  -22.1661   -4.2148   21.0977 F   0  0  0  0  0  0
  -21.5632   -3.4534   25.7732 F   0  0  0  0  0  0
  -29.9999  -13.4834   20.4331 N   0  0  0  0  0  0
  -26.2988  -12.9427   20.3277 N   0  0  0  0  0  0
  -25.9367  -11.6565   20.5735 N   0  0  0  0  0  0
  -22.0512  -12.8194   22.0416 N   0  0  0  0  0  0
  -25.4287  -15.1940   20.4207 N   0  0  0  0  0  0
  -31.7975  -14.8066   20.0899 O   0  0  0  0  0  0
  -21.6639   -6.8886   21.4238 O   0  0  0  0  0  0
  -22.3524  -14.5512   20.6689 O   0  0  0  0  0  0
  -24.6353  -31.8557   23.2001 C   0  0  0  0  0  0
  -25.9157  -32.4787   23.8358 C   0  0  1  0  0  0
  -27.2070  -27.2576   20.1141 C   0  0  0  0  0  0
  -25.5936  -33.8586   24.2279 N   0  0  0  0  0  0
  -23.4316  -30.4831   21.5439 C   0  0  2  0  0  0
  -24.8741  -28.9377   20.1076 C   0  0  0  0  0  0
  -22.7548  -29.4605   22.4904 C   0  0  0  0  0  0
  -18.0301  -28.1407   22.8503 C   0  0  0  0  0  0
  -24.1483  -36.7280   23.2638 C   0  0  0  0  0  0
  -25.9823  -30.7707   21.3774 C   0  0  0  0  0  0
  -26.0516  -29.3961   20.7113 C   0  0  0  0  0  0
  -27.2251  -28.5718   20.6941 C   0  0  0  0  0  0
  -25.9986  -26.8689   19.4886 C   0  0  0  0  0  0
  -24.8538  -27.6842   19.4829 C   0  0  0  0  0  0
  -23.6488  -29.8280   20.1575 C   0  0  0  0  0  0
  -25.4116  -36.3099   24.0336 C   0  0  1  0  0  0
  -20.5919  -28.3695   23.1277 C   0  0  2  0  0  0
  -20.6793  -26.9412   22.5408 C   0  0  0  0  0  0
  -19.5758  -26.6392   21.5223 C   0  0  0  0  0  0
  -18.1935  -26.7959   22.1632 C   0  0  0  0  0  0
  -19.1559  -28.8869   23.2891 C   0  0  0  0  0  0
  -18.9464  -30.1470   23.8916 C   0  0  0  0  0  0
  -17.6458  -30.6598   24.0565 C   0  0  0  0  0  0
  -25.9055  -34.9465   23.5112 C   0  0  0  0  0  0
  -16.5351  -29.9098   23.6327 C   0  0  0  0  0  0
  -16.7287  -28.6515   23.0367 C   0  0  0  0  0  0
  -26.4497  -31.6631   25.0761 C   0  0  0  0  0  0
  -25.3702  -31.3776   26.1465 C   0  0  0  0  0  0
  -27.0322  -30.3055   24.6226 C   0  0  0  0  0  0
  -27.6062  -32.4369   25.7516 C   0  0  0  0  0  0
  -27.5589  -37.1802   24.8474 C   0  0  0  0  0  0
  -21.4247  -29.3039   22.3670 N   0  0  0  0  0  0
  -26.4291  -37.3786   23.9427 N   0  0  0  0  0  0
  -24.7033  -31.0540   22.0965 N   0  0  0  0  0  0
  -23.4250  -28.8126   23.2983 O   0  0  0  0  0  0
  -28.2909  -26.3468   20.1705 O   0  0  0  0  0  0
  -26.5614  -34.8922   22.4670 O   0  0  0  0  0  0
  -23.5499  -32.1341   23.7302 O   0  0  0  0  0  0
  -29.5788  -18.4673   20.5943 C   0  0  0  0  0  0
  -30.2992  -17.1798   18.6584 C   0  0  0  0  0  0
  -29.9361  -17.1710   20.0236 C   0  0  0  0  0  0
  -29.6068  -19.7197   19.8418 C   0  0  0  0  0  0
  -30.3441  -18.3703   17.9112 C   0  0  0  0  0  0
  -30.0236  -19.6152   18.4880 C   0  0  0  0  0  0
  -28.7984  -22.2020   19.8166 C   0  0  0  0  0  0
  -29.0557  -23.6968   20.3444 C   0  0  0  0  0  0
  -28.0101  -24.8771   19.9752 C   0  0  0  0  0  0
  -29.3593  -21.0773   20.4090 N   0  0  0  0  0  0
  -29.8697  -15.8508   20.7046 N   0  0  0  0  0  0
  -28.0438  -22.0684   18.8506 O   0  0  0  0  0  0
  -30.7227  -18.3159   16.6110 F   0  0  0  0  0  0
  -30.1767  -20.7220   17.7211 F   0  0  0  0  0  0
  -31.4813  -12.5151   19.2129 H   0  0  0  0  0  0
  -30.3381  -11.4384   19.9648 H   0  0  0  0  0  0
  -29.8088  -11.7601   17.5163 H   0  0  0  0  0  0
  -29.6756  -13.4833   17.7639 H   0  0  0  0  0  0
  -27.8804  -11.3025   18.8808 H   0  0  0  0  0  0
  -27.3993  -12.5758   17.7897 H   0  0  0  0  0  0
  -27.6532  -14.2652   19.4971 H   0  0  0  0  0  0
  -28.7044  -12.1494   21.4363 H   0  0  0  0  0  0
  -28.4264  -13.8315   21.8125 H   0  0  0  0  0  0
  -25.2804   -9.5662   22.4737 H   0  0  0  0  0  0
  -24.0017   -7.4627   22.7458 H   0  0  0  0  0  0
  -21.0859   -8.8802   19.8949 H   0  0  0  0  0  0
  -22.3752  -10.9676   19.6138 H   0  0  0  0  0  0
  -21.2013   -7.6145   23.9722 H   0  0  0  0  0  0
  -21.1478   -6.0508   25.9080 H   0  0  0  0  0  0
  -22.0606   -2.7600   23.2840 H   0  0  0  0  0  0
  -22.4128  -11.9853   22.4793 H   0  0  0  0  0  0
  -21.1131  -13.1215   22.2629 H   0  0  0  0  0  0
  -24.6718  -15.8562   20.5539 H   0  0  0  0  0  0
  -26.2880  -15.6336   20.1175 H   0  0  0  0  0  0
  -26.7238  -32.5429   23.1116 H   0  0  0  0  0  0
  -25.0148  -33.9743   25.0469 H   0  0  0  0  0  0
  -22.7262  -31.3048   21.4044 H   0  0  0  0  0  0
  -23.3771  -35.9592   23.3309 H   0  0  0  0  0  0
  -24.3559  -36.8871   22.2045 H   0  0  0  0  0  0
  -23.7194  -37.6472   23.6637 H   0  0  0  0  0  0
  -26.1246  -31.5347   20.6121 H   0  0  0  0  0  0
  -26.8610  -30.8181   22.0100 H   0  0  0  0  0  0
  -28.1350  -28.9223   21.1600 H   0  0  0  0  0  0
  -25.8914  -25.9090   19.0076 H   0  0  0  0  0  0
  -23.9510  -27.3288   19.0036 H   0  0  0  0  0  0
  -23.7789  -30.6093   19.4072 H   0  0  0  0  0  0
  -22.7662  -29.2663   19.8493 H   0  0  0  0  0  0
  -25.1288  -36.1950   25.0828 H   0  0  0  0  0  0
  -21.0011  -28.3264   24.1399 H   0  0  0  0  0  0
  -20.5692  -26.2302   23.3609 H   0  0  0  0  0  0
  -21.6653  -26.7441   22.1178 H   0  0  0  0  0  0
  -19.6891  -25.6295   21.1266 H   0  0  0  0  0  0
  -19.6694  -27.3202   20.6751 H   0  0  0  0  0  0
  -17.4199  -26.6721   21.4035 H   0  0  0  0  0  0
  -18.0309  -26.0108   22.9031 H   0  0  0  0  0  0
  -19.7927  -30.7296   24.2303 H   0  0  0  0  0  0
  -17.4996  -31.6280   24.5164 H   0  0  0  0  0  0
  -15.5350  -30.2996   23.7643 H   0  0  0  0  0  0
  -15.8692  -28.0827   22.7091 H   0  0  0  0  0  0
  -24.5915  -30.7080   25.7789 H   0  0  0  0  0  0
  -24.8837  -32.2932   26.4846 H   0  0  0  0  0  0
  -25.8001  -30.8993   27.0276 H   0  0  0  0  0  0
  -26.2884  -29.6842   24.1220 H   0  0  0  0  0  0
  -27.3977  -29.7288   25.4733 H   0  0  0  0  0  0
  -27.8788  -30.4348   23.9479 H   0  0  0  0  0  0
  -27.2704  -33.3703   26.2044 H   0  0  0  0  0  0
  -28.3883  -32.6871   25.0341 H   0  0  0  0  0  0
  -28.0717  -31.8519   26.5455 H   0  0  0  0  0  0
  -28.2610  -38.0100   24.7548 H   0  0  0  0  0  0
  -28.1078  -36.2635   24.6271 H   0  0  0  0  0  0
  -27.2308  -37.1411   25.8874 H   0  0  0  0  0  0
  -20.9437  -29.8774   21.6887 H   0  0  0  0  0  0
  -26.0186  -38.2865   24.1442 H   0  0  0  0  0  0
  -29.2844  -18.5043   21.6326 H   0  0  0  0  0  0
  -30.5467  -16.2618   18.1477 H   0  0  0  0  0  0
  -30.0207  -23.9834   19.9274 H   0  0  0  0  0  0
  -29.2016  -23.6705   21.4238 H   0  0  0  0  0  0
  -27.7318  -24.7373   18.9293 H   0  0  0  0  0  0
  -27.1126  -24.6525   20.5533 H   0  0  0  0  0  0
  -29.7532  -21.2338   21.3264 H   0  0  0  0  0  0
  -29.0317  -15.6886   21.2445 H   0  0  0  0  0  0
  1 25  1  0  0  0
  1 30  2  0  0  0
  1 81  1  0  0  0
  2  3  1  0  0  0
  2 25  1  0  0  0
  2 85  1  0  0  0
  2 86  1  0  0  0
  3  4  1  0  0  0
  3 87  1  0  0  0
  3 88  1  0  0  0
  4  5  1  0  0  0
  4 89  1  0  0  0
  4 90  1  0  0  0
  5  6  1  0  0  0
  5 26  1  0  0  0
  5 91  1  0  0  0
  6 25  1  0  0  0
  6 92  1  0  0  0
  6 93  1  0  0  0
  7  8  2  0  0  0
  7 26  1  0  0  0
  7 29  1  0  0  0
  8  9  1  0  0  0
  8 22  1  0  0  0
  9 10  1  0  0  0
  9 27  2  0  0  0
 10 11  2  0  0  0
 10 15  1  0  0  0
 11 12  1  0  0  0
 11 94  1  0  0  0
 12 13  2  0  0  0
 12 95  1  0  0  0
 13 14  1  0  0  0
 13 31  1  0  0  0
 14 15  2  0  0  0
 14 96  1  0  0  0
 15 97  1  0  0  0
 16 17  2  0  0  0
 16 21  1  0  0  0
 16 31  1  0  0  0
 17 18  1  0  0  0
 17 98  1  0  0  0
 18 19  2  0  0  0
 18 99  1  0  0  0
 19 20  1  0  0  0
 19 24  1  0  0  0
 20 21  2  0  0  0
 20100  1  0  0  0
 21 23  1  0  0  0
 22 28  1  0  0  0
 22 32  2  0  0  0
 26 27  1  0  0  0
 28101  1  0  0  0
 28102  1  0  0  0
 29103  1  0  0  0
 29104  1  0  0  0
 33 34  1  0  0  0
 33 66  1  0  0  0
 33 70  2  0  0  0
 34 36  1  0  0  0
 34 59  1  0  0  0
 34105  1  0  0  0
 35 44  2  0  0  0
 35 45  1  0  0  0
 35 68  1  0  0  0
 36 56  1  0  0  0
 36106  1  0  0  0
 37 39  1  0  0  0
 37 47  1  0  0  0
 37 66  1  0  0  0
 37107  1  0  0  0
 38 43  2  0  0  0
 38 46  1  0  0  0
 38 47  1  0  0  0
 39 64  1  0  0  0
 39 67  2  0  0  0
 40 52  1  0  0  0
 40 53  2  0  0  0
 40 58  1  0  0  0
 41108  1  0  0  0
 41109  1  0  0  0
 41110  1  0  0  0
 41 48  1  0  0  0
 42 43  1  0  0  0
 42 66  1  0  0  0
 42111  1  0  0  0
 42112  1  0  0  0
 43 44  1  0  0  0
 44113  1  0  0  0
 45 46  2  0  0  0
 45114  1  0  0  0
 46115  1  0  0  0
 47116  1  0  0  0
 47117  1  0  0  0
 48 56  1  0  0  0
 48 65  1  0  0  0
 48118  1  0  0  0
 49 50  1  0  0  0
 49 53  1  0  0  0
 49 64  1  0  0  0
 49119  1  0  0  0
 50 51  1  0  0  0
 50120  1  0  0  0
 50121  1  0  0  0
 51 52  1  0  0  0
 51122  1  0  0  0
 51123  1  0  0  0
 52124  1  0  0  0
 52125  1  0  0  0
 53 54  1  0  0  0
 54 55  2  0  0  0
 54126  1  0  0  0
 55 57  1  0  0  0
 55127  1  0  0  0
 56 69  2  0  0  0
 57 58  2  0  0  0
 57128  1  0  0  0
 58129  1  0  0  0
 59 60  1  0  0  0
 59 61  1  0  0  0
 59 62  1  0  0  0
 60130  1  0  0  0
 60131  1  0  0  0
 60132  1  0  0  0
 61133  1  0  0  0
 61134  1  0  0  0
 61135  1  0  0  0
 62136  1  0  0  0
 62137  1  0  0  0
 62138  1  0  0  0
 63 65  1  0  0  0
 63139  1  0  0  0
 63140  1  0  0  0
 63141  1  0  0  0
 64142  1  0  0  0
 65143  1  0  0  0
 68 79  1  0  0  0
 71 73  2  0  0  0
 71 74  1  0  0  0
 71144  1  0  0  0
 72 73  1  0  0  0
 72 75  2  0  0  0
 72145  1  0  0  0
 73 81  1  0  0  0
 74 76  2  0  0  0
 74 80  1  0  0  0
 75 76  1  0  0  0
 75 83  1  0  0  0
 76 84  1  0  0  0
 77 78  1  0  0  0
 77 80  1  0  0  0
 77 82  2  0  0  0
 78 79  1  0  0  0
 78146  1  0  0  0
 78147  1  0  0  0
 79148  1  0  0  0
 79149  1  0  0  0
 80150  1  0  0  0
 81151  1  0  0  0
M  ISO  4   1 100  68 101  79 101  81 100
M  END
> <chiral flag>
0

> <version>
0

> <s_m_source_file>
/data/baiqing/PycharmProjects/Reinvent-master-3.2/result/LINK_invent/BTK/process_docking_weight1_custom_product_contain_oxygen_bond_distance_aromatic_linkinvent_7_9_3/rearranged_h_0067.sdf

> <i_m_source_file_index>
16

> <r_mmod_Potential_Energy-OPLS-2005>
160.08561706543

> <r_mmod_Stretch_Energy-OPLS-2005>
125.210174560547

> <r_mmod_Bend_Energy-OPLS-2005>
153.561889648438

> <r_mmod_Torsional_Energy-OPLS-2005>
258.341522216797

> <r_mmod_Improper_Torsional_Energy-OPLS-2005>
5.30402660369873

> <r_mmod_Van_der_Waal_Energy-OPLS-2005>
147.201766967773

> <r_mmod_Electrostatic_Energy-OPLS-2005>
-372.536346435547

> <r_mmod_Solvation_Energy-OPLS-2005>
-236.908645629883

> <b_mmod_Minimization_Converged-OPLS-2005>
0

> <r_mmod_RMS_Derivative-OPLS-2005>
2.90260577201843

$$$$
16
                    3D
 Structure written by MMmdl.
154162  0  0  1  0            999 V2000
  -30.6341  -14.7444   20.4702 C   0  0  0  0  0  0
  -30.4381  -12.4570   19.4769 C   0  0  0  0  0  0
  -29.5132  -12.5070   18.2419 C   0  0  0  0  0  0
  -28.0445  -12.3176   18.6598 C   0  0  0  0  0  0
  -27.6459  -13.2271   19.8514 C   0  0  2  0  0  0
  -28.6925  -13.1672   20.9868 C   0  0  0  0  0  0
  -25.2514  -13.8186   20.5660 C   0  0  0  0  0  0
  -24.1814  -13.0444   20.9176 C   0  0  0  0  0  0
  -24.6408  -11.6914   20.8740 C   0  0  0  0  0  0
  -23.9080  -10.4298   21.0432 C   0  0  0  0  0  0
  -24.3620   -9.4199   21.9198 C   0  0  0  0  0  0
  -23.6294   -8.2237   22.0754 C   0  0  0  0  0  0
  -22.4275   -8.0282   21.3551 C   0  0  0  0  0  0
  -21.9917   -9.0254   20.4638 C   0  0  0  0  0  0
  -22.7256  -10.2137   20.3059 C   0  0  0  0  0  0
  -21.6853   -6.0734   22.5282 C   0  0  0  0  0  0
  -21.4010   -6.5638   23.8213 C   0  0  0  0  0  0
  -21.3648   -5.6795   24.9179 C   0  0  0  0  0  0
  -21.6043   -4.3056   24.7234 C   0  0  0  0  0  0
  -21.8821   -3.8144   23.4360 C   0  0  0  0  0  0
  -21.9194   -4.6963   22.3412 C   0  0  0  0  0  0
  -22.7827  -13.5216   21.1836 C   0  0  0  0  0  0
  -22.1662   -4.2142   21.0994 F   0  0  0  0  0  0
  -21.5626   -3.4538   25.7754 F   0  0  0  0  0  0
  -29.9950  -13.5234   20.4076 N   0  0  0  0  0  0
  -26.2953  -12.9383   20.3290 N   0  0  0  0  0  0
  -25.9339  -11.6526   20.5765 N   0  0  0  0  0  0
  -22.0476  -12.8218   22.0397 N   0  0  0  0  0  0
  -25.4232  -15.1914   20.4046 N   0  0  0  0  0  0
  -31.8083  -14.8183   20.1042 O   0  0  0  0  0  0
  -21.6641   -6.8889   21.4249 O   0  0  0  0  0  0
  -22.3517  -14.5535   20.6706 O   0  0  0  0  0  0
  -24.6317  -31.8518   23.1891 C   0  0  0  0  0  0
  -25.9144  -32.4715   23.8253 C   0  0  1  0  0  0
  -27.2702  -27.2740   20.1149 C   0  0  0  0  0  0
  -25.5945  -33.8512   24.2210 N   0  0  0  0  0  0
  -23.4316  -30.4646   21.5308 C   0  0  2  0  0  0
  -24.8903  -28.8943   20.1145 C   0  0  0  0  0  0
  -22.7518  -29.4574   22.4879 C   0  0  0  0  0  0
  -18.0307  -28.1385   22.8463 C   0  0  0  0  0  0
  -24.1502  -36.7251   23.2642 C   0  0  0  0  0  0
  -25.9780  -30.7634   21.3723 C   0  0  0  0  0  0
  -26.0563  -29.3860   20.7110 C   0  0  0  0  0  0
  -27.2403  -28.5863   20.6990 C   0  0  0  0  0  0
  -26.0724  -26.8289   19.5152 C   0  0  0  0  0  0
  -24.8988  -27.6194   19.5182 C   0  0  0  0  0  0
  -23.6566  -29.7800   20.1541 C   0  0  0  0  0  0
  -25.4128  -36.3045   24.0345 C   0  0  1  0  0  0
  -20.5918  -28.3696   23.1247 C   0  0  2  0  0  0
  -20.6802  -26.9405   22.5411 C   0  0  0  0  0  0
  -19.5768  -26.6375   21.5213 C   0  0  0  0  0  0
  -18.1936  -26.7934   22.1606 C   0  0  0  0  0  0
  -19.1562  -28.8863   23.2835 C   0  0  0  0  0  0
  -18.9499  -30.1457   23.8857 C   0  0  0  0  0  0
  -17.6493  -30.6585   24.0554 C   0  0  0  0  0  0
  -25.9077  -34.9410   23.5083 C   0  0  0  0  0  0
  -16.5382  -29.9086   23.6332 C   0  0  0  0  0  0
  -16.7290  -28.6516   23.0334 C   0  0  0  0  0  0
  -26.4505  -31.6562   25.0661 C   0  0  0  0  0  0
  -25.3726  -31.3756   26.1395 C   0  0  0  0  0  0
  -27.0402  -30.2980   24.6196 C   0  0  0  0  0  0
  -27.6031  -32.4336   25.7447 C   0  0  0  0  0  0
  -27.5579  -37.1762   24.8464 C   0  0  0  0  0  0
  -21.4235  -29.3028   22.3636 N   0  0  0  0  0  0
  -26.4278  -37.3759   23.9430 N   0  0  0  0  0  0
  -24.6977  -31.0483   22.0851 N   0  0  0  0  0  0
  -23.4221  -28.8142   23.2996 O   0  0  0  0  0  0
  -28.4220  -26.4558   20.1995 O   0  0  0  0  0  0
  -26.5662  -34.8899   22.4655 O   0  0  0  0  0  0
  -23.5478  -32.1322   23.7197 O   0  0  0  0  0  0
  -31.2147  -20.0538   21.1143 C   0  0  0  0  0  0
  -31.9811  -18.9600   21.5568 C   0  0  0  0  0  0
  -29.5034  -18.4865   20.3602 C   0  0  0  0  0  0
  -29.9341  -19.8799   20.5345 C   0  0  0  0  0  0
  -30.2983  -17.3289   20.7941 C   0  0  0  0  0  0
  -31.5260  -17.6328   21.4357 C   0  0  0  0  0  0
  -29.4569  -22.4302   20.0416 C   0  0  0  0  0  0
  -28.1712  -18.2458   19.6660 C   0  0  0  0  0  0
  -28.4619  -23.6742   20.3094 C   0  0  0  0  0  0
  -28.6349  -25.1141   19.5518 C   0  0  0  0  0  0
  -29.1020  -21.0969   20.2742 N   0  0  0  0  0  0
  -29.8808  -15.8928   20.7024 N   0  0  0  0  0  0
  -30.5756  -22.6936   19.5932 O   0  0  0  0  0  0
  -32.2760  -16.6567   22.0013 F   0  0  0  0  0  0
  -31.4787  -12.5752   19.1657 H   0  0  0  0  0  0
  -30.3885  -11.4803   19.9621 H   0  0  0  0  0  0
  -29.8048  -11.7433   17.5194 H   0  0  0  0  0  0
  -29.6279  -13.4684   17.7380 H   0  0  0  0  0  0
  -27.9223  -11.2711   18.9413 H   0  0  0  0  0  0
  -27.3810  -12.4846   17.8114 H   0  0  0  0  0  0
  -27.6426  -14.2467   19.4637 H   0  0  0  0  0  0
  -28.7281  -12.1651   21.4172 H   0  0  0  0  0  0
  -28.4238  -13.8422   21.8000 H   0  0  0  0  0  0
  -25.2775   -9.5672   22.4759 H   0  0  0  0  0  0
  -23.9997   -7.4636   22.7476 H   0  0  0  0  0  0
  -21.0837   -8.8775   19.8949 H   0  0  0  0  0  0
  -22.3720  -10.9667   19.6142 H   0  0  0  0  0  0
  -21.1997   -7.6143   23.9718 H   0  0  0  0  0  0
  -21.1457   -6.0525   25.9088 H   0  0  0  0  0  0
  -22.0610   -2.7599   23.2869 H   0  0  0  0  0  0
  -22.4080  -11.9880   22.4806 H   0  0  0  0  0  0
  -21.1078  -13.1227   22.2599 H   0  0  0  0  0  0
  -24.6493  -15.8414   20.4919 H   0  0  0  0  0  0
  -26.2698  -15.6255   20.0643 H   0  0  0  0  0  0
  -26.7206  -32.5356   23.0992 H   0  0  0  0  0  0
  -25.0059  -33.9629   25.0340 H   0  0  0  0  0  0
  -22.7269  -31.2837   21.3688 H   0  0  0  0  0  0
  -23.3762  -35.9567   23.3312 H   0  0  0  0  0  0
  -24.3572  -36.8876   22.2046 H   0  0  0  0  0  0
  -23.7248  -37.6443   23.6675 H   0  0  0  0  0  0
  -26.1358  -31.5246   20.6087 H   0  0  0  0  0  0
  -26.8481  -30.7993   22.0179 H   0  0  0  0  0  0
  -28.1368  -28.9629   21.1720 H   0  0  0  0  0  0
  -26.0224  -25.8416   19.0825 H   0  0  0  0  0  0
  -23.9957  -27.2166   19.0805 H   0  0  0  0  0  0
  -23.7894  -30.5483   19.3911 H   0  0  0  0  0  0
  -22.7760  -29.2131   19.8428 H   0  0  0  0  0  0
  -25.1296  -36.1858   25.0841 H   0  0  0  0  0  0
  -20.9998  -28.3331   24.1364 H   0  0  0  0  0  0
  -20.5752  -26.2304   23.3629 H   0  0  0  0  0  0
  -21.6657  -26.7455   22.1163 H   0  0  0  0  0  0
  -19.6941  -25.6301   21.1215 H   0  0  0  0  0  0
  -19.6719  -27.3212   20.6775 H   0  0  0  0  0  0
  -17.4233  -26.6687   21.3997 H   0  0  0  0  0  0
  -18.0297  -26.0085   22.9007 H   0  0  0  0  0  0
  -19.7994  -30.7252   24.2210 H   0  0  0  0  0  0
  -17.5081  -31.6253   24.5166 H   0  0  0  0  0  0
  -15.5381  -30.2968   23.7710 H   0  0  0  0  0  0
  -15.8694  -28.0832   22.7050 H   0  0  0  0  0  0
  -24.5883  -30.7120   25.7740 H   0  0  0  0  0  0
  -24.8917  -32.2937   26.4752 H   0  0  0  0  0  0
  -25.8019  -30.8964   27.0202 H   0  0  0  0  0  0
  -26.3022  -29.6660   24.1240 H   0  0  0  0  0  0
  -27.4127  -29.7292   25.4715 H   0  0  0  0  0  0
  -27.8867  -30.4248   23.9442 H   0  0  0  0  0  0
  -27.2613  -33.3665   26.1947 H   0  0  0  0  0  0
  -28.3874  -32.6877   25.0308 H   0  0  0  0  0  0
  -28.0668  -31.8519   26.5422 H   0  0  0  0  0  0
  -28.2563  -38.0085   24.7538 H   0  0  0  0  0  0
  -28.1110  -36.2615   24.6261 H   0  0  0  0  0  0
  -27.2299  -37.1382   25.8861 H   0  0  0  0  0  0
  -20.9469  -29.8708   21.6778 H   0  0  0  0  0  0
  -26.0155  -38.2829   24.1442 H   0  0  0  0  0  0
  -31.6159  -21.0413   21.2928 H   0  0  0  0  0  0
  -32.9322  -19.1385   22.0411 H   0  0  0  0  0  0
  -28.1209  -18.8358   18.7495 H   0  0  0  0  0  0
  -27.3350  -18.5355   20.3027 H   0  0  0  0  0  0
  -28.0403  -17.2018   19.3803 H   0  0  0  0  0  0
  -28.5603  -23.8670   21.3782 H   0  0  0  0  0  0
  -27.4353  -23.3297   20.1693 H   0  0  0  0  0  0
  -28.1036  -25.0915   18.6010 H   0  0  0  0  0  0
  -29.6830  -25.1746   19.2493 H   0  0  0  0  0  0
  -28.1081  -20.9489   20.3889 H   0  0  0  0  0  0
  -28.8970  -15.7224   20.8467 H   0  0  0  0  0  0
  1 25  1  0  0  0
  1 30  2  0  0  0
  1 82  1  0  0  0
  2  3  1  0  0  0
  2 25  1  0  0  0
  2 85  1  0  0  0
  2 86  1  0  0  0
  3  4  1  0  0  0
  3 87  1  0  0  0
  3 88  1  0  0  0
  4  5  1  0  0  0
  4 89  1  0  0  0
  4 90  1  0  0  0
  5  6  1  0  0  0
  5 26  1  0  0  0
  5 91  1  0  0  0
  6 25  1  0  0  0
  6 92  1  0  0  0
  6 93  1  0  0  0
  7  8  2  0  0  0
  7 26  1  0  0  0
  7 29  1  0  0  0
  8  9  1  0  0  0
  8 22  1  0  0  0
  9 10  1  0  0  0
  9 27  2  0  0  0
 10 11  2  0  0  0
 10 15  1  0  0  0
 11 12  1  0  0  0
 11 94  1  0  0  0
 12 13  2  0  0  0
 12 95  1  0  0  0
 13 14  1  0  0  0
 13 31  1  0  0  0
 14 15  2  0  0  0
 14 96  1  0  0  0
 15 97  1  0  0  0
 16 17  2  0  0  0
 16 21  1  0  0  0
 16 31  1  0  0  0
 17 18  1  0  0  0
 17 98  1  0  0  0
 18 19  2  0  0  0
 18 99  1  0  0  0
 19 20  1  0  0  0
 19 24  1  0  0  0
 20 21  2  0  0  0
 20100  1  0  0  0
 21 23  1  0  0  0
 22 28  1  0  0  0
 22 32  2  0  0  0
 26 27  1  0  0  0
 28101  1  0  0  0
 28102  1  0  0  0
 29103  1  0  0  0
 29104  1  0  0  0
 33 34  1  0  0  0
 33 66  1  0  0  0
 33 70  2  0  0  0
 34 36  1  0  0  0
 34 59  1  0  0  0
 34105  1  0  0  0
 35 44  2  0  0  0
 35 45  1  0  0  0
 35 68  1  0  0  0
 36 56  1  0  0  0
 36106  1  0  0  0
 37 39  1  0  0  0
 37 47  1  0  0  0
 37 66  1  0  0  0
 37107  1  0  0  0
 38 43  2  0  0  0
 38 46  1  0  0  0
 38 47  1  0  0  0
 39 64  1  0  0  0
 39 67  2  0  0  0
 40 52  1  0  0  0
 40 53  2  0  0  0
 40 58  1  0  0  0
 41108  1  0  0  0
 41109  1  0  0  0
 41110  1  0  0  0
 41 48  1  0  0  0
 42 43  1  0  0  0
 42 66  1  0  0  0
 42111  1  0  0  0
 42112  1  0  0  0
 43 44  1  0  0  0
 44113  1  0  0  0
 45 46  2  0  0  0
 45114  1  0  0  0
 46115  1  0  0  0
 47116  1  0  0  0
 47117  1  0  0  0
 48 56  1  0  0  0
 48 65  1  0  0  0
 48118  1  0  0  0
 49 50  1  0  0  0
 49 53  1  0  0  0
 49 64  1  0  0  0
 49119  1  0  0  0
 50 51  1  0  0  0
 50120  1  0  0  0
 50121  1  0  0  0
 51 52  1  0  0  0
 51122  1  0  0  0
 51123  1  0  0  0
 52124  1  0  0  0
 52125  1  0  0  0
 53 54  1  0  0  0
 54 55  2  0  0  0
 54126  1  0  0  0
 55 57  1  0  0  0
 55127  1  0  0  0
 56 69  2  0  0  0
 57 58  2  0  0  0
 57128  1  0  0  0
 58129  1  0  0  0
 59 60  1  0  0  0
 59 61  1  0  0  0
 59 62  1  0  0  0
 60130  1  0  0  0
 60131  1  0  0  0
 60132  1  0  0  0
 61133  1  0  0  0
 61134  1  0  0  0
 61135  1  0  0  0
 62136  1  0  0  0
 62137  1  0  0  0
 62138  1  0  0  0
 63 65  1  0  0  0
 63139  1  0  0  0
 63140  1  0  0  0
 63141  1  0  0  0
 64142  1  0  0  0
 65143  1  0  0  0
 68 80  1  0  0  0
 71 72  2  0  0  0
 71 74  1  0  0  0
 71144  1  0  0  0
 72 76  1  0  0  0
 72145  1  0  0  0
 73 74  2  0  0  0
 73 75  1  0  0  0
 73 78  1  0  0  0
 74 81  1  0  0  0
 75 76  2  0  0  0
 75 82  1  0  0  0
 76 84  1  0  0  0
 77 79  1  0  0  0
 77 81  1  0  0  0
 77 83  2  0  0  0
 78146  1  0  0  0
 78147  1  0  0  0
 78148  1  0  0  0
 79 80  1  0  0  0
 79149  1  0  0  0
 79150  1  0  0  0
 80151  1  0  0  0
 80152  1  0  0  0
 81153  1  0  0  0
 82154  1  0  0  0
M  ISO  4   1 100  68 101  80 101  82 100
M  END
> <chiral flag>
0

> <version>
0

> <s_m_source_file>
/data/baiqing/PycharmProjects/Reinvent-master-3.2/result/LINK_invent/BTK/process_docking_weight1_custom_product_contain_oxygen_bond_distance_aromatic_linkinvent_7_9_3/rearranged_h_0067.sdf

> <i_m_source_file_index>
17

> <r_mmod_Potential_Energy-OPLS-2005>
112.230033874512

> <r_mmod_Stretch_Energy-OPLS-2005>
142.960525512695

> <r_mmod_Bend_Energy-OPLS-2005>
186.004348754883

> <r_mmod_Torsional_Energy-OPLS-2005>
238.489212036133

> <r_mmod_Improper_Torsional_Energy-OPLS-2005>
6.69676637649536

> <r_mmod_Van_der_Waal_Energy-OPLS-2005>
138.519119262695

> <r_mmod_Electrostatic_Energy-OPLS-2005>
-436.783050537109

> <r_mmod_Solvation_Energy-OPLS-2005>
-242.926193237305

> <b_mmod_Minimization_Converged-OPLS-2005>
0

> <r_mmod_RMS_Derivative-OPLS-2005>
4.95356130599976

$$$$
17
                    3D
 Structure written by MMmdl.
155163  0  0  1  0            999 V2000
  -30.6079  -14.6829   20.4966 C   0  0  0  0  0  0
  -30.4352  -12.4259   19.4469 C   0  0  0  0  0  0
  -29.5066  -12.5272   18.2193 C   0  0  0  0  0  0
  -28.0294  -12.3550   18.6261 C   0  0  0  0  0  0
  -27.6433  -13.2262   19.8503 C   0  0  2  0  0  0
  -28.6891  -13.1116   20.9802 C   0  0  0  0  0  0
  -25.2500  -13.8209   20.5640 C   0  0  0  0  0  0
  -24.1807  -13.0440   20.9190 C   0  0  0  0  0  0
  -24.6391  -11.6922   20.8732 C   0  0  0  0  0  0
  -23.9076  -10.4300   21.0402 C   0  0  0  0  0  0
  -24.3632   -9.4221   21.9177 C   0  0  0  0  0  0
  -23.6303   -8.2258   22.0752 C   0  0  0  0  0  0
  -22.4284   -8.0290   21.3546 C   0  0  0  0  0  0
  -21.9915   -9.0262   20.4653 C   0  0  0  0  0  0
  -22.7247  -10.2134   20.3059 C   0  0  0  0  0  0
  -21.6869   -6.0730   22.5282 C   0  0  0  0  0  0
  -21.4028   -6.5635   23.8209 C   0  0  0  0  0  0
  -21.3669   -5.6792   24.9172 C   0  0  0  0  0  0
  -21.6047   -4.3054   24.7221 C   0  0  0  0  0  0
  -21.8820   -3.8136   23.4348 C   0  0  0  0  0  0
  -21.9201   -4.6955   22.3407 C   0  0  0  0  0  0
  -22.7824  -13.5218   21.1859 C   0  0  0  0  0  0
  -22.1654   -4.2137   21.0980 F   0  0  0  0  0  0
  -21.5639   -3.4544   25.7738 F   0  0  0  0  0  0
  -29.9952  -13.4587   20.4063 N   0  0  0  0  0  0
  -26.2929  -12.9401   20.3240 N   0  0  0  0  0  0
  -25.9314  -11.6549   20.5707 N   0  0  0  0  0  0
  -22.0471  -12.8198   22.0425 N   0  0  0  0  0  0
  -25.4176  -15.1937   20.4006 N   0  0  0  0  0  0
  -31.8003  -14.8139   20.2034 O   0  0  0  0  0  0
  -21.6657   -6.8875   21.4249 O   0  0  0  0  0  0
  -22.3498  -14.5504   20.6693 O   0  0  0  0  0  0
  -24.6280  -31.8576   23.1990 C   0  0  0  0  0  0
  -25.9118  -32.4768   23.8332 C   0  0  1  0  0  0
  -27.2260  -27.3165   20.1428 C   0  0  0  0  0  0
  -25.5917  -33.8566   24.2266 N   0  0  0  0  0  0
  -23.4212  -30.4786   21.5421 C   0  0  2  0  0  0
  -24.8673  -28.9200   20.1218 C   0  0  0  0  0  0
  -22.7477  -29.4624   22.4943 C   0  0  0  0  0  0
  -18.0288  -28.1403   22.8481 C   0  0  0  0  0  0
  -24.1481  -36.7324   23.2639 C   0  0  0  0  0  0
  -25.9579  -30.7905   21.3620 C   0  0  0  0  0  0
  -26.0340  -29.4112   20.7206 C   0  0  0  0  0  0
  -27.2202  -28.6220   20.7173 C   0  0  0  0  0  0
  -26.0384  -26.8614   19.5355 C   0  0  0  0  0  0
  -24.8692  -27.6481   19.5211 C   0  0  0  0  0  0
  -23.6373  -29.8029   20.1606 C   0  0  0  0  0  0
  -25.4101  -36.3086   24.0326 C   0  0  1  0  0  0
  -20.5889  -28.3708   23.1280 C   0  0  2  0  0  0
  -20.6780  -26.9428   22.5419 C   0  0  0  0  0  0
  -19.5757  -26.6389   21.5219 C   0  0  0  0  0  0
  -18.1933  -26.7938   22.1626 C   0  0  0  0  0  0
  -19.1541  -28.8870   23.2872 C   0  0  0  0  0  0
  -18.9463  -30.1469   23.8888 C   0  0  0  0  0  0
  -17.6464  -30.6594   24.0582 C   0  0  0  0  0  0
  -25.9044  -34.9446   23.5102 C   0  0  0  0  0  0
  -16.5354  -29.9095   23.6337 C   0  0  0  0  0  0
  -16.7277  -28.6522   23.0336 C   0  0  0  0  0  0
  -26.4482  -31.6576   25.0707 C   0  0  0  0  0  0
  -25.3727  -31.3727   26.1452 C   0  0  0  0  0  0
  -27.0311  -30.3000   24.6139 C   0  0  0  0  0  0
  -27.6037  -32.4307   25.7493 C   0  0  0  0  0  0
  -27.5582  -37.1806   24.8453 C   0  0  0  0  0  0
  -21.4195  -29.3054   22.3674 N   0  0  0  0  0  0
  -26.4288  -37.3780   23.9408 N   0  0  0  0  0  0
  -24.6884  -31.0593   22.0928 N   0  0  0  0  0  0
  -23.4182  -28.8179   23.3054 O   0  0  0  0  0  0
  -28.3450  -26.4820   20.1343 O   0  0  0  0  0  0
  -26.5625  -34.8926   22.4677 O   0  0  0  0  0  0
  -23.5445  -32.1366   23.7319 O   0  0  0  0  0  0
  -31.3878  -18.9463   22.0039 C   0  0  0  0  0  0
  -31.1680  -17.5912   21.6586 C   0  0  0  0  0  0
  -30.4910  -19.9657   21.6112 C   0  0  0  0  0  0
  -29.1365  -18.2565   20.5103 C   0  0  0  0  0  0
  -30.0373  -17.1963   20.9061 C   0  0  0  0  0  0
  -29.3514  -19.6424   20.8523 C   0  0  0  0  0  0
  -28.3466  -23.8653   20.0725 C   0  0  0  0  0  0
  -26.1442  -19.7290   21.4411 C   0  0  0  0  0  0
  -28.2689  -25.2125   20.8974 C   0  0  0  0  0  0
  -26.9441  -20.9436   21.4126 N   0  0  0  0  0  0
  -29.7707  -15.7704   20.6488 N   0  0  0  0  0  0
  -28.7012  -22.6421   20.7491 N   0  0  0  0  0  0
  -28.0485  -23.8655   18.8752 O   0  0  0  0  0  0
  -27.8973  -20.8804   18.9346 O   0  0  0  0  0  0
  -28.1293  -20.9810   20.3848 S   0  0  1  0  0  0
  -31.4730  -12.5643   19.1392 H   0  0  0  0  0  0
  -30.3754  -11.4328   19.8951 H   0  0  0  0  0  0
  -29.7782  -11.7840   17.4698 H   0  0  0  0  0  0
  -29.6440  -13.4986   17.7407 H   0  0  0  0  0  0
  -27.8609  -11.2992   18.8435 H   0  0  0  0  0  0
  -27.3825  -12.5963   17.7813 H   0  0  0  0  0  0
  -27.6440  -14.2589   19.4999 H   0  0  0  0  0  0
  -28.7102  -12.1003   21.3873 H   0  0  0  0  0  0
  -28.4326  -13.7721   21.8093 H   0  0  0  0  0  0
  -25.2795   -9.5691   22.4731 H   0  0  0  0  0  0
  -24.0031   -7.4653   22.7457 H   0  0  0  0  0  0
  -21.0851   -8.8785   19.8945 H   0  0  0  0  0  0
  -22.3719  -10.9680   19.6166 H   0  0  0  0  0  0
  -21.2009   -7.6136   23.9700 H   0  0  0  0  0  0
  -21.1502   -6.0525   25.9079 H   0  0  0  0  0  0
  -22.0583   -2.7597   23.2855 H   0  0  0  0  0  0
  -22.4092  -11.9898   22.4879 H   0  0  0  0  0  0
  -21.1082  -13.1220   22.2588 H   0  0  0  0  0  0
  -24.6385  -15.8370   20.4855 H   0  0  0  0  0  0
  -26.2423  -15.6295   20.0113 H   0  0  0  0  0  0
  -26.7200  -32.5428   23.1101 H   0  0  0  0  0  0
  -25.0019  -33.9694   25.0379 H   0  0  0  0  0  0
  -22.7168  -31.2995   21.3922 H   0  0  0  0  0  0
  -23.3729  -35.9670   23.3270 H   0  0  0  0  0  0
  -24.3589  -36.8989   22.2066 H   0  0  0  0  0  0
  -23.7249  -37.6524   23.6681 H   0  0  0  0  0  0
  -26.0719  -31.5387   20.5752 H   0  0  0  0  0  0
  -26.8472  -30.8567   21.9771 H   0  0  0  0  0  0
  -28.1183  -28.9954   21.1886 H   0  0  0  0  0  0
  -26.0138  -25.8798   19.0818 H   0  0  0  0  0  0
  -23.9730  -27.2581   19.0568 H   0  0  0  0  0  0
  -23.7639  -30.5733   19.3991 H   0  0  0  0  0  0
  -22.7554  -29.2354   19.8577 H   0  0  0  0  0  0
  -25.1280  -36.1934   25.0822 H   0  0  0  0  0  0
  -20.9975  -28.3287   24.1402 H   0  0  0  0  0  0
  -20.5683  -26.2325   23.3627 H   0  0  0  0  0  0
  -21.6646  -26.7458   22.1209 H   0  0  0  0  0  0
  -19.6922  -25.6290   21.1267 H   0  0  0  0  0  0
  -19.6702  -27.3191   20.6738 H   0  0  0  0  0  0
  -17.4211  -26.6694   21.4020 H   0  0  0  0  0  0
  -18.0327  -26.0077   22.9018 H   0  0  0  0  0  0
  -19.7939  -30.7301   24.2240 H   0  0  0  0  0  0
  -17.5013  -31.6259   24.5205 H   0  0  0  0  0  0
  -15.5357  -30.3003   23.7646 H   0  0  0  0  0  0
  -15.8673  -28.0849   22.7030 H   0  0  0  0  0  0
  -24.5881  -30.7090   25.7803 H   0  0  0  0  0  0
  -24.8945  -32.2903   26.4887 H   0  0  0  0  0  0
  -25.8065  -30.8908   27.0223 H   0  0  0  0  0  0
  -26.2870  -29.6762   24.1178 H   0  0  0  0  0  0
  -27.4036  -29.7241   25.4621 H   0  0  0  0  0  0
  -27.8716  -30.4293   23.9318 H   0  0  0  0  0  0
  -27.2623  -33.3586   26.2087 H   0  0  0  0  0  0
  -28.3839  -32.6904   25.0327 H   0  0  0  0  0  0
  -28.0701  -31.8426   26.5406 H   0  0  0  0  0  0
  -28.2573  -38.0127   24.7511 H   0  0  0  0  0  0
  -28.1103  -36.2660   24.6235 H   0  0  0  0  0  0
  -27.2319  -37.1414   25.8862 H   0  0  0  0  0  0
  -20.9384  -29.8768   21.6868 H   0  0  0  0  0  0
  -26.0163  -38.2855   24.1412 H   0  0  0  0  0  0
  -32.2529  -19.2034   22.5989 H   0  0  0  0  0  0
  -31.8696  -16.8526   22.0175 H   0  0  0  0  0  0
  -30.6684  -20.9887   21.9104 H   0  0  0  0  0  0
  -28.2530  -18.0156   19.9380 H   0  0  0  0  0  0
  -25.0979  -19.9358   21.6630 H   0  0  0  0  0  0
  -26.4846  -19.0314   22.2082 H   0  0  0  0  0  0
  -26.1535  -19.1819   20.4970 H   0  0  0  0  0  0
  -29.1047  -25.2140   21.5973 H   0  0  0  0  0  0
  -27.3663  -25.1899   21.5117 H   0  0  0  0  0  0
  -28.7956  -15.5213   20.5941 H   0  0  0  0  0  0
  -28.8937  -22.7274   21.7482 H   0  0  0  0  0  0
  1 25  1  0  0  0
  1 30  2  0  0  0
  1 81  1  0  0  0
  2  3  1  0  0  0
  2 25  1  0  0  0
  2 86  1  0  0  0
  2 87  1  0  0  0
  3  4  1  0  0  0
  3 88  1  0  0  0
  3 89  1  0  0  0
  4  5  1  0  0  0
  4 90  1  0  0  0
  4 91  1  0  0  0
  5  6  1  0  0  0
  5 26  1  0  0  0
  5 92  1  0  0  0
  6 25  1  0  0  0
  6 93  1  0  0  0
  6 94  1  0  0  0
  7  8  2  0  0  0
  7 26  1  0  0  0
  7 29  1  0  0  0
  8  9  1  0  0  0
  8 22  1  0  0  0
  9 10  1  0  0  0
  9 27  2  0  0  0
 10 11  2  0  0  0
 10 15  1  0  0  0
 11 12  1  0  0  0
 11 95  1  0  0  0
 12 13  2  0  0  0
 12 96  1  0  0  0
 13 14  1  0  0  0
 13 31  1  0  0  0
 14 15  2  0  0  0
 14 97  1  0  0  0
 15 98  1  0  0  0
 16 17  2  0  0  0
 16 21  1  0  0  0
 16 31  1  0  0  0
 17 18  1  0  0  0
 17 99  1  0  0  0
 18 19  2  0  0  0
 18100  1  0  0  0
 19 20  1  0  0  0
 19 24  1  0  0  0
 20 21  2  0  0  0
 20101  1  0  0  0
 21 23  1  0  0  0
 22 28  1  0  0  0
 22 32  2  0  0  0
 26 27  1  0  0  0
 28102  1  0  0  0
 28103  1  0  0  0
 29104  1  0  0  0
 29105  1  0  0  0
 33 34  1  0  0  0
 33 66  1  0  0  0
 33 70  2  0  0  0
 34 36  1  0  0  0
 34 59  1  0  0  0
 34106  1  0  0  0
 35 44  2  0  0  0
 35 45  1  0  0  0
 35 68  1  0  0  0
 36 56  1  0  0  0
 36107  1  0  0  0
 37 39  1  0  0  0
 37 47  1  0  0  0
 37 66  1  0  0  0
 37108  1  0  0  0
 38 43  2  0  0  0
 38 46  1  0  0  0
 38 47  1  0  0  0
 39 64  1  0  0  0
 39 67  2  0  0  0
 40 52  1  0  0  0
 40 53  2  0  0  0
 40 58  1  0  0  0
 41109  1  0  0  0
 41110  1  0  0  0
 41111  1  0  0  0
 41 48  1  0  0  0
 42 43  1  0  0  0
 42 66  1  0  0  0
 42112  1  0  0  0
 42113  1  0  0  0
 43 44  1  0  0  0
 44114  1  0  0  0
 45 46  2  0  0  0
 45115  1  0  0  0
 46116  1  0  0  0
 47117  1  0  0  0
 47118  1  0  0  0
 48 56  1  0  0  0
 48 65  1  0  0  0
 48119  1  0  0  0
 49 50  1  0  0  0
 49 53  1  0  0  0
 49 64  1  0  0  0
 49120  1  0  0  0
 50 51  1  0  0  0
 50121  1  0  0  0
 50122  1  0  0  0
 51 52  1  0  0  0
 51123  1  0  0  0
 51124  1  0  0  0
 52125  1  0  0  0
 52126  1  0  0  0
 53 54  1  0  0  0
 54 55  2  0  0  0
 54127  1  0  0  0
 55 57  1  0  0  0
 55128  1  0  0  0
 56 69  2  0  0  0
 57 58  2  0  0  0
 57129  1  0  0  0
 58130  1  0  0  0
 59 60  1  0  0  0
 59 61  1  0  0  0
 59 62  1  0  0  0
 60131  1  0  0  0
 60132  1  0  0  0
 60133  1  0  0  0
 61134  1  0  0  0
 61135  1  0  0  0
 61136  1  0  0  0
 62137  1  0  0  0
 62138  1  0  0  0
 62139  1  0  0  0
 63 65  1  0  0  0
 63140  1  0  0  0
 63141  1  0  0  0
 63142  1  0  0  0
 64143  1  0  0  0
 65144  1  0  0  0
 68 79  1  0  0  0
 71 72  2  0  0  0
 71 73  1  0  0  0
 71145  1  0  0  0
 72 75  1  0  0  0
 72146  1  0  0  0
 73 76  2  0  0  0
 73147  1  0  0  0
 74 75  2  0  0  0
 74 76  1  0  0  0
 74148  1  0  0  0
 75 81  1  0  0  0
 76 85  1  0  0  0
 77 79  1  0  0  0
 77 82  1  0  0  0
 77 83  2  0  0  0
 78 80  1  0  0  0
 78149  1  0  0  0
 78150  1  0  0  0
 78151  1  0  0  0
 79152  1  0  0  0
 79153  1  0  0  0
 80 85  2  0  0  0
 81154  1  0  0  0
 82155  1  0  0  0
 82 85  1  0  0  0
 84 85  2  0  0  0
M  ISO  4   1 100  68 101  79 101  81 100
M  END
> <chiral flag>
0

> <version>
0

> <s_m_source_file>
/data/baiqing/PycharmProjects/Reinvent-master-3.2/result/LINK_invent/BTK/process_docking_weight1_custom_product_contain_oxygen_bond_distance_aromatic_linkinvent_7_9_3/rearranged_h_0067.sdf

> <i_m_source_file_index>
18

> <r_mmod_Potential_Energy-OPLS-2005>
-62.8037528991699

> <r_mmod_Stretch_Energy-OPLS-2005>
86.1200103759766

> <r_mmod_Bend_Energy-OPLS-2005>
140.041320800781

> <r_mmod_Torsional_Energy-OPLS-2005>
249.292709350586

> <r_mmod_Improper_Torsional_Energy-OPLS-2005>
9.6176872253418

> <r_mmod_Van_der_Waal_Energy-OPLS-2005>
123.169929504395

> <r_mmod_Electrostatic_Energy-OPLS-2005>
-448.901458740234

> <r_mmod_Solvation_Energy-OPLS-2005>
-279.878845214844

> <b_mmod_Minimization_Converged-OPLS-2005>
0

> <r_mmod_RMS_Derivative-OPLS-2005>
3.09137558937073

$$$$
18
                    3D
 Structure written by MMmdl.
154162  0  0  1  0            999 V2000
  -30.6193  -14.6546   20.4889 C   0  0  0  0  0  0
  -30.4394  -12.4001   19.4542 C   0  0  0  0  0  0
  -29.5082  -12.5058   18.2255 C   0  0  0  0  0  0
  -28.0313  -12.3420   18.6383 C   0  0  0  0  0  0
  -27.6513  -13.2185   19.8615 C   0  0  2  0  0  0
  -28.6974  -13.0839   20.9914 C   0  0  0  0  0  0
  -25.2546  -13.8168   20.5693 C   0  0  0  0  0  0
  -24.1814  -13.0425   20.9170 C   0  0  0  0  0  0
  -24.6393  -11.6901   20.8726 C   0  0  0  0  0  0
  -23.9065  -10.4286   21.0398 C   0  0  0  0  0  0
  -24.3616   -9.4204   21.9178 C   0  0  0  0  0  0
  -23.6290   -8.2241   22.0753 C   0  0  0  0  0  0
  -22.4272   -8.0279   21.3544 C   0  0  0  0  0  0
  -21.9906   -9.0252   20.4646 C   0  0  0  0  0  0
  -22.7236  -10.2129   20.3051 C   0  0  0  0  0  0
  -21.6852   -6.0734   22.5279 C   0  0  0  0  0  0
  -21.4015   -6.5637   23.8213 C   0  0  0  0  0  0
  -21.3659   -5.6790   24.9175 C   0  0  0  0  0  0
  -21.6044   -4.3053   24.7225 C   0  0  0  0  0  0
  -21.8820   -3.8145   23.4346 C   0  0  0  0  0  0
  -21.9193   -4.6962   22.3402 C   0  0  0  0  0  0
  -22.7838  -13.5219   21.1845 C   0  0  0  0  0  0
  -22.1662   -4.2148   21.0979 F   0  0  0  0  0  0
  -21.5628   -3.4537   25.7738 F   0  0  0  0  0  0
  -30.0119  -13.4266   20.4257 N   0  0  0  0  0  0
  -26.2982  -12.9359   20.3324 N   0  0  0  0  0  0
  -25.9325  -11.6509   20.5754 N   0  0  0  0  0  0
  -22.0488  -12.8212   22.0408 N   0  0  0  0  0  0
  -25.4216  -15.1899   20.4183 N   0  0  0  0  0  0
  -31.7886  -14.8070   20.1235 O   0  0  0  0  0  0
  -21.6637   -6.8876   21.4241 O   0  0  0  0  0  0
  -22.3519  -14.5528   20.6703 O   0  0  0  0  0  0
  -24.6258  -31.8595   23.2018 C   0  0  0  0  0  0
  -25.9106  -32.4778   23.8349 C   0  0  1  0  0  0
  -27.2259  -27.3189   20.1245 C   0  0  0  0  0  0
  -25.5921  -33.8579   24.2277 N   0  0  0  0  0  0
  -23.4198  -30.4821   21.5444 C   0  0  2  0  0  0
  -24.8673  -28.9334   20.1142 C   0  0  0  0  0  0
  -22.7472  -29.4623   22.4938 C   0  0  0  0  0  0
  -18.0286  -28.1385   22.8487 C   0  0  0  0  0  0
  -24.1489  -36.7295   23.2639 C   0  0  0  0  0  0
  -25.9601  -30.7905   21.3725 C   0  0  0  0  0  0
  -26.0354  -29.4163   20.7181 C   0  0  0  0  0  0
  -27.2196  -28.6216   20.7109 C   0  0  0  0  0  0
  -26.0394  -26.8892   19.4914 C   0  0  0  0  0  0
  -24.8709  -27.6751   19.4914 C   0  0  0  0  0  0
  -23.6351  -29.8139   20.1608 C   0  0  0  0  0  0
  -25.4114  -36.3084   24.0330 C   0  0  1  0  0  0
  -20.5886  -28.3689   23.1284 C   0  0  2  0  0  0
  -20.6775  -26.9413   22.5410 C   0  0  0  0  0  0
  -19.5751  -26.6387   21.5212 C   0  0  0  0  0  0
  -18.1931  -26.7928   22.1626 C   0  0  0  0  0  0
  -19.1538  -28.8854   23.2882 C   0  0  0  0  0  0
  -18.9462  -30.1456   23.8898 C   0  0  0  0  0  0
  -17.6461  -30.6587   24.0565 C   0  0  0  0  0  0
  -25.9049  -34.9452   23.5105 C   0  0  0  0  0  0
  -16.5352  -29.9086   23.6330 C   0  0  0  0  0  0
  -16.7274  -28.6505   23.0349 C   0  0  0  0  0  0
  -26.4492  -31.6587   25.0719 C   0  0  0  0  0  0
  -25.3728  -31.3725   26.1449 C   0  0  0  0  0  0
  -27.0334  -30.3013   24.6169 C   0  0  0  0  0  0
  -27.6055  -32.4320   25.7487 C   0  0  0  0  0  0
  -27.5579  -37.1805   24.8467 C   0  0  0  0  0  0
  -21.4187  -29.3041   22.3679 N   0  0  0  0  0  0
  -26.4294  -37.3777   23.9406 N   0  0  0  0  0  0
  -24.6873  -31.0608   22.0966 N   0  0  0  0  0  0
  -23.4197  -28.8165   23.3020 O   0  0  0  0  0  0
  -28.3478  -26.4788   20.1373 O   0  0  0  0  0  0
  -26.5620  -34.8919   22.4672 O   0  0  0  0  0  0
  -23.5422  -32.1391   23.7348 O   0  0  0  0  0  0
  -28.7338  -19.3509   20.3635 C   0  0  0  0  0  0
  -31.1191  -17.8818   20.4128 C   0  0  0  0  0  0
  -29.9289  -20.0846   20.1393 C   0  0  0  0  0  0
  -31.1400  -19.2981   20.2007 C   0  0  0  0  0  0
  -29.9141  -17.1570   20.5900 C   0  0  0  0  0  0
  -28.7286  -17.9390   20.5798 C   0  0  0  0  0  0
  -29.8822  -21.5553   19.7023 C   0  0  0  0  0  0
  -29.1133  -24.0273   19.8095 C   0  0  0  0  0  0
  -28.1621  -25.0559   20.5351 C   0  0  0  0  0  0
  -32.4122  -19.8601   20.0242 N   0  0  0  0  0  0
  -29.8021  -15.7089   20.7997 N   0  0  0  0  0  0
  -29.1233  -22.5921   20.2272 N   0  0  0  0  0  0
  -30.6810  -21.8324   18.6666 N   0  3  0  0  0  0
  -29.8444  -24.4225   18.8906 O   0  0  0  0  0  0
  -27.5428  -17.3063   20.7501 F   0  0  0  0  0  0
  -31.4800  -12.5269   19.1507 H   0  0  0  0  0  0
  -30.3775  -11.4070   19.9018 H   0  0  0  0  0  0
  -29.7745  -11.7506   17.4849 H   0  0  0  0  0  0
  -29.6477  -13.4726   17.7391 H   0  0  0  0  0  0
  -27.8718  -11.2896   18.8761 H   0  0  0  0  0  0
  -27.3760  -12.5646   17.7953 H   0  0  0  0  0  0
  -27.6631  -14.2511   19.5125 H   0  0  0  0  0  0
  -28.7113  -12.0652   21.3817 H   0  0  0  0  0  0
  -28.4423  -13.7229   21.8383 H   0  0  0  0  0  0
  -25.2764   -9.5680   22.4750 H   0  0  0  0  0  0
  -24.0001   -7.4633   22.7472 H   0  0  0  0  0  0
  -21.0837   -8.8771   19.8953 H   0  0  0  0  0  0
  -22.3696  -10.9666   19.6158 H   0  0  0  0  0  0
  -21.2007   -7.6145   23.9716 H   0  0  0  0  0  0
  -21.1480   -6.0519   25.9078 H   0  0  0  0  0  0
  -22.0600   -2.7607   23.2847 H   0  0  0  0  0  0
  -22.4104  -11.9871   22.4791 H   0  0  0  0  0  0
  -21.1109  -13.1241   22.2623 H   0  0  0  0  0  0
  -24.6558  -15.8376   20.5645 H   0  0  0  0  0  0
  -26.2866  -15.6614   20.1835 H   0  0  0  0  0  0
  -26.7173  -32.5451   23.1098 H   0  0  0  0  0  0
  -25.0068  -33.9723   25.0422 H   0  0  0  0  0  0
  -22.7137  -31.3024   21.4000 H   0  0  0  0  0  0
  -23.3748  -35.9632   23.3310 H   0  0  0  0  0  0
  -24.3579  -36.8906   22.2052 H   0  0  0  0  0  0
  -23.7248  -37.6503   23.6654 H   0  0  0  0  0  0
  -26.0901  -31.5524   20.6026 H   0  0  0  0  0  0
  -26.8410  -30.8416   22.0007 H   0  0  0  0  0  0
  -28.1182  -28.9898   21.1858 H   0  0  0  0  0  0
  -26.0042  -25.9338   18.9883 H   0  0  0  0  0  0
  -23.9780  -27.3024   19.0084 H   0  0  0  0  0  0
  -23.7550  -30.5888   19.4027 H   0  0  0  0  0  0
  -22.7553  -29.2428   19.8593 H   0  0  0  0  0  0
  -25.1295  -36.1939   25.0823 H   0  0  0  0  0  0
  -20.9978  -28.3263   24.1404 H   0  0  0  0  0  0
  -20.5676  -26.2298   23.3609 H   0  0  0  0  0  0
  -21.6644  -26.7444   22.1203 H   0  0  0  0  0  0
  -19.6912  -25.6298   21.1240 H   0  0  0  0  0  0
  -19.6686  -27.3198   20.6742 H   0  0  0  0  0  0
  -17.4199  -26.6672   21.4031 H   0  0  0  0  0  0
  -18.0336  -26.0071   22.9024 H   0  0  0  0  0  0
  -19.7937  -30.7273   24.2267 H   0  0  0  0  0  0
  -17.5015  -31.6266   24.5168 H   0  0  0  0  0  0
  -15.5352  -30.2988   23.7653 H   0  0  0  0  0  0
  -15.8674  -28.0825   22.7061 H   0  0  0  0  0  0
  -24.5899  -30.7077   25.7779 H   0  0  0  0  0  0
  -24.8924  -32.2891   26.4880 H   0  0  0  0  0  0
  -25.8056  -30.8899   27.0220 H   0  0  0  0  0  0
  -26.2904  -29.6762   24.1202 H   0  0  0  0  0  0
  -27.4045  -29.7271   25.4668 H   0  0  0  0  0  0
  -27.8767  -30.4303   23.9379 H   0  0  0  0  0  0
  -27.2671  -33.3625   26.2059 H   0  0  0  0  0  0
  -28.3866  -32.6873   25.0315 H   0  0  0  0  0  0
  -28.0718  -31.8448   26.5408 H   0  0  0  0  0  0
  -28.2605  -38.0094   24.7505 H   0  0  0  0  0  0
  -28.1067  -36.2626   24.6304 H   0  0  0  0  0  0
  -27.2296  -37.1470   25.8870 H   0  0  0  0  0  0
  -20.9364  -29.8763   21.6888 H   0  0  0  0  0  0
  -26.0178  -38.2855   24.1396 H   0  0  0  0  0  0
  -27.7829  -19.8600   20.3171 H   0  0  0  0  0  0
  -32.0520  -17.3384   20.4330 H   0  0  0  0  0  0
  -28.3565  -24.9885   21.6055 H   0  0  0  0  0  0
  -27.1397  -24.7079   20.3982 H   0  0  0  0  0  0
  -33.2151  -19.2759   20.2396 H   0  0  0  0  0  0
  -32.5699  -20.8151   20.3328 H   0  0  0  0  0  0
  -28.8726  -15.4214   21.0633 H   0  0  0  0  0  0
  -28.5421  -22.2847   20.9925 H   0  0  0  0  0  0
  -31.3662  -21.1370   18.3971 H   0  0  0  0  0  0
  -30.7356  -22.7819   18.3177 H   0  0  0  0  0  0
  1 25  1  0  0  0
  1 30  2  0  0  0
  1 81  1  0  0  0
  2  3  1  0  0  0
  2 25  1  0  0  0
  2 86  1  0  0  0
  2 87  1  0  0  0
  3  4  1  0  0  0
  3 88  1  0  0  0
  3 89  1  0  0  0
  4  5  1  0  0  0
  4 90  1  0  0  0
  4 91  1  0  0  0
  5  6  1  0  0  0
  5 26  1  0  0  0
  5 92  1  0  0  0
  6 25  1  0  0  0
  6 93  1  0  0  0
  6 94  1  0  0  0
  7  8  2  0  0  0
  7 26  1  0  0  0
  7 29  1  0  0  0
  8  9  1  0  0  0
  8 22  1  0  0  0
  9 10  1  0  0  0
  9 27  2  0  0  0
 10 11  2  0  0  0
 10 15  1  0  0  0
 11 12  1  0  0  0
 11 95  1  0  0  0
 12 13  2  0  0  0
 12 96  1  0  0  0
 13 14  1  0  0  0
 13 31  1  0  0  0
 14 15  2  0  0  0
 14 97  1  0  0  0
 15 98  1  0  0  0
 16 17  2  0  0  0
 16 21  1  0  0  0
 16 31  1  0  0  0
 17 18  1  0  0  0
 17 99  1  0  0  0
 18 19  2  0  0  0
 18100  1  0  0  0
 19 20  1  0  0  0
 19 24  1  0  0  0
 20 21  2  0  0  0
 20101  1  0  0  0
 21 23  1  0  0  0
 22 28  1  0  0  0
 22 32  2  0  0  0
 26 27  1  0  0  0
 28102  1  0  0  0
 28103  1  0  0  0
 29104  1  0  0  0
 29105  1  0  0  0
 33 34  1  0  0  0
 33 66  1  0  0  0
 33 70  2  0  0  0
 34 36  1  0  0  0
 34 59  1  0  0  0
 34106  1  0  0  0
 35 44  2  0  0  0
 35 45  1  0  0  0
 35 68  1  0  0  0
 36 56  1  0  0  0
 36107  1  0  0  0
 37 39  1  0  0  0
 37 47  1  0  0  0
 37 66  1  0  0  0
 37108  1  0  0  0
 38 43  2  0  0  0
 38 46  1  0  0  0
 38 47  1  0  0  0
 39 64  1  0  0  0
 39 67  2  0  0  0
 40 52  1  0  0  0
 40 53  2  0  0  0
 40 58  1  0  0  0
 41109  1  0  0  0
 41110  1  0  0  0
 41111  1  0  0  0
 41 48  1  0  0  0
 42 43  1  0  0  0
 42 66  1  0  0  0
 42112  1  0  0  0
 42113  1  0  0  0
 43 44  1  0  0  0
 44114  1  0  0  0
 45 46  2  0  0  0
 45115  1  0  0  0
 46116  1  0  0  0
 47117  1  0  0  0
 47118  1  0  0  0
 48 56  1  0  0  0
 48 65  1  0  0  0
 48119  1  0  0  0
 49 50  1  0  0  0
 49 53  1  0  0  0
 49 64  1  0  0  0
 49120  1  0  0  0
 50 51  1  0  0  0
 50121  1  0  0  0
 50122  1  0  0  0
 51 52  1  0  0  0
 51123  1  0  0  0
 51124  1  0  0  0
 52125  1  0  0  0
 52126  1  0  0  0
 53 54  1  0  0  0
 54 55  2  0  0  0
 54127  1  0  0  0
 55 57  1  0  0  0
 55128  1  0  0  0
 56 69  2  0  0  0
 57 58  2  0  0  0
 57129  1  0  0  0
 58130  1  0  0  0
 59 60  1  0  0  0
 59 61  1  0  0  0
 59 62  1  0  0  0
 60131  1  0  0  0
 60132  1  0  0  0
 60133  1  0  0  0
 61134  1  0  0  0
 61135  1  0  0  0
 61136  1  0  0  0
 62137  1  0  0  0
 62138  1  0  0  0
 62139  1  0  0  0
 63 65  1  0  0  0
 63140  1  0  0  0
 63141  1  0  0  0
 63142  1  0  0  0
 64143  1  0  0  0
 65144  1  0  0  0
 68 79  1  0  0  0
 71 73  2  0  0  0
 71 76  1  0  0  0
 71145  1  0  0  0
 72 74  2  0  0  0
 72 75  1  0  0  0
 72146  1  0  0  0
 73 74  1  0  0  0
 73 77  1  0  0  0
 74 80  1  0  0  0
 75 76  2  0  0  0
 75 81  1  0  0  0
 76 85  1  0  0  0
 77 82  1  0  0  0
 77 83  2  0  0  0
 78 79  1  0  0  0
 78 82  1  0  0  0
 78 84  2  0  0  0
 79147  1  0  0  0
 79148  1  0  0  0
 80149  1  0  0  0
 80150  1  0  0  0
 81151  1  0  0  0
 82152  1  0  0  0
 83153  1  0  0  0
 83154  1  0  0  0
M  CHG  1  83   1
M  ISO  4   1 100  68 101  79 101  81 100
M  END
> <chiral flag>
0

> <version>
0

> <s_m_source_file>
/data/baiqing/PycharmProjects/Reinvent-master-3.2/result/LINK_invent/BTK/process_docking_weight1_custom_product_contain_oxygen_bond_distance_aromatic_linkinvent_7_9_3/rearranged_h_0067.sdf

> <i_m_source_file_index>
19

> <r_mmod_Potential_Energy-OPLS-2005>
-150.063629150391

> <r_mmod_Stretch_Energy-OPLS-2005>
90.3208160400391

> <r_mmod_Bend_Energy-OPLS-2005>
150.81217956543

> <r_mmod_Torsional_Energy-OPLS-2005>
231.888076782227

> <r_mmod_Improper_Torsional_Energy-OPLS-2005>
9.39498233795166

> <r_mmod_Van_der_Waal_Energy-OPLS-2005>
160.963638305664

> <r_mmod_Electrostatic_Energy-OPLS-2005>
-380.303527832031

> <r_mmod_Solvation_Energy-OPLS-2005>
-463.129943847656

> <b_mmod_Minimization_Converged-OPLS-2005>
0

> <r_mmod_RMS_Derivative-OPLS-2005>
0.219775184988976

$$$$
19
                    3D
 Structure written by MMmdl.
154162  0  0  1  0            999 V2000
  -30.6341  -14.7389   20.4289 C   0  0  0  0  0  0
  -30.4214  -12.4442   19.4776 C   0  0  0  0  0  0
  -29.5057  -12.4981   18.2360 C   0  0  0  0  0  0
  -28.0321  -12.3279   18.6513 C   0  0  0  0  0  0
  -27.6384  -13.2369   19.8467 C   0  0  2  0  0  0
  -28.6832  -13.1891   20.9829 C   0  0  0  0  0  0
  -25.2491  -13.8212   20.5700 C   0  0  0  0  0  0
  -24.1791  -13.0445   20.9211 C   0  0  0  0  0  0
  -24.6392  -11.6924   20.8751 C   0  0  0  0  0  0
  -23.9078  -10.4295   21.0405 C   0  0  0  0  0  0
  -24.3629   -9.4209   21.9181 C   0  0  0  0  0  0
  -23.6300   -8.2246   22.0754 C   0  0  0  0  0  0
  -22.4283   -8.0283   21.3546 C   0  0  0  0  0  0
  -21.9919   -9.0257   20.4651 C   0  0  0  0  0  0
  -22.7251  -10.2133   20.3058 C   0  0  0  0  0  0
  -21.6853   -6.0736   22.5279 C   0  0  0  0  0  0
  -21.4018   -6.5640   23.8214 C   0  0  0  0  0  0
  -21.3659   -5.6794   24.9173 C   0  0  0  0  0  0
  -21.6040   -4.3058   24.7226 C   0  0  0  0  0  0
  -21.8819   -3.8148   23.4351 C   0  0  0  0  0  0
  -21.9195   -4.6963   22.3404 C   0  0  0  0  0  0
  -22.7814  -13.5214   21.1878 C   0  0  0  0  0  0
  -22.1659   -4.2149   21.0983 F   0  0  0  0  0  0
  -21.5625   -3.4545   25.7740 F   0  0  0  0  0  0
  -29.9852  -13.5238   20.3956 N   0  0  0  0  0  0
  -26.2925  -12.9429   20.3278 N   0  0  0  0  0  0
  -25.9325  -11.6570   20.5760 N   0  0  0  0  0  0
  -22.0470  -12.8193   22.0439 N   0  0  0  0  0  0
  -25.4167  -15.1937   20.4104 N   0  0  0  0  0  0
  -31.8378  -14.7676   20.1651 O   0  0  0  0  0  0
  -21.6643   -6.8883   21.4245 O   0  0  0  0  0  0
  -22.3493  -14.5516   20.6728 O   0  0  0  0  0  0
  -24.6291  -31.8550   23.1959 C   0  0  0  0  0  0
  -25.9121  -32.4757   23.8298 C   0  0  1  0  0  0
  -27.2288  -27.2772   20.1196 C   0  0  0  0  0  0
  -25.5904  -33.8555   24.2228 N   0  0  0  0  0  0
  -23.4246  -30.4757   21.5391 C   0  0  2  0  0  0
  -24.8713  -28.9189   20.1080 C   0  0  0  0  0  0
  -22.7492  -29.4589   22.4911 C   0  0  0  0  0  0
  -18.0287  -28.1410   22.8479 C   0  0  0  0  0  0
  -24.1483  -36.7297   23.2645 C   0  0  0  0  0  0
  -25.9655  -30.7738   21.3681 C   0  0  0  0  0  0
  -26.0389  -29.3942   20.7150 C   0  0  0  0  0  0
  -27.2146  -28.5832   20.7127 C   0  0  0  0  0  0
  -26.0341  -26.8560   19.4945 C   0  0  0  0  0  0
  -24.8726  -27.6572   19.4892 C   0  0  0  0  0  0
  -23.6409  -29.8045   20.1560 C   0  0  0  0  0  0
  -25.4112  -36.3074   24.0322 C   0  0  1  0  0  0
  -20.5888  -28.3708   23.1288 C   0  0  2  0  0  0
  -20.6767  -26.9417   22.5446 C   0  0  0  0  0  0
  -19.5760  -26.6387   21.5230 C   0  0  0  0  0  0
  -18.1927  -26.7955   22.1609 C   0  0  0  0  0  0
  -19.1540  -28.8872   23.2878 C   0  0  0  0  0  0
  -18.9472  -30.1469   23.8902 C   0  0  0  0  0  0
  -17.6473  -30.6601   24.0582 C   0  0  0  0  0  0
  -25.9059  -34.9447   23.5086 C   0  0  0  0  0  0
  -16.5359  -29.9106   23.6342 C   0  0  0  0  0  0
  -16.7278  -28.6530   23.0342 C   0  0  0  0  0  0
  -26.4496  -31.6582   25.0687 C   0  0  0  0  0  0
  -25.3723  -31.3747   26.1421 C   0  0  0  0  0  0
  -27.0317  -30.2995   24.6146 C   0  0  0  0  0  0
  -27.6068  -32.4309   25.7441 C   0  0  0  0  0  0
  -27.5586  -37.1786   24.8458 C   0  0  0  0  0  0
  -21.4198  -29.3039   22.3661 N   0  0  0  0  0  0
  -26.4286  -37.3775   23.9423 N   0  0  0  0  0  0
  -24.6926  -31.0530   22.0918 N   0  0  0  0  0  0
  -23.4199  -28.8144   23.3016 O   0  0  0  0  0  0
  -28.3644  -26.4455   20.2010 O   0  0  0  0  0  0
  -26.5649  -34.8923   22.4670 O   0  0  0  0  0  0
  -23.5449  -32.1355   23.7278 O   0  0  0  0  0  0
  -30.8883  -19.9763   19.2339 C   0  0  0  0  0  0
  -31.3039  -17.5630   19.2990 C   0  0  0  0  0  0
  -29.4356  -18.5117   20.5281 C   0  0  0  0  0  0
  -31.6505  -18.8550   18.8603 C   0  0  0  0  0  0
  -29.7499  -19.8635   20.0635 C   0  0  0  0  0  0
  -30.2034  -17.3207   20.1599 C   0  0  0  0  0  0
  -28.9632  -22.3424   19.7792 C   0  0  0  0  0  0
  -32.8680  -19.0388   17.9744 C   0  0  0  0  0  0
  -28.4836  -25.0727   19.6070 C   0  0  0  0  0  0
  -28.4665  -23.7021   20.4759 C   0  0  2  0  0  0
  -29.0502  -21.1229   20.4510 N   0  0  0  0  0  0
  -29.8933  -15.9137   20.5737 N   0  0  0  0  0  0
  -29.2369  -22.4053   18.5772 O   0  0  0  0  0  0
  -29.2183  -23.8930   21.5642 F   0  0  0  0  0  0
  -31.4657  -12.5439   19.1768 H   0  0  0  0  0  0
  -30.3468  -11.4734   19.9696 H   0  0  0  0  0  0
  -29.7839  -11.7182   17.5256 H   0  0  0  0  0  0
  -29.6374  -13.4493   17.7172 H   0  0  0  0  0  0
  -27.8885  -11.2813   18.9216 H   0  0  0  0  0  0
  -27.3739  -12.5138   17.8012 H   0  0  0  0  0  0
  -27.6278  -14.2552   19.4566 H   0  0  0  0  0  0
  -28.7136  -12.2009   21.4440 H   0  0  0  0  0  0
  -28.4240  -13.8916   21.7763 H   0  0  0  0  0  0
  -25.2774   -9.5681   22.4760 H   0  0  0  0  0  0
  -24.0008   -7.4637   22.7475 H   0  0  0  0  0  0
  -21.0850   -8.8781   19.8960 H   0  0  0  0  0  0
  -22.3711  -10.9674   19.6170 H   0  0  0  0  0  0
  -21.2013   -7.6149   23.9718 H   0  0  0  0  0  0
  -21.1475   -6.0523   25.9076 H   0  0  0  0  0  0
  -22.0597   -2.7612   23.2851 H   0  0  0  0  0  0
  -22.4100  -11.9847   22.4802 H   0  0  0  0  0  0
  -21.1092  -13.1210   22.2668 H   0  0  0  0  0  0
  -24.6452  -15.8441   20.5146 H   0  0  0  0  0  0
  -26.2599  -15.6350   20.0658 H   0  0  0  0  0  0
  -26.7180  -32.5415   23.1034 H   0  0  0  0  0  0
  -24.9984  -33.9662   25.0327 H   0  0  0  0  0  0
  -22.7203  -31.2968   21.3907 H   0  0  0  0  0  0
  -23.3746  -35.9622   23.3276 H   0  0  0  0  0  0
  -24.3574  -36.8972   22.2066 H   0  0  0  0  0  0
  -23.7223  -37.6478   23.6702 H   0  0  0  0  0  0
  -26.0919  -31.5293   20.5913 H   0  0  0  0  0  0
  -26.8480  -30.8329   21.9937 H   0  0  0  0  0  0
  -28.1102  -28.9412   21.2011 H   0  0  0  0  0  0
  -25.9579  -25.8866   19.0283 H   0  0  0  0  0  0
  -23.9749  -27.2856   19.0146 H   0  0  0  0  0  0
  -23.7626  -30.5784   19.3967 H   0  0  0  0  0  0
  -22.7596  -29.2352   19.8548 H   0  0  0  0  0  0
  -25.1290  -36.1919   25.0811 H   0  0  0  0  0  0
  -20.9977  -28.3310   24.1410 H   0  0  0  0  0  0
  -20.5666  -26.2316   23.3656 H   0  0  0  0  0  0
  -21.6634  -26.7439   22.1244 H   0  0  0  0  0  0
  -19.6928  -25.6298   21.1258 H   0  0  0  0  0  0
  -19.6725  -27.3199   20.6764 H   0  0  0  0  0  0
  -17.4212  -26.6732   21.3990 H   0  0  0  0  0  0
  -18.0294  -26.0092   22.8998 H   0  0  0  0  0  0
  -19.7951  -30.7285   24.2260 H   0  0  0  0  0  0
  -17.5031  -31.6275   24.5198 H   0  0  0  0  0  0
  -15.5366  -30.3015   23.7661 H   0  0  0  0  0  0
  -15.8675  -28.0869   22.7037 H   0  0  0  0  0  0
  -24.5939  -30.7032   25.7783 H   0  0  0  0  0  0
  -24.8853  -32.2906   26.4774 H   0  0  0  0  0  0
  -25.8044  -30.9013   27.0246 H   0  0  0  0  0  0
  -26.2860  -29.6740   24.1217 H   0  0  0  0  0  0
  -27.4062  -29.7274   25.4645 H   0  0  0  0  0  0
  -27.8715  -30.4269   23.9308 H   0  0  0  0  0  0
  -27.2716  -33.3652   26.1951 H   0  0  0  0  0  0
  -28.3894  -32.6789   25.0259 H   0  0  0  0  0  0
  -28.0699  -31.8463   26.5402 H   0  0  0  0  0  0
  -28.2591  -38.0096   24.7510 H   0  0  0  0  0  0
  -28.1083  -36.2623   24.6246 H   0  0  0  0  0  0
  -27.2315  -37.1410   25.8863 H   0  0  0  0  0  0
  -20.9394  -29.8750   21.6848 H   0  0  0  0  0  0
  -26.0170  -38.2847   24.1447 H   0  0  0  0  0  0
  -31.2113  -20.9454   18.8815 H   0  0  0  0  0  0
  -31.9231  -16.7570   18.9391 H   0  0  0  0  0  0
  -28.5839  -18.3874   21.1813 H   0  0  0  0  0  0
  -33.1889  -20.0810   17.9449 H   0  0  0  0  0  0
  -32.6474  -18.7226   16.9547 H   0  0  0  0  0  0
  -33.7058  -18.4457   18.3429 H   0  0  0  0  0  0
  -27.8177  -24.9596   18.7541 H   0  0  0  0  0  0
  -29.4688  -25.1036   19.1398 H   0  0  0  0  0  0
  -27.4533  -23.5356   20.8397 H   0  0  0  0  0  0
  -28.6369  -21.1257   21.3742 H   0  0  0  0  0  0
  -28.9551  -15.7653   20.9143 H   0  0  0  0  0  0
  1 25  1  0  0  0
  1 30  2  0  0  0
  1 82  1  0  0  0
  2  3  1  0  0  0
  2 25  1  0  0  0
  2 85  1  0  0  0
  2 86  1  0  0  0
  3  4  1  0  0  0
  3 87  1  0  0  0
  3 88  1  0  0  0
  4  5  1  0  0  0
  4 89  1  0  0  0
  4 90  1  0  0  0
  5  6  1  0  0  0
  5 26  1  0  0  0
  5 91  1  0  0  0
  6 25  1  0  0  0
  6 92  1  0  0  0
  6 93  1  0  0  0
  7  8  2  0  0  0
  7 26  1  0  0  0
  7 29  1  0  0  0
  8  9  1  0  0  0
  8 22  1  0  0  0
  9 10  1  0  0  0
  9 27  2  0  0  0
 10 11  2  0  0  0
 10 15  1  0  0  0
 11 12  1  0  0  0
 11 94  1  0  0  0
 12 13  2  0  0  0
 12 95  1  0  0  0
 13 14  1  0  0  0
 13 31  1  0  0  0
 14 15  2  0  0  0
 14 96  1  0  0  0
 15 97  1  0  0  0
 16 17  2  0  0  0
 16 21  1  0  0  0
 16 31  1  0  0  0
 17 18  1  0  0  0
 17 98  1  0  0  0
 18 19  2  0  0  0
 18 99  1  0  0  0
 19 20  1  0  0  0
 19 24  1  0  0  0
 20 21  2  0  0  0
 20100  1  0  0  0
 21 23  1  0  0  0
 22 28  1  0  0  0
 22 32  2  0  0  0
 26 27  1  0  0  0
 28101  1  0  0  0
 28102  1  0  0  0
 29103  1  0  0  0
 29104  1  0  0  0
 33 34  1  0  0  0
 33 66  1  0  0  0
 33 70  2  0  0  0
 34 36  1  0  0  0
 34 59  1  0  0  0
 34105  1  0  0  0
 35 44  2  0  0  0
 35 45  1  0  0  0
 35 68  1  0  0  0
 36 56  1  0  0  0
 36106  1  0  0  0
 37 39  1  0  0  0
 37 47  1  0  0  0
 37 66  1  0  0  0
 37107  1  0  0  0
 38 43  2  0  0  0
 38 46  1  0  0  0
 38 47  1  0  0  0
 39 64  1  0  0  0
 39 67  2  0  0  0
 40 52  1  0  0  0
 40 53  2  0  0  0
 40 58  1  0  0  0
 41108  1  0  0  0
 41109  1  0  0  0
 41110  1  0  0  0
 41 48  1  0  0  0
 42 43  1  0  0  0
 42 66  1  0  0  0
 42111  1  0  0  0
 42112  1  0  0  0
 43 44  1  0  0  0
 44113  1  0  0  0
 45 46  2  0  0  0
 45114  1  0  0  0
 46115  1  0  0  0
 47116  1  0  0  0
 47117  1  0  0  0
 48 56  1  0  0  0
 48 65  1  0  0  0
 48118  1  0  0  0
 49 50  1  0  0  0
 49 53  1  0  0  0
 49 64  1  0  0  0
 49119  1  0  0  0
 50 51  1  0  0  0
 50120  1  0  0  0
 50121  1  0  0  0
 51 52  1  0  0  0
 51122  1  0  0  0
 51123  1  0  0  0
 52124  1  0  0  0
 52125  1  0  0  0
 53 54  1  0  0  0
 54 55  2  0  0  0
 54126  1  0  0  0
 55 57  1  0  0  0
 55127  1  0  0  0
 56 69  2  0  0  0
 57 58  2  0  0  0
 57128  1  0  0  0
 58129  1  0  0  0
 59 60  1  0  0  0
 59 61  1  0  0  0
 59 62  1  0  0  0
 60130  1  0  0  0
 60131  1  0  0  0
 60132  1  0  0  0
 61133  1  0  0  0
 61134  1  0  0  0
 61135  1  0  0  0
 62136  1  0  0  0
 62137  1  0  0  0
 62138  1  0  0  0
 63 65  1  0  0  0
 63139  1  0  0  0
 63140  1  0  0  0
 63141  1  0  0  0
 64142  1  0  0  0
 65143  1  0  0  0
 68 79  1  0  0  0
 71 74  2  0  0  0
 71 75  1  0  0  0
 71144  1  0  0  0
 72 74  1  0  0  0
 72 76  2  0  0  0
 72145  1  0  0  0
 73 75  2  0  0  0
 73 76  1  0  0  0
 73146  1  0  0  0
 74 78  1  0  0  0
 75 81  1  0  0  0
 76 82  1  0  0  0
 77 80  1  0  0  0
 77 81  1  0  0  0
 77 83  2  0  0  0
 78147  1  0  0  0
 78148  1  0  0  0
 78149  1  0  0  0
 79 80  1  0  0  0
 79150  1  0  0  0
 79151  1  0  0  0
 80 84  1  0  0  0
 80152  1  0  0  0
 81153  1  0  0  0
 82154  1  0  0  0
M  ISO  4   1 100  68 101  79 101  82 100
M  END
> <chiral flag>
0

> <version>
0

> <s_m_source_file>
/data/baiqing/PycharmProjects/Reinvent-master-3.2/result/LINK_invent/BTK/process_docking_weight1_custom_product_contain_oxygen_bond_distance_aromatic_linkinvent_7_9_3/rearranged_h_0067.sdf

> <i_m_source_file_index>
20

> <r_mmod_Potential_Energy-OPLS-2005>
184.38298034668

> <r_mmod_Stretch_Energy-OPLS-2005>
129.245849609375

> <r_mmod_Bend_Energy-OPLS-2005>
171.597808837891

> <r_mmod_Torsional_Energy-OPLS-2005>
231.444976806641

> <r_mmod_Improper_Torsional_Energy-OPLS-2005>
4.63317155838013

> <r_mmod_Van_der_Waal_Energy-OPLS-2005>
148.452560424805

> <r_mmod_Electrostatic_Energy-OPLS-2005>
-350.548950195312

> <r_mmod_Solvation_Energy-OPLS-2005>
-229.385879516602

> <b_mmod_Minimization_Converged-OPLS-2005>
0

> <r_mmod_RMS_Derivative-OPLS-2005>
1.37137925624847

$$$$
20
                    3D
 Structure written by MMmdl.
151159  0  0  1  0            999 V2000
  -30.4400  -15.1058   20.3706 C   0  0  0  0  0  0
  -30.4324  -12.6959   19.4721 C   0  0  0  0  0  0
  -29.5034  -12.5172   18.2484 C   0  0  0  0  0  0
  -28.0476  -12.2792   18.6890 C   0  0  0  0  0  0
  -27.6060  -13.2475   19.8153 C   0  0  2  0  0  0
  -28.6516  -13.3487   20.9399 C   0  0  0  0  0  0
  -25.2389  -13.8204   20.5767 C   0  0  0  0  0  0
  -24.1692  -13.0437   20.9221 C   0  0  0  0  0  0
  -24.6324  -11.6922   20.8769 C   0  0  0  0  0  0
  -23.9036  -10.4302   21.0421 C   0  0  0  0  0  0
  -24.3601   -9.4217   21.9189 C   0  0  0  0  0  0
  -23.6285   -8.2252   22.0760 C   0  0  0  0  0  0
  -22.4276   -8.0287   21.3540 C   0  0  0  0  0  0
  -21.9896   -9.0268   20.4654 C   0  0  0  0  0  0
  -22.7212  -10.2149   20.3061 C   0  0  0  0  0  0
  -21.6873   -6.0741   22.5278 C   0  0  0  0  0  0
  -21.4029   -6.5644   23.8219 C   0  0  0  0  0  0
  -21.3644   -5.6788   24.9164 C   0  0  0  0  0  0
  -21.6015   -4.3046   24.7204 C   0  0  0  0  0  0
  -21.8824   -3.8147   23.4332 C   0  0  0  0  0  0
  -21.9202   -4.6974   22.3397 C   0  0  0  0  0  0
  -22.7737  -13.5258   21.1852 C   0  0  0  0  0  0
  -22.1667   -4.2177   21.0977 F   0  0  0  0  0  0
  -21.5608   -3.4526   25.7711 F   0  0  0  0  0  0
  -29.8870  -13.8164   20.2999 N   0  0  0  0  0  0
  -26.2752  -12.9410   20.3200 N   0  0  0  0  0  0
  -25.9234  -11.6549   20.5733 N   0  0  0  0  0  0
  -22.0367  -12.8312   22.0429 N   0  0  0  0  0  0
  -25.4117  -15.1943   20.4366 N   0  0  0  0  0  0
  -31.6700  -15.1537   20.2355 O   0  0  0  0  0  0
  -21.6637   -6.8891   21.4239 O   0  0  0  0  0  0
  -22.3469  -14.5565   20.6695 O   0  0  0  0  0  0
  -24.6526  -31.8339   23.1848 C   0  0  0  0  0  0
  -25.9258  -32.4665   23.8267 C   0  0  1  0  0  0
  -27.1935  -27.0203   20.1548 C   0  0  0  0  0  0
  -25.5964  -33.8474   24.2166 N   0  0  0  0  0  0
  -23.4603  -30.4526   21.5324 C   0  0  2  0  0  0
  -24.9063  -28.8635   20.1108 C   0  0  0  0  0  0
  -22.7609  -29.4489   22.4847 C   0  0  0  0  0  0
  -18.0311  -28.1370   22.8474 C   0  0  0  0  0  0
  -24.1460  -36.7225   23.2642 C   0  0  0  0  0  0
  -26.0253  -30.6707   21.3995 C   0  0  0  0  0  0
  -26.0903  -29.2687   20.7423 C   0  0  0  0  0  0
  -27.2333  -28.3638   20.7482 C   0  0  0  0  0  0
  -25.9882  -26.7532   19.4702 C   0  0  0  0  0  0
  -24.8759  -27.6225   19.4588 C   0  0  0  0  0  0
  -23.6935  -29.7841   20.1517 C   0  0  0  0  0  0
  -25.4107  -36.3018   24.0312 C   0  0  1  0  0  0
  -20.5915  -28.3696   23.1218 C   0  0  2  0  0  0
  -20.6789  -26.9393   22.5400 C   0  0  0  0  0  0
  -19.5765  -26.6347   21.5209 C   0  0  0  0  0  0
  -18.1954  -26.7912   22.1624 C   0  0  0  0  0  0
  -19.1560  -28.8867   23.2826 C   0  0  0  0  0  0
  -18.9473  -30.1461   23.8859 C   0  0  0  0  0  0
  -17.6461  -30.6577   24.0542 C   0  0  0  0  0  0
  -25.9070  -34.9398   23.5057 C   0  0  0  0  0  0
  -16.5355  -29.9058   23.6320 C   0  0  0  0  0  0
  -16.7292  -28.6463   23.0372 C   0  0  0  0  0  0
  -26.4540  -31.6582   25.0753 C   0  0  0  0  0  0
  -25.3719  -31.3793   26.1447 C   0  0  0  0  0  0
  -27.0418  -30.2968   24.6403 C   0  0  0  0  0  0
  -27.6053  -32.4375   25.7554 C   0  0  0  0  0  0
  -27.5552  -37.1781   24.8471 C   0  0  0  0  0  0
  -21.4288  -29.3013   22.3596 N   0  0  0  0  0  0
  -26.4256  -37.3748   23.9416 N   0  0  0  0  0  0
  -24.7345  -31.0103   22.0932 N   0  0  0  0  0  0
  -23.4193  -28.8034   23.3038 O   0  0  0  0  0  0
  -28.1959  -25.9476   20.1806 O   0  0  0  0  0  0
  -26.5648  -34.8906   22.4624 O   0  0  0  0  0  0
  -23.5622  -32.1278   23.6996 O   0  0  0  0  0  0
  -29.8609  -17.6587   22.1309 C   0  0  0  0  0  0
  -27.4909  -18.7416   21.0396 C   0  0  0  0  0  0
  -29.7074  -17.8062   20.7354 C   0  0  0  0  0  0
  -28.6803  -17.7209   22.9094 C   0  0  0  0  0  0
  -28.7598  -18.9873   20.4644 C   0  0  0  0  0  0
  -27.4689  -18.1514   22.3192 C   0  0  0  0  0  0
  -28.6679  -23.2521   20.1738 C   0  0  0  0  0  0
  -27.8870  -24.4743   20.2459 C   0  0  0  0  0  0
  -28.1890  -21.7421   20.2984 C   0  0  0  0  0  0
  -28.6668  -17.2804   24.2327 N   0  0  0  0  0  0
  -29.0247  -20.5407   20.2420 N   0  0  0  0  0  0
  -29.6134  -16.3018   20.2765 N   0  0  0  0  0  0
  -26.9793  -21.5751   20.4473 O   0  0  0  0  0  0
  -26.3123  -18.0970   23.0266 F   0  0  0  0  0  0
  -31.4474  -12.9137   19.1349 H   0  0  0  0  0  0
  -30.4969  -11.7743   20.0522 H   0  0  0  0  0  0
  -29.8372  -11.6838   17.6306 H   0  0  0  0  0  0
  -29.5490  -13.4064   17.6205 H   0  0  0  0  0  0
  -27.9739  -11.2522   19.0447 H   0  0  0  0  0  0
  -27.3698  -12.3499   17.8371 H   0  0  0  0  0  0
  -27.5419  -14.2248   19.3362 H   0  0  0  0  0  0
  -28.7954  -12.3942   21.4440 H   0  0  0  0  0  0
  -28.3340  -14.0603   21.7039 H   0  0  0  0  0  0
  -25.2743   -9.5727   22.4786 H   0  0  0  0  0  0
  -23.9974   -7.4678   22.7542 H   0  0  0  0  0  0
  -21.0785   -8.8809   19.9037 H   0  0  0  0  0  0
  -22.3634  -10.9693   19.6208 H   0  0  0  0  0  0
  -21.2046   -7.6157   23.9734 H   0  0  0  0  0  0
  -21.1445   -6.0502   25.9069 H   0  0  0  0  0  0
  -22.0615   -2.7627   23.2801 H   0  0  0  0  0  0
  -22.3929  -11.9933   22.4778 H   0  0  0  0  0  0
  -21.1020  -13.1418   22.2679 H   0  0  0  0  0  0
  -24.6623  -15.8479   20.6347 H   0  0  0  0  0  0
  -26.2850  -15.6500   20.2212 H   0  0  0  0  0  0
  -26.7318  -32.5235   23.0987 H   0  0  0  0  0  0
  -25.0159  -33.9593   25.0343 H   0  0  0  0  0  0
  -22.7679  -31.2825   21.3756 H   0  0  0  0  0  0
  -23.3750  -35.9530   23.3311 H   0  0  0  0  0  0
  -24.3531  -36.8852   22.2057 H   0  0  0  0  0  0
  -23.7195  -37.6407   23.6680 H   0  0  0  0  0  0
  -26.1892  -31.4211   20.6243 H   0  0  0  0  0  0
  -26.8914  -30.7267   22.0475 H   0  0  0  0  0  0
  -28.1376  -28.6685   21.2590 H   0  0  0  0  0  0
  -25.8793  -25.8111   18.9548 H   0  0  0  0  0  0
  -23.9791  -27.3108   18.9405 H   0  0  0  0  0  0
  -23.8502  -30.5613   19.4032 H   0  0  0  0  0  0
  -22.8019  -29.2439   19.8294 H   0  0  0  0  0  0
  -25.1302  -36.1838   25.0808 H   0  0  0  0  0  0
  -20.9997  -28.3293   24.1337 H   0  0  0  0  0  0
  -20.5680  -26.2329   23.3634 H   0  0  0  0  0  0
  -21.6660  -26.7388   22.1212 H   0  0  0  0  0  0
  -19.6924  -25.6244   21.1277 H   0  0  0  0  0  0
  -19.6696  -27.3124   20.6715 H   0  0  0  0  0  0
  -17.4225  -26.6659   21.4028 H   0  0  0  0  0  0
  -18.0354  -26.0056   22.9027 H   0  0  0  0  0  0
  -19.7950  -30.7275   24.2227 H   0  0  0  0  0  0
  -17.5009  -31.6262   24.5129 H   0  0  0  0  0  0
  -15.5349  -30.2945   23.7661 H   0  0  0  0  0  0
  -15.8693  -28.0763   22.7135 H   0  0  0  0  0  0
  -24.5899  -30.7130   25.7781 H   0  0  0  0  0  0
  -24.8910  -32.2979   26.4819 H   0  0  0  0  0  0
  -25.8003  -30.9019   27.0266 H   0  0  0  0  0  0
  -26.3053  -29.6703   24.1357 H   0  0  0  0  0  0
  -27.3919  -29.7281   25.5025 H   0  0  0  0  0  0
  -27.9014  -30.4186   23.9817 H   0  0  0  0  0  0
  -27.2615  -33.3688   26.2069 H   0  0  0  0  0  0
  -28.3904  -32.6917   25.0426 H   0  0  0  0  0  0
  -28.0675  -31.8556   26.5538 H   0  0  0  0  0  0
  -28.2589  -38.0057   24.7513 H   0  0  0  0  0  0
  -28.1028  -36.2601   24.6313 H   0  0  0  0  0  0
  -27.2274  -37.1453   25.8871 H   0  0  0  0  0  0
  -20.9513  -29.8731   21.6766 H   0  0  0  0  0  0
  -26.0123  -38.2801   24.1451 H   0  0  0  0  0  0
  -30.6889  -17.0877   22.5273 H   0  0  0  0  0  0
  -26.5980  -19.2670   20.7386 H   0  0  0  0  0  0
  -29.7282  -23.3835   20.0204 H   0  0  0  0  0  0
  -26.8236  -24.3494   20.4000 H   0  0  0  0  0  0
  -29.2475  -16.4817   24.4593 H   0  0  0  0  0  0
  -27.7383  -17.2010   24.6381 H   0  0  0  0  0  0
  -29.9937  -20.7521   20.0428 H   0  0  0  0  0  0
  -28.6803  -16.0564   19.9848 H   0  0  0  0  0  0
  1 25  1  0  0  0
  1 30  2  0  0  0
  1 82  1  0  0  0
  2  3  1  0  0  0
  2 25  1  0  0  0
  2 85  1  0  0  0
  2 86  1  0  0  0
  3  4  1  0  0  0
  3 87  1  0  0  0
  3 88  1  0  0  0
  4  5  1  0  0  0
  4 89  1  0  0  0
  4 90  1  0  0  0
  5  6  1  0  0  0
  5 26  1  0  0  0
  5 91  1  0  0  0
  6 25  1  0  0  0
  6 92  1  0  0  0
  6 93  1  0  0  0
  7  8  2  0  0  0
  7 26  1  0  0  0
  7 29  1  0  0  0
  8  9  1  0  0  0
  8 22  1  0  0  0
  9 10  1  0  0  0
  9 27  2  0  0  0
 10 11  2  0  0  0
 10 15  1  0  0  0
 11 12  1  0  0  0
 11 94  1  0  0  0
 12 13  2  0  0  0
 12 95  1  0  0  0
 13 14  1  0  0  0
 13 31  1  0  0  0
 14 15  2  0  0  0
 14 96  1  0  0  0
 15 97  1  0  0  0
 16 17  2  0  0  0
 16 21  1  0  0  0
 16 31  1  0  0  0
 17 18  1  0  0  0
 17 98  1  0  0  0
 18 19  2  0  0  0
 18 99  1  0  0  0
 19 20  1  0  0  0
 19 24  1  0  0  0
 20 21  2  0  0  0
 20100  1  0  0  0
 21 23  1  0  0  0
 22 28  1  0  0  0
 22 32  2  0  0  0
 26 27  1  0  0  0
 28101  1  0  0  0
 28102  1  0  0  0
 29103  1  0  0  0
 29104  1  0  0  0
 33 34  1  0  0  0
 33 66  1  0  0  0
 33 70  2  0  0  0
 34 36  1  0  0  0
 34 59  1  0  0  0
 34105  1  0  0  0
 35 44  2  0  0  0
 35 45  1  0  0  0
 35 68  1  0  0  0
 36 56  1  0  0  0
 36106  1  0  0  0
 37 39  1  0  0  0
 37 47  1  0  0  0
 37 66  1  0  0  0
 37107  1  0  0  0
 38 43  2  0  0  0
 38 46  1  0  0  0
 38 47  1  0  0  0
 39 64  1  0  0  0
 39 67  2  0  0  0
 40 52  1  0  0  0
 40 53  2  0  0  0
 40 58  1  0  0  0
 41108  1  0  0  0
 41109  1  0  0  0
 41110  1  0  0  0
 41 48  1  0  0  0
 42 43  1  0  0  0
 42 66  1  0  0  0
 42111  1  0  0  0
 42112  1  0  0  0
 43 44  1  0  0  0
 44113  1  0  0  0
 45 46  2  0  0  0
 45114  1  0  0  0
 46115  1  0  0  0
 47116  1  0  0  0
 47117  1  0  0  0
 48 56  1  0  0  0
 48 65  1  0  0  0
 48118  1  0  0  0
 49 50  1  0  0  0
 49 53  1  0  0  0
 49 64  1  0  0  0
 49119  1  0  0  0
 50 51  1  0  0  0
 50120  1  0  0  0
 50121  1  0  0  0
 51 52  1  0  0  0
 51122  1  0  0  0
 51123  1  0  0  0
 52124  1  0  0  0
 52125  1  0  0  0
 53 54  1  0  0  0
 54 55  2  0  0  0
 54126  1  0  0  0
 55 57  1  0  0  0
 55127  1  0  0  0
 56 69  2  0  0  0
 57 58  2  0  0  0
 57128  1  0  0  0
 58129  1  0  0  0
 59 60  1  0  0  0
 59 61  1  0  0  0
 59 62  1  0  0  0
 60130  1  0  0  0
 60131  1  0  0  0
 60132  1  0  0  0
 61133  1  0  0  0
 61134  1  0  0  0
 61135  1  0  0  0
 62136  1  0  0  0
 62137  1  0  0  0
 62138  1  0  0  0
 63 65  1  0  0  0
 63139  1  0  0  0
 63140  1  0  0  0
 63141  1  0  0  0
 64142  1  0  0  0
 65143  1  0  0  0
 68 78  1  0  0  0
 71 73  2  0  0  0
 71 74  1  0  0  0
 71144  1  0  0  0
 72 75  2  0  0  0
 72 76  1  0  0  0
 72145  1  0  0  0
 73 75  1  0  0  0
 73 82  1  0  0  0
 74 76  2  0  0  0
 74 80  1  0  0  0
 75 81  1  0  0  0
 76 84  1  0  0  0
 77 78  2  0  0  0
 77 79  1  0  0  0
 77146  1  0  0  0
 78147  1  0  0  0
 79 81  1  0  0  0
 79 83  2  0  0  0
 80148  1  0  0  0
 80149  1  0  0  0
 81150  1  0  0  0
 82151  1  0  0  0
M  ISO  4   1 100  68 101  78 101  82 100
M  END
> <chiral flag>
0

> <version>
0

> <s_m_source_file>
/data/baiqing/PycharmProjects/Reinvent-master-3.2/result/LINK_invent/BTK/process_docking_weight1_custom_product_contain_oxygen_bond_distance_aromatic_linkinvent_7_9_3/rearranged_h_0067.sdf

> <i_m_source_file_index>
21

> <r_mmod_Potential_Energy-OPLS-2005>
1026.25903320312

> <r_mmod_Stretch_Energy-OPLS-2005>
388.367919921875

> <r_mmod_Bend_Energy-OPLS-2005>
330.295532226562

> <r_mmod_Torsional_Energy-OPLS-2005>
470.796752929688

> <r_mmod_Improper_Torsional_Energy-OPLS-2005>
45.6138153076172

> <r_mmod_Van_der_Waal_Energy-OPLS-2005>
138.523422241211

> <r_mmod_Electrostatic_Energy-OPLS-2005>
-436.370452880859

> <r_mmod_Solvation_Energy-OPLS-2005>
-237.154891967773

> <b_mmod_Minimization_Converged-OPLS-2005>
0

> <r_mmod_RMS_Derivative-OPLS-2005>
4.17819929122925

$$$$
21
                    3D
 Structure written by MMmdl.
151159  0  0  1  0            999 V2000
  -30.5124  -15.0506   20.4092 C   0  0  0  0  0  0
  -30.4401  -12.6608   19.5000 C   0  0  0  0  0  0
  -29.5247  -12.5403   18.2597 C   0  0  0  0  0  0
  -28.0639  -12.3039   18.6867 C   0  0  0  0  0  0
  -27.6220  -13.2552   19.8292 C   0  0  2  0  0  0
  -28.6643  -13.3374   20.9632 C   0  0  0  0  0  0
  -25.2439  -13.8221   20.5719 C   0  0  0  0  0  0
  -24.1769  -13.0432   20.9243 C   0  0  0  0  0  0
  -24.6396  -11.6922   20.8759 C   0  0  0  0  0  0
  -23.9083  -10.4289   21.0411 C   0  0  0  0  0  0
  -24.3629   -9.4205   21.9190 C   0  0  0  0  0  0
  -23.6297   -8.2244   22.0760 C   0  0  0  0  0  0
  -22.4280   -8.0284   21.3547 C   0  0  0  0  0  0
  -21.9919   -9.0260   20.4651 C   0  0  0  0  0  0
  -22.7252  -10.2137   20.3062 C   0  0  0  0  0  0
  -21.6852   -6.0737   22.5276 C   0  0  0  0  0  0
  -21.4013   -6.5640   23.8209 C   0  0  0  0  0  0
  -21.3653   -5.6793   24.9171 C   0  0  0  0  0  0
  -21.6046   -4.3056   24.7222 C   0  0  0  0  0  0
  -21.8816   -3.8148   23.4342 C   0  0  0  0  0  0
  -21.9195   -4.6965   22.3399 C   0  0  0  0  0  0
  -22.7790  -13.5208   21.1885 C   0  0  0  0  0  0
  -22.1663   -4.2153   21.0976 F   0  0  0  0  0  0
  -21.5627   -3.4534   25.7733 F   0  0  0  0  0  0
  -29.9212  -13.7803   20.3458 N   0  0  0  0  0  0
  -26.2855  -12.9459   20.3221 N   0  0  0  0  0  0
  -25.9328  -11.6582   20.5729 N   0  0  0  0  0  0
  -22.0435  -12.8201   22.0441 N   0  0  0  0  0  0
  -25.4069  -15.1949   20.4135 N   0  0  0  0  0  0
  -31.7316  -15.0763   20.2011 O   0  0  0  0  0  0
  -21.6640   -6.8883   21.4241 O   0  0  0  0  0  0
  -22.3478  -14.5511   20.6723 O   0  0  0  0  0  0
  -24.6504  -31.8367   23.1839 C   0  0  0  0  0  0
  -25.9244  -32.4653   23.8253 C   0  0  1  0  0  0
  -27.2123  -27.0624   20.1615 C   0  0  0  0  0  0
  -25.5970  -33.8462   24.2164 N   0  0  0  0  0  0
  -23.4584  -30.4558   21.5286 C   0  0  2  0  0  0
  -24.9092  -28.8708   20.1101 C   0  0  0  0  0  0
  -22.7592  -29.4518   22.4802 C   0  0  0  0  0  0
  -18.0316  -28.1388   22.8456 C   0  0  0  0  0  0
  -24.1500  -36.7245   23.2646 C   0  0  0  0  0  0
  -26.0196  -30.6871   21.3947 C   0  0  0  0  0  0
  -26.0898  -29.2917   20.7355 C   0  0  0  0  0  0
  -27.2421  -28.4056   20.7417 C   0  0  0  0  0  0
  -26.0053  -26.7660   19.4897 C   0  0  0  0  0  0
  -24.8837  -27.6240   19.4702 C   0  0  0  0  0  0
  -23.6913  -29.7837   20.1495 C   0  0  0  0  0  0
  -25.4129  -36.3007   24.0314 C   0  0  1  0  0  0
  -20.5928  -28.3740   23.1184 C   0  0  2  0  0  0
  -20.6794  -26.9428   22.5384 C   0  0  0  0  0  0
  -19.5775  -26.6371   21.5187 C   0  0  0  0  0  0
  -18.1957  -26.7924   22.1600 C   0  0  0  0  0  0
  -19.1572  -28.8877   23.2813 C   0  0  0  0  0  0
  -18.9492  -30.1463   23.8858 C   0  0  0  0  0  0
  -17.6490  -30.6586   24.0551 C   0  0  0  0  0  0
  -25.9079  -34.9381   23.5048 C   0  0  0  0  0  0
  -16.5379  -29.9079   23.6333 C   0  0  0  0  0  0
  -16.7300  -28.6492   23.0355 C   0  0  0  0  0  0
  -26.4547  -31.6544   25.0724 C   0  0  0  0  0  0
  -25.3721  -31.3732   26.1410 C   0  0  0  0  0  0
  -27.0433  -30.2933   24.6358 C   0  0  0  0  0  0
  -27.6062  -32.4330   25.7504 C   0  0  0  0  0  0
  -27.5574  -37.1777   24.8463 C   0  0  0  0  0  0
  -21.4275  -29.3061   22.3548 N   0  0  0  0  0  0
  -26.4289  -37.3724   23.9403 N   0  0  0  0  0  0
  -24.7298  -31.0157   22.0908 N   0  0  0  0  0  0
  -23.4193  -28.8053   23.2980 O   0  0  0  0  0  0
  -28.2360  -26.0228   20.2250 O   0  0  0  0  0  0
  -26.5672  -34.8893   22.4630 O   0  0  0  0  0  0
  -23.5604  -32.1272   23.7013 O   0  0  0  0  0  0
  -31.6271  -19.4119   21.5895 C   0  0  0  0  0  0
  -31.2755  -18.0988   21.2196 C   0  0  0  0  0  0
  -29.2197  -19.0365   20.3499 C   0  0  0  0  0  0
  -30.8088  -20.5510   21.3820 C   0  0  0  0  0  0
  -30.0392  -17.7917   20.6251 C   0  0  0  0  0  0
  -29.5755  -20.4780   20.6598 C   0  0  0  0  0  0
  -29.0028  -23.2120   20.2552 C   0  0  0  0  0  0
  -31.3066  -21.8164   22.0646 C   0  0  0  0  0  0
  -27.8817  -24.4694   20.1957 C   0  0  0  0  0  0
  -28.7373  -21.7896   20.4063 N   0  0  0  0  0  0
  -29.7299  -16.2691   20.4398 N   0  0  0  0  0  0
  -30.1644  -23.5787   20.0717 O   0  0  0  0  0  0
  -31.4691  -12.8349   19.1823 H   0  0  0  0  0  0
  -30.4573  -11.7258   20.0622 H   0  0  0  0  0  0
  -29.8638  -11.7292   17.6138 H   0  0  0  0  0  0
  -29.5898  -13.4531   17.6655 H   0  0  0  0  0  0
  -27.9877  -11.2696   19.0244 H   0  0  0  0  0  0
  -27.3949  -12.3948   17.8302 H   0  0  0  0  0  0
  -27.5671  -14.2439   19.3735 H   0  0  0  0  0  0
  -28.7815  -12.3773   21.4679 H   0  0  0  0  0  0
  -28.3470  -14.0523   21.7240 H   0  0  0  0  0  0
  -25.2767   -9.5681   22.4771 H   0  0  0  0  0  0
  -23.9995   -7.4640   22.7485 H   0  0  0  0  0  0
  -21.0845   -8.8787   19.8962 H   0  0  0  0  0  0
  -22.3707  -10.9682   19.6176 H   0  0  0  0  0  0
  -21.2004   -7.6146   23.9715 H   0  0  0  0  0  0
  -21.1475   -6.0520   25.9075 H   0  0  0  0  0  0
  -22.0600   -2.7609   23.2839 H   0  0  0  0  0  0
  -22.4052  -11.9867   22.4836 H   0  0  0  0  0  0
  -21.1052  -13.1230   22.2637 H   0  0  0  0  0  0
  -24.6327  -15.8405   20.5270 H   0  0  0  0  0  0
  -26.2396  -15.6388   20.0497 H   0  0  0  0  0  0
  -26.7306  -32.5234   23.0965 H   0  0  0  0  0  0
  -25.0092  -33.9564   25.0296 H   0  0  0  0  0  0
  -22.7674  -31.2857   21.3682 H   0  0  0  0  0  0
  -23.3767  -35.9571   23.3280 H   0  0  0  0  0  0
  -24.3589  -36.8912   22.2067 H   0  0  0  0  0  0
  -23.7254  -37.6428   23.6711 H   0  0  0  0  0  0
  -26.1848  -31.4389   20.6224 H   0  0  0  0  0  0
  -26.8865  -30.7387   22.0418 H   0  0  0  0  0  0
  -28.1390  -28.7218   21.2562 H   0  0  0  0  0  0
  -25.8872  -25.8210   18.9837 H   0  0  0  0  0  0
  -23.9855  -27.2978   18.9640 H   0  0  0  0  0  0
  -23.8394  -30.5586   19.3965 H   0  0  0  0  0  0
  -22.8046  -29.2326   19.8317 H   0  0  0  0  0  0
  -25.1316  -36.1830   25.0808 H   0  0  0  0  0  0
  -21.0022  -28.3358   24.1304 H   0  0  0  0  0  0
  -20.5666  -26.2359   23.3618 H   0  0  0  0  0  0
  -21.6663  -26.7413   22.1197 H   0  0  0  0  0  0
  -19.6949  -25.6269   21.1249 H   0  0  0  0  0  0
  -19.6725  -27.3150   20.6691 H   0  0  0  0  0  0
  -17.4219  -26.6645   21.4016 H   0  0  0  0  0  0
  -18.0379  -26.0076   22.9010 H   0  0  0  0  0  0
  -19.7979  -30.7263   24.2225 H   0  0  0  0  0  0
  -17.5063  -31.6267   24.5154 H   0  0  0  0  0  0
  -15.5382  -30.2977   23.7685 H   0  0  0  0  0  0
  -15.8694  -28.0803   22.7104 H   0  0  0  0  0  0
  -24.5927  -30.7049   25.7720 H   0  0  0  0  0  0
  -24.8878  -32.2904   26.4773 H   0  0  0  0  0  0
  -25.8004  -30.8949   27.0229 H   0  0  0  0  0  0
  -26.3067  -29.6621   24.1371 H   0  0  0  0  0  0
  -27.4021  -29.7272   25.4962 H   0  0  0  0  0  0
  -27.8986  -30.4144   23.9709 H   0  0  0  0  0  0
  -27.2661  -33.3678   26.1971 H   0  0  0  0  0  0
  -28.3926  -32.6811   25.0363 H   0  0  0  0  0  0
  -28.0672  -31.8529   26.5509 H   0  0  0  0  0  0
  -28.2564  -38.0099   24.7512 H   0  0  0  0  0  0
  -28.1103  -36.2620   24.6289 H   0  0  0  0  0  0
  -27.2289  -37.1411   25.8868 H   0  0  0  0  0  0
  -20.9495  -29.8794   21.6734 H   0  0  0  0  0  0
  -26.0152  -38.2791   24.1417 H   0  0  0  0  0  0
  -32.5675  -19.5366   22.1078 H   0  0  0  0  0  0
  -31.9683  -17.3084   21.4677 H   0  0  0  0  0  0
  -28.2578  -18.8782   19.8837 H   0  0  0  0  0  0
  -31.9223  -21.5754   22.9319 H   0  0  0  0  0  0
  -30.4871  -22.4240   22.4467 H   0  0  0  0  0  0
  -31.9250  -22.4073   21.3899 H   0  0  0  0  0  0
  -27.1785  -24.2905   21.0098 H   0  0  0  0  0  0
  -27.3251  -24.2762   19.2798 H   0  0  0  0  0  0
  -27.7447  -21.6071   20.3357 H   0  0  0  0  0  0
  -28.7433  -16.0709   20.3703 H   0  0  0  0  0  0
  1 25  1  0  0  0
  1 30  2  0  0  0
  1 81  1  0  0  0
  2  3  1  0  0  0
  2 25  1  0  0  0
  2 83  1  0  0  0
  2 84  1  0  0  0
  3  4  1  0  0  0
  3 85  1  0  0  0
  3 86  1  0  0  0
  4  5  1  0  0  0
  4 87  1  0  0  0
  4 88  1  0  0  0
  5  6  1  0  0  0
  5 26  1  0  0  0
  5 89  1  0  0  0
  6 25  1  0  0  0
  6 90  1  0  0  0
  6 91  1  0  0  0
  7  8  2  0  0  0
  7 26  1  0  0  0
  7 29  1  0  0  0
  8  9  1  0  0  0
  8 22  1  0  0  0
  9 10  1  0  0  0
  9 27  2  0  0  0
 10 11  2  0  0  0
 10 15  1  0  0  0
 11 12  1  0  0  0
 11 92  1  0  0  0
 12 13  2  0  0  0
 12 93  1  0  0  0
 13 14  1  0  0  0
 13 31  1  0  0  0
 14 15  2  0  0  0
 14 94  1  0  0  0
 15 95  1  0  0  0
 16 17  2  0  0  0
 16 21  1  0  0  0
 16 31  1  0  0  0
 17 18  1  0  0  0
 17 96  1  0  0  0
 18 19  2  0  0  0
 18 97  1  0  0  0
 19 20  1  0  0  0
 19 24  1  0  0  0
 20 21  2  0  0  0
 20 98  1  0  0  0
 21 23  1  0  0  0
 22 28  1  0  0  0
 22 32  2  0  0  0
 26 27  1  0  0  0
 28 99  1  0  0  0
 28100  1  0  0  0
 29101  1  0  0  0
 29102  1  0  0  0
 33 34  1  0  0  0
 33 66  1  0  0  0
 33 70  2  0  0  0
 34 36  1  0  0  0
 34 59  1  0  0  0
 34103  1  0  0  0
 35 44  2  0  0  0
 35 45  1  0  0  0
 35 68  1  0  0  0
 36 56  1  0  0  0
 36104  1  0  0  0
 37 39  1  0  0  0
 37 47  1  0  0  0
 37 66  1  0  0  0
 37105  1  0  0  0
 38 43  2  0  0  0
 38 46  1  0  0  0
 38 47  1  0  0  0
 39 64  1  0  0  0
 39 67  2  0  0  0
 40 52  1  0  0  0
 40 53  2  0  0  0
 40 58  1  0  0  0
 41106  1  0  0  0
 41107  1  0  0  0
 41108  1  0  0  0
 41 48  1  0  0  0
 42 43  1  0  0  0
 42 66  1  0  0  0
 42109  1  0  0  0
 42110  1  0  0  0
 43 44  1  0  0  0
 44111  1  0  0  0
 45 46  2  0  0  0
 45112  1  0  0  0
 46113  1  0  0  0
 47114  1  0  0  0
 47115  1  0  0  0
 48 56  1  0  0  0
 48 65  1  0  0  0
 48116  1  0  0  0
 49 50  1  0  0  0
 49 53  1  0  0  0
 49 64  1  0  0  0
 49117  1  0  0  0
 50 51  1  0  0  0
 50118  1  0  0  0
 50119  1  0  0  0
 51 52  1  0  0  0
 51120  1  0  0  0
 51121  1  0  0  0
 52122  1  0  0  0
 52123  1  0  0  0
 53 54  1  0  0  0
 54 55  2  0  0  0
 54124  1  0  0  0
 55 57  1  0  0  0
 55125  1  0  0  0
 56 69  2  0  0  0
 57 58  2  0  0  0
 57126  1  0  0  0
 58127  1  0  0  0
 59 60  1  0  0  0
 59 61  1  0  0  0
 59 62  1  0  0  0
 60128  1  0  0  0
 60129  1  0  0  0
 60130  1  0  0  0
 61131  1  0  0  0
 61132  1  0  0  0
 61133  1  0  0  0
 62134  1  0  0  0
 62135  1  0  0  0
 62136  1  0  0  0
 63 65  1  0  0  0
 63137  1  0  0  0
 63138  1  0  0  0
 63139  1  0  0  0
 64140  1  0  0  0
 65141  1  0  0  0
 68 79  1  0  0  0
 71 72  2  0  0  0
 71 74  1  0  0  0
 71142  1  0  0  0
 72 75  1  0  0  0
 72143  1  0  0  0
 73 75  2  0  0  0
 73 76  1  0  0  0
 73144  1  0  0  0
 74 76  2  0  0  0
 74 78  1  0  0  0
 75 81  1  0  0  0
 76 80  1  0  0  0
 77 79  1  0  0  0
 77 80  1  0  0  0
 77 82  2  0  0  0
 78145  1  0  0  0
 78146  1  0  0  0
 78147  1  0  0  0
 79148  1  0  0  0
 79149  1  0  0  0
 80150  1  0  0  0
 81151  1  0  0  0
M  ISO  4   1 100  68 101  79 101  81 100
M  END
> <chiral flag>
0

> <version>
0

> <s_m_source_file>
/data/baiqing/PycharmProjects/Reinvent-master-3.2/result/LINK_invent/BTK/process_docking_weight1_custom_product_contain_oxygen_bond_distance_aromatic_linkinvent_7_9_3/rearranged_h_0067.sdf

> <i_m_source_file_index>
22

> <r_mmod_Potential_Energy-OPLS-2005>
672.253173828125

> <r_mmod_Stretch_Energy-OPLS-2005>
351.696807861328

> <r_mmod_Bend_Energy-OPLS-2005>
278.612426757812

> <r_mmod_Torsional_Energy-OPLS-2005>
238.690216064453

> <r_mmod_Improper_Torsional_Energy-OPLS-2005>
7.22449827194214

> <r_mmod_Van_der_Waal_Energy-OPLS-2005>
139.931900024414

> <r_mmod_Electrostatic_Energy-OPLS-2005>
-367.038391113281

> <r_mmod_Solvation_Energy-OPLS-2005>
-247.221771240234

> <b_mmod_Minimization_Converged-OPLS-2005>
0

> <r_mmod_RMS_Derivative-OPLS-2005>
1.25241470336914

$$$$
22
                    3D
 Structure written by MMmdl.
169178  0  0  1  0            999 V2000
  -30.7514  -14.4446   20.6174 C   0  0  0  0  0  0
  -30.4156  -12.3135   19.4125 C   0  0  0  0  0  0
  -29.4889  -12.5086   18.1969 C   0  0  0  0  0  0
  -28.0107  -12.3652   18.6115 C   0  0  0  0  0  0
  -27.6539  -13.2048   19.8661 C   0  0  2  0  0  0
  -28.6984  -13.0046   20.9873 C   0  0  0  0  0  0
  -25.2548  -13.8146   20.5698 C   0  0  0  0  0  0
  -24.1802  -13.0418   20.9195 C   0  0  0  0  0  0
  -24.6366  -11.6895   20.8753 C   0  0  0  0  0  0
  -23.9029  -10.4285   21.0392 C   0  0  0  0  0  0
  -24.3597   -9.4213   21.9186 C   0  0  0  0  0  0
  -23.6296   -8.2234   22.0741 C   0  0  0  0  0  0
  -22.4277   -8.0262   21.3535 C   0  0  0  0  0  0
  -21.9886   -9.0229   20.4642 C   0  0  0  0  0  0
  -22.7199  -10.2117   20.3050 C   0  0  0  0  0  0
  -21.6850   -6.0737   22.5302 C   0  0  0  0  0  0
  -21.4002   -6.5634   23.8238 C   0  0  0  0  0  0
  -21.3655   -5.6782   24.9194 C   0  0  0  0  0  0
  -21.6033   -4.3046   24.7238 C   0  0  0  0  0  0
  -21.8818   -3.8142   23.4354 C   0  0  0  0  0  0
  -21.9191   -4.6965   22.3416 C   0  0  0  0  0  0
  -22.7827  -13.5219   21.1867 C   0  0  0  0  0  0
  -22.1668   -4.2158   21.0988 F   0  0  0  0  0  0
  -21.5632   -3.4519   25.7751 F   0  0  0  0  0  0
  -30.0321  -13.2989   20.4383 N   0  0  0  0  0  0
  -26.2972  -12.9319   20.3347 N   0  0  0  0  0  0
  -25.9282  -11.6476   20.5744 N   0  0  0  0  0  0
  -22.0444  -12.8252   22.0440 N   0  0  0  0  0  0
  -25.4240  -15.1881   20.4145 N   0  0  0  0  0  0
  -31.8564  -14.6157   20.0888 O   0  0  0  0  0  0
  -21.6613   -6.8880   21.4263 O   0  0  0  0  0  0
  -22.3534  -14.5513   20.6676 O   0  0  0  0  0  0
  -24.6122  -31.8691   23.2121 C   0  0  0  0  0  0
  -25.9022  -32.4837   23.8400 C   0  0  1  0  0  0
  -27.2521  -27.4544   20.1067 C   0  0  0  0  0  0
  -25.5883  -33.8630   24.2334 N   0  0  0  0  0  0
  -23.4017  -30.4916   21.5495 C   0  0  2  0  0  0
  -24.8563  -28.9578   20.1193 C   0  0  0  0  0  0
  -22.7403  -29.4653   22.4975 C   0  0  0  0  0  0
  -18.0271  -28.1397   22.8486 C   0  0  0  0  0  0
  -24.1484  -36.7324   23.2638 C   0  0  0  0  0  0
  -25.9273  -30.8435   21.3624 C   0  0  0  0  0  0
  -26.0121  -29.4759   20.7191 C   0  0  0  0  0  0
  -27.2132  -28.7316   20.7180 C   0  0  0  0  0  0
  -26.0836  -26.9557   19.4955 C   0  0  0  0  0  0
  -24.8852  -27.6936   19.5071 C   0  0  0  0  0  0
  -23.6155  -29.8210   20.1645 C   0  0  0  0  0  0
  -25.4105  -36.3122   24.0342 C   0  0  1  0  0  0
  -20.5864  -28.3676   23.1328 C   0  0  2  0  0  0
  -20.6760  -26.9414   22.5425 C   0  0  0  0  0  0
  -19.5740  -26.6394   21.5217 C   0  0  0  0  0  0
  -18.1923  -26.7943   22.1630 C   0  0  0  0  0  0
  -19.1527  -28.8847   23.2908 C   0  0  0  0  0  0
  -18.9454  -30.1456   23.8917 C   0  0  0  0  0  0
  -17.6453  -30.6603   24.0576 C   0  0  0  0  0  0
  -25.9033  -34.9485   23.5139 C   0  0  0  0  0  0
  -16.5340  -29.9109   23.6331 C   0  0  0  0  0  0
  -16.7261  -28.6536   23.0336 C   0  0  0  0  0  0
  -26.4465  -31.6610   25.0712 C   0  0  0  0  0  0
  -25.3744  -31.3713   26.1473 C   0  0  0  0  0  0
  -27.0296  -30.3059   24.6063 C   0  0  0  0  0  0
  -27.6048  -32.4322   25.7472 C   0  0  0  0  0  0
  -27.5586  -37.1809   24.8456 C   0  0  0  0  0  0
  -21.4127  -29.3035   22.3725 N   0  0  0  0  0  0
  -26.4291  -37.3807   23.9416 N   0  0  0  0  0  0
  -24.6651  -31.0816   22.1003 N   0  0  0  0  0  0
  -23.4200  -28.8199   23.3002 O   0  0  0  0  0  0
  -28.3642  -26.6422   20.0461 O   0  0  0  0  0  0
  -26.5592  -34.8934   22.4699 O   0  0  0  0  0  0
  -23.5322  -32.1414   23.7529 O   0  0  0  0  0  0
  -28.9774  -20.0940   20.2959 C   0  0  0  0  0  0
  -29.3268  -17.7732   21.0128 C   0  0  0  0  0  0
  -30.0038  -18.2498   22.1523 C   0  0  0  0  0  0
  -28.7991  -18.7018   20.0741 C   0  0  0  0  0  0
  -29.6715  -20.5714   21.4362 C   0  0  0  0  0  0
  -30.1835  -19.6360   22.3596 C   0  0  0  0  0  0
  -26.6504  -18.0615   15.7089 C   0  0  0  0  0  0
  -26.9652  -17.7969   16.9892 C   0  0  0  0  0  0
  -27.7015  -18.7509   17.8018 C   0  0  0  0  0  0
  -29.6020  -23.0683   21.0458 C   0  0  0  0  0  0
  -30.4955  -17.2259   23.1528 C   0  0  0  0  0  0
  -29.1441  -16.2544   20.8673 C   0  0  0  0  0  0
  -31.1014  -16.0019   22.4444 C   0  0  0  0  0  0
  -29.7127  -24.4044   21.8022 C   0  0  0  0  0  0
  -30.3168  -25.5906   20.9976 C   0  0  0  0  0  0
  -29.4309  -26.8547   20.9612 C   0  0  0  0  0  0
  -30.2209  -15.3987   21.4221 N   0  0  0  0  0  0
  -28.0588  -18.1872   18.9673 N   0  0  0  0  0  0
  -29.8273  -21.9538   21.7700 N   0  0  0  0  0  0
  -27.9736  -19.9050   17.4616 O   0  0  0  0  0  0
  -29.3272  -23.0660   19.8456 O   0  0  0  0  0  0
  -30.8307  -20.0836   23.4634 F   0  0  0  0  0  0
  -31.4590  -12.4049   19.1055 H   0  0  0  0  0  0
  -30.3199  -11.3034   19.8116 H   0  0  0  0  0  0
  -29.7297  -11.7797   17.4207 H   0  0  0  0  0  0
  -29.6634  -13.4918   17.7575 H   0  0  0  0  0  0
  -27.8340  -11.3087   18.8123 H   0  0  0  0  0  0
  -27.3545  -12.6284   17.7798 H   0  0  0  0  0  0
  -27.6768  -14.2453   19.5493 H   0  0  0  0  0  0
  -28.6734  -11.9730   21.3412 H   0  0  0  0  0  0
  -28.4570  -13.6152   21.8573 H   0  0  0  0  0  0
  -25.2741   -9.5688   22.4761 H   0  0  0  0  0  0
  -24.0005   -7.4603   22.7427 H   0  0  0  0  0  0
  -21.0824   -8.8703   19.8967 H   0  0  0  0  0  0
  -22.3636  -10.9624   19.6133 H   0  0  0  0  0  0
  -21.1983   -7.6148   23.9751 H   0  0  0  0  0  0
  -21.1483   -6.0512   25.9113 H   0  0  0  0  0  0
  -22.0607   -2.7608   23.2836 H   0  0  0  0  0  0
  -22.3977  -11.9915   22.4902 H   0  0  0  0  0  0
  -21.1038  -13.1292   22.2555 H   0  0  0  0  0  0
  -24.6601  -15.8405   20.5588 H   0  0  0  0  0  0
  -26.2881  -15.6402   20.1647 H   0  0  0  0  0  0
  -26.7092  -32.5578   23.1178 H   0  0  0  0  0  0
  -25.0021  -33.9789   25.0467 H   0  0  0  0  0  0
  -22.6891  -31.3077   21.4075 H   0  0  0  0  0  0
  -23.3746  -35.9655   23.3300 H   0  0  0  0  0  0
  -24.3582  -36.8939   22.2051 H   0  0  0  0  0  0
  -23.7237  -37.6534   23.6645 H   0  0  0  0  0  0
  -26.0293  -31.6057   20.5885 H   0  0  0  0  0  0
  -26.8182  -30.9067   21.9758 H   0  0  0  0  0  0
  -28.0978  -29.1486   21.1786 H   0  0  0  0  0  0
  -26.1031  -25.9861   19.0184 H   0  0  0  0  0  0
  -23.9974  -27.2878   19.0426 H   0  0  0  0  0  0
  -23.7289  -30.5956   19.4048 H   0  0  0  0  0  0
  -22.7405  -29.2421   19.8641 H   0  0  0  0  0  0
  -25.1282  -36.1986   25.0837 H   0  0  0  0  0  0
  -20.9970  -28.3240   24.1444 H   0  0  0  0  0  0
  -20.5667  -26.2279   23.3614 H   0  0  0  0  0  0
  -21.6629  -26.7456   22.1216 H   0  0  0  0  0  0
  -19.6904  -25.6309   21.1235 H   0  0  0  0  0  0
  -19.6705  -27.3213   20.6758 H   0  0  0  0  0  0
  -17.4203  -26.6702   21.4022 H   0  0  0  0  0  0
  -18.0320  -26.0083   22.9029 H   0  0  0  0  0  0
  -19.7934  -30.7253   24.2310 H   0  0  0  0  0  0
  -17.5022  -31.6282   24.5180 H   0  0  0  0  0  0
  -15.5351  -30.3022   23.7644 H   0  0  0  0  0  0
  -15.8667  -28.0867   22.7024 H   0  0  0  0  0  0
  -24.5895  -30.7089   25.7803 H   0  0  0  0  0  0
  -24.8964  -32.2878   26.4939 H   0  0  0  0  0  0
  -25.8098  -30.8857   27.0217 H   0  0  0  0  0  0
  -26.2830  -29.6820   24.1138 H   0  0  0  0  0  0
  -27.4105  -29.7286   25.4497 H   0  0  0  0  0  0
  -27.8641  -30.4383   23.9176 H   0  0  0  0  0  0
  -27.2666  -33.3597   26.2099 H   0  0  0  0  0  0
  -28.3833  -32.6931   25.0291 H   0  0  0  0  0  0
  -28.0750  -31.8422   26.5351 H   0  0  0  0  0  0
  -28.2592  -38.0115   24.7540 H   0  0  0  0  0  0
  -28.1094  -36.2659   24.6234 H   0  0  0  0  0  0
  -27.2311  -37.1404   25.8856 H   0  0  0  0  0  0
  -20.9291  -29.8783   21.6971 H   0  0  0  0  0  0
  -26.0184  -38.2880   24.1449 H   0  0  0  0  0  0
  -28.5459  -20.8023   19.6088 H   0  0  0  0  0  0
  -26.1071  -17.3382   15.1178 H   0  0  0  0  0  0
  -26.9274  -18.9896   15.2272 H   0  0  0  0  0  0
  -26.6554  -16.8513   17.4094 H   0  0  0  0  0  0
  -29.6511  -16.9121   23.7682 H   0  0  0  0  0  0
  -31.2264  -17.6705   23.8283 H   0  0  0  0  0  0
  -29.0138  -16.0186   19.8118 H   0  0  0  0  0  0
  -28.2104  -15.9878   21.3625 H   0  0  0  0  0  0
  -31.3768  -15.2432   23.1799 H   0  0  0  0  0  0
  -32.0307  -16.3265   21.9725 H   0  0  0  0  0  0
  -30.3063  -24.2574   22.7066 H   0  0  0  0  0  0
  -28.7105  -24.6608   22.1490 H   0  0  0  0  0  0
  -30.5820  -25.3063   19.9782 H   0  0  0  0  0  0
  -31.2626  -25.8634   21.4660 H   0  0  0  0  0  0
  -30.0187  -27.7096   20.6240 H   0  0  0  0  0  0
  -29.0632  -27.0824   21.9642 H   0  0  0  0  0  0
  -27.8083  -17.2133   19.0340 H   0  0  0  0  0  0
  -30.1558  -22.1124   22.7117 H   0  0  0  0  0  0
  1 25  1  0  0  0
  1 30  2  0  0  0
  1 87  1  0  0  0
  2  3  1  0  0  0
  2 25  1  0  0  0
  2 93  1  0  0  0
  2 94  1  0  0  0
  3  4  1  0  0  0
  3 95  1  0  0  0
  3 96  1  0  0  0
  4  5  1  0  0  0
  4 97  1  0  0  0
  4 98  1  0  0  0
  5  6  1  0  0  0
  5 26  1  0  0  0
  5 99  1  0  0  0
  6 25  1  0  0  0
  6100  1  0  0  0
  6101  1  0  0  0
  7  8  2  0  0  0
  7 26  1  0  0  0
  7 29  1  0  0  0
  8  9  1  0  0  0
  8 22  1  0  0  0
  9 10  1  0  0  0
  9 27  2  0  0  0
 10 11  2  0  0  0
 10 15  1  0  0  0
 11 12  1  0  0  0
 11102  1  0  0  0
 12 13  2  0  0  0
 12103  1  0  0  0
 13 14  1  0  0  0
 13 31  1  0  0  0
 14 15  2  0  0  0
 14104  1  0  0  0
 15105  1  0  0  0
 16 17  2  0  0  0
 16 21  1  0  0  0
 16 31  1  0  0  0
 17 18  1  0  0  0
 17106  1  0  0  0
 18 19  2  0  0  0
 18107  1  0  0  0
 19 20  1  0  0  0
 19 24  1  0  0  0
 20 21  2  0  0  0
 20108  1  0  0  0
 21 23  1  0  0  0
 22 28  1  0  0  0
 22 32  2  0  0  0
 26 27  1  0  0  0
 28109  1  0  0  0
 28110  1  0  0  0
 29111  1  0  0  0
 29112  1  0  0  0
 33 34  1  0  0  0
 33 66  1  0  0  0
 33 70  2  0  0  0
 34 36  1  0  0  0
 34 59  1  0  0  0
 34113  1  0  0  0
 35 44  2  0  0  0
 35 45  1  0  0  0
 35 68  1  0  0  0
 36 56  1  0  0  0
 36114  1  0  0  0
 37 39  1  0  0  0
 37 47  1  0  0  0
 37 66  1  0  0  0
 37115  1  0  0  0
 38 43  2  0  0  0
 38 46  1  0  0  0
 38 47  1  0  0  0
 39 64  1  0  0  0
 39 67  2  0  0  0
 40 52  1  0  0  0
 40 53  2  0  0  0
 40 58  1  0  0  0
 41116  1  0  0  0
 41117  1  0  0  0
 41118  1  0  0  0
 41 48  1  0  0  0
 42 43  1  0  0  0
 42 66  1  0  0  0
 42119  1  0  0  0
 42120  1  0  0  0
 43 44  1  0  0  0
 44121  1  0  0  0
 45 46  2  0  0  0
 45122  1  0  0  0
 46123  1  0  0  0
 47124  1  0  0  0
 47125  1  0  0  0
 48 56  1  0  0  0
 48 65  1  0  0  0
 48126  1  0  0  0
 49 50  1  0  0  0
 49 53  1  0  0  0
 49 64  1  0  0  0
 49127  1  0  0  0
 50 51  1  0  0  0
 50128  1  0  0  0
 50129  1  0  0  0
 51 52  1  0  0  0
 51130  1  0  0  0
 51131  1  0  0  0
 52132  1  0  0  0
 52133  1  0  0  0
 53 54  1  0  0  0
 54 55  2  0  0  0
 54134  1  0  0  0
 55 57  1  0  0  0
 55135  1  0  0  0
 56 69  2  0  0  0
 57 58  2  0  0  0
 57136  1  0  0  0
 58137  1  0  0  0
 59 60  1  0  0  0
 59 61  1  0  0  0
 59 62  1  0  0  0
 60138  1  0  0  0
 60139  1  0  0  0
 60140  1  0  0  0
 61141  1  0  0  0
 61142  1  0  0  0
 61143  1  0  0  0
 62144  1  0  0  0
 62145  1  0  0  0
 62146  1  0  0  0
 63 65  1  0  0  0
 63147  1  0  0  0
 63148  1  0  0  0
 63149  1  0  0  0
 64150  1  0  0  0
 65151  1  0  0  0
 68 86  1  0  0  0
 71 74  2  0  0  0
 71 75  1  0  0  0
 71152  1  0  0  0
 72 73  2  0  0  0
 72 74  1  0  0  0
 72 82  1  0  0  0
 73 76  1  0  0  0
 73 81  1  0  0  0
 74 88  1  0  0  0
 75 76  2  0  0  0
 75 89  1  0  0  0
 76 92  1  0  0  0
 77 78  2  0  0  0
 77153  1  0  0  0
 77154  1  0  0  0
 78 79  1  0  0  0
 78155  1  0  0  0
 79 88  1  0  0  0
 79 90  2  0  0  0
 80 84  1  0  0  0
 80 89  1  0  0  0
 80 91  2  0  0  0
 81 83  1  0  0  0
 81156  1  0  0  0
 81157  1  0  0  0
 82 87  1  0  0  0
 82158  1  0  0  0
 82159  1  0  0  0
 83 87  1  0  0  0
 83160  1  0  0  0
 83161  1  0  0  0
 84 85  1  0  0  0
 84162  1  0  0  0
 84163  1  0  0  0
 85 86  1  0  0  0
 85164  1  0  0  0
 85165  1  0  0  0
 86166  1  0  0  0
 86167  1  0  0  0
 88168  1  0  0  0
 89169  1  0  0  0
M  ISO  4   1 100  68 101  86 101  87 100
M  END
> <chiral flag>
0

> <version>
0

> <s_m_source_file>
/data/baiqing/PycharmProjects/Reinvent-master-3.2/result/LINK_invent/BTK/process_docking_weight1_custom_product_contain_oxygen_bond_distance_aromatic_linkinvent_7_9_3/rearranged_h_0067.sdf

> <i_m_source_file_index>
23

> <r_mmod_Potential_Energy-OPLS-2005>
-14.1429414749146

> <r_mmod_Stretch_Energy-OPLS-2005>
42.1200218200684

> <r_mmod_Bend_Energy-OPLS-2005>
127.498931884766

> <r_mmod_Torsional_Energy-OPLS-2005>
311.244873046875

> <r_mmod_Improper_Torsional_Energy-OPLS-2005>
4.1321005821228

> <r_mmod_Van_der_Waal_Energy-OPLS-2005>
168.241180419922

> <r_mmod_Electrostatic_Energy-OPLS-2005>
-415.560638427734

> <r_mmod_Solvation_Energy-OPLS-2005>
-262.580535888672

> <b_mmod_Minimization_Converged-OPLS-2005>
0

> <r_mmod_RMS_Derivative-OPLS-2005>
3.43355774879456

$$$$
23
                    3D
 Structure written by MMmdl.
158167  0  0  1  0            999 V2000
  -30.5126  -14.9276   20.4231 C   0  0  0  0  0  0
  -30.4558  -12.5736   19.4845 C   0  0  0  0  0  0
  -29.5245  -12.5271   18.2489 C   0  0  0  0  0  0
  -28.0573  -12.3125   18.6696 C   0  0  0  0  0  0
  -27.6372  -13.2368   19.8418 C   0  0  2  0  0  0
  -28.6844  -13.2281   20.9774 C   0  0  0  0  0  0
  -25.2516  -13.8196   20.5706 C   0  0  0  0  0  0
  -24.1811  -13.0437   20.9221 C   0  0  0  0  0  0
  -24.6407  -11.6914   20.8741 C   0  0  0  0  0  0
  -23.9077  -10.4291   21.0403 C   0  0  0  0  0  0
  -24.3625   -9.4204   21.9185 C   0  0  0  0  0  0
  -23.6297   -8.2239   22.0756 C   0  0  0  0  0  0
  -22.4280   -8.0276   21.3543 C   0  0  0  0  0  0
  -21.9914   -9.0251   20.4643 C   0  0  0  0  0  0
  -22.7249  -10.2133   20.3057 C   0  0  0  0  0  0
  -21.6851   -6.0737   22.5281 C   0  0  0  0  0  0
  -21.4011   -6.5636   23.8214 C   0  0  0  0  0  0
  -21.3661   -5.6791   24.9176 C   0  0  0  0  0  0
  -21.6042   -4.3053   24.7227 C   0  0  0  0  0  0
  -21.8817   -3.8147   23.4347 C   0  0  0  0  0  0
  -21.9190   -4.6964   22.3406 C   0  0  0  0  0  0
  -22.7828  -13.5215   21.1875 C   0  0  0  0  0  0
  -22.1657   -4.2152   21.0983 F   0  0  0  0  0  0
  -21.5631   -3.4537   25.7741 F   0  0  0  0  0  0
  -29.9646  -13.6486   20.3878 N   0  0  0  0  0  0
  -26.2929  -12.9401   20.3242 N   0  0  0  0  0  0
  -25.9337  -11.6539   20.5727 N   0  0  0  0  0  0
  -22.0462  -12.8211   22.0421 N   0  0  0  0  0  0
  -25.4191  -15.1929   20.4155 N   0  0  0  0  0  0
  -31.7064  -15.0573   20.1295 O   0  0  0  0  0  0
  -21.6634   -6.8882   21.4244 O   0  0  0  0  0  0
  -22.3514  -14.5519   20.6720 O   0  0  0  0  0  0
  -24.6407  -31.8445   23.1889 C   0  0  0  0  0  0
  -25.9186  -32.4695   23.8274 C   0  0  1  0  0  0
  -27.2185  -27.1412   20.1701 C   0  0  0  0  0  0
  -25.5957  -33.8506   24.2192 N   0  0  0  0  0  0
  -23.4452  -30.4620   21.5346 C   0  0  2  0  0  0
  -24.8977  -28.8885   20.1153 C   0  0  0  0  0  0
  -22.7557  -29.4519   22.4856 C   0  0  0  0  0  0
  -18.0308  -28.1382   22.8456 C   0  0  0  0  0  0
  -24.1492  -36.7247   23.2639 C   0  0  0  0  0  0
  -26.0005  -30.7191   21.3906 C   0  0  0  0  0  0
  -26.0737  -29.3286   20.7386 C   0  0  0  0  0  0
  -27.2372  -28.4714   20.7489 C   0  0  0  0  0  0
  -26.0243  -26.8037   19.5001 C   0  0  0  0  0  0
  -24.8850  -27.6364   19.4815 C   0  0  0  0  0  0
  -23.6757  -29.7928   20.1531 C   0  0  0  0  0  0
  -25.4119  -36.3029   24.0315 C   0  0  1  0  0  0
  -20.5918  -28.3706   23.1239 C   0  0  2  0  0  0
  -20.6797  -26.9407   22.5409 C   0  0  0  0  0  0
  -19.5779  -26.6363   21.5207 C   0  0  0  0  0  0
  -18.1948  -26.7922   22.1595 C   0  0  0  0  0  0
  -19.1566  -28.8860   23.2839 C   0  0  0  0  0  0
  -18.9493  -30.1461   23.8860 C   0  0  0  0  0  0
  -17.6498  -30.6580   24.0552 C   0  0  0  0  0  0
  -25.9071  -34.9407   23.5052 C   0  0  0  0  0  0
  -16.5386  -29.9071   23.6342 C   0  0  0  0  0  0
  -16.7295  -28.6500   23.0340 C   0  0  0  0  0  0
  -26.4517  -31.6563   25.0710 C   0  0  0  0  0  0
  -25.3688  -31.3797   26.1405 C   0  0  0  0  0  0
  -27.0375  -30.2949   24.6285 C   0  0  0  0  0  0
  -27.6063  -32.4320   25.7485 C   0  0  0  0  0  0
  -27.5579  -37.1767   24.8458 C   0  0  0  0  0  0
  -21.4251  -29.3037   22.3614 N   0  0  0  0  0  0
  -26.4280  -37.3739   23.9418 N   0  0  0  0  0  0
  -24.7146  -31.0297   22.0929 N   0  0  0  0  0  0
  -23.4200  -28.8061   23.3002 O   0  0  0  0  0  0
  -28.2655  -26.1511   20.1749 O   0  0  0  0  0  0
  -26.5648  -34.8905   22.4626 O   0  0  0  0  0  0
  -23.5527  -32.1336   23.7100 O   0  0  0  0  0  0
  -28.7191  -19.5969   21.8972 C   0  0  0  0  0  0
  -29.6199  -19.9618   19.7698 C   0  0  0  0  0  0
  -29.0059  -18.1826   21.8183 C   0  0  0  0  0  0
  -28.9676  -20.6054   20.8898 C   0  0  0  0  0  0
  -29.6209  -17.5478   20.6958 C   0  0  0  0  0  0
  -29.9225  -18.5237   19.6692 C   0  0  0  0  0  0
  -28.7250  -23.3171   20.3823 C   0  0  0  0  0  0
  -26.9564  -23.5436   22.6935 C   0  0  0  0  0  0
  -26.7807  -24.5466   21.5644 C   0  0  0  0  0  0
  -27.6108  -22.2051   22.2857 C   0  0  0  0  0  0
  -28.1485  -24.7875   20.9261 C   0  0  2  0  0  0
  -28.5851  -17.3126   22.9933 C   0  0  0  0  0  0
  -28.5028  -22.0901   21.0949 N   0  0  0  0  0  0
  -29.6304  -16.0153   20.6198 N   0  0  0  0  0  0
  -29.3851  -23.3169   19.3385 O   0  0  0  0  0  0
  -30.4649  -18.0729   18.5120 F   0  0  0  0  0  0
  -31.4853  -12.7517   19.1684 H   0  0  0  0  0  0
  -30.4634  -11.6126   20.0013 H   0  0  0  0  0  0
  -29.8379  -11.7329   17.5699 H   0  0  0  0  0  0
  -29.6115  -13.4596   17.6886 H   0  0  0  0  0  0
  -27.9541  -11.2694   18.9725 H   0  0  0  0  0  0
  -27.3915  -12.4483   17.8162 H   0  0  0  0  0  0
  -27.6090  -14.2441   19.4250 H   0  0  0  0  0  0
  -28.7666  -12.2364   21.4249 H   0  0  0  0  0  0
  -28.3881  -13.9026   21.7823 H   0  0  0  0  0  0
  -25.2770   -9.5681   22.4759 H   0  0  0  0  0  0
  -24.0004   -7.4632   22.7482 H   0  0  0  0  0  0
  -21.0841   -8.8773   19.8947 H   0  0  0  0  0  0
  -22.3704  -10.9674   19.6164 H   0  0  0  0  0  0
  -21.1996   -7.6144   23.9722 H   0  0  0  0  0  0
  -21.1482   -6.0519   25.9083 H   0  0  0  0  0  0
  -22.0590   -2.7608   23.2852 H   0  0  0  0  0  0
  -22.4079  -11.9884   22.4835 H   0  0  0  0  0  0
  -21.1073  -13.1234   22.2600 H   0  0  0  0  0  0
  -24.6465  -15.8394   20.5311 H   0  0  0  0  0  0
  -26.2507  -15.6358   20.0487 H   0  0  0  0  0  0
  -26.7246  -32.5310   23.1007 H   0  0  0  0  0  0
  -25.0140  -33.9642   25.0366 H   0  0  0  0  0  0
  -22.7463  -31.2864   21.3781 H   0  0  0  0  0  0
  -23.3781  -35.9553   23.3258 H   0  0  0  0  0  0
  -24.3593  -36.8916   22.2063 H   0  0  0  0  0  0
  -23.7230  -37.6416   23.6713 H   0  0  0  0  0  0
  -26.1544  -31.4719   20.6166 H   0  0  0  0  0  0
  -26.8710  -30.7719   22.0322 H   0  0  0  0  0  0
  -28.1345  -28.8050   21.2516 H   0  0  0  0  0  0
  -25.9595  -25.8430   19.0099 H   0  0  0  0  0  0
  -23.9905  -27.2928   18.9802 H   0  0  0  0  0  0
  -23.8148  -30.5696   19.3999 H   0  0  0  0  0  0
  -22.7909  -29.2365   19.8391 H   0  0  0  0  0  0
  -25.1306  -36.1846   25.0807 H   0  0  0  0  0  0
  -20.9995  -28.3296   24.1363 H   0  0  0  0  0  0
  -20.5692  -26.2312   23.3625 H   0  0  0  0  0  0
  -21.6667  -26.7410   22.1212 H   0  0  0  0  0  0
  -19.6953  -25.6260   21.1266 H   0  0  0  0  0  0
  -19.6737  -27.3156   20.6726 H   0  0  0  0  0  0
  -17.4219  -26.6676   21.3989 H   0  0  0  0  0  0
  -18.0332  -26.0062   22.8989 H   0  0  0  0  0  0
  -19.7969  -30.7292   24.2200 H   0  0  0  0  0  0
  -17.5051  -31.6256   24.5152 H   0  0  0  0  0  0
  -15.5395  -30.2978   23.7685 H   0  0  0  0  0  0
  -15.8680  -28.0840   22.7054 H   0  0  0  0  0  0
  -24.5906  -30.7082   25.7771 H   0  0  0  0  0  0
  -24.8830  -32.2993   26.4671 H   0  0  0  0  0  0
  -25.7951  -30.9112   27.0284 H   0  0  0  0  0  0
  -26.2992  -29.6675   24.1272 H   0  0  0  0  0  0
  -27.3990  -29.7239   25.4854 H   0  0  0  0  0  0
  -27.8901  -30.4200   23.9603 H   0  0  0  0  0  0
  -27.2702  -33.3705   26.1909 H   0  0  0  0  0  0
  -28.3947  -32.6720   25.0340 H   0  0  0  0  0  0
  -28.0629  -31.8518   26.5513 H   0  0  0  0  0  0
  -28.2548  -38.0103   24.7524 H   0  0  0  0  0  0
  -28.1116  -36.2631   24.6249 H   0  0  0  0  0  0
  -27.2306  -37.1360   25.8859 H   0  0  0  0  0  0
  -20.9445  -29.8804   21.6846 H   0  0  0  0  0  0
  -26.0139  -38.2796   24.1463 H   0  0  0  0  0  0
  -28.2403  -19.8709   22.8218 H   0  0  0  0  0  0
  -29.8700  -20.5761   18.9178 H   0  0  0  0  0  0
  -25.9920  -23.3446   23.1636 H   0  0  0  0  0  0
  -27.5584  -24.0069   23.4771 H   0  0  0  0  0  0
  -26.3729  -25.4620   21.9933 H   0  0  0  0  0  0
  -26.0621  -24.1844   20.8284 H   0  0  0  0  0  0
  -26.8007  -21.4865   22.1485 H   0  0  0  0  0  0
  -28.1738  -21.8966   23.1672 H   0  0  0  0  0  0
  -28.8287  -24.9865   21.7557 H   0  0  0  0  0  0
  -28.3746  -17.9031   23.8848 H   0  0  0  0  0  0
  -29.3703  -16.6028   23.2550 H   0  0  0  0  0  0
  -27.6839  -16.7517   22.7429 H   0  0  0  0  0  0
  -28.7300  -15.6399   20.8685 H   0  0  0  0  0  0
  1 25  1  0  0  0
  1 30  2  0  0  0
  1 84  1  0  0  0
  2  3  1  0  0  0
  2 25  1  0  0  0
  2 87  1  0  0  0
  2 88  1  0  0  0
  3  4  1  0  0  0
  3 89  1  0  0  0
  3 90  1  0  0  0
  4  5  1  0  0  0
  4 91  1  0  0  0
  4 92  1  0  0  0
  5  6  1  0  0  0
  5 26  1  0  0  0
  5 93  1  0  0  0
  6 25  1  0  0  0
  6 94  1  0  0  0
  6 95  1  0  0  0
  7  8  2  0  0  0
  7 26  1  0  0  0
  7 29  1  0  0  0
  8  9  1  0  0  0
  8 22  1  0  0  0
  9 10  1  0  0  0
  9 27  2  0  0  0
 10 11  2  0  0  0
 10 15  1  0  0  0
 11 12  1  0  0  0
 11 96  1  0  0  0
 12 13  2  0  0  0
 12 97  1  0  0  0
 13 14  1  0  0  0
 13 31  1  0  0  0
 14 15  2  0  0  0
 14 98  1  0  0  0
 15 99  1  0  0  0
 16 17  2  0  0  0
 16 21  1  0  0  0
 16 31  1  0  0  0
 17 18  1  0  0  0
 17100  1  0  0  0
 18 19  2  0  0  0
 18101  1  0  0  0
 19 20  1  0  0  0
 19 24  1  0  0  0
 20 21  2  0  0  0
 20102  1  0  0  0
 21 23  1  0  0  0
 22 28  1  0  0  0
 22 32  2  0  0  0
 26 27  1  0  0  0
 28103  1  0  0  0
 28104  1  0  0  0
 29105  1  0  0  0
 29106  1  0  0  0
 33 34  1  0  0  0
 33 66  1  0  0  0
 33 70  2  0  0  0
 34 36  1  0  0  0
 34 59  1  0  0  0
 34107  1  0  0  0
 35 44  2  0  0  0
 35 45  1  0  0  0
 35 68  1  0  0  0
 36 56  1  0  0  0
 36108  1  0  0  0
 37 39  1  0  0  0
 37 47  1  0  0  0
 37 66  1  0  0  0
 37109  1  0  0  0
 38 43  2  0  0  0
 38 46  1  0  0  0
 38 47  1  0  0  0
 39 64  1  0  0  0
 39 67  2  0  0  0
 40 52  1  0  0  0
 40 53  2  0  0  0
 40 58  1  0  0  0
 41110  1  0  0  0
 41111  1  0  0  0
 41112  1  0  0  0
 41 48  1  0  0  0
 42 43  1  0  0  0
 42 66  1  0  0  0
 42113  1  0  0  0
 42114  1  0  0  0
 43 44  1  0  0  0
 44115  1  0  0  0
 45 46  2  0  0  0
 45116  1  0  0  0
 46117  1  0  0  0
 47118  1  0  0  0
 47119  1  0  0  0
 48 56  1  0  0  0
 48 65  1  0  0  0
 48120  1  0  0  0
 49 50  1  0  0  0
 49 53  1  0  0  0
 49 64  1  0  0  0
 49121  1  0  0  0
 50 51  1  0  0  0
 50122  1  0  0  0
 50123  1  0  0  0
 51 52  1  0  0  0
 51124  1  0  0  0
 51125  1  0  0  0
 52126  1  0  0  0
 52127  1  0  0  0
 53 54  1  0  0  0
 54 55  2  0  0  0
 54128  1  0  0  0
 55 57  1  0  0  0
 55129  1  0  0  0
 56 69  2  0  0  0
 57 58  2  0  0  0
 57130  1  0  0  0
 58131  1  0  0  0
 59 60  1  0  0  0
 59 61  1  0  0  0
 59 62  1  0  0  0
 60132  1  0  0  0
 60133  1  0  0  0
 60134  1  0  0  0
 61135  1  0  0  0
 61136  1  0  0  0
 61137  1  0  0  0
 62138  1  0  0  0
 62139  1  0  0  0
 62140  1  0  0  0
 63 65  1  0  0  0
 63141  1  0  0  0
 63142  1  0  0  0
 63143  1  0  0  0
 64144  1  0  0  0
 65145  1  0  0  0
 68 81  1  0  0  0
 71 73  2  0  0  0
 71 74  1  0  0  0
 71146  1  0  0  0
 72 74  2  0  0  0
 72 76  1  0  0  0
 72147  1  0  0  0
 73 75  1  0  0  0
 73 82  1  0  0  0
 74 83  1  0  0  0
 75 76  2  0  0  0
 75 84  1  0  0  0
 76 86  1  0  0  0
 77 81  1  0  0  0
 77 83  1  0  0  0
 77 85  2  0  0  0
 78 79  1  0  0  0
 78 80  1  0  0  0
 78148  1  0  0  0
 78149  1  0  0  0
 79 81  1  0  0  0
 79150  1  0  0  0
 79151  1  0  0  0
 80 83  1  0  0  0
 80152  1  0  0  0
 80153  1  0  0  0
 81154  1  0  0  0
 82155  1  0  0  0
 82156  1  0  0  0
 82157  1  0  0  0
 84158  1  0  0  0
M  ISO  4   1 100  68 101  81 101  84 100
M  END
> <chiral flag>
0

> <version>
0

> <s_m_source_file>
/data/baiqing/PycharmProjects/Reinvent-master-3.2/result/LINK_invent/BTK/process_docking_weight1_custom_product_contain_oxygen_bond_distance_aromatic_linkinvent_7_9_3/rearranged_h_0067.sdf

> <i_m_source_file_index>
24

> <r_mmod_Potential_Energy-OPLS-2005>
633.960083007812

> <r_mmod_Stretch_Energy-OPLS-2005>
252.382904052734

> <r_mmod_Bend_Energy-OPLS-2005>
301.653869628906

> <r_mmod_Torsional_Energy-OPLS-2005>
301.3720703125

> <r_mmod_Improper_Torsional_Energy-OPLS-2005>
6.02023458480835

> <r_mmod_Van_der_Waal_Energy-OPLS-2005>
148.637466430664

> <r_mmod_Electrostatic_Energy-OPLS-2005>
-330.631805419922

> <r_mmod_Solvation_Energy-OPLS-2005>
-229.566360473633

> <b_mmod_Minimization_Converged-OPLS-2005>
0

> <r_mmod_RMS_Derivative-OPLS-2005>
1.66762912273407

$$$$
24
                    3D
 Structure written by MMmdl.
152160  0  0  1  0            999 V2000
  -30.6502  -14.5290   20.5751 C   0  0  0  0  0  0
  -30.4411  -12.3407   19.4273 C   0  0  0  0  0  0
  -29.5053  -12.5113   18.2107 C   0  0  0  0  0  0
  -28.0255  -12.3562   18.6219 C   0  0  0  0  0  0
  -27.6641  -13.1977   19.8734 C   0  0  2  0  0  0
  -28.7054  -12.9770   20.9943 C   0  0  0  0  0  0
  -25.2614  -13.8127   20.5665 C   0  0  0  0  0  0
  -24.1846  -13.0431   20.9165 C   0  0  0  0  0  0
  -24.6377  -11.6889   20.8713 C   0  0  0  0  0  0
  -23.9029  -10.4285   21.0387 C   0  0  0  0  0  0
  -24.3593   -9.4207   21.9172 C   0  0  0  0  0  0
  -23.6275   -8.2240   22.0758 C   0  0  0  0  0  0
  -22.4257   -8.0276   21.3550 C   0  0  0  0  0  0
  -21.9881   -9.0239   20.4648 C   0  0  0  0  0  0
  -22.7198  -10.2122   20.3042 C   0  0  0  0  0  0
  -21.6854   -6.0726   22.5272 C   0  0  0  0  0  0
  -21.4018   -6.5634   23.8205 C   0  0  0  0  0  0
  -21.3654   -5.6791   24.9168 C   0  0  0  0  0  0
  -21.6041   -4.3055   24.7216 C   0  0  0  0  0  0
  -21.8820   -3.8144   23.4339 C   0  0  0  0  0  0
  -21.9188   -4.6956   22.3395 C   0  0  0  0  0  0
  -22.7877  -13.5253   21.1828 C   0  0  0  0  0  0
  -22.1664   -4.2146   21.0974 F   0  0  0  0  0  0
  -21.5624   -3.4537   25.7727 F   0  0  0  0  0  0
  -30.0324  -13.3189   20.4483 N   0  0  0  0  0  0
  -26.3034  -12.9270   20.3337 N   0  0  0  0  0  0
  -25.9300  -11.6442   20.5730 N   0  0  0  0  0  0
  -22.0497  -12.8257   22.0380 N   0  0  0  0  0  0
  -25.4386  -15.1846   20.4104 N   0  0  0  0  0  0
  -31.7678  -14.7627   20.1029 O   0  0  0  0  0  0
  -21.6640   -6.8865   21.4234 O   0  0  0  0  0  0
  -22.3563  -14.5558   20.6668 O   0  0  0  0  0  0
  -24.6216  -31.8646   23.2075 C   0  0  0  0  0  0
  -25.9099  -32.4794   23.8385 C   0  0  1  0  0  0
  -27.2328  -27.3870   20.0993 C   0  0  0  0  0  0
  -25.5953  -33.8595   24.2329 N   0  0  0  0  0  0
  -23.4116  -30.4901   21.5474 C   0  0  2  0  0  0
  -24.8563  -28.9527   20.1110 C   0  0  0  0  0  0
  -22.7450  -29.4649   22.4943 C   0  0  0  0  0  0
  -18.0288  -28.1380   22.8491 C   0  0  0  0  0  0
  -24.1496  -36.7298   23.2636 C   0  0  0  0  0  0
  -25.9454  -30.8157   21.3687 C   0  0  0  0  0  0
  -26.0202  -29.4476   20.7123 C   0  0  0  0  0  0
  -27.2093  -28.6738   20.7020 C   0  0  0  0  0  0
  -26.0444  -26.9264   19.4827 C   0  0  0  0  0  0
  -24.8658  -27.6929   19.4929 C   0  0  0  0  0  0
  -23.6236  -29.8279   20.1597 C   0  0  0  0  0  0
  -25.4114  -36.3090   24.0337 C   0  0  1  0  0  0
  -20.5886  -28.3687   23.1287 C   0  0  2  0  0  0
  -20.6785  -26.9415   22.5403 C   0  0  0  0  0  0
  -19.5757  -26.6395   21.5207 C   0  0  0  0  0  0
  -18.1934  -26.7926   22.1616 C   0  0  0  0  0  0
  -19.1537  -28.8845   23.2891 C   0  0  0  0  0  0
  -18.9462  -30.1446   23.8907 C   0  0  0  0  0  0
  -17.6464  -30.6580   24.0571 C   0  0  0  0  0  0
  -25.9043  -34.9458   23.5116 C   0  0  0  0  0  0
  -16.5357  -29.9083   23.6322 C   0  0  0  0  0  0
  -16.7276  -28.6502   23.0340 C   0  0  0  0  0  0
  -26.4524  -31.6564   25.0716 C   0  0  0  0  0  0
  -25.3805  -31.3670   26.1470 C   0  0  0  0  0  0
  -27.0365  -30.3004   24.6106 C   0  0  0  0  0  0
  -27.6093  -32.4280   25.7487 C   0  0  0  0  0  0
  -27.5573  -37.1806   24.8470 C   0  0  0  0  0  0
  -21.4167  -29.3053   22.3685 N   0  0  0  0  0  0
  -26.4291  -37.3780   23.9410 N   0  0  0  0  0  0
  -24.6774  -31.0716   22.0992 N   0  0  0  0  0  0
  -23.4195  -28.8178   23.2999 O   0  0  0  0  0  0
  -28.3886  -26.6114   20.1269 O   0  0  0  0  0  0
  -26.5586  -34.8925   22.4666 O   0  0  0  0  0  0
  -23.5392  -32.1407   23.7447 O   0  0  0  0  0  0
  -30.1857  -17.8590   20.3521 C   0  0  0  0  0  0
  -30.1310  -17.3253   22.7253 C   0  0  0  0  0  0
  -30.1236  -16.8810   21.3873 C   0  0  0  0  0  0
  -30.2701  -19.2571   20.6463 C   0  0  0  0  0  0
  -30.2673  -18.6931   23.0290 C   0  0  0  0  0  0
  -30.3585  -19.6551   22.0027 C   0  0  0  0  0  0
  -30.0654  -21.4814   19.3257 C   0  0  0  0  0  0
  -29.1139  -22.3542   20.1919 C   0  0  0  0  0  0
  -28.2586  -25.1789   19.9032 C   0  0  0  0  0  0
  -30.4067  -20.1839   19.5543 N   0  0  0  0  0  0
  -29.8861  -15.4835   21.1581 N   0  0  0  0  0  0
  -30.5259  -22.0104   18.3115 O   0  0  0  0  0  0
  -30.3230  -19.0854   24.3250 F   0  0  0  0  0  0
  -30.5808  -20.9469   22.3412 F   0  0  0  0  0  0
  -29.6702  -24.1157   20.4352 S   0  0  0  0  0  0
  -31.4828  -12.4637   19.1272 H   0  0  0  0  0  0
  -30.3652  -11.3299   19.8299 H   0  0  0  0  0  0
  -29.7583  -11.7835   17.4382 H   0  0  0  0  0  0
  -29.6612  -13.4939   17.7611 H   0  0  0  0  0  0
  -27.8479  -11.2998   18.8273 H   0  0  0  0  0  0
  -27.3719  -12.6159   17.7892 H   0  0  0  0  0  0
  -27.7076  -14.2438   19.5705 H   0  0  0  0  0  0
  -28.6976  -11.9339   21.3173 H   0  0  0  0  0  0
  -28.4492  -13.5510   21.8857 H   0  0  0  0  0  0
  -25.2733   -9.5703   22.4751 H   0  0  0  0  0  0
  -23.9991   -7.4634   22.7480 H   0  0  0  0  0  0
  -21.0814   -8.8739   19.8956 H   0  0  0  0  0  0
  -22.3641  -10.9658   19.6156 H   0  0  0  0  0  0
  -21.2029   -7.6145   23.9709 H   0  0  0  0  0  0
  -21.1481   -6.0522   25.9070 H   0  0  0  0  0  0
  -22.0606   -2.7607   23.2836 H   0  0  0  0  0  0
  -22.4096  -11.9921   22.4794 H   0  0  0  0  0  0
  -21.1112  -13.1310   22.2560 H   0  0  0  0  0  0
  -24.6800  -15.8473   20.5236 H   0  0  0  0  0  0
  -26.2960  -15.6187   20.0917 H   0  0  0  0  0  0
  -26.7163  -32.5499   23.1138 H   0  0  0  0  0  0
  -25.0213  -33.9755   25.0547 H   0  0  0  0  0  0
  -22.7031  -31.3089   21.4068 H   0  0  0  0  0  0
  -23.3749  -35.9639   23.3314 H   0  0  0  0  0  0
  -24.3603  -36.8892   22.2046 H   0  0  0  0  0  0
  -23.7261  -37.6519   23.6635 H   0  0  0  0  0  0
  -26.0682  -31.5828   20.6027 H   0  0  0  0  0  0
  -26.8297  -30.8641   21.9924 H   0  0  0  0  0  0
  -28.1048  -29.0530   21.1750 H   0  0  0  0  0  0
  -26.0028  -25.9698   18.9845 H   0  0  0  0  0  0
  -23.9738  -27.3079   19.0175 H   0  0  0  0  0  0
  -23.7474  -30.6071   19.4062 H   0  0  0  0  0  0
  -22.7453  -29.2578   19.8519 H   0  0  0  0  0  0
  -25.1290  -36.1944   25.0830 H   0  0  0  0  0  0
  -20.9984  -28.3258   24.1409 H   0  0  0  0  0  0
  -20.5696  -26.2300   23.3602 H   0  0  0  0  0  0
  -21.6651  -26.7461   22.1189 H   0  0  0  0  0  0
  -19.6924  -25.6314   21.1218 H   0  0  0  0  0  0
  -19.6682  -27.3227   20.6748 H   0  0  0  0  0  0
  -17.4209  -26.6686   21.4009 H   0  0  0  0  0  0
  -18.0321  -26.0063   22.9000 H   0  0  0  0  0  0
  -19.7944  -30.7260   24.2269 H   0  0  0  0  0  0
  -17.5023  -31.6254   24.5187 H   0  0  0  0  0  0
  -15.5355  -30.2988   23.7637 H   0  0  0  0  0  0
  -15.8682  -28.0830   22.7027 H   0  0  0  0  0  0
  -24.5995  -30.6985   25.7831 H   0  0  0  0  0  0
  -24.8989  -32.2821   26.4921 H   0  0  0  0  0  0
  -25.8194  -30.8863   27.0222 H   0  0  0  0  0  0
  -26.2905  -29.6731   24.1208 H   0  0  0  0  0  0
  -27.4191  -29.7268   25.4560 H   0  0  0  0  0  0
  -27.8726  -30.4328   23.9236 H   0  0  0  0  0  0
  -27.2713  -33.3572   26.2093 H   0  0  0  0  0  0
  -28.3904  -32.6836   25.0312 H   0  0  0  0  0  0
  -28.0767  -31.8383   26.5385 H   0  0  0  0  0  0
  -28.2599  -38.0091   24.7496 H   0  0  0  0  0  0
  -28.1055  -36.2621   24.6313 H   0  0  0  0  0  0
  -27.2299  -37.1484   25.8877 H   0  0  0  0  0  0
  -20.9318  -29.8809   21.6942 H   0  0  0  0  0  0
  -26.0170  -38.2860   24.1395 H   0  0  0  0  0  0
  -30.1442  -17.5325   19.3220 H   0  0  0  0  0  0
  -30.0402  -16.6167   23.5355 H   0  0  0  0  0  0
  -28.8825  -21.8959   21.1489 H   0  0  0  0  0  0
  -28.1624  -22.3833   19.6614 H   0  0  0  0  0  0
  -27.3822  -24.8041   20.4339 H   0  0  0  0  0  0
  -28.0960  -25.0009   18.8394 H   0  0  0  0  0  0
  -30.8905  -19.7924   18.7601 H   0  0  0  0  0  0
  -29.0453  -15.1151   21.5759 H   0  0  0  0  0  0
  1 25  1  0  0  0
  1 30  2  0  0  0
  1 81  1  0  0  0
  2  3  1  0  0  0
  2 25  1  0  0  0
  2 86  1  0  0  0
  2 87  1  0  0  0
  3  4  1  0  0  0
  3 88  1  0  0  0
  3 89  1  0  0  0
  4  5  1  0  0  0
  4 90  1  0  0  0
  4 91  1  0  0  0
  5  6  1  0  0  0
  5 26  1  0  0  0
  5 92  1  0  0  0
  6 25  1  0  0  0
  6 93  1  0  0  0
  6 94  1  0  0  0
  7  8  2  0  0  0
  7 26  1  0  0  0
  7 29  1  0  0  0
  8  9  1  0  0  0
  8 22  1  0  0  0
  9 10  1  0  0  0
  9 27  2  0  0  0
 10 11  2  0  0  0
 10 15  1  0  0  0
 11 12  1  0  0  0
 11 95  1  0  0  0
 12 13  2  0  0  0
 12 96  1  0  0  0
 13 14  1  0  0  0
 13 31  1  0  0  0
 14 15  2  0  0  0
 14 97  1  0  0  0
 15 98  1  0  0  0
 16 17  2  0  0  0
 16 21  1  0  0  0
 16 31  1  0  0  0
 17 18  1  0  0  0
 17 99  1  0  0  0
 18 19  2  0  0  0
 18100  1  0  0  0
 19 20  1  0  0  0
 19 24  1  0  0  0
 20 21  2  0  0  0
 20101  1  0  0  0
 21 23  1  0  0  0
 22 28  1  0  0  0
 22 32  2  0  0  0
 26 27  1  0  0  0
 28102  1  0  0  0
 28103  1  0  0  0
 29104  1  0  0  0
 29105  1  0  0  0
 33 34  1  0  0  0
 33 66  1  0  0  0
 33 70  2  0  0  0
 34 36  1  0  0  0
 34 59  1  0  0  0
 34106  1  0  0  0
 35 44  2  0  0  0
 35 45  1  0  0  0
 35 68  1  0  0  0
 36 56  1  0  0  0
 36107  1  0  0  0
 37 39  1  0  0  0
 37 47  1  0  0  0
 37 66  1  0  0  0
 37108  1  0  0  0
 38 43  2  0  0  0
 38 46  1  0  0  0
 38 47  1  0  0  0
 39 64  1  0  0  0
 39 67  2  0  0  0
 40 52  1  0  0  0
 40 53  2  0  0  0
 40 58  1  0  0  0
 41109  1  0  0  0
 41110  1  0  0  0
 41111  1  0  0  0
 41 48  1  0  0  0
 42 43  1  0  0  0
 42 66  1  0  0  0
 42112  1  0  0  0
 42113  1  0  0  0
 43 44  1  0  0  0
 44114  1  0  0  0
 45 46  2  0  0  0
 45115  1  0  0  0
 46116  1  0  0  0
 47117  1  0  0  0
 47118  1  0  0  0
 48 56  1  0  0  0
 48 65  1  0  0  0
 48119  1  0  0  0
 49 50  1  0  0  0
 49 53  1  0  0  0
 49 64  1  0  0  0
 49120  1  0  0  0
 50 51  1  0  0  0
 50121  1  0  0  0
 50122  1  0  0  0
 51 52  1  0  0  0
 51123  1  0  0  0
 51124  1  0  0  0
 52125  1  0  0  0
 52126  1  0  0  0
 53 54  1  0  0  0
 54 55  2  0  0  0
 54127  1  0  0  0
 55 57  1  0  0  0
 55128  1  0  0  0
 56 69  2  0  0  0
 57 58  2  0  0  0
 57129  1  0  0  0
 58130  1  0  0  0
 59 60  1  0  0  0
 59 61  1  0  0  0
 59 62  1  0  0  0
 60131  1  0  0  0
 60132  1  0  0  0
 60133  1  0  0  0
 61134  1  0  0  0
 61135  1  0  0  0
 61136  1  0  0  0
 62137  1  0  0  0
 62138  1  0  0  0
 62139  1  0  0  0
 63 65  1  0  0  0
 63140  1  0  0  0
 63141  1  0  0  0
 63142  1  0  0  0
 64143  1  0  0  0
 65144  1  0  0  0
 68 79  1  0  0  0
 71 73  2  0  0  0
 71 74  1  0  0  0
 71145  1  0  0  0
 72 73  1  0  0  0
 72 75  2  0  0  0
 72146  1  0  0  0
 73 81  1  0  0  0
 74 76  2  0  0  0
 74 80  1  0  0  0
 75 76  1  0  0  0
 75 83  1  0  0  0
 76 84  1  0  0  0
 77 78  1  0  0  0
 77 80  1  0  0  0
 77 82  2  0  0  0
 78 85  1  0  0  0
 78147  1  0  0  0
 78148  1  0  0  0
 79 85  1  0  0  0
 79149  1  0  0  0
 79150  1  0  0  0
 80151  1  0  0  0
 81152  1  0  0  0
M  ISO  4   1 100  68 101  79 101  81 100
M  END
> <chiral flag>
0

> <version>
0

> <s_m_source_file>
/data/baiqing/PycharmProjects/Reinvent-master-3.2/result/LINK_invent/BTK/process_docking_weight1_custom_product_contain_oxygen_bond_distance_aromatic_linkinvent_7_9_3/rearranged_h_0067.sdf

> <i_m_source_file_index>
25

> <r_mmod_Potential_Energy-OPLS-2005>
2.68847918510437

> <r_mmod_Stretch_Energy-OPLS-2005>
50.6270370483398

> <r_mmod_Bend_Energy-OPLS-2005>
138.683532714844

> <r_mmod_Torsional_Energy-OPLS-2005>
256.073791503906

> <r_mmod_Improper_Torsional_Energy-OPLS-2005>
4.20368242263794

> <r_mmod_Van_der_Waal_Energy-OPLS-2005>
148.25910949707

> <r_mmod_Electrostatic_Energy-OPLS-2005>
-374.289123535156

> <r_mmod_Solvation_Energy-OPLS-2005>
-242.268646240234

> <b_mmod_Minimization_Converged-OPLS-2005>
0

> <r_mmod_RMS_Derivative-OPLS-2005>
1.70746028423309

$$$$
25
                    3D
 Structure written by MMmdl.
165174  0  0  1  0            999 V2000
  -30.6895  -14.4746   20.5713 C   0  0  0  0  0  0
  -30.4251  -12.3103   19.4122 C   0  0  0  0  0  0
  -29.4933  -12.5082   18.1986 C   0  0  0  0  0  0
  -28.0148  -12.3635   18.6129 C   0  0  0  0  0  0
  -27.6595  -13.2052   19.8690 C   0  0  2  0  0  0
  -28.7020  -12.9835   20.9875 C   0  0  0  0  0  0
  -25.2578  -13.8150   20.5653 C   0  0  0  0  0  0
  -24.1828  -13.0433   20.9168 C   0  0  0  0  0  0
  -24.6391  -11.6901   20.8743 C   0  0  0  0  0  0
  -23.9071  -10.4278   21.0415 C   0  0  0  0  0  0
  -24.3620   -9.4198   21.9190 C   0  0  0  0  0  0
  -23.6292   -8.2239   22.0763 C   0  0  0  0  0  0
  -22.4279   -8.0281   21.3552 C   0  0  0  0  0  0
  -21.9915   -9.0242   20.4652 C   0  0  0  0  0  0
  -22.7249  -10.2118   20.3052 C   0  0  0  0  0  0
  -21.6846   -6.0739   22.5286 C   0  0  0  0  0  0
  -21.4003   -6.5642   23.8218 C   0  0  0  0  0  0
  -21.3647   -5.6786   24.9178 C   0  0  0  0  0  0
  -21.6044   -4.3050   24.7223 C   0  0  0  0  0  0
  -21.8820   -3.8148   23.4343 C   0  0  0  0  0  0
  -21.9195   -4.6972   22.3407 C   0  0  0  0  0  0
  -22.7856  -13.5227   21.1840 C   0  0  0  0  0  0
  -22.1661   -4.2160   21.0983 F   0  0  0  0  0  0
  -21.5627   -3.4534   25.7727 F   0  0  0  0  0  0
  -30.0310  -13.2932   20.4324 N   0  0  0  0  0  0
  -26.3011  -12.9314   20.3330 N   0  0  0  0  0  0
  -25.9318  -11.6479   20.5758 N   0  0  0  0  0  0
  -22.0488  -12.8216   22.0384 N   0  0  0  0  0  0
  -25.4297  -15.1862   20.4018 N   0  0  0  0  0  0
  -31.8299  -14.6579   20.1331 O   0  0  0  0  0  0
  -21.6636   -6.8887   21.4249 O   0  0  0  0  0  0
  -22.3557  -14.5544   20.6713 O   0  0  0  0  0  0
  -24.6176  -31.8660   23.2092 C   0  0  0  0  0  0
  -25.9054  -32.4818   23.8390 C   0  0  1  0  0  0
  -27.2253  -27.4196   20.0971 C   0  0  0  0  0  0
  -25.5923  -33.8619   24.2341 N   0  0  0  0  0  0
  -23.4047  -30.4946   21.5510 C   0  0  2  0  0  0
  -24.8479  -28.9628   20.1126 C   0  0  0  0  0  0
  -22.7434  -29.4668   22.4982 C   0  0  0  0  0  0
  -18.0291  -28.1372   22.8505 C   0  0  0  0  0  0
  -24.1475  -36.7272   23.2643 C   0  0  0  0  0  0
  -25.9350  -30.8309   21.3603 C   0  0  0  0  0  0
  -26.0106  -29.4647   20.7104 C   0  0  0  0  0  0
  -27.2045  -28.7030   20.6970 C   0  0  0  0  0  0
  -26.0405  -26.9439   19.4849 C   0  0  0  0  0  0
  -24.8594  -27.7039   19.4946 C   0  0  0  0  0  0
  -23.6109  -29.8300   20.1637 C   0  0  0  0  0  0
  -25.4100  -36.3104   24.0354 C   0  0  1  0  0  0
  -20.5885  -28.3655   23.1313 C   0  0  2  0  0  0
  -20.6777  -26.9394   22.5427 C   0  0  0  0  0  0
  -19.5762  -26.6392   21.5218 C   0  0  0  0  0  0
  -18.1932  -26.7935   22.1605 C   0  0  0  0  0  0
  -19.1542  -28.8833   23.2918 C   0  0  0  0  0  0
  -18.9464  -30.1447   23.8917 C   0  0  0  0  0  0
  -17.6461  -30.6578   24.0582 C   0  0  0  0  0  0
  -25.9035  -34.9478   23.5134 C   0  0  0  0  0  0
  -16.5356  -29.9080   23.6340 C   0  0  0  0  0  0
  -16.7275  -28.6501   23.0355 C   0  0  0  0  0  0
  -26.4483  -31.6571   25.0701 C   0  0  0  0  0  0
  -25.3748  -31.3636   26.1444 C   0  0  0  0  0  0
  -27.0313  -30.3039   24.6012 C   0  0  0  0  0  0
  -27.6081  -32.4251   25.7460 C   0  0  0  0  0  0
  -27.5562  -37.1801   24.8479 C   0  0  0  0  0  0
  -21.4162  -29.3029   22.3709 N   0  0  0  0  0  0
  -26.4277  -37.3793   23.9429 N   0  0  0  0  0  0
  -24.6716  -31.0782   22.0983 N   0  0  0  0  0  0
  -23.4218  -28.8205   23.3017 O   0  0  0  0  0  0
  -28.3781  -26.6524   20.1252 O   0  0  0  0  0  0
  -26.5600  -34.8941   22.4693 O   0  0  0  0  0  0
  -23.5367  -32.1395   23.7498 O   0  0  0  0  0  0
  -31.5705  -17.2257   21.7693 C   0  0  0  0  0  0
  -30.9233  -19.5760   21.7943 C   0  0  0  0  0  0
  -29.3428  -17.8720   21.0299 C   0  0  0  0  0  0
  -31.8986  -18.5786   22.0447 C   0  0  0  0  0  0
  -30.3012  -16.8570   21.2597 C   0  0  0  0  0  0
  -29.6580  -19.2268   21.2875 C   0  0  0  0  0  0
  -29.1472  -23.0609   21.2601 C   0  0  0  0  0  0
  -33.5440  -20.3094   22.8018 C   0  0  0  0  0  0
  -34.9209  -20.3403   23.4665 C   0  0  0  0  0  0
  -34.2974  -17.9999   22.3874 C   0  0  0  0  0  0
  -29.4545  -24.4153   20.5855 C   0  0  0  0  0  0
  -28.1665  -25.2395   20.3368 C   0  0  0  0  0  0
  -33.1613  -18.9100   22.5865 N   0  0  0  0  0  0
  -29.9366  -15.4876   21.0517 N   0  0  0  0  0  0
  -29.3380  -21.9250   20.5636 N   0  0  0  0  0  0
  -28.7382  -23.0619   22.4239 O   0  0  0  0  0  0
  -27.5466  -20.0295   19.8377 O   0  0  0  0  0  0
  -36.6535  -18.2937   23.7249 O   0  0  0  0  0  0
  -36.3886  -19.4109   21.4346 O   0  0  0  0  0  0
  -28.3494  -20.5068   21.0543 S   0  0  1  0  0  0
  -35.8144  -18.9598   22.7136 S   0  0  0  0  0  0
  -31.4692  -12.4154   19.1110 H   0  0  0  0  0  0
  -30.3293  -11.2982   19.8070 H   0  0  0  0  0  0
  -29.7356  -11.7882   17.4150 H   0  0  0  0  0  0
  -29.6562  -13.4978   17.7642 H   0  0  0  0  0  0
  -27.8294  -11.3072   18.8109 H   0  0  0  0  0  0
  -27.3624  -12.6325   17.7810 H   0  0  0  0  0  0
  -27.7015  -14.2531   19.5715 H   0  0  0  0  0  0
  -28.6762  -11.9479   21.3258 H   0  0  0  0  0  0
  -28.4665  -13.5805   21.8699 H   0  0  0  0  0  0
  -25.2763   -9.5668   22.4762 H   0  0  0  0  0  0
  -23.9999   -7.4627   22.7468 H   0  0  0  0  0  0
  -21.0854   -8.8761   19.8938 H   0  0  0  0  0  0
  -22.3726  -10.9652   19.6148 H   0  0  0  0  0  0
  -21.1979   -7.6149   23.9729 H   0  0  0  0  0  0
  -21.1462   -6.0508   25.9074 H   0  0  0  0  0  0
  -22.0607   -2.7614   23.2834 H   0  0  0  0  0  0
  -22.4073  -11.9839   22.4726 H   0  0  0  0  0  0
  -21.1103  -13.1247   22.2588 H   0  0  0  0  0  0
  -24.6570  -15.8376   20.4881 H   0  0  0  0  0  0
  -26.2731  -15.6191   20.0484 H   0  0  0  0  0  0
  -26.7129  -32.5531   23.1158 H   0  0  0  0  0  0
  -25.0150  -33.9765   25.0544 H   0  0  0  0  0  0
  -22.6961  -31.3129   21.4131 H   0  0  0  0  0  0
  -23.3757  -35.9579   23.3312 H   0  0  0  0  0  0
  -24.3577  -36.8863   22.2052 H   0  0  0  0  0  0
  -23.7187  -37.6474   23.6635 H   0  0  0  0  0  0
  -26.0442  -31.5907   20.5848 H   0  0  0  0  0  0
  -26.8270  -30.8888   21.9710 H   0  0  0  0  0  0
  -28.1003  -29.0848   21.1673 H   0  0  0  0  0  0
  -26.0020  -25.9878   18.9852 H   0  0  0  0  0  0
  -23.9681  -27.3163   19.0208 H   0  0  0  0  0  0
  -23.7233  -30.6062   19.4059 H   0  0  0  0  0  0
  -22.7354  -29.2517   19.8632 H   0  0  0  0  0  0
  -25.1269  -36.1964   25.0844 H   0  0  0  0  0  0
  -20.9995  -28.3207   24.1430 H   0  0  0  0  0  0
  -20.5688  -26.2257   23.3609 H   0  0  0  0  0  0
  -21.6643  -26.7444   22.1179 H   0  0  0  0  0  0
  -19.6915  -25.6314   21.1212 H   0  0  0  0  0  0
  -19.6702  -27.3245   20.6790 H   0  0  0  0  0  0
  -17.4221  -26.6746   21.3980 H   0  0  0  0  0  0
  -18.0291  -26.0053   22.8953 H   0  0  0  0  0  0
  -19.7948  -30.7273   24.2263 H   0  0  0  0  0  0
  -17.5022  -31.6255   24.5182 H   0  0  0  0  0  0
  -15.5356  -30.2983   23.7669 H   0  0  0  0  0  0
  -15.8675  -28.0833   22.7042 H   0  0  0  0  0  0
  -24.6034  -30.6843   25.7794 H   0  0  0  0  0  0
  -24.8796  -32.2755   26.4797 H   0  0  0  0  0  0
  -25.8125  -30.8927   27.0251 H   0  0  0  0  0  0
  -26.2827  -29.6796   24.1127 H   0  0  0  0  0  0
  -27.4217  -29.7275   25.4402 H   0  0  0  0  0  0
  -27.8605  -30.4418   23.9064 H   0  0  0  0  0  0
  -27.2767  -33.3601   26.1990 H   0  0  0  0  0  0
  -28.3932  -32.6693   25.0284 H   0  0  0  0  0  0
  -28.0694  -31.8364   26.5400 H   0  0  0  0  0  0
  -28.2606  -38.0078   24.7514 H   0  0  0  0  0  0
  -28.1031  -36.2611   24.6311 H   0  0  0  0  0  0
  -27.2291  -37.1443   25.8890 H   0  0  0  0  0  0
  -20.9323  -29.8729   21.6910 H   0  0  0  0  0  0
  -26.0159  -38.2869   24.1440 H   0  0  0  0  0  0
  -32.2848  -16.4438   21.9823 H   0  0  0  0  0  0
  -31.1141  -20.6159   22.0063 H   0  0  0  0  0  0
  -28.3542  -17.6243   20.6650 H   0  0  0  0  0  0
  -33.5817  -20.8168   21.8360 H   0  0  0  0  0  0
  -32.8175  -20.8340   23.4246 H   0  0  0  0  0  0
  -34.8486  -20.1477   24.5348 H   0  0  0  0  0  0
  -35.4625  -21.2715   23.3103 H   0  0  0  0  0  0
  -34.3653  -17.5988   21.3754 H   0  0  0  0  0  0
  -34.2804  -17.1658   23.0894 H   0  0  0  0  0  0
  -30.0015  -24.2733   19.6524 H   0  0  0  0  0  0
  -30.1144  -24.9709   21.2512 H   0  0  0  0  0  0
  -27.4901  -25.1195   21.1873 H   0  0  0  0  0  0
  -27.6739  -24.7942   19.4725 H   0  0  0  0  0  0
  -28.9689  -15.2515   21.2052 H   0  0  0  0  0  0
  -29.5923  -21.8906   19.5884 H   0  0  0  0  0  0
  1 25  1  0  0  0
  1 30  2  0  0  0
  1 84  1  0  0  0
  2  3  1  0  0  0
  2 25  1  0  0  0
  2 92  1  0  0  0
  2 93  1  0  0  0
  3  4  1  0  0  0
  3 94  1  0  0  0
  3 95  1  0  0  0
  4  5  1  0  0  0
  4 96  1  0  0  0
  4 97  1  0  0  0
  5  6  1  0  0  0
  5 26  1  0  0  0
  5 98  1  0  0  0
  6 25  1  0  0  0
  6 99  1  0  0  0
  6100  1  0  0  0
  7  8  2  0  0  0
  7 26  1  0  0  0
  7 29  1  0  0  0
  8  9  1  0  0  0
  8 22  1  0  0  0
  9 10  1  0  0  0
  9 27  2  0  0  0
 10 11  2  0  0  0
 10 15  1  0  0  0
 11 12  1  0  0  0
 11101  1  0  0  0
 12 13  2  0  0  0
 12102  1  0  0  0
 13 14  1  0  0  0
 13 31  1  0  0  0
 14 15  2  0  0  0
 14103  1  0  0  0
 15104  1  0  0  0
 16 17  2  0  0  0
 16 21  1  0  0  0
 16 31  1  0  0  0
 17 18  1  0  0  0
 17105  1  0  0  0
 18 19  2  0  0  0
 18106  1  0  0  0
 19 20  1  0  0  0
 19 24  1  0  0  0
 20 21  2  0  0  0
 20107  1  0  0  0
 21 23  1  0  0  0
 22 28  1  0  0  0
 22 32  2  0  0  0
 26 27  1  0  0  0
 28108  1  0  0  0
 28109  1  0  0  0
 29110  1  0  0  0
 29111  1  0  0  0
 33 34  1  0  0  0
 33 66  1  0  0  0
 33 70  2  0  0  0
 34 36  1  0  0  0
 34 59  1  0  0  0
 34112  1  0  0  0
 35 44  2  0  0  0
 35 45  1  0  0  0
 35 68  1  0  0  0
 36 56  1  0  0  0
 36113  1  0  0  0
 37 39  1  0  0  0
 37 47  1  0  0  0
 37 66  1  0  0  0
 37114  1  0  0  0
 38 43  2  0  0  0
 38 46  1  0  0  0
 38 47  1  0  0  0
 39 64  1  0  0  0
 39 67  2  0  0  0
 40 52  1  0  0  0
 40 53  2  0  0  0
 40 58  1  0  0  0
 41115  1  0  0  0
 41116  1  0  0  0
 41117  1  0  0  0
 41 48  1  0  0  0
 42 43  1  0  0  0
 42 66  1  0  0  0
 42118  1  0  0  0
 42119  1  0  0  0
 43 44  1  0  0  0
 44120  1  0  0  0
 45 46  2  0  0  0
 45121  1  0  0  0
 46122  1  0  0  0
 47123  1  0  0  0
 47124  1  0  0  0
 48 56  1  0  0  0
 48 65  1  0  0  0
 48125  1  0  0  0
 49 50  1  0  0  0
 49 53  1  0  0  0
 49 64  1  0  0  0
 49126  1  0  0  0
 50 51  1  0  0  0
 50127  1  0  0  0
 50128  1  0  0  0
 51 52  1  0  0  0
 51129  1  0  0  0
 51130  1  0  0  0
 52131  1  0  0  0
 52132  1  0  0  0
 53 54  1  0  0  0
 54 55  2  0  0  0
 54133  1  0  0  0
 55 57  1  0  0  0
 55134  1  0  0  0
 56 69  2  0  0  0
 57 58  2  0  0  0
 57135  1  0  0  0
 58136  1  0  0  0
 59 60  1  0  0  0
 59 61  1  0  0  0
 59 62  1  0  0  0
 60137  1  0  0  0
 60138  1  0  0  0
 60139  1  0  0  0
 61140  1  0  0  0
 61141  1  0  0  0
 61142  1  0  0  0
 62143  1  0  0  0
 62144  1  0  0  0
 62145  1  0  0  0
 63 65  1  0  0  0
 63146  1  0  0  0
 63147  1  0  0  0
 63148  1  0  0  0
 64149  1  0  0  0
 65150  1  0  0  0
 68 82  1  0  0  0
 71 74  2  0  0  0
 71 75  1  0  0  0
 71151  1  0  0  0
 72 74  1  0  0  0
 72 76  2  0  0  0
 72152  1  0  0  0
 73 75  2  0  0  0
 73 76  1  0  0  0
 73153  1  0  0  0
 74 83  1  0  0  0
 75 84  1  0  0  0
 76 90  1  0  0  0
 77 81  1  0  0  0
 77 85  1  0  0  0
 77 86  2  0  0  0
 78 79  1  0  0  0
 78 83  1  0  0  0
 78154  1  0  0  0
 78155  1  0  0  0
 79156  1  0  0  0
 79157  1  0  0  0
 79 91  1  0  0  0
 80 83  1  0  0  0
 80 91  1  0  0  0
 80158  1  0  0  0
 80159  1  0  0  0
 81 82  1  0  0  0
 81160  1  0  0  0
 81161  1  0  0  0
 82162  1  0  0  0
 82163  1  0  0  0
 84164  1  0  0  0
 85165  1  0  0  0
 85 90  1  0  0  0
 87 90  2  0  0  0
 88 91  2  0  0  0
 89 91  2  0  0  0
M  ISO  4   1 100  68 101  82 101  84 100
M  END
> <chiral flag>
0

> <version>
0

> <s_m_source_file>
/data/baiqing/PycharmProjects/Reinvent-master-3.2/result/LINK_invent/BTK/process_docking_weight1_custom_product_contain_oxygen_bond_distance_aromatic_linkinvent_7_9_3/rearranged_h_0067.sdf

> <i_m_source_file_index>
26

> <r_mmod_Potential_Energy-OPLS-2005>
-330.335388183594

> <r_mmod_Stretch_Energy-OPLS-2005>
42.179126739502

> <r_mmod_Bend_Energy-OPLS-2005>
125.673759460449

> <r_mmod_Torsional_Energy-OPLS-2005>
278.249877929688

> <r_mmod_Improper_Torsional_Energy-OPLS-2005>
8.2146110534668

> <r_mmod_Van_der_Waal_Energy-OPLS-2005>
154.369491577148

> <r_mmod_Electrostatic_Energy-OPLS-2005>
-631.192504882812

> <r_mmod_Solvation_Energy-OPLS-2005>
-322.711059570312

> <b_mmod_Minimization_Converged-OPLS-2005>
0

> <r_mmod_RMS_Derivative-OPLS-2005>
2.62703204154968

$$$$
26
                    3D
 Structure written by MMmdl.
151159  0  0  1  0            999 V2000
  -30.6173  -14.7275   20.4316 C   0  0  0  0  0  0
  -30.4258  -12.4370   19.4783 C   0  0  0  0  0  0
  -29.5098  -12.5018   18.2372 C   0  0  0  0  0  0
  -28.0335  -12.3350   18.6454 C   0  0  0  0  0  0
  -27.6400  -13.2342   19.8479 C   0  0  2  0  0  0
  -28.6818  -13.1682   20.9856 C   0  0  0  0  0  0
  -25.2501  -13.8206   20.5687 C   0  0  0  0  0  0
  -24.1793  -13.0448   20.9200 C   0  0  0  0  0  0
  -24.6384  -11.6925   20.8737 C   0  0  0  0  0  0
  -23.9065  -10.4296   21.0399 C   0  0  0  0  0  0
  -24.3619   -9.4215   21.9179 C   0  0  0  0  0  0
  -23.6297   -8.2249   22.0753 C   0  0  0  0  0  0
  -22.4277   -8.0284   21.3547 C   0  0  0  0  0  0
  -21.9906   -9.0255   20.4650 C   0  0  0  0  0  0
  -22.7231  -10.2136   20.3058 C   0  0  0  0  0  0
  -21.6855   -6.0734   22.5277 C   0  0  0  0  0  0
  -21.4020   -6.5640   23.8211 C   0  0  0  0  0  0
  -21.3657   -5.6791   24.9173 C   0  0  0  0  0  0
  -21.6046   -4.3053   24.7222 C   0  0  0  0  0  0
  -21.8819   -3.8144   23.4344 C   0  0  0  0  0  0
  -21.9198   -4.6962   22.3399 C   0  0  0  0  0  0
  -22.7816  -13.5227   21.1862 C   0  0  0  0  0  0
  -22.1665   -4.2151   21.0975 F   0  0  0  0  0  0
  -21.5627   -3.4534   25.7733 F   0  0  0  0  0  0
  -29.9876  -13.5046   20.4071 N   0  0  0  0  0  0
  -26.2921  -12.9416   20.3255 N   0  0  0  0  0  0
  -25.9313  -11.6555   20.5735 N   0  0  0  0  0  0
  -22.0459  -12.8226   22.0421 N   0  0  0  0  0  0
  -25.4201  -15.1934   20.4113 N   0  0  0  0  0  0
  -31.8147  -14.7930   20.1387 O   0  0  0  0  0  0
  -21.6646   -6.8875   21.4240 O   0  0  0  0  0  0
  -22.3496  -14.5518   20.6686 O   0  0  0  0  0  0
  -24.6305  -31.8551   23.1978 C   0  0  0  0  0  0
  -25.9145  -32.4743   23.8311 C   0  0  1  0  0  0
  -27.2192  -27.2660   20.1189 C   0  0  0  0  0  0
  -25.5937  -33.8547   24.2225 N   0  0  0  0  0  0
  -23.4247  -30.4777   21.5406 C   0  0  2  0  0  0
  -24.8692  -28.9243   20.1081 C   0  0  0  0  0  0
  -22.7489  -29.4601   22.4915 C   0  0  0  0  0  0
  -18.0283  -28.1376   22.8473 C   0  0  0  0  0  0
  -24.1488  -36.7286   23.2630 C   0  0  0  0  0  0
  -25.9708  -30.7678   21.3776 C   0  0  0  0  0  0
  -26.0399  -29.3917   20.7162 C   0  0  0  0  0  0
  -27.2138  -28.5744   20.7100 C   0  0  0  0  0  0
  -26.0178  -26.8574   19.4956 C   0  0  0  0  0  0
  -24.8637  -27.6646   19.4897 C   0  0  0  0  0  0
  -23.6407  -29.8108   20.1564 C   0  0  0  0  0  0
  -25.4115  -36.3062   24.0313 C   0  0  1  0  0  0
  -20.5886  -28.3684   23.1270 C   0  0  2  0  0  0
  -20.6763  -26.9402   22.5406 C   0  0  0  0  0  0
  -19.5744  -26.6374   21.5203 C   0  0  0  0  0  0
  -18.1930  -26.7916   22.1621 C   0  0  0  0  0  0
  -19.1536  -28.8850   23.2858 C   0  0  0  0  0  0
  -18.9465  -30.1456   23.8870 C   0  0  0  0  0  0
  -17.6465  -30.6579   24.0559 C   0  0  0  0  0  0
  -25.9066  -34.9436   23.5072 C   0  0  0  0  0  0
  -16.5358  -29.9076   23.6332 C   0  0  0  0  0  0
  -16.7272  -28.6496   23.0345 C   0  0  0  0  0  0
  -26.4502  -31.6582   25.0716 C   0  0  0  0  0  0
  -25.3726  -31.3746   26.1440 C   0  0  0  0  0  0
  -27.0335  -30.2982   24.6234 C   0  0  0  0  0  0
  -27.6034  -32.4342   25.7504 C   0  0  0  0  0  0
  -27.5590  -37.1787   24.8451 C   0  0  0  0  0  0
  -21.4196  -29.3039   22.3669 N   0  0  0  0  0  0
  -26.4278  -37.3782   23.9422 N   0  0  0  0  0  0
  -24.6939  -31.0526   22.0943 N   0  0  0  0  0  0
  -23.4203  -28.8149   23.3010 O   0  0  0  0  0  0
  -28.3448  -26.4143   20.1970 O   0  0  0  0  0  0
  -26.5654  -34.8929   22.4654 O   0  0  0  0  0  0
  -23.5463  -32.1376   23.7286 O   0  0  0  0  0  0
  -29.4320  -18.4819   20.5465 C   0  0  0  0  0  0
  -30.5397  -19.8354   18.8563 C   0  0  0  0  0  0
  -30.9265  -17.4181   18.9493 C   0  0  0  0  0  0
  -29.6432  -19.8010   19.9505 C   0  0  0  0  0  0
  -30.0739  -17.2573   20.0680 C   0  0  0  0  0  0
  -31.1572  -18.6735   18.3616 C   0  0  0  0  0  0
  -28.8914  -22.3035   19.7746 C   0  0  0  0  0  0
  -28.5345  -23.6792   20.5142 C   0  0  0  0  0  0
  -28.4177  -25.0282   19.6194 C   0  0  0  0  0  0
  -29.0631  -21.0889   20.4370 N   0  0  0  0  0  0
  -29.8564  -15.8804   20.6050 N   0  0  0  0  0  0
  -28.9734  -22.3540   18.5452 O   0  0  0  0  0  0
  -31.9911  -18.7645   17.2981 F   0  0  0  0  0  0
  -31.4694  -12.5482   19.1779 H   0  0  0  0  0  0
  -30.3583  -11.4611   19.9611 H   0  0  0  0  0  0
  -29.7892  -11.7291   17.5202 H   0  0  0  0  0  0
  -29.6460  -13.4575   17.7280 H   0  0  0  0  0  0
  -27.8827  -11.2864   18.9041 H   0  0  0  0  0  0
  -27.3822  -12.5359   17.7944 H   0  0  0  0  0  0
  -27.6355  -14.2561   19.4682 H   0  0  0  0  0  0
  -28.7061  -12.1730   21.4327 H   0  0  0  0  0  0
  -28.4189  -13.8582   21.7892 H   0  0  0  0  0  0
  -25.2769   -9.5694   22.4749 H   0  0  0  0  0  0
  -24.0012   -7.4640   22.7464 H   0  0  0  0  0  0
  -21.0839   -8.8766   19.8954 H   0  0  0  0  0  0
  -22.3685  -10.9672   19.6167 H   0  0  0  0  0  0
  -21.2014   -7.6148   23.9714 H   0  0  0  0  0  0
  -21.1480   -6.0522   25.9076 H   0  0  0  0  0  0
  -22.0600   -2.7610   23.2841 H   0  0  0  0  0  0
  -22.4083  -11.9917   22.4854 H   0  0  0  0  0  0
  -21.1070  -13.1250   22.2589 H   0  0  0  0  0  0
  -24.6523  -15.8474   20.5183 H   0  0  0  0  0  0
  -26.2661  -15.6312   20.0691 H   0  0  0  0  0  0
  -26.7214  -32.5375   23.1051 H   0  0  0  0  0  0
  -25.0056  -33.9678   25.0349 H   0  0  0  0  0  0
  -22.7206  -31.2996   21.3949 H   0  0  0  0  0  0
  -23.3764  -35.9603   23.3251 H   0  0  0  0  0  0
  -24.3580  -36.8965   22.2054 H   0  0  0  0  0  0
  -23.7239  -37.6467   23.6696 H   0  0  0  0  0  0
  -26.1179  -31.5312   20.6129 H   0  0  0  0  0  0
  -26.8466  -30.8085   22.0132 H   0  0  0  0  0  0
  -28.1112  -28.9279   21.1980 H   0  0  0  0  0  0
  -25.9178  -25.8909   19.0303 H   0  0  0  0  0  0
  -23.9637  -27.2957   19.0158 H   0  0  0  0  0  0
  -23.7654  -30.5863   19.3998 H   0  0  0  0  0  0
  -22.7587  -29.2441   19.8512 H   0  0  0  0  0  0
  -25.1302  -36.1876   25.0805 H   0  0  0  0  0  0
  -20.9964  -28.3250   24.1393 H   0  0  0  0  0  0
  -20.5644  -26.2290   23.3603 H   0  0  0  0  0  0
  -21.6638  -26.7417   22.1219 H   0  0  0  0  0  0
  -19.6901  -25.6280   21.1241 H   0  0  0  0  0  0
  -19.6686  -27.3173   20.6722 H   0  0  0  0  0  0
  -17.4198  -26.6653   21.4030 H   0  0  0  0  0  0
  -18.0340  -26.0058   22.9017 H   0  0  0  0  0  0
  -19.7948  -30.7275   24.2222 H   0  0  0  0  0  0
  -17.5026  -31.6254   24.5163 H   0  0  0  0  0  0
  -15.5361  -30.2974   23.7665 H   0  0  0  0  0  0
  -15.8671  -28.0818   22.7061 H   0  0  0  0  0  0
  -24.5895  -30.7097   25.7786 H   0  0  0  0  0  0
  -24.8931  -32.2918   26.4865 H   0  0  0  0  0  0
  -25.8051  -30.8933   27.0220 H   0  0  0  0  0  0
  -26.2915  -29.6738   24.1242 H   0  0  0  0  0  0
  -27.3955  -29.7254   25.4784 H   0  0  0  0  0  0
  -27.8830  -30.4221   23.9514 H   0  0  0  0  0  0
  -27.2605  -33.3632   26.2076 H   0  0  0  0  0  0
  -28.3856  -32.6929   25.0355 H   0  0  0  0  0  0
  -28.0689  -31.8482   26.5439 H   0  0  0  0  0  0
  -28.2559  -38.0132   24.7571 H   0  0  0  0  0  0
  -28.1139  -36.2672   24.6173 H   0  0  0  0  0  0
  -27.2322  -37.1311   25.8854 H   0  0  0  0  0  0
  -20.9373  -29.8767   21.6885 H   0  0  0  0  0  0
  -26.0139  -38.2839   24.1470 H   0  0  0  0  0  0
  -28.7625  -18.4087   21.3913 H   0  0  0  0  0  0
  -30.7905  -20.7640   18.3677 H   0  0  0  0  0  0
  -31.4252  -16.5741   18.4993 H   0  0  0  0  0  0
  -29.3039  -23.8370   21.2701 H   0  0  0  0  0  0
  -27.6040  -23.5347   21.0627 H   0  0  0  0  0  0
  -27.6646  -24.8654   18.8538 H   0  0  0  0  0  0
  -29.3366  -25.0602   19.0335 H   0  0  0  0  0  0
  -28.7979  -21.1034   21.4137 H   0  0  0  0  0  0
  -28.9543  -15.7201   21.0279 H   0  0  0  0  0  0
  1 25  1  0  0  0
  1 30  2  0  0  0
  1 81  1  0  0  0
  2  3  1  0  0  0
  2 25  1  0  0  0
  2 84  1  0  0  0
  2 85  1  0  0  0
  3  4  1  0  0  0
  3 86  1  0  0  0
  3 87  1  0  0  0
  4  5  1  0  0  0
  4 88  1  0  0  0
  4 89  1  0  0  0
  5  6  1  0  0  0
  5 26  1  0  0  0
  5 90  1  0  0  0
  6 25  1  0  0  0
  6 91  1  0  0  0
  6 92  1  0  0  0
  7  8  2  0  0  0
  7 26  1  0  0  0
  7 29  1  0  0  0
  8  9  1  0  0  0
  8 22  1  0  0  0
  9 10  1  0  0  0
  9 27  2  0  0  0
 10 11  2  0  0  0
 10 15  1  0  0  0
 11 12  1  0  0  0
 11 93  1  0  0  0
 12 13  2  0  0  0
 12 94  1  0  0  0
 13 14  1  0  0  0
 13 31  1  0  0  0
 14 15  2  0  0  0
 14 95  1  0  0  0
 15 96  1  0  0  0
 16 17  2  0  0  0
 16 21  1  0  0  0
 16 31  1  0  0  0
 17 18  1  0  0  0
 17 97  1  0  0  0
 18 19  2  0  0  0
 18 98  1  0  0  0
 19 20  1  0  0  0
 19 24  1  0  0  0
 20 21  2  0  0  0
 20 99  1  0  0  0
 21 23  1  0  0  0
 22 28  1  0  0  0
 22 32  2  0  0  0
 26 27  1  0  0  0
 28100  1  0  0  0
 28101  1  0  0  0
 29102  1  0  0  0
 29103  1  0  0  0
 33 34  1  0  0  0
 33 66  1  0  0  0
 33 70  2  0  0  0
 34 36  1  0  0  0
 34 59  1  0  0  0
 34104  1  0  0  0
 35 44  2  0  0  0
 35 45  1  0  0  0
 35 68  1  0  0  0
 36 56  1  0  0  0
 36105  1  0  0  0
 37 39  1  0  0  0
 37 47  1  0  0  0
 37 66  1  0  0  0
 37106  1  0  0  0
 38 43  2  0  0  0
 38 46  1  0  0  0
 38 47  1  0  0  0
 39 64  1  0  0  0
 39 67  2  0  0  0
 40 52  1  0  0  0
 40 53  2  0  0  0
 40 58  1  0  0  0
 41107  1  0  0  0
 41108  1  0  0  0
 41109  1  0  0  0
 41 48  1  0  0  0
 42 43  1  0  0  0
 42 66  1  0  0  0
 42110  1  0  0  0
 42111  1  0  0  0
 43 44  1  0  0  0
 44112  1  0  0  0
 45 46  2  0  0  0
 45113  1  0  0  0
 46114  1  0  0  0
 47115  1  0  0  0
 47116  1  0  0  0
 48 56  1  0  0  0
 48 65  1  0  0  0
 48117  1  0  0  0
 49 50  1  0  0  0
 49 53  1  0  0  0
 49 64  1  0  0  0
 49118  1  0  0  0
 50 51  1  0  0  0
 50119  1  0  0  0
 50120  1  0  0  0
 51 52  1  0  0  0
 51121  1  0  0  0
 51122  1  0  0  0
 52123  1  0  0  0
 52124  1  0  0  0
 53 54  1  0  0  0
 54 55  2  0  0  0
 54125  1  0  0  0
 55 57  1  0  0  0
 55126  1  0  0  0
 56 69  2  0  0  0
 57 58  2  0  0  0
 57127  1  0  0  0
 58128  1  0  0  0
 59 60  1  0  0  0
 59 61  1  0  0  0
 59 62  1  0  0  0
 60129  1  0  0  0
 60130  1  0  0  0
 60131  1  0  0  0
 61132  1  0  0  0
 61133  1  0  0  0
 61134  1  0  0  0
 62135  1  0  0  0
 62136  1  0  0  0
 62137  1  0  0  0
 63 65  1  0  0  0
 63138  1  0  0  0
 63139  1  0  0  0
 63140  1  0  0  0
 64141  1  0  0  0
 65142  1  0  0  0
 68 79  1  0  0  0
 71 74  2  0  0  0
 71 75  1  0  0  0
 71143  1  0  0  0
 72 74  1  0  0  0
 72 76  2  0  0  0
 72144  1  0  0  0
 73 75  2  0  0  0
 73 76  1  0  0  0
 73145  1  0  0  0
 74 80  1  0  0  0
 75 81  1  0  0  0
 76 83  1  0  0  0
 77 78  1  0  0  0
 77 80  1  0  0  0
 77 82  2  0  0  0
 78 79  1  0  0  0
 78146  1  0  0  0
 78147  1  0  0  0
 79148  1  0  0  0
 79149  1  0  0  0
 80150  1  0  0  0
 81151  1  0  0  0
M  ISO  4   1 100  68 101  79 101  81 100
M  END
> <chiral flag>
0

> <version>
0

> <s_m_source_file>
/data/baiqing/PycharmProjects/Reinvent-master-3.2/result/LINK_invent/BTK/process_docking_weight1_custom_product_contain_oxygen_bond_distance_aromatic_linkinvent_7_9_3/rearranged_h_0067.sdf

> <i_m_source_file_index>
27

> <r_mmod_Potential_Energy-OPLS-2005>
160.487426757812

> <r_mmod_Stretch_Energy-OPLS-2005>
127.065689086914

> <r_mmod_Bend_Energy-OPLS-2005>
168.079605102539

> <r_mmod_Torsional_Energy-OPLS-2005>
232.350234985352

> <r_mmod_Improper_Torsional_Energy-OPLS-2005>
4.75796127319336

> <r_mmod_Van_der_Waal_Energy-OPLS-2005>
149.042633056641

> <r_mmod_Electrostatic_Energy-OPLS-2005>
-364.885498046875

> <r_mmod_Solvation_Energy-OPLS-2005>
-234.809768676758

> <b_mmod_Minimization_Converged-OPLS-2005>
0

> <r_mmod_RMS_Derivative-OPLS-2005>
1.30600321292877

$$$$
27
                    3D
 Structure written by MMmdl.
154162  0  0  1  0            999 V2000
  -30.5108  -15.0485   20.4208 C   0  0  0  0  0  0
  -30.4416  -12.6633   19.4986 C   0  0  0  0  0  0
  -29.5222  -12.5404   18.2601 C   0  0  0  0  0  0
  -28.0610  -12.3045   18.6859 C   0  0  0  0  0  0
  -27.6213  -13.2538   19.8303 C   0  0  2  0  0  0
  -28.6650  -13.3343   20.9644 C   0  0  0  0  0  0
  -25.2437  -13.8222   20.5724 C   0  0  0  0  0  0
  -24.1767  -13.0443   20.9256 C   0  0  0  0  0  0
  -24.6393  -11.6928   20.8769 C   0  0  0  0  0  0
  -23.9075  -10.4294   21.0416 C   0  0  0  0  0  0
  -24.3623   -9.4208   21.9191 C   0  0  0  0  0  0
  -23.6299   -8.2244   22.0753 C   0  0  0  0  0  0
  -22.4282   -8.0281   21.3541 C   0  0  0  0  0  0
  -21.9917   -9.0255   20.4643 C   0  0  0  0  0  0
  -22.7246  -10.2139   20.3061 C   0  0  0  0  0  0
  -21.6855   -6.0737   22.5277 C   0  0  0  0  0  0
  -21.4013   -6.5644   23.8208 C   0  0  0  0  0  0
  -21.3653   -5.6798   24.9172 C   0  0  0  0  0  0
  -21.6046   -4.3059   24.7225 C   0  0  0  0  0  0
  -21.8818   -3.8150   23.4343 C   0  0  0  0  0  0
  -21.9194   -4.6965   22.3400 C   0  0  0  0  0  0
  -22.7787  -13.5213   21.1893 C   0  0  0  0  0  0
  -22.1665   -4.2154   21.0976 F   0  0  0  0  0  0
  -21.5624   -3.4538   25.7734 F   0  0  0  0  0  0
  -29.9205  -13.7787   20.3467 N   0  0  0  0  0  0
  -26.2853  -12.9456   20.3236 N   0  0  0  0  0  0
  -25.9322  -11.6584   20.5738 N   0  0  0  0  0  0
  -22.0427  -12.8203   22.0443 N   0  0  0  0  0  0
  -25.4087  -15.1949   20.4119 N   0  0  0  0  0  0
  -31.7318  -15.0786   20.2218 O   0  0  0  0  0  0
  -21.6646   -6.8881   21.4238 O   0  0  0  0  0  0
  -22.3479  -14.5515   20.6727 O   0  0  0  0  0  0
  -24.6510  -31.8370   23.1814 C   0  0  0  0  0  0
  -25.9244  -32.4662   23.8227 C   0  0  1  0  0  0
  -27.2107  -27.0536   20.1648 C   0  0  0  0  0  0
  -25.5960  -33.8468   24.2143 N   0  0  0  0  0  0
  -23.4593  -30.4539   21.5296 C   0  0  2  0  0  0
  -24.9093  -28.8676   20.1110 C   0  0  0  0  0  0
  -22.7612  -29.4508   22.4832 C   0  0  0  0  0  0
  -18.0322  -28.1387   22.8468 C   0  0  0  0  0  0
  -24.1503  -36.7242   23.2641 C   0  0  0  0  0  0
  -26.0211  -30.6842   21.3936 C   0  0  0  0  0  0
  -26.0909  -29.2872   20.7355 C   0  0  0  0  0  0
  -27.2423  -28.3987   20.7419 C   0  0  0  0  0  0
  -26.0028  -26.7616   19.4916 C   0  0  0  0  0  0
  -24.8830  -27.6212   19.4706 C   0  0  0  0  0  0
  -23.6907  -29.7794   20.1513 C   0  0  0  0  0  0
  -25.4135  -36.3015   24.0312 C   0  0  1  0  0  0
  -20.5936  -28.3726   23.1211 C   0  0  2  0  0  0
  -20.6807  -26.9424   22.5394 C   0  0  0  0  0  0
  -19.5778  -26.6373   21.5206 C   0  0  0  0  0  0
  -18.1959  -26.7922   22.1616 C   0  0  0  0  0  0
  -19.1580  -28.8876   23.2830 C   0  0  0  0  0  0
  -18.9488  -30.1469   23.8863 C   0  0  0  0  0  0
  -17.6481  -30.6584   24.0552 C   0  0  0  0  0  0
  -25.9088  -34.9392   23.5048 C   0  0  0  0  0  0
  -16.5376  -29.9072   23.6334 C   0  0  0  0  0  0
  -16.7305  -28.6489   23.0357 C   0  0  0  0  0  0
  -26.4536  -31.6546   25.0696 C   0  0  0  0  0  0
  -25.3681  -31.3740   26.1356 C   0  0  0  0  0  0
  -27.0423  -30.2940   24.6319 C   0  0  0  0  0  0
  -27.6061  -32.4322   25.7475 C   0  0  0  0  0  0
  -27.5583  -37.1775   24.8463 C   0  0  0  0  0  0
  -21.4299  -29.3045   22.3578 N   0  0  0  0  0  0
  -26.4296  -37.3731   23.9397 N   0  0  0  0  0  0
  -24.7311  -31.0151   22.0890 N   0  0  0  0  0  0
  -23.4216  -28.8060   23.3017 O   0  0  0  0  0  0
  -28.2318  -26.0087   20.2261 O   0  0  0  0  0  0
  -26.5692  -34.8907   22.4639 O   0  0  0  0  0  0
  -23.5608  -32.1283   23.6982 O   0  0  0  0  0  0
  -31.4834  -19.3398   21.9034 C   0  0  0  0  0  0
  -31.1791  -18.0453   21.4402 C   0  0  0  0  0  0
  -29.2437  -19.0366   20.3749 C   0  0  0  0  0  0
  -30.7047  -20.5034   21.6529 C   0  0  0  0  0  0
  -30.0203  -17.7747   20.6964 C   0  0  0  0  0  0
  -29.5612  -20.4687   20.7729 C   0  0  0  0  0  0
  -31.1377  -21.6428   22.4927 C   0  0  0  0  0  0
  -28.9704  -23.1758   20.2391 C   0  0  0  0  0  0
  -27.8671  -24.4555   20.2634 C   0  0  0  0  0  0
  -31.2077  -21.4878   23.8157 N   0  0  0  0  0  0
  -28.7100  -21.7708   20.4957 N   0  0  0  0  0  0
  -29.7248  -16.2623   20.4443 N   0  0  0  0  0  0
  -31.5424  -22.8062   22.0014 N   0  3  0  0  0  0
  -30.1092  -23.4833   19.8791 O   0  0  0  0  0  0
  -31.4679  -12.8473   19.1764 H   0  0  0  0  0  0
  -30.4683  -11.7286   20.0612 H   0  0  0  0  0  0
  -29.8615  -11.7320   17.6115 H   0  0  0  0  0  0
  -29.5856  -13.4546   17.6680 H   0  0  0  0  0  0
  -27.9794  -11.2684   19.0177 H   0  0  0  0  0  0
  -27.3935  -12.4026   17.8293 H   0  0  0  0  0  0
  -27.5655  -14.2428   19.3746 H   0  0  0  0  0  0
  -28.7837  -12.3733   21.4664 H   0  0  0  0  0  0
  -28.3474  -14.0472   21.7269 H   0  0  0  0  0  0
  -25.2755   -9.5696   22.4778 H   0  0  0  0  0  0
  -24.0002   -7.4640   22.7477 H   0  0  0  0  0  0
  -21.0845   -8.8781   19.8949 H   0  0  0  0  0  0
  -22.3695  -10.9686   19.6177 H   0  0  0  0  0  0
  -21.2006   -7.6151   23.9714 H   0  0  0  0  0  0
  -21.1472   -6.0526   25.9077 H   0  0  0  0  0  0
  -22.0599   -2.7612   23.2843 H   0  0  0  0  0  0
  -22.4040  -11.9872   22.4843 H   0  0  0  0  0  0
  -21.1035  -13.1218   22.2620 H   0  0  0  0  0  0
  -24.6344  -15.8415   20.5179 H   0  0  0  0  0  0
  -26.2364  -15.6315   20.0301 H   0  0  0  0  0  0
  -26.7301  -32.5247   23.0937 H   0  0  0  0  0  0
  -25.0054  -33.9556   25.0250 H   0  0  0  0  0  0
  -22.7667  -31.2825   21.3688 H   0  0  0  0  0  0
  -23.3784  -35.9557   23.3287 H   0  0  0  0  0  0
  -24.3581  -36.8902   22.2060 H   0  0  0  0  0  0
  -23.7241  -37.6420   23.6702 H   0  0  0  0  0  0
  -26.1868  -31.4350   20.6195 H   0  0  0  0  0  0
  -26.8882  -30.7362   22.0413 H   0  0  0  0  0  0
  -28.1411  -28.7149   21.2538 H   0  0  0  0  0  0
  -25.8822  -25.8184   18.9836 H   0  0  0  0  0  0
  -23.9838  -27.2966   18.9645 H   0  0  0  0  0  0
  -23.8353  -30.5524   19.3953 H   0  0  0  0  0  0
  -22.8040  -29.2255   19.8382 H   0  0  0  0  0  0
  -25.1324  -36.1849   25.0807 H   0  0  0  0  0  0
  -21.0019  -28.3334   24.1336 H   0  0  0  0  0  0
  -20.5703  -26.2341   23.3621 H   0  0  0  0  0  0
  -21.6669  -26.7429   22.1186 H   0  0  0  0  0  0
  -19.6943  -25.6274   21.1260 H   0  0  0  0  0  0
  -19.6718  -27.3167   20.6720 H   0  0  0  0  0  0
  -17.4225  -26.6673   21.4024 H   0  0  0  0  0  0
  -18.0361  -26.0067   22.9017 H   0  0  0  0  0  0
  -19.7969  -30.7282   24.2231 H   0  0  0  0  0  0
  -17.5039  -31.6263   24.5149 H   0  0  0  0  0  0
  -15.5371  -30.2954   23.7674 H   0  0  0  0  0  0
  -15.8713  -28.0788   22.7090 H   0  0  0  0  0  0
  -24.5894  -30.7070   25.7626 H   0  0  0  0  0  0
  -24.8823  -32.2918   26.4688 H   0  0  0  0  0  0
  -25.7917  -30.8948   27.0191 H   0  0  0  0  0  0
  -26.3056  -29.6631   24.1335 H   0  0  0  0  0  0
  -27.4024  -29.7280   25.4913 H   0  0  0  0  0  0
  -27.8968  -30.4164   23.9664 H   0  0  0  0  0  0
  -27.2676  -33.3679   26.1940 H   0  0  0  0  0  0
  -28.3918  -32.6789   25.0319 H   0  0  0  0  0  0
  -28.0676  -31.8511   26.5468 H   0  0  0  0  0  0
  -28.2576  -38.0100   24.7529 H   0  0  0  0  0  0
  -28.1120  -36.2623   24.6289 H   0  0  0  0  0  0
  -27.2295  -37.1403   25.8868 H   0  0  0  0  0  0
  -20.9534  -29.8742   21.6731 H   0  0  0  0  0  0
  -26.0181  -38.2805   24.1405 H   0  0  0  0  0  0
  -32.3529  -19.4240   22.5418 H   0  0  0  0  0  0
  -31.8265  -17.2357   21.7435 H   0  0  0  0  0  0
  -28.3399  -18.8940   19.8025 H   0  0  0  0  0  0
  -27.2471  -24.3045   21.1475 H   0  0  0  0  0  0
  -27.2191  -24.2437   19.4156 H   0  0  0  0  0  0
  -30.8959  -20.6165   24.2201 H   0  0  0  0  0  0
  -31.5198  -22.2125   24.4424 H   0  0  0  0  0  0
  -27.7142  -21.5970   20.5363 H   0  0  0  0  0  0
  -28.7423  -16.0672   20.3336 H   0  0  0  0  0  0
  -31.2599  -23.0375   21.0448 H   0  0  0  0  0  0
  -31.9261  -23.5416   22.5721 H   0  0  0  0  0  0
  1 25  1  0  0  0
  1 30  2  0  0  0
  1 82  1  0  0  0
  2  3  1  0  0  0
  2 25  1  0  0  0
  2 85  1  0  0  0
  2 86  1  0  0  0
  3  4  1  0  0  0
  3 87  1  0  0  0
  3 88  1  0  0  0
  4  5  1  0  0  0
  4 89  1  0  0  0
  4 90  1  0  0  0
  5  6  1  0  0  0
  5 26  1  0  0  0
  5 91  1  0  0  0
  6 25  1  0  0  0
  6 92  1  0  0  0
  6 93  1  0  0  0
  7  8  2  0  0  0
  7 26  1  0  0  0
  7 29  1  0  0  0
  8  9  1  0  0  0
  8 22  1  0  0  0
  9 10  1  0  0  0
  9 27  2  0  0  0
 10 11  2  0  0  0
 10 15  1  0  0  0
 11 12  1  0  0  0
 11 94  1  0  0  0
 12 13  2  0  0  0
 12 95  1  0  0  0
 13 14  1  0  0  0
 13 31  1  0  0  0
 14 15  2  0  0  0
 14 96  1  0  0  0
 15 97  1  0  0  0
 16 17  2  0  0  0
 16 21  1  0  0  0
 16 31  1  0  0  0
 17 18  1  0  0  0
 17 98  1  0  0  0
 18 19  2  0  0  0
 18 99  1  0  0  0
 19 20  1  0  0  0
 19 24  1  0  0  0
 20 21  2  0  0  0
 20100  1  0  0  0
 21 23  1  0  0  0
 22 28  1  0  0  0
 22 32  2  0  0  0
 26 27  1  0  0  0
 28101  1  0  0  0
 28102  1  0  0  0
 29103  1  0  0  0
 29104  1  0  0  0
 33 34  1  0  0  0
 33 66  1  0  0  0
 33 70  2  0  0  0
 34 36  1  0  0  0
 34 59  1  0  0  0
 34105  1  0  0  0
 35 44  2  0  0  0
 35 45  1  0  0  0
 35 68  1  0  0  0
 36 56  1  0  0  0
 36106  1  0  0  0
 37 39  1  0  0  0
 37 47  1  0  0  0
 37 66  1  0  0  0
 37107  1  0  0  0
 38 43  2  0  0  0
 38 46  1  0  0  0
 38 47  1  0  0  0
 39 64  1  0  0  0
 39 67  2  0  0  0
 40 52  1  0  0  0
 40 53  2  0  0  0
 40 58  1  0  0  0
 41108  1  0  0  0
 41109  1  0  0  0
 41110  1  0  0  0
 41 48  1  0  0  0
 42 43  1  0  0  0
 42 66  1  0  0  0
 42111  1  0  0  0
 42112  1  0  0  0
 43 44  1  0  0  0
 44113  1  0  0  0
 45 46  2  0  0  0
 45114  1  0  0  0
 46115  1  0  0  0
 47116  1  0  0  0
 47117  1  0  0  0
 48 56  1  0  0  0
 48 65  1  0  0  0
 48118  1  0  0  0
 49 50  1  0  0  0
 49 53  1  0  0  0
 49 64  1  0  0  0
 49119  1  0  0  0
 50 51  1  0  0  0
 50120  1  0  0  0
 50121  1  0  0  0
 51 52  1  0  0  0
 51122  1  0  0  0
 51123  1  0  0  0
 52124  1  0  0  0
 52125  1  0  0  0
 53 54  1  0  0  0
 54 55  2  0  0  0
 54126  1  0  0  0
 55 57  1  0  0  0
 55127  1  0  0  0
 56 69  2  0  0  0
 57 58  2  0  0  0
 57128  1  0  0  0
 58129  1  0  0  0
 59 60  1  0  0  0
 59 61  1  0  0  0
 59 62  1  0  0  0
 60130  1  0  0  0
 60131  1  0  0  0
 60132  1  0  0  0
 61133  1  0  0  0
 61134  1  0  0  0
 61135  1  0  0  0
 62136  1  0  0  0
 62137  1  0  0  0
 62138  1  0  0  0
 63 65  1  0  0  0
 63139  1  0  0  0
 63140  1  0  0  0
 63141  1  0  0  0
 64142  1  0  0  0
 65143  1  0  0  0
 68 79  1  0  0  0
 71 72  2  0  0  0
 71 74  1  0  0  0
 71144  1  0  0  0
 72 75  1  0  0  0
 72145  1  0  0  0
 73 75  2  0  0  0
 73 76  1  0  0  0
 73146  1  0  0  0
 74 76  2  0  0  0
 74 77  1  0  0  0
 75 82  1  0  0  0
 76 81  1  0  0  0
 77 80  1  0  0  0
 77 83  2  0  0  0
 78 79  1  0  0  0
 78 81  1  0  0  0
 78 84  2  0  0  0
 79147  1  0  0  0
 79148  1  0  0  0
 80149  1  0  0  0
 80150  1  0  0  0
 81151  1  0  0  0
 82152  1  0  0  0
 83153  1  0  0  0
 83154  1  0  0  0
M  CHG  1  83   1
M  ISO  4   1 100  68 101  79 101  82 100
M  END
> <chiral flag>
0

> <version>
0

> <s_m_source_file>
/data/baiqing/PycharmProjects/Reinvent-master-3.2/result/LINK_invent/BTK/process_docking_weight1_custom_product_contain_oxygen_bond_distance_aromatic_linkinvent_7_9_3/rearranged_h_0067.sdf

> <i_m_source_file_index>
28

> <r_mmod_Potential_Energy-OPLS-2005>
517.477844238281

> <r_mmod_Stretch_Energy-OPLS-2005>
358.858734130859

> <r_mmod_Bend_Energy-OPLS-2005>
288.999145507812

> <r_mmod_Torsional_Energy-OPLS-2005>
263.021606445312

> <r_mmod_Improper_Torsional_Energy-OPLS-2005>
9.51687622070312

> <r_mmod_Van_der_Waal_Energy-OPLS-2005>
150.356796264648

> <r_mmod_Electrostatic_Energy-OPLS-2005>
-372.952239990234

> <r_mmod_Solvation_Energy-OPLS-2005>
-454.676086425781

> <b_mmod_Minimization_Converged-OPLS-2005>
0

> <r_mmod_RMS_Derivative-OPLS-2005>
1.51757621765137

$$$$
28
                    3D
 Structure written by MMmdl.
154162  0  0  1  0            999 V2000
  -30.6699  -14.7433   20.4160 C   0  0  0  0  0  0
  -30.4223  -12.4510   19.4740 C   0  0  0  0  0  0
  -29.5060  -12.4969   18.2336 C   0  0  0  0  0  0
  -28.0334  -12.3281   18.6516 C   0  0  0  0  0  0
  -27.6399  -13.2431   19.8422 C   0  0  2  0  0  0
  -28.6906  -13.2209   20.9746 C   0  0  0  0  0  0
  -25.2506  -13.8228   20.5708 C   0  0  0  0  0  0
  -24.1811  -13.0457   20.9221 C   0  0  0  0  0  0
  -24.6428  -11.6935   20.8773 C   0  0  0  0  0  0
  -23.9105  -10.4294   21.0415 C   0  0  0  0  0  0
  -24.3644   -9.4205   21.9196 C   0  0  0  0  0  0
  -23.6308   -8.2243   22.0758 C   0  0  0  0  0  0
  -22.4289   -8.0291   21.3554 C   0  0  0  0  0  0
  -21.9937   -9.0263   20.4650 C   0  0  0  0  0  0
  -22.7275  -10.2140   20.3060 C   0  0  0  0  0  0
  -21.6857   -6.0750   22.5283 C   0  0  0  0  0  0
  -21.4016   -6.5657   23.8216 C   0  0  0  0  0  0
  -21.3658   -5.6801   24.9177 C   0  0  0  0  0  0
  -21.6044   -4.3060   24.7223 C   0  0  0  0  0  0
  -21.8820   -3.8163   23.4339 C   0  0  0  0  0  0
  -21.9188   -4.6978   22.3399 C   0  0  0  0  0  0
  -22.7823  -13.5218   21.1876 C   0  0  0  0  0  0
  -22.1662   -4.2163   21.0978 F   0  0  0  0  0  0
  -21.5622   -3.4544   25.7739 F   0  0  0  0  0  0
  -29.9914  -13.5445   20.3767 N   0  0  0  0  0  0
  -26.2950  -12.9463   20.3288 N   0  0  0  0  0  0
  -25.9371  -11.6597   20.5779 N   0  0  0  0  0  0
  -22.0470  -12.8188   22.0420 N   0  0  0  0  0  0
  -25.4182  -15.1948   20.4113 N   0  0  0  0  0  0
  -31.8769  -14.7370   20.1764 O   0  0  0  0  0  0
  -21.6654   -6.8895   21.4248 O   0  0  0  0  0  0
  -22.3497  -14.5520   20.6723 O   0  0  0  0  0  0
  -24.6317  -31.8553   23.1990 C   0  0  0  0  0  0
  -25.9141  -32.4738   23.8335 C   0  0  1  0  0  0
  -27.2174  -27.2688   20.1233 C   0  0  0  0  0  0
  -25.5943  -33.8548   24.2267 N   0  0  0  0  0  0
  -23.4255  -30.4802   21.5430 C   0  0  2  0  0  0
  -24.8711  -28.9328   20.1060 C   0  0  0  0  0  0
  -22.7512  -29.4588   22.4912 C   0  0  0  0  0  0
  -18.0299  -28.1382   22.8482 C   0  0  0  0  0  0
  -24.1485  -36.7283   23.2641 C   0  0  0  0  0  0
  -25.9722  -30.7684   21.3795 C   0  0  0  0  0  0
  -26.0401  -29.3930   20.7225 C   0  0  0  0  0  0
  -27.2108  -28.5700   20.7273 C   0  0  0  0  0  0
  -26.0286  -26.8894   19.4524 C   0  0  0  0  0  0
  -24.8709  -27.6884   19.4613 C   0  0  0  0  0  0
  -23.6415  -29.8181   20.1578 C   0  0  0  0  0  0
  -25.4104  -36.3069   24.0335 C   0  0  1  0  0  0
  -20.5901  -28.3678   23.1281 C   0  0  2  0  0  0
  -20.6780  -26.9396   22.5427 C   0  0  0  0  0  0
  -19.5753  -26.6378   21.5229 C   0  0  0  0  0  0
  -18.1931  -26.7925   22.1636 C   0  0  0  0  0  0
  -19.1553  -28.8850   23.2870 C   0  0  0  0  0  0
  -18.9475  -30.1462   23.8876 C   0  0  0  0  0  0
  -17.6464  -30.6573   24.0565 C   0  0  0  0  0  0
  -25.9056  -34.9436   23.5103 C   0  0  0  0  0  0
  -16.5353  -29.9071   23.6332 C   0  0  0  0  0  0
  -16.7287  -28.6494   23.0341 C   0  0  0  0  0  0
  -26.4511  -31.6571   25.0728 C   0  0  0  0  0  0
  -25.3738  -31.3744   26.1453 C   0  0  0  0  0  0
  -27.0352  -30.2977   24.6205 C   0  0  0  0  0  0
  -27.6054  -32.4328   25.7494 C   0  0  0  0  0  0
  -27.5575  -37.1792   24.8467 C   0  0  0  0  0  0
  -21.4214  -29.3037   22.3677 N   0  0  0  0  0  0
  -26.4275  -37.3775   23.9413 N   0  0  0  0  0  0
  -24.6962  -31.0535   22.0961 N   0  0  0  0  0  0
  -23.4221  -28.8131   23.3005 O   0  0  0  0  0  0
  -28.3208  -26.3867   20.2193 O   0  0  0  0  0  0
  -26.5629  -34.8904   22.4674 O   0  0  0  0  0  0
  -23.5469  -32.1377   23.7299 O   0  0  0  0  0  0
  -32.0504  -18.8485   19.1404 C   0  0  0  0  0  0
  -31.5532  -17.5607   19.4058 C   0  0  0  0  0  0
  -29.6801  -18.5636   20.5712 C   0  0  0  0  0  0
  -31.3941  -20.0098   19.5922 C   0  0  0  0  0  0
  -30.3913  -17.3457   20.1888 C   0  0  0  0  0  0
  -30.1305  -19.9175   20.2465 C   0  0  0  0  0  0
  -29.2005  -22.3326   19.9536 C   0  0  0  0  0  0
  -32.1377  -21.3282   19.4033 C   0  0  0  0  0  0
  -28.9361  -23.7478   20.6542 C   0  0  0  0  0  0
  -28.2190  -24.9372   19.8242 C   0  0  0  0  0  0
  -29.4441  -21.1683   20.6704 N   0  0  0  0  0  0
  -29.9686  -15.9455   20.5181 N   0  0  0  0  0  0
  -29.1770  -22.2979   18.7210 O   0  0  0  0  0  0
  -31.4650  -12.5418   19.1669 H   0  0  0  0  0  0
  -30.3446  -11.4863   19.9784 H   0  0  0  0  0  0
  -29.7846  -11.7156   17.5259 H   0  0  0  0  0  0
  -29.6359  -13.4461   17.7099 H   0  0  0  0  0  0
  -27.8908  -11.2826   18.9275 H   0  0  0  0  0  0
  -27.3743  -12.5103   17.8019 H   0  0  0  0  0  0
  -27.6205  -14.2569   19.4408 H   0  0  0  0  0  0
  -28.7257  -12.2452   21.4601 H   0  0  0  0  0  0
  -28.4348  -13.9447   21.7501 H   0  0  0  0  0  0
  -25.2788   -9.5679   22.4777 H   0  0  0  0  0  0
  -24.0018   -7.4637   22.7476 H   0  0  0  0  0  0
  -21.0873   -8.8794   19.8947 H   0  0  0  0  0  0
  -22.3745  -10.9688   19.6168 H   0  0  0  0  0  0
  -21.2017   -7.6163   23.9724 H   0  0  0  0  0  0
  -21.1479   -6.0534   25.9079 H   0  0  0  0  0  0
  -22.0596   -2.7624   23.2840 H   0  0  0  0  0  0
  -22.4094  -11.9845   22.4797 H   0  0  0  0  0  0
  -21.1086  -13.1201   22.2632 H   0  0  0  0  0  0
  -24.6490  -15.8474   20.5122 H   0  0  0  0  0  0
  -26.2649  -15.6328   20.0732 H   0  0  0  0  0  0
  -26.7193  -32.5372   23.1062 H   0  0  0  0  0  0
  -25.0106  -33.9688   25.0423 H   0  0  0  0  0  0
  -22.7217  -31.3028   21.3999 H   0  0  0  0  0  0
  -23.3740  -35.9630   23.3314 H   0  0  0  0  0  0
  -24.3589  -36.8898   22.2061 H   0  0  0  0  0  0
  -23.7245  -37.6492   23.6652 H   0  0  0  0  0  0
  -26.1149  -31.5251   20.6076 H   0  0  0  0  0  0
  -26.8511  -30.8153   22.0107 H   0  0  0  0  0  0
  -28.1007  -28.9122   21.2354 H   0  0  0  0  0  0
  -25.9498  -25.9601   18.9108 H   0  0  0  0  0  0
  -23.9786  -27.3391   18.9590 H   0  0  0  0  0  0
  -23.7633  -30.5959   19.4039 H   0  0  0  0  0  0
  -22.7569  -29.2540   19.8526 H   0  0  0  0  0  0
  -25.1282  -36.1919   25.0830 H   0  0  0  0  0  0
  -20.9993  -28.3243   24.1398 H   0  0  0  0  0  0
  -20.5697  -26.2279   23.3623 H   0  0  0  0  0  0
  -21.6634  -26.7418   22.1196 H   0  0  0  0  0  0
  -19.6900  -25.6302   21.1232 H   0  0  0  0  0  0
  -19.6674  -27.3209   20.6781 H   0  0  0  0  0  0
  -17.4206  -26.6701   21.4022 H   0  0  0  0  0  0
  -18.0284  -26.0069   22.9030 H   0  0  0  0  0  0
  -19.7954  -30.7300   24.2198 H   0  0  0  0  0  0
  -17.5022  -31.6245   24.5190 H   0  0  0  0  0  0
  -15.5356  -30.2967   23.7666 H   0  0  0  0  0  0
  -15.8695  -28.0825   22.7034 H   0  0  0  0  0  0
  -24.5901  -30.7081   25.7829 H   0  0  0  0  0  0
  -24.8919  -32.2928   26.4832 H   0  0  0  0  0  0
  -25.8056  -30.8982   27.0262 H   0  0  0  0  0  0
  -26.2930  -29.6720   24.1220 H   0  0  0  0  0  0
  -27.4050  -29.7244   25.4723 H   0  0  0  0  0  0
  -27.8811  -30.4276   23.9441 H   0  0  0  0  0  0
  -27.2641  -33.3653   26.2015 H   0  0  0  0  0  0
  -28.3880  -32.6855   25.0323 H   0  0  0  0  0  0
  -28.0692  -31.8486   26.5458 H   0  0  0  0  0  0
  -28.2592  -38.0091   24.7518 H   0  0  0  0  0  0
  -28.1075  -36.2624   24.6278 H   0  0  0  0  0  0
  -27.2311  -37.1435   25.8879 H   0  0  0  0  0  0
  -20.9399  -29.8780   21.6903 H   0  0  0  0  0  0
  -26.0155  -38.2853   24.1411 H   0  0  0  0  0  0
  -32.9832  -18.9376   18.5992 H   0  0  0  0  0  0
  -32.1266  -16.7444   18.9978 H   0  0  0  0  0  0
  -28.7648  -18.4616   21.1380 H   0  0  0  0  0  0
  -33.2131  -21.1641   19.3234 H   0  0  0  0  0  0
  -31.9973  -21.9937   20.2552 H   0  0  0  0  0  0
  -31.8145  -21.8390   18.4973 H   0  0  0  0  0  0
  -29.9124  -24.1091   20.9767 H   0  0  0  0  0  0
  -28.3724  -23.5735   21.5700 H   0  0  0  0  0  0
  -27.1805  -24.6180   19.8029 H   0  0  0  0  0  0
  -28.5597  -24.8944   18.7896 H   0  0  0  0  0  0
  -29.2228  -21.2216   21.6567 H   0  0  0  0  0  0
  -29.0012  -15.8383   20.7811 H   0  0  0  0  0  0
  1 25  1  0  0  0
  1 30  2  0  0  0
  1 82  1  0  0  0
  2  3  1  0  0  0
  2 25  1  0  0  0
  2 84  1  0  0  0
  2 85  1  0  0  0
  3  4  1  0  0  0
  3 86  1  0  0  0
  3 87  1  0  0  0
  4  5  1  0  0  0
  4 88  1  0  0  0
  4 89  1  0  0  0
  5  6  1  0  0  0
  5 26  1  0  0  0
  5 90  1  0  0  0
  6 25  1  0  0  0
  6 91  1  0  0  0
  6 92  1  0  0  0
  7  8  2  0  0  0
  7 26  1  0  0  0
  7 29  1  0  0  0
  8  9  1  0  0  0
  8 22  1  0  0  0
  9 10  1  0  0  0
  9 27  2  0  0  0
 10 11  2  0  0  0
 10 15  1  0  0  0
 11 12  1  0  0  0
 11 93  1  0  0  0
 12 13  2  0  0  0
 12 94  1  0  0  0
 13 14  1  0  0  0
 13 31  1  0  0  0
 14 15  2  0  0  0
 14 95  1  0  0  0
 15 96  1  0  0  0
 16 17  2  0  0  0
 16 21  1  0  0  0
 16 31  1  0  0  0
 17 18  1  0  0  0
 17 97  1  0  0  0
 18 19  2  0  0  0
 18 98  1  0  0  0
 19 20  1  0  0  0
 19 24  1  0  0  0
 20 21  2  0  0  0
 20 99  1  0  0  0
 21 23  1  0  0  0
 22 28  1  0  0  0
 22 32  2  0  0  0
 26 27  1  0  0  0
 28100  1  0  0  0
 28101  1  0  0  0
 29102  1  0  0  0
 29103  1  0  0  0
 33 34  1  0  0  0
 33 66  1  0  0  0
 33 70  2  0  0  0
 34 36  1  0  0  0
 34 59  1  0  0  0
 34104  1  0  0  0
 35 44  2  0  0  0
 35 45  1  0  0  0
 35 68  1  0  0  0
 36 56  1  0  0  0
 36105  1  0  0  0
 37 39  1  0  0  0
 37 47  1  0  0  0
 37 66  1  0  0  0
 37106  1  0  0  0
 38 43  2  0  0  0
 38 46  1  0  0  0
 38 47  1  0  0  0
 39 64  1  0  0  0
 39 67  2  0  0  0
 40 52  1  0  0  0
 40 53  2  0  0  0
 40 58  1  0  0  0
 41107  1  0  0  0
 41108  1  0  0  0
 41109  1  0  0  0
 41 48  1  0  0  0
 42 43  1  0  0  0
 42 66  1  0  0  0
 42110  1  0  0  0
 42111  1  0  0  0
 43 44  1  0  0  0
 44112  1  0  0  0
 45 46  2  0  0  0
 45113  1  0  0  0
 46114  1  0  0  0
 47115  1  0  0  0
 47116  1  0  0  0
 48 56  1  0  0  0
 48 65  1  0  0  0
 48117  1  0  0  0
 49 50  1  0  0  0
 49 53  1  0  0  0
 49 64  1  0  0  0
 49118  1  0  0  0
 50 51  1  0  0  0
 50119  1  0  0  0
 50120  1  0  0  0
 51 52  1  0  0  0
 51121  1  0  0  0
 51122  1  0  0  0
 52123  1  0  0  0
 52124  1  0  0  0
 53 54  1  0  0  0
 54 55  2  0  0  0
 54125  1  0  0  0
 55 57  1  0  0  0
 55126  1  0  0  0
 56 69  2  0  0  0
 57 58  2  0  0  0
 57127  1  0  0  0
 58128  1  0  0  0
 59 60  1  0  0  0
 59 61  1  0  0  0
 59 62  1  0  0  0
 60129  1  0  0  0
 60130  1  0  0  0
 60131  1  0  0  0
 61132  1  0  0  0
 61133  1  0  0  0
 61134  1  0  0  0
 62135  1  0  0  0
 62136  1  0  0  0
 62137  1  0  0  0
 63 65  1  0  0  0
 63138  1  0  0  0
 63139  1  0  0  0
 63140  1  0  0  0
 64141  1  0  0  0
 65142  1  0  0  0
 68 80  1  0  0  0
 71 72  2  0  0  0
 71 74  1  0  0  0
 71143  1  0  0  0
 72 75  1  0  0  0
 72144  1  0  0  0
 73 75  2  0  0  0
 73 76  1  0  0  0
 73145  1  0  0  0
 74 76  2  0  0  0
 74 78  1  0  0  0
 75 82  1  0  0  0
 76 81  1  0  0  0
 77 79  1  0  0  0
 77 81  1  0  0  0
 77 83  2  0  0  0
 78146  1  0  0  0
 78147  1  0  0  0
 78148  1  0  0  0
 79 80  1  0  0  0
 79149  1  0  0  0
 79150  1  0  0  0
 80151  1  0  0  0
 80152  1  0  0  0
 81153  1  0  0  0
 82154  1  0  0  0
M  ISO  4   1 100  68 101  80 101  82 100
M  END
> <chiral flag>
0

> <version>
0

> <s_m_source_file>
/data/baiqing/PycharmProjects/Reinvent-master-3.2/result/LINK_invent/BTK/process_docking_weight1_custom_product_contain_oxygen_bond_distance_aromatic_linkinvent_7_9_3/rearranged_h_0067.sdf

> <i_m_source_file_index>
29

> <r_mmod_Potential_Energy-OPLS-2005>
157.177947998047

> <r_mmod_Stretch_Energy-OPLS-2005>
127.791641235352

> <r_mmod_Bend_Energy-OPLS-2005>
164.056900024414

> <r_mmod_Torsional_Energy-OPLS-2005>
252.723739624023

> <r_mmod_Improper_Torsional_Energy-OPLS-2005>
5.17714500427246

> <r_mmod_Van_der_Waal_Energy-OPLS-2005>
155.772583007812

> <r_mmod_Electrostatic_Energy-OPLS-2005>
-403.130828857422

> <r_mmod_Solvation_Energy-OPLS-2005>
-234.143692016602

> <b_mmod_Minimization_Converged-OPLS-2005>
0

> <r_mmod_RMS_Derivative-OPLS-2005>
2.58430528640747

$$$$
29
                    3D
 Structure written by MMmdl.
151159  0  0  1  0            999 V2000
  -30.5124  -15.0506   20.4092 C   0  0  0  0  0  0
  -30.4401  -12.6608   19.5000 C   0  0  0  0  0  0
  -29.5247  -12.5403   18.2597 C   0  0  0  0  0  0
  -28.0639  -12.3039   18.6867 C   0  0  0  0  0  0
  -27.6220  -13.2552   19.8292 C   0  0  2  0  0  0
  -28.6643  -13.3374   20.9632 C   0  0  0  0  0  0
  -25.2439  -13.8221   20.5719 C   0  0  0  0  0  0
  -24.1769  -13.0432   20.9243 C   0  0  0  0  0  0
  -24.6396  -11.6922   20.8759 C   0  0  0  0  0  0
  -23.9083  -10.4289   21.0411 C   0  0  0  0  0  0
  -24.3629   -9.4205   21.9190 C   0  0  0  0  0  0
  -23.6297   -8.2244   22.0760 C   0  0  0  0  0  0
  -22.4280   -8.0284   21.3547 C   0  0  0  0  0  0
  -21.9919   -9.0260   20.4651 C   0  0  0  0  0  0
  -22.7252  -10.2137   20.3062 C   0  0  0  0  0  0
  -21.6852   -6.0737   22.5276 C   0  0  0  0  0  0
  -21.4013   -6.5640   23.8209 C   0  0  0  0  0  0
  -21.3653   -5.6793   24.9171 C   0  0  0  0  0  0
  -21.6046   -4.3056   24.7222 C   0  0  0  0  0  0
  -21.8816   -3.8148   23.4342 C   0  0  0  0  0  0
  -21.9195   -4.6965   22.3399 C   0  0  0  0  0  0
  -22.7790  -13.5208   21.1885 C   0  0  0  0  0  0
  -22.1663   -4.2153   21.0976 F   0  0  0  0  0  0
  -21.5627   -3.4534   25.7733 F   0  0  0  0  0  0
  -29.9212  -13.7803   20.3458 N   0  0  0  0  0  0
  -26.2855  -12.9459   20.3221 N   0  0  0  0  0  0
  -25.9328  -11.6582   20.5729 N   0  0  0  0  0  0
  -22.0435  -12.8201   22.0441 N   0  0  0  0  0  0
  -25.4069  -15.1949   20.4135 N   0  0  0  0  0  0
  -31.7316  -15.0763   20.2011 O   0  0  0  0  0  0
  -21.6640   -6.8883   21.4241 O   0  0  0  0  0  0
  -22.3478  -14.5511   20.6723 O   0  0  0  0  0  0
  -24.6504  -31.8367   23.1839 C   0  0  0  0  0  0
  -25.9244  -32.4653   23.8253 C   0  0  1  0  0  0
  -27.2123  -27.0624   20.1615 C   0  0  0  0  0  0
  -25.5970  -33.8462   24.2164 N   0  0  0  0  0  0
  -23.4584  -30.4558   21.5286 C   0  0  2  0  0  0
  -24.9092  -28.8708   20.1101 C   0  0  0  0  0  0
  -22.7592  -29.4518   22.4802 C   0  0  0  0  0  0
  -18.0316  -28.1388   22.8456 C   0  0  0  0  0  0
  -24.1500  -36.7245   23.2646 C   0  0  0  0  0  0
  -26.0196  -30.6871   21.3947 C   0  0  0  0  0  0
  -26.0898  -29.2917   20.7355 C   0  0  0  0  0  0
  -27.2421  -28.4056   20.7417 C   0  0  0  0  0  0
  -26.0053  -26.7660   19.4897 C   0  0  0  0  0  0
  -24.8837  -27.6240   19.4702 C   0  0  0  0  0  0
  -23.6913  -29.7837   20.1495 C   0  0  0  0  0  0
  -25.4129  -36.3007   24.0314 C   0  0  1  0  0  0
  -20.5928  -28.3740   23.1184 C   0  0  2  0  0  0
  -20.6794  -26.9428   22.5384 C   0  0  0  0  0  0
  -19.5775  -26.6371   21.5187 C   0  0  0  0  0  0
  -18.1957  -26.7924   22.1600 C   0  0  0  0  0  0
  -19.1572  -28.8877   23.2813 C   0  0  0  0  0  0
  -18.9492  -30.1463   23.8858 C   0  0  0  0  0  0
  -17.6490  -30.6586   24.0551 C   0  0  0  0  0  0
  -25.9079  -34.9381   23.5048 C   0  0  0  0  0  0
  -16.5379  -29.9079   23.6333 C   0  0  0  0  0  0
  -16.7300  -28.6492   23.0355 C   0  0  0  0  0  0
  -26.4547  -31.6544   25.0724 C   0  0  0  0  0  0
  -25.3721  -31.3732   26.1410 C   0  0  0  0  0  0
  -27.0433  -30.2933   24.6358 C   0  0  0  0  0  0
  -27.6062  -32.4330   25.7504 C   0  0  0  0  0  0
  -27.5574  -37.1777   24.8463 C   0  0  0  0  0  0
  -21.4275  -29.3061   22.3548 N   0  0  0  0  0  0
  -26.4289  -37.3724   23.9403 N   0  0  0  0  0  0
  -24.7298  -31.0157   22.0908 N   0  0  0  0  0  0
  -23.4193  -28.8053   23.2980 O   0  0  0  0  0  0
  -28.2360  -26.0228   20.2250 O   0  0  0  0  0  0
  -26.5672  -34.8893   22.4630 O   0  0  0  0  0  0
  -23.5604  -32.1272   23.7013 O   0  0  0  0  0  0
  -31.6271  -19.4119   21.5895 C   0  0  0  0  0  0
  -31.2755  -18.0988   21.2196 C   0  0  0  0  0  0
  -29.2197  -19.0365   20.3499 C   0  0  0  0  0  0
  -30.8088  -20.5510   21.3820 C   0  0  0  0  0  0
  -30.0392  -17.7917   20.6251 C   0  0  0  0  0  0
  -29.5755  -20.4780   20.6598 C   0  0  0  0  0  0
  -29.0028  -23.2120   20.2552 C   0  0  0  0  0  0
  -31.3066  -21.8164   22.0646 C   0  0  0  0  0  0
  -27.8817  -24.4694   20.1957 C   0  0  0  0  0  0
  -28.7373  -21.7896   20.4063 N   0  0  0  0  0  0
  -29.7299  -16.2691   20.4398 N   0  0  0  0  0  0
  -30.1644  -23.5787   20.0717 O   0  0  0  0  0  0
  -31.4691  -12.8349   19.1823 H   0  0  0  0  0  0
  -30.4573  -11.7258   20.0622 H   0  0  0  0  0  0
  -29.8638  -11.7292   17.6138 H   0  0  0  0  0  0
  -29.5898  -13.4531   17.6655 H   0  0  0  0  0  0
  -27.9877  -11.2696   19.0244 H   0  0  0  0  0  0
  -27.3949  -12.3948   17.8302 H   0  0  0  0  0  0
  -27.5671  -14.2439   19.3735 H   0  0  0  0  0  0
  -28.7815  -12.3773   21.4679 H   0  0  0  0  0  0
  -28.3470  -14.0523   21.7240 H   0  0  0  0  0  0
  -25.2767   -9.5681   22.4771 H   0  0  0  0  0  0
  -23.9995   -7.4640   22.7485 H   0  0  0  0  0  0
  -21.0845   -8.8787   19.8962 H   0  0  0  0  0  0
  -22.3707  -10.9682   19.6176 H   0  0  0  0  0  0
  -21.2004   -7.6146   23.9715 H   0  0  0  0  0  0
  -21.1475   -6.0520   25.9075 H   0  0  0  0  0  0
  -22.0600   -2.7609   23.2839 H   0  0  0  0  0  0
  -22.4052  -11.9867   22.4836 H   0  0  0  0  0  0
  -21.1052  -13.1230   22.2637 H   0  0  0  0  0  0
  -24.6327  -15.8405   20.5270 H   0  0  0  0  0  0
  -26.2396  -15.6388   20.0497 H   0  0  0  0  0  0
  -26.7306  -32.5234   23.0965 H   0  0  0  0  0  0
  -25.0092  -33.9564   25.0296 H   0  0  0  0  0  0
  -22.7674  -31.2857   21.3682 H   0  0  0  0  0  0
  -23.3767  -35.9571   23.3280 H   0  0  0  0  0  0
  -24.3589  -36.8912   22.2067 H   0  0  0  0  0  0
  -23.7254  -37.6428   23.6711 H   0  0  0  0  0  0
  -26.1848  -31.4389   20.6224 H   0  0  0  0  0  0
  -26.8865  -30.7387   22.0418 H   0  0  0  0  0  0
  -28.1390  -28.7218   21.2562 H   0  0  0  0  0  0
  -25.8872  -25.8210   18.9837 H   0  0  0  0  0  0
  -23.9855  -27.2978   18.9640 H   0  0  0  0  0  0
  -23.8394  -30.5586   19.3965 H   0  0  0  0  0  0
  -22.8046  -29.2326   19.8317 H   0  0  0  0  0  0
  -25.1316  -36.1830   25.0808 H   0  0  0  0  0  0
  -21.0022  -28.3358   24.1304 H   0  0  0  0  0  0
  -20.5666  -26.2359   23.3618 H   0  0  0  0  0  0
  -21.6663  -26.7413   22.1197 H   0  0  0  0  0  0
  -19.6949  -25.6269   21.1249 H   0  0  0  0  0  0
  -19.6725  -27.3150   20.6691 H   0  0  0  0  0  0
  -17.4219  -26.6645   21.4016 H   0  0  0  0  0  0
  -18.0379  -26.0076   22.9010 H   0  0  0  0  0  0
  -19.7979  -30.7263   24.2225 H   0  0  0  0  0  0
  -17.5063  -31.6267   24.5154 H   0  0  0  0  0  0
  -15.5382  -30.2977   23.7685 H   0  0  0  0  0  0
  -15.8694  -28.0803   22.7104 H   0  0  0  0  0  0
  -24.5927  -30.7049   25.7720 H   0  0  0  0  0  0
  -24.8878  -32.2904   26.4773 H   0  0  0  0  0  0
  -25.8004  -30.8949   27.0229 H   0  0  0  0  0  0
  -26.3067  -29.6621   24.1371 H   0  0  0  0  0  0
  -27.4021  -29.7272   25.4962 H   0  0  0  0  0  0
  -27.8986  -30.4144   23.9709 H   0  0  0  0  0  0
  -27.2661  -33.3678   26.1971 H   0  0  0  0  0  0
  -28.3926  -32.6811   25.0363 H   0  0  0  0  0  0
  -28.0672  -31.8529   26.5509 H   0  0  0  0  0  0
  -28.2564  -38.0099   24.7512 H   0  0  0  0  0  0
  -28.1103  -36.2620   24.6289 H   0  0  0  0  0  0
  -27.2289  -37.1411   25.8868 H   0  0  0  0  0  0
  -20.9495  -29.8794   21.6734 H   0  0  0  0  0  0
  -26.0152  -38.2791   24.1417 H   0  0  0  0  0  0
  -32.5675  -19.5366   22.1078 H   0  0  0  0  0  0
  -31.9683  -17.3084   21.4677 H   0  0  0  0  0  0
  -28.2578  -18.8782   19.8837 H   0  0  0  0  0  0
  -31.9223  -21.5754   22.9319 H   0  0  0  0  0  0
  -30.4871  -22.4240   22.4467 H   0  0  0  0  0  0
  -31.9250  -22.4073   21.3899 H   0  0  0  0  0  0
  -27.1785  -24.2905   21.0098 H   0  0  0  0  0  0
  -27.3251  -24.2762   19.2798 H   0  0  0  0  0  0
  -27.7447  -21.6071   20.3357 H   0  0  0  0  0  0
  -28.7433  -16.0709   20.3703 H   0  0  0  0  0  0
  1 25  1  0  0  0
  1 30  2  0  0  0
  1 81  1  0  0  0
  2  3  1  0  0  0
  2 25  1  0  0  0
  2 83  1  0  0  0
  2 84  1  0  0  0
  3  4  1  0  0  0
  3 85  1  0  0  0
  3 86  1  0  0  0
  4  5  1  0  0  0
  4 87  1  0  0  0
  4 88  1  0  0  0
  5  6  1  0  0  0
  5 26  1  0  0  0
  5 89  1  0  0  0
  6 25  1  0  0  0
  6 90  1  0  0  0
  6 91  1  0  0  0
  7  8  2  0  0  0
  7 26  1  0  0  0
  7 29  1  0  0  0
  8  9  1  0  0  0
  8 22  1  0  0  0
  9 10  1  0  0  0
  9 27  2  0  0  0
 10 11  2  0  0  0
 10 15  1  0  0  0
 11 12  1  0  0  0
 11 92  1  0  0  0
 12 13  2  0  0  0
 12 93  1  0  0  0
 13 14  1  0  0  0
 13 31  1  0  0  0
 14 15  2  0  0  0
 14 94  1  0  0  0
 15 95  1  0  0  0
 16 17  2  0  0  0
 16 21  1  0  0  0
 16 31  1  0  0  0
 17 18  1  0  0  0
 17 96  1  0  0  0
 18 19  2  0  0  0
 18 97  1  0  0  0
 19 20  1  0  0  0
 19 24  1  0  0  0
 20 21  2  0  0  0
 20 98  1  0  0  0
 21 23  1  0  0  0
 22 28  1  0  0  0
 22 32  2  0  0  0
 26 27  1  0  0  0
 28 99  1  0  0  0
 28100  1  0  0  0
 29101  1  0  0  0
 29102  1  0  0  0
 33 34  1  0  0  0
 33 66  1  0  0  0
 33 70  2  0  0  0
 34 36  1  0  0  0
 34 59  1  0  0  0
 34103  1  0  0  0
 35 44  2  0  0  0
 35 45  1  0  0  0
 35 68  1  0  0  0
 36 56  1  0  0  0
 36104  1  0  0  0
 37 39  1  0  0  0
 37 47  1  0  0  0
 37 66  1  0  0  0
 37105  1  0  0  0
 38 43  2  0  0  0
 38 46  1  0  0  0
 38 47  1  0  0  0
 39 64  1  0  0  0
 39 67  2  0  0  0
 40 52  1  0  0  0
 40 53  2  0  0  0
 40 58  1  0  0  0
 41106  1  0  0  0
 41107  1  0  0  0
 41108  1  0  0  0
 41 48  1  0  0  0
 42 43  1  0  0  0
 42 66  1  0  0  0
 42109  1  0  0  0
 42110  1  0  0  0
 43 44  1  0  0  0
 44111  1  0  0  0
 45 46  2  0  0  0
 45112  1  0  0  0
 46113  1  0  0  0
 47114  1  0  0  0
 47115  1  0  0  0
 48 56  1  0  0  0
 48 65  1  0  0  0
 48116  1  0  0  0
 49 50  1  0  0  0
 49 53  1  0  0  0
 49 64  1  0  0  0
 49117  1  0  0  0
 50 51  1  0  0  0
 50118  1  0  0  0
 50119  1  0  0  0
 51 52  1  0  0  0
 51120  1  0  0  0
 51121  1  0  0  0
 52122  1  0  0  0
 52123  1  0  0  0
 53 54  1  0  0  0
 54 55  2  0  0  0
 54124  1  0  0  0
 55 57  1  0  0  0
 55125  1  0  0  0
 56 69  2  0  0  0
 57 58  2  0  0  0
 57126  1  0  0  0
 58127  1  0  0  0
 59 60  1  0  0  0
 59 61  1  0  0  0
 59 62  1  0  0  0
 60128  1  0  0  0
 60129  1  0  0  0
 60130  1  0  0  0
 61131  1  0  0  0
 61132  1  0  0  0
 61133  1  0  0  0
 62134  1  0  0  0
 62135  1  0  0  0
 62136  1  0  0  0
 63 65  1  0  0  0
 63137  1  0  0  0
 63138  1  0  0  0
 63139  1  0  0  0
 64140  1  0  0  0
 65141  1  0  0  0
 68 79  1  0  0  0
 71 72  2  0  0  0
 71 74  1  0  0  0
 71142  1  0  0  0
 72 75  1  0  0  0
 72143  1  0  0  0
 73 75  2  0  0  0
 73 76  1  0  0  0
 73144  1  0  0  0
 74 76  2  0  0  0
 74 78  1  0  0  0
 75 81  1  0  0  0
 76 80  1  0  0  0
 77 79  1  0  0  0
 77 80  1  0  0  0
 77 82  2  0  0  0
 78145  1  0  0  0
 78146  1  0  0  0
 78147  1  0  0  0
 79148  1  0  0  0
 79149  1  0  0  0
 80150  1  0  0  0
 81151  1  0  0  0
M  ISO  4   1 100  68 101  79 101  81 100
M  END
> <chiral flag>
0

> <version>
0

> <s_m_source_file>
/data/baiqing/PycharmProjects/Reinvent-master-3.2/result/LINK_invent/BTK/process_docking_weight1_custom_product_contain_oxygen_bond_distance_aromatic_linkinvent_7_9_3/rearranged_h_0067.sdf

> <i_m_source_file_index>
30

> <r_mmod_Potential_Energy-OPLS-2005>
672.253173828125

> <r_mmod_Stretch_Energy-OPLS-2005>
351.696807861328

> <r_mmod_Bend_Energy-OPLS-2005>
278.612426757812

> <r_mmod_Torsional_Energy-OPLS-2005>
238.690216064453

> <r_mmod_Improper_Torsional_Energy-OPLS-2005>
7.22449827194214

> <r_mmod_Van_der_Waal_Energy-OPLS-2005>
139.931900024414

> <r_mmod_Electrostatic_Energy-OPLS-2005>
-367.038391113281

> <r_mmod_Solvation_Energy-OPLS-2005>
-247.221771240234

> <b_mmod_Minimization_Converged-OPLS-2005>
0

> <r_mmod_RMS_Derivative-OPLS-2005>
1.25241470336914

$$$$
30
                    3D
 Structure written by MMmdl.
159167  0  0  1  0            999 V2000
  -30.6623  -14.7398   20.4191 C   0  0  0  0  0  0
  -30.4115  -12.4444   19.4832 C   0  0  0  0  0  0
  -29.5042  -12.4836   18.2373 C   0  0  0  0  0  0
  -28.0294  -12.3196   18.6517 C   0  0  0  0  0  0
  -27.6319  -13.2437   19.8354 C   0  0  2  0  0  0
  -28.6766  -13.2256   20.9702 C   0  0  0  0  0  0
  -25.2447  -13.8252   20.5711 C   0  0  0  0  0  0
  -24.1756  -13.0472   20.9226 C   0  0  0  0  0  0
  -24.6353  -11.6948   20.8763 C   0  0  0  0  0  0
  -23.9047  -10.4316   21.0422 C   0  0  0  0  0  0
  -24.3610   -9.4224   21.9181 C   0  0  0  0  0  0
  -23.6292   -8.2250   22.0748 C   0  0  0  0  0  0
  -22.4271   -8.0283   21.3547 C   0  0  0  0  0  0
  -21.9902   -9.0262   20.4664 C   0  0  0  0  0  0
  -22.7221  -10.2148   20.3072 C   0  0  0  0  0  0
  -21.6848   -6.0740   22.5286 C   0  0  0  0  0  0
  -21.4016   -6.5648   23.8222 C   0  0  0  0  0  0
  -21.3652   -5.6789   24.9180 C   0  0  0  0  0  0
  -21.6039   -4.3049   24.7228 C   0  0  0  0  0  0
  -21.8809   -3.8149   23.4344 C   0  0  0  0  0  0
  -21.9181   -4.6966   22.3409 C   0  0  0  0  0  0
  -22.7774  -13.5251   21.1846 C   0  0  0  0  0  0
  -22.1648   -4.2151   21.0983 F   0  0  0  0  0  0
  -21.5623   -3.4535   25.7739 F   0  0  0  0  0  0
  -29.9730  -13.5488   20.3695 N   0  0  0  0  0  0
  -26.2870  -12.9480   20.3237 N   0  0  0  0  0  0
  -25.9284  -11.6619   20.5753 N   0  0  0  0  0  0
  -22.0378  -12.8291   22.0423 N   0  0  0  0  0  0
  -25.4173  -15.1962   20.4132 N   0  0  0  0  0  0
  -31.8773  -14.6936   20.2395 O   0  0  0  0  0  0
  -21.6630   -6.8876   21.4251 O   0  0  0  0  0  0
  -22.3489  -14.5551   20.6654 O   0  0  0  0  0  0
  -24.6307  -31.8555   23.1985 C   0  0  0  0  0  0
  -25.9107  -32.4757   23.8341 C   0  0  1  0  0  0
  -27.2133  -27.2601   20.1297 C   0  0  0  0  0  0
  -25.5874  -33.8557   24.2239 N   0  0  0  0  0  0
  -23.4267  -30.4823   21.5440 C   0  0  2  0  0  0
  -24.8710  -28.9306   20.1135 C   0  0  0  0  0  0
  -22.7506  -29.4611   22.4909 C   0  0  0  0  0  0
  -18.0295  -28.1420   22.8496 C   0  0  0  0  0  0
  -24.1481  -36.7319   23.2640 C   0  0  0  0  0  0
  -25.9726  -30.7718   21.3743 C   0  0  0  0  0  0
  -26.0456  -29.3919   20.7216 C   0  0  0  0  0  0
  -27.2204  -28.5717   20.7168 C   0  0  0  0  0  0
  -26.0161  -26.8745   19.4847 C   0  0  0  0  0  0
  -24.8624  -27.6797   19.4825 C   0  0  0  0  0  0
  -23.6449  -29.8210   20.1593 C   0  0  0  0  0  0
  -25.4098  -36.3071   24.0327 C   0  0  1  0  0  0
  -20.5902  -28.3711   23.1280 C   0  0  2  0  0  0
  -20.6779  -26.9424   22.5423 C   0  0  0  0  0  0
  -19.5744  -26.6399   21.5231 C   0  0  0  0  0  0
  -18.1931  -26.7954   22.1652 C   0  0  0  0  0  0
  -19.1554  -28.8879   23.2889 C   0  0  0  0  0  0
  -18.9471  -30.1488   23.8891 C   0  0  0  0  0  0
  -17.6468  -30.6611   24.0581 C   0  0  0  0  0  0
  -25.9039  -34.9441   23.5094 C   0  0  0  0  0  0
  -16.5356  -29.9123   23.6328 C   0  0  0  0  0  0
  -16.7288  -28.6557   23.0320 C   0  0  0  0  0  0
  -26.4436  -31.6581   25.0746 C   0  0  0  0  0  0
  -25.3642  -31.3802   26.1474 C   0  0  0  0  0  0
  -27.0226  -30.2965   24.6240 C   0  0  0  0  0  0
  -27.5990  -32.4304   25.7524 C   0  0  0  0  0  0
  -27.5577  -37.1818   24.8457 C   0  0  0  0  0  0
  -21.4207  -29.3047   22.3662 N   0  0  0  0  0  0
  -26.4268  -37.3776   23.9413 N   0  0  0  0  0  0
  -24.6971  -31.0532   22.0958 N   0  0  0  0  0  0
  -23.4207  -28.8123   23.2992 O   0  0  0  0  0  0
  -28.3068  -26.3615   20.1617 O   0  0  0  0  0  0
  -26.5668  -34.8914   22.4697 O   0  0  0  0  0  0
  -23.5450  -32.1354   23.7277 O   0  0  0  0  0  0
  -29.7462  -18.6334   20.2775 C   0  0  0  0  0  0
  -31.7261  -17.4710   19.4559 C   0  0  0  0  0  0
  -30.4612  -17.3543   20.0899 C   0  0  0  0  0  0
  -30.2987  -19.9244   19.8403 C   0  0  0  0  0  0
  -31.5744  -19.8953   19.2184 C   0  0  0  0  0  0
  -32.2750  -18.6907   19.0546 C   0  0  0  0  0  0
  -28.9415  -22.2054   20.4206 C   0  0  0  0  0  0
  -31.9933  -23.0105   16.7238 C   0  0  0  0  0  0
  -29.1998  -23.7778   20.1813 C   0  0  0  0  0  0
  -28.0407  -24.8868   20.3581 C   0  0  0  0  0  0
  -29.8353  -21.3381   19.8459 N   0  0  0  0  0  0
  -29.9817  -15.9682   20.4475 N   0  0  0  0  0  0
  -32.1759  -21.0766   18.7469 N   0  0  0  0  0  0
  -27.9863  -21.8183   21.0934 O   0  0  0  0  0  0
  -34.1251  -21.4142   17.1238 O   0  0  0  0  0  0
  -31.9447  -20.3527   16.3066 O   0  0  0  0  0  0
  -33.5130  -18.6972   18.5004 F   0  0  0  0  0  0
  -32.6561  -21.3560   17.1141 S   0  0  0  0  0  0
  -31.4579  -12.5241   19.1852 H   0  0  0  0  0  0
  -30.3261  -11.4854   19.9984 H   0  0  0  0  0  0
  -29.7895  -11.6969   17.5360 H   0  0  0  0  0  0
  -29.6395  -13.4320   17.7109 H   0  0  0  0  0  0
  -27.8825  -11.2766   18.9329 H   0  0  0  0  0  0
  -27.3733  -12.4898   17.7991 H   0  0  0  0  0  0
  -27.6171  -14.2568   19.4293 H   0  0  0  0  0  0
  -28.7074  -12.2516   21.4617 H   0  0  0  0  0  0
  -28.4194  -13.9524   21.7413 H   0  0  0  0  0  0
  -25.2746   -9.5714   22.4763 H   0  0  0  0  0  0
  -23.9995   -7.4657   22.7469 H   0  0  0  0  0  0
  -21.0817   -8.8800   19.8997 H   0  0  0  0  0  0
  -22.3662  -10.9693   19.6202 H   0  0  0  0  0  0
  -21.2032   -7.6160   23.9738 H   0  0  0  0  0  0
  -21.1479   -6.0514   25.9079 H   0  0  0  0  0  0
  -22.0594   -2.7609   23.2840 H   0  0  0  0  0  0
  -22.3927  -11.9987   22.4945 H   0  0  0  0  0  0
  -21.0995  -13.1385   22.2570 H   0  0  0  0  0  0
  -24.6590  -15.8560   20.5490 H   0  0  0  0  0  0
  -26.2680  -15.6321   20.0843 H   0  0  0  0  0  0
  -26.7198  -32.5401   23.1116 H   0  0  0  0  0  0
  -24.9859  -33.9688   25.0265 H   0  0  0  0  0  0
  -22.7231  -31.3065   21.4047 H   0  0  0  0  0  0
  -23.3718  -35.9677   23.3275 H   0  0  0  0  0  0
  -24.3586  -36.8984   22.2068 H   0  0  0  0  0  0
  -23.7266  -37.6525   23.6677 H   0  0  0  0  0  0
  -26.1006  -31.5267   20.5967 H   0  0  0  0  0  0
  -26.8548  -30.8291   22.0008 H   0  0  0  0  0  0
  -28.1181  -28.9252   21.2037 H   0  0  0  0  0  0
  -25.9393  -25.9337   18.9642 H   0  0  0  0  0  0
  -23.9663  -27.3261   18.9896 H   0  0  0  0  0  0
  -23.7779  -30.6018   19.4108 H   0  0  0  0  0  0
  -22.7607  -29.2636   19.8443 H   0  0  0  0  0  0
  -25.1269  -36.1923   25.0819 H   0  0  0  0  0  0
  -21.0017  -28.3306   24.1393 H   0  0  0  0  0  0
  -20.5689  -26.2322   23.3644 H   0  0  0  0  0  0
  -21.6646  -26.7454   22.1202 H   0  0  0  0  0  0
  -19.6881  -25.6302   21.1273 H   0  0  0  0  0  0
  -19.6669  -27.3219   20.6770 H   0  0  0  0  0  0
  -17.4186  -26.6711   21.4065 H   0  0  0  0  0  0
  -18.0327  -26.0117   22.9075 H   0  0  0  0  0  0
  -19.7938  -30.7332   24.2236 H   0  0  0  0  0  0
  -17.5010  -31.6278   24.5217 H   0  0  0  0  0  0
  -15.5356  -30.3027   23.7626 H   0  0  0  0  0  0
  -15.8701  -28.0903   22.6963 H   0  0  0  0  0  0
  -24.5768  -30.7202   25.7817 H   0  0  0  0  0  0
  -24.8893  -32.3015   26.4854 H   0  0  0  0  0  0
  -25.7928  -30.8997   27.0281 H   0  0  0  0  0  0
  -26.2803  -29.6802   24.1158 H   0  0  0  0  0  0
  -27.3743  -29.7156   25.4780 H   0  0  0  0  0  0
  -27.8753  -30.4194   23.9563 H   0  0  0  0  0  0
  -27.2567  -33.3585   26.2114 H   0  0  0  0  0  0
  -28.3779  -32.6908   25.0345 H   0  0  0  0  0  0
  -28.0654  -31.8423   26.5444 H   0  0  0  0  0  0
  -28.2572  -38.0131   24.7463 H   0  0  0  0  0  0
  -28.1079  -36.2659   24.6265 H   0  0  0  0  0  0
  -27.2312  -37.1464   25.8864 H   0  0  0  0  0  0
  -20.9378  -29.8854   21.6950 H   0  0  0  0  0  0
  -26.0146  -38.2840   24.1418 H   0  0  0  0  0  0
  -28.7693  -18.6261   20.7398 H   0  0  0  0  0  0
  -32.3532  -16.6305   19.2239 H   0  0  0  0  0  0
  -32.4494  -23.7616   17.3656 H   0  0  0  0  0  0
  -30.9123  -23.0265   16.8409 H   0  0  0  0  0  0
  -32.2361  -23.2489   15.6885 H   0  0  0  0  0  0
  -29.6016  -23.8804   19.1732 H   0  0  0  0  0  0
  -30.0245  -24.0520   20.8396 H   0  0  0  0  0  0
  -27.6399  -24.7807   21.3681 H   0  0  0  0  0  0
  -27.2458  -24.5486   19.6998 H   0  0  0  0  0  0
  -30.5176  -21.8691   19.3197 H   0  0  0  0  0  0
  -28.9960  -15.8860   20.6454 H   0  0  0  0  0  0
  -32.9340  -21.3486   19.3610 H   0  0  0  0  0  0
  1 25  1  0  0  0
  1 30  2  0  0  0
  1 82  1  0  0  0
  2  3  1  0  0  0
  2 25  1  0  0  0
  2 89  1  0  0  0
  2 90  1  0  0  0
  3  4  1  0  0  0
  3 91  1  0  0  0
  3 92  1  0  0  0
  4  5  1  0  0  0
  4 93  1  0  0  0
  4 94  1  0  0  0
  5  6  1  0  0  0
  5 26  1  0  0  0
  5 95  1  0  0  0
  6 25  1  0  0  0
  6 96  1  0  0  0
  6 97  1  0  0  0
  7  8  2  0  0  0
  7 26  1  0  0  0
  7 29  1  0  0  0
  8  9  1  0  0  0
  8 22  1  0  0  0
  9 10  1  0  0  0
  9 27  2  0  0  0
 10 11  2  0  0  0
 10 15  1  0  0  0
 11 12  1  0  0  0
 11 98  1  0  0  0
 12 13  2  0  0  0
 12 99  1  0  0  0
 13 14  1  0  0  0
 13 31  1  0  0  0
 14 15  2  0  0  0
 14100  1  0  0  0
 15101  1  0  0  0
 16 17  2  0  0  0
 16 21  1  0  0  0
 16 31  1  0  0  0
 17 18  1  0  0  0
 17102  1  0  0  0
 18 19  2  0  0  0
 18103  1  0  0  0
 19 20  1  0  0  0
 19 24  1  0  0  0
 20 21  2  0  0  0
 20104  1  0  0  0
 21 23  1  0  0  0
 22 28  1  0  0  0
 22 32  2  0  0  0
 26 27  1  0  0  0
 28105  1  0  0  0
 28106  1  0  0  0
 29107  1  0  0  0
 29108  1  0  0  0
 33 34  1  0  0  0
 33 66  1  0  0  0
 33 70  2  0  0  0
 34 36  1  0  0  0
 34 59  1  0  0  0
 34109  1  0  0  0
 35 44  2  0  0  0
 35 45  1  0  0  0
 35 68  1  0  0  0
 36 56  1  0  0  0
 36110  1  0  0  0
 37 39  1  0  0  0
 37 47  1  0  0  0
 37 66  1  0  0  0
 37111  1  0  0  0
 38 43  2  0  0  0
 38 46  1  0  0  0
 38 47  1  0  0  0
 39 64  1  0  0  0
 39 67  2  0  0  0
 40 52  1  0  0  0
 40 53  2  0  0  0
 40 58  1  0  0  0
 41112  1  0  0  0
 41113  1  0  0  0
 41114  1  0  0  0
 41 48  1  0  0  0
 42 43  1  0  0  0
 42 66  1  0  0  0
 42115  1  0  0  0
 42116  1  0  0  0
 43 44  1  0  0  0
 44117  1  0  0  0
 45 46  2  0  0  0
 45118  1  0  0  0
 46119  1  0  0  0
 47120  1  0  0  0
 47121  1  0  0  0
 48 56  1  0  0  0
 48 65  1  0  0  0
 48122  1  0  0  0
 49 50  1  0  0  0
 49 53  1  0  0  0
 49 64  1  0  0  0
 49123  1  0  0  0
 50 51  1  0  0  0
 50124  1  0  0  0
 50125  1  0  0  0
 51 52  1  0  0  0
 51126  1  0  0  0
 51127  1  0  0  0
 52128  1  0  0  0
 52129  1  0  0  0
 53 54  1  0  0  0
 54 55  2  0  0  0
 54130  1  0  0  0
 55 57  1  0  0  0
 55131  1  0  0  0
 56 69  2  0  0  0
 57 58  2  0  0  0
 57132  1  0  0  0
 58133  1  0  0  0
 59 60  1  0  0  0
 59 61  1  0  0  0
 59 62  1  0  0  0
 60134  1  0  0  0
 60135  1  0  0  0
 60136  1  0  0  0
 61137  1  0  0  0
 61138  1  0  0  0
 61139  1  0  0  0
 62140  1  0  0  0
 62141  1  0  0  0
 62142  1  0  0  0
 63 65  1  0  0  0
 63143  1  0  0  0
 63144  1  0  0  0
 63145  1  0  0  0
 64146  1  0  0  0
 65147  1  0  0  0
 68 80  1  0  0  0
 71 73  2  0  0  0
 71 74  1  0  0  0
 71148  1  0  0  0
 72 73  1  0  0  0
 72 76  2  0  0  0
 72149  1  0  0  0
 73 82  1  0  0  0
 74 75  2  0  0  0
 74 81  1  0  0  0
 75 76  1  0  0  0
 75 83  1  0  0  0
 76 87  1  0  0  0
 77 79  1  0  0  0
 77 81  1  0  0  0
 77 84  2  0  0  0
 78150  1  0  0  0
 78151  1  0  0  0
 78152  1  0  0  0
 78 88  1  0  0  0
 79 80  1  0  0  0
 79153  1  0  0  0
 79154  1  0  0  0
 80155  1  0  0  0
 80156  1  0  0  0
 81157  1  0  0  0
 82158  1  0  0  0
 83 88  1  0  0  0
 83159  1  0  0  0
 85 88  2  0  0  0
 86 88  2  0  0  0
M  ISO  4   1 100  68 101  80 101  82 100
M  END
> <chiral flag>
0

> <version>
0

> <s_m_source_file>
/data/baiqing/PycharmProjects/Reinvent-master-3.2/result/LINK_invent/BTK/process_docking_weight1_custom_product_contain_oxygen_bond_distance_aromatic_linkinvent_7_9_3/rearranged_h_0067.sdf

> <i_m_source_file_index>
31

> <r_mmod_Potential_Energy-OPLS-2005>
-110.346588134766

> <r_mmod_Stretch_Energy-OPLS-2005>
138.792007446289

> <r_mmod_Bend_Energy-OPLS-2005>
244.683456420898

> <r_mmod_Torsional_Energy-OPLS-2005>
259.966888427734

> <r_mmod_Improper_Torsional_Energy-OPLS-2005>
9.67349243164062

> <r_mmod_Van_der_Waal_Energy-OPLS-2005>
153.827011108398

> <r_mmod_Electrostatic_Energy-OPLS-2005>
-728.792724609375

> <r_mmod_Solvation_Energy-OPLS-2005>
-280.742828369141

> <b_mmod_Minimization_Converged-OPLS-2005>
0

> <r_mmod_RMS_Derivative-OPLS-2005>
3.78737759590149

$$$$
31
                    3D
 Structure written by MMmdl.
155163  0  0  1  0            999 V2000
  -30.6096  -14.7487   20.4687 C   0  0  0  0  0  0
  -30.4503  -12.4697   19.4537 C   0  0  0  0  0  0
  -29.5119  -12.4944   18.2262 C   0  0  0  0  0  0
  -28.0391  -12.3197   18.6500 C   0  0  0  0  0  0
  -27.6422  -13.2273   19.8417 C   0  0  2  0  0  0
  -28.6930  -13.1758   20.9737 C   0  0  0  0  0  0
  -25.2526  -13.8181   20.5673 C   0  0  0  0  0  0
  -24.1797  -13.0435   20.9151 C   0  0  0  0  0  0
  -24.6384  -11.6906   20.8737 C   0  0  0  0  0  0
  -23.9075  -10.4281   21.0427 C   0  0  0  0  0  0
  -24.3627   -9.4191   21.9209 C   0  0  0  0  0  0
  -23.6263   -8.2257   22.0790 C   0  0  0  0  0  0
  -22.4252   -8.0321   21.3559 C   0  0  0  0  0  0
  -21.9883   -9.0302   20.4671 C   0  0  0  0  0  0
  -22.7251  -10.2151   20.3070 C   0  0  0  0  0  0
  -21.6861   -6.0731   22.5254 C   0  0  0  0  0  0
  -21.4032   -6.5633   23.8189 C   0  0  0  0  0  0
  -21.3643   -5.6790   24.9148 C   0  0  0  0  0  0
  -21.6036   -4.3047   24.7197 C   0  0  0  0  0  0
  -21.8834   -3.8138   23.4317 C   0  0  0  0  0  0
  -21.9177   -4.6952   22.3370 C   0  0  0  0  0  0
  -22.7818  -13.5252   21.1781 C   0  0  0  0  0  0
  -22.1657   -4.2154   21.0943 F   0  0  0  0  0  0
  -21.5598   -3.4513   25.7699 F   0  0  0  0  0  0
  -29.9870  -13.5275   20.3745 N   0  0  0  0  0  0
  -26.2941  -12.9377   20.3228 N   0  0  0  0  0  0
  -25.9309  -11.6515   20.5731 N   0  0  0  0  0  0
  -22.0411  -12.8328   22.0363 N   0  0  0  0  0  0
  -25.4206  -15.1931   20.4173 N   0  0  0  0  0  0
  -31.8208  -14.8491   20.2553 O   0  0  0  0  0  0
  -21.6625   -6.8910   21.4239 O   0  0  0  0  0  0
  -22.3521  -14.5549   20.6592 O   0  0  0  0  0  0
  -24.6332  -31.8532   23.1996 C   0  0  0  0  0  0
  -25.9148  -32.4741   23.8322 C   0  0  1  0  0  0
  -27.2070  -27.2521   20.1166 C   0  0  0  0  0  0
  -25.5944  -33.8549   24.2236 N   0  0  0  0  0  0
  -23.4279  -30.4809   21.5454 C   0  0  2  0  0  0
  -24.8699  -28.9325   20.1113 C   0  0  0  0  0  0
  -22.7533  -29.4601   22.4929 C   0  0  0  0  0  0
  -18.0301  -28.1410   22.8508 C   0  0  0  0  0  0
  -24.1491  -36.7301   23.2626 C   0  0  0  0  0  0
  -25.9763  -30.7687   21.3770 C   0  0  0  0  0  0
  -26.0468  -29.3900   20.7193 C   0  0  0  0  0  0
  -27.2196  -28.5648   20.7049 C   0  0  0  0  0  0
  -26.0009  -26.8694   19.4841 C   0  0  0  0  0  0
  -24.8545  -27.6816   19.4820 C   0  0  0  0  0  0
  -23.6453  -29.8233   20.1590 C   0  0  0  0  0  0
  -25.4099  -36.3041   24.0303 C   0  0  1  0  0  0
  -20.5920  -28.3726   23.1294 C   0  0  2  0  0  0
  -20.6808  -26.9442   22.5433 C   0  0  0  0  0  0
  -19.5751  -26.6398   21.5261 C   0  0  0  0  0  0
  -18.1934  -26.7954   22.1669 C   0  0  0  0  0  0
  -19.1559  -28.8879   23.2903 C   0  0  0  0  0  0
  -18.9470  -30.1492   23.8900 C   0  0  0  0  0  0
  -17.6461  -30.6603   24.0576 C   0  0  0  0  0  0
  -25.9052  -34.9422   23.5059 C   0  0  0  0  0  0
  -16.5357  -29.9101   23.6331 C   0  0  0  0  0  0
  -16.7285  -28.6530   23.0336 C   0  0  0  0  0  0
  -26.4483  -31.6579   25.0730 C   0  0  0  0  0  0
  -25.3716  -31.3783   26.1484 C   0  0  0  0  0  0
  -27.0295  -30.2955   24.6260 C   0  0  0  0  0  0
  -27.6026  -32.4329   25.7531 C   0  0  0  0  0  0
  -27.5560  -37.1793   24.8445 C   0  0  0  0  0  0
  -21.4243  -29.3044   22.3677 N   0  0  0  0  0  0
  -26.4248  -37.3753   23.9418 N   0  0  0  0  0  0
  -24.6987  -31.0533   22.0958 N   0  0  0  0  0  0
  -23.4230  -28.8122   23.3012 O   0  0  0  0  0  0
  -28.3033  -26.3509   20.1376 O   0  0  0  0  0  0
  -26.5654  -34.8894   22.4647 O   0  0  0  0  0  0
  -23.5479  -32.1368   23.7284 O   0  0  0  0  0  0
  -30.4749  -17.4189   22.2420 C   0  0  0  0  0  0
  -30.4927  -18.6876   22.8486 C   0  0  0  0  0  0
  -29.6453  -18.4651   20.2067 C   0  0  0  0  0  0
  -29.7095  -19.8047   20.7853 C   0  0  0  0  0  0
  -30.0185  -17.2519   20.9184 C   0  0  0  0  0  0
  -30.0904  -19.8546   22.1648 C   0  0  0  0  0  0
  -29.4764  -21.1002   19.9718 C   0  0  0  0  0  0
  -29.2240  -23.7736   20.0065 C   0  0  0  0  0  0
  -28.0460  -24.8598   20.1991 C   0  0  0  0  0  0
  -30.0609  -21.0211   22.9403 N   0  0  0  0  0  0
  -29.7819  -21.0945   18.6701 N   0  0  0  0  0  0
  -29.8031  -15.8691   20.4433 N   0  0  0  0  0  0
  -29.0526  -22.3149   20.4927 N   0  3  0  0  0  0
  -31.4852  -12.6245   19.1416 H   0  0  0  0  0  0
  -30.4350  -11.5004   19.9492 H   0  0  0  0  0  0
  -29.7907  -11.7149   17.5193 H   0  0  0  0  0  0
  -29.6278  -13.4406   17.6955 H   0  0  0  0  0  0
  -27.8913  -11.2746   18.9226 H   0  0  0  0  0  0
  -27.3870  -12.5120   17.7974 H   0  0  0  0  0  0
  -27.6276  -14.2415   19.4479 H   0  0  0  0  0  0
  -28.7351  -12.1821   21.4221 H   0  0  0  0  0  0
  -28.4380  -13.8653   21.7799 H   0  0  0  0  0  0
  -25.2787   -9.5624   22.4761 H   0  0  0  0  0  0
  -23.9929   -7.4646   22.7521 H   0  0  0  0  0  0
  -21.0786   -8.8879   19.8999 H   0  0  0  0  0  0
  -22.3758  -10.9711   19.6172 H   0  0  0  0  0  0
  -21.2098   -7.6150   23.9703 H   0  0  0  0  0  0
  -21.1426   -6.0501   25.9052 H   0  0  0  0  0  0
  -22.0623   -2.7597   23.2800 H   0  0  0  0  0  0
  -22.3989  -12.0035   22.4868 H   0  0  0  0  0  0
  -21.1061  -13.1489   22.2525 H   0  0  0  0  0  0
  -24.6585  -15.8477   20.5623 H   0  0  0  0  0  0
  -26.2697  -15.6433   20.1043 H   0  0  0  0  0  0
  -26.7244  -32.5388   23.1102 H   0  0  0  0  0  0
  -25.0023  -33.9674   25.0333 H   0  0  0  0  0  0
  -22.7202  -31.3007   21.4049 H   0  0  0  0  0  0
  -23.3709  -35.9676   23.3247 H   0  0  0  0  0  0
  -24.3605  -36.8981   22.2057 H   0  0  0  0  0  0
  -23.7292  -37.6498   23.6704 H   0  0  0  0  0  0
  -26.1152  -31.5246   20.6029 H   0  0  0  0  0  0
  -26.8555  -30.8174   22.0089 H   0  0  0  0  0  0
  -28.1228  -28.9169   21.1835 H   0  0  0  0  0  0
  -25.9001  -25.9271   18.9720 H   0  0  0  0  0  0
  -23.9569  -27.3328   18.9896 H   0  0  0  0  0  0
  -23.7777  -30.6050   19.4090 H   0  0  0  0  0  0
  -22.7615  -29.2653   19.8465 H   0  0  0  0  0  0
  -25.1272  -36.1843   25.0786 H   0  0  0  0  0  0
  -21.0006  -28.3306   24.1421 H   0  0  0  0  0  0
  -20.5788  -26.2315   23.3637 H   0  0  0  0  0  0
  -21.6656  -26.7517   22.1151 H   0  0  0  0  0  0
  -19.6895  -25.6310   21.1272 H   0  0  0  0  0  0
  -19.6640  -27.3237   20.6806 H   0  0  0  0  0  0
  -17.4200  -26.6737   21.4067 H   0  0  0  0  0  0
  -18.0290  -26.0118   22.9077 H   0  0  0  0  0  0
  -19.7931  -30.7353   24.2248 H   0  0  0  0  0  0
  -17.4986  -31.6269   24.5195 H   0  0  0  0  0  0
  -15.5349  -30.2981   23.7644 H   0  0  0  0  0  0
  -15.8704  -28.0852   22.6995 H   0  0  0  0  0  0
  -24.5857  -30.7158   25.7852 H   0  0  0  0  0  0
  -24.8971  -32.2989   26.4885 H   0  0  0  0  0  0
  -25.8040  -30.8982   27.0280 H   0  0  0  0  0  0
  -26.2874  -29.6757   24.1223 H   0  0  0  0  0  0
  -27.3843  -29.7173   25.4805 H   0  0  0  0  0  0
  -27.8818  -30.4148   23.9572 H   0  0  0  0  0  0
  -27.2580  -33.3614   26.2100 H   0  0  0  0  0  0
  -28.3850  -32.6930   25.0392 H   0  0  0  0  0  0
  -28.0686  -31.8486   26.5483 H   0  0  0  0  0  0
  -28.2521  -38.0133   24.7501 H   0  0  0  0  0  0
  -28.1098  -36.2669   24.6211 H   0  0  0  0  0  0
  -27.2322  -37.1374   25.8854 H   0  0  0  0  0  0
  -20.9438  -29.8748   21.6879 H   0  0  0  0  0  0
  -26.0094  -38.2796   24.1465 H   0  0  0  0  0  0
  -30.7504  -16.5691   22.8478 H   0  0  0  0  0  0
  -30.8047  -18.7402   23.8830 H   0  0  0  0  0  0
  -29.3042  -18.3707   19.1866 H   0  0  0  0  0  0
  -30.0876  -24.1557   20.5519 H   0  0  0  0  0  0
  -29.5345  -23.7721   18.9636 H   0  0  0  0  0  0
  -27.5450  -24.6529   21.1452 H   0  0  0  0  0  0
  -27.3356  -24.5801   19.4272 H   0  0  0  0  0  0
  -30.1159  -20.8443   23.9410 H   0  0  0  0  0  0
  -30.7844  -21.6984   22.7090 H   0  0  0  0  0  0
  -30.1939  -20.2714   18.2556 H   0  0  0  0  0  0
  -29.6219  -21.8861   18.0684 H   0  0  0  0  0  0
  -28.8409  -15.6551   20.2254 H   0  0  0  0  0  0
  -28.9011  -22.2208   21.4973 H   0  0  0  0  0  0
  1 25  1  0  0  0
  1 30  2  0  0  0
  1 82  1  0  0  0
  2  3  1  0  0  0
  2 25  1  0  0  0
  2 84  1  0  0  0
  2 85  1  0  0  0
  3  4  1  0  0  0
  3 86  1  0  0  0
  3 87  1  0  0  0
  4  5  1  0  0  0
  4 88  1  0  0  0
  4 89  1  0  0  0
  5  6  1  0  0  0
  5 26  1  0  0  0
  5 90  1  0  0  0
  6 25  1  0  0  0
  6 91  1  0  0  0
  6 92  1  0  0  0
  7  8  2  0  0  0
  7 26  1  0  0  0
  7 29  1  0  0  0
  8  9  1  0  0  0
  8 22  1  0  0  0
  9 10  1  0  0  0
  9 27  2  0  0  0
 10 11  2  0  0  0
 10 15  1  0  0  0
 11 12  1  0  0  0
 11 93  1  0  0  0
 12 13  2  0  0  0
 12 94  1  0  0  0
 13 14  1  0  0  0
 13 31  1  0  0  0
 14 15  2  0  0  0
 14 95  1  0  0  0
 15 96  1  0  0  0
 16 17  2  0  0  0
 16 21  1  0  0  0
 16 31  1  0  0  0
 17 18  1  0  0  0
 17 97  1  0  0  0
 18 19  2  0  0  0
 18 98  1  0  0  0
 19 20  1  0  0  0
 19 24  1  0  0  0
 20 21  2  0  0  0
 20 99  1  0  0  0
 21 23  1  0  0  0
 22 28  1  0  0  0
 22 32  2  0  0  0
 26 27  1  0  0  0
 28100  1  0  0  0
 28101  1  0  0  0
 29102  1  0  0  0
 29103  1  0  0  0
 33 34  1  0  0  0
 33 66  1  0  0  0
 33 70  2  0  0  0
 34 36  1  0  0  0
 34 59  1  0  0  0
 34104  1  0  0  0
 35 44  2  0  0  0
 35 45  1  0  0  0
 35 68  1  0  0  0
 36 56  1  0  0  0
 36105  1  0  0  0
 37 39  1  0  0  0
 37 47  1  0  0  0
 37 66  1  0  0  0
 37106  1  0  0  0
 38 43  2  0  0  0
 38 46  1  0  0  0
 38 47  1  0  0  0
 39 64  1  0  0  0
 39 67  2  0  0  0
 40 52  1  0  0  0
 40 53  2  0  0  0
 40 58  1  0  0  0
 41107  1  0  0  0
 41108  1  0  0  0
 41109  1  0  0  0
 41 48  1  0  0  0
 42 43  1  0  0  0
 42 66  1  0  0  0
 42110  1  0  0  0
 42111  1  0  0  0
 43 44  1  0  0  0
 44112  1  0  0  0
 45 46  2  0  0  0
 45113  1  0  0  0
 46114  1  0  0  0
 47115  1  0  0  0
 47116  1  0  0  0
 48 56  1  0  0  0
 48 65  1  0  0  0
 48117  1  0  0  0
 49 50  1  0  0  0
 49 53  1  0  0  0
 49 64  1  0  0  0
 49118  1  0  0  0
 50 51  1  0  0  0
 50119  1  0  0  0
 50120  1  0  0  0
 51 52  1  0  0  0
 51121  1  0  0  0
 51122  1  0  0  0
 52123  1  0  0  0
 52124  1  0  0  0
 53 54  1  0  0  0
 54 55  2  0  0  0
 54125  1  0  0  0
 55 57  1  0  0  0
 55126  1  0  0  0
 56 69  2  0  0  0
 57 58  2  0  0  0
 57127  1  0  0  0
 58128  1  0  0  0
 59 60  1  0  0  0
 59 61  1  0  0  0
 59 62  1  0  0  0
 60129  1  0  0  0
 60130  1  0  0  0
 60131  1  0  0  0
 61132  1  0  0  0
 61133  1  0  0  0
 61134  1  0  0  0
 62135  1  0  0  0
 62136  1  0  0  0
 62137  1  0  0  0
 63 65  1  0  0  0
 63138  1  0  0  0
 63139  1  0  0  0
 63140  1  0  0  0
 64141  1  0  0  0
 65142  1  0  0  0
 68 79  1  0  0  0
 71 72  2  0  0  0
 71 75  1  0  0  0
 71143  1  0  0  0
 72 76  1  0  0  0
 72144  1  0  0  0
 73 74  1  0  0  0
 73 75  2  0  0  0
 73145  1  0  0  0
 74 76  2  0  0  0
 74 77  1  0  0  0
 75 82  1  0  0  0
 76 80  1  0  0  0
 77 81  1  0  0  0
 77 83  2  0  0  0
 78 79  1  0  0  0
 78 83  1  0  0  0
 78146  1  0  0  0
 78147  1  0  0  0
 79148  1  0  0  0
 79149  1  0  0  0
 80150  1  0  0  0
 80151  1  0  0  0
 81152  1  0  0  0
 81153  1  0  0  0
 82154  1  0  0  0
 83155  1  0  0  0
M  CHG  1  83   1
M  ISO  4   1 100  68 101  79 101  82 100
M  END
> <chiral flag>
0

> <version>
0

> <s_m_source_file>
/data/baiqing/PycharmProjects/Reinvent-master-3.2/result/LINK_invent/BTK/process_docking_weight1_custom_product_contain_oxygen_bond_distance_aromatic_linkinvent_7_9_3/rearranged_h_0067.sdf

> <i_m_source_file_index>
32

> <r_mmod_Potential_Energy-OPLS-2005>
60.6855010986328

> <r_mmod_Stretch_Energy-OPLS-2005>
122.044792175293

> <r_mmod_Bend_Energy-OPLS-2005>
161.824142456055

> <r_mmod_Torsional_Energy-OPLS-2005>
271.350860595703

> <r_mmod_Improper_Torsional_Energy-OPLS-2005>
17.6806659698486

> <r_mmod_Van_der_Waal_Energy-OPLS-2005>
146.318893432617

> <r_mmod_Electrostatic_Energy-OPLS-2005>
-324.337982177734

> <r_mmod_Solvation_Energy-OPLS-2005>
-426.957183837891

> <b_mmod_Minimization_Converged-OPLS-2005>
0

> <r_mmod_RMS_Derivative-OPLS-2005>
5.19178104400635

$$$$
32
                    3D
 Structure written by MMmdl.
160168  0  0  1  0            999 V2000
  -30.5872  -14.8110   20.3985 C   0  0  0  0  0  0
  -30.4315  -12.4882   19.4773 C   0  0  0  0  0  0
  -29.5082  -12.5224   18.2373 C   0  0  0  0  0  0
  -28.0351  -12.3408   18.6503 C   0  0  0  0  0  0
  -27.6418  -13.2398   19.8509 C   0  0  2  0  0  0
  -28.6911  -13.1932   20.9861 C   0  0  0  0  0  0
  -25.2522  -13.8200   20.5730 C   0  0  0  0  0  0
  -24.1805  -13.0447   20.9208 C   0  0  0  0  0  0
  -24.6395  -11.6928   20.8750 C   0  0  0  0  0  0
  -23.9072  -10.4300   21.0413 C   0  0  0  0  0  0
  -24.3619   -9.4204   21.9184 C   0  0  0  0  0  0
  -23.6289   -8.2237   22.0760 C   0  0  0  0  0  0
  -22.4279   -8.0274   21.3549 C   0  0  0  0  0  0
  -21.9907   -9.0257   20.4672 C   0  0  0  0  0  0
  -22.7238  -10.2132   20.3074 C   0  0  0  0  0  0
  -21.6848   -6.0749   22.5292 C   0  0  0  0  0  0
  -21.4013   -6.5643   23.8227 C   0  0  0  0  0  0
  -21.3649   -5.6788   24.9181 C   0  0  0  0  0  0
  -21.6044   -4.3053   24.7230 C   0  0  0  0  0  0
  -21.8815   -3.8154   23.4345 C   0  0  0  0  0  0
  -21.9194   -4.6979   22.3406 C   0  0  0  0  0  0
  -22.7826  -13.5239   21.1867 C   0  0  0  0  0  0
  -22.1665   -4.2154   21.0979 F   0  0  0  0  0  0
  -21.5627   -3.4529   25.7735 F   0  0  0  0  0  0
  -29.9843  -13.5642   20.3994 N   0  0  0  0  0  0
  -26.2956  -12.9417   20.3319 N   0  0  0  0  0  0
  -25.9336  -11.6552   20.5769 N   0  0  0  0  0  0
  -22.0466  -12.8237   22.0426 N   0  0  0  0  0  0
  -25.4256  -15.1920   20.4173 N   0  0  0  0  0  0
  -31.7723  -14.8917   20.0627 O   0  0  0  0  0  0
  -21.6640   -6.8881   21.4249 O   0  0  0  0  0  0
  -22.3527  -14.5552   20.6723 O   0  0  0  0  0  0
  -24.6408  -31.8464   23.1903 C   0  0  0  0  0  0
  -25.9188  -32.4712   23.8272 C   0  0  1  0  0  0
  -27.2222  -27.1939   20.1280 C   0  0  0  0  0  0
  -25.5955  -33.8520   24.2204 N   0  0  0  0  0  0
  -23.4432  -30.4671   21.5353 C   0  0  2  0  0  0
  -24.8953  -28.9036   20.1087 C   0  0  0  0  0  0
  -22.7555  -29.4559   22.4863 C   0  0  0  0  0  0
  -18.0299  -28.1384   22.8481 C   0  0  0  0  0  0
  -24.1493  -36.7257   23.2635 C   0  0  0  0  0  0
  -25.9985  -30.7341   21.3860 C   0  0  0  0  0  0
  -26.0706  -29.3520   20.7270 C   0  0  0  0  0  0
  -27.2416  -28.5105   20.7254 C   0  0  0  0  0  0
  -26.0250  -26.8329   19.4773 C   0  0  0  0  0  0
  -24.8806  -27.6539   19.4706 C   0  0  0  0  0  0
  -23.6687  -29.7973   20.1541 C   0  0  0  0  0  0
  -25.4125  -36.3051   24.0316 C   0  0  1  0  0  0
  -20.5904  -28.3713   23.1241 C   0  0  2  0  0  0
  -20.6777  -26.9414   22.5410 C   0  0  0  0  0  0
  -19.5758  -26.6379   21.5203 C   0  0  0  0  0  0
  -18.1944  -26.7924   22.1616 C   0  0  0  0  0  0
  -19.1552  -28.8867   23.2857 C   0  0  0  0  0  0
  -18.9467  -30.1458   23.8885 C   0  0  0  0  0  0
  -17.6467  -30.6584   24.0555 C   0  0  0  0  0  0
  -25.9072  -34.9418   23.5072 C   0  0  0  0  0  0
  -16.5358  -29.9078   23.6323 C   0  0  0  0  0  0
  -16.7285  -28.6491   23.0358 C   0  0  0  0  0  0
  -26.4523  -31.6559   25.0692 C   0  0  0  0  0  0
  -25.3722  -31.3747   26.1396 C   0  0  0  0  0  0
  -27.0336  -30.2941   24.6248 C   0  0  0  0  0  0
  -27.6082  -32.4294   25.7459 C   0  0  0  0  0  0
  -27.5576  -37.1792   24.8470 C   0  0  0  0  0  0
  -21.4252  -29.3047   22.3623 N   0  0  0  0  0  0
  -26.4285  -37.3765   23.9414 N   0  0  0  0  0  0
  -24.7131  -31.0363   22.0914 N   0  0  0  0  0  0
  -23.4216  -28.8090   23.2982 O   0  0  0  0  0  0
  -28.2431  -26.1941   20.1540 O   0  0  0  0  0  0
  -26.5647  -34.8909   22.4639 O   0  0  0  0  0  0
  -23.5526  -32.1307   23.7141 O   0  0  0  0  0  0
  -30.0104  -18.4733   17.7846 C   0  0  0  0  0  0
  -30.2069  -17.3292   18.5786 C   0  0  0  0  0  0
  -29.3959  -18.6148   20.4695 C   0  0  0  0  0  0
  -29.4821  -19.6888   18.2871 C   0  0  0  0  0  0
  -29.8392  -17.3120   19.9383 C   0  0  0  0  0  0
  -29.2676  -19.8677   19.6947 C   0  0  0  0  0  0
  -28.1875  -23.5651   20.7624 C   0  0  0  0  0  0
  -27.9153  -24.9531   20.8101 C   0  0  0  0  0  0
  -29.0033  -22.5629   19.9654 C   0  0  0  0  0  0
  -27.1240  -19.6018   16.0931 C   0  0  0  0  0  0
  -29.0781  -20.7185   17.2269 C   0  0  0  0  0  0
  -26.5312  -19.2648   14.9518 N   0  0  0  0  0  0
  -26.4675  -19.3988   17.2346 N   0  3  0  0  0  0
  -28.8119  -21.1953   20.2839 N   0  0  0  0  0  0
  -29.8276  -15.9697   20.6288 N   0  0  0  0  0  0
  -28.3501  -20.1449   16.0753 N   0  0  0  0  0  0
  -29.8164  -22.9076   19.1062 O   0  0  0  0  0  0
  -31.4719  -12.6106   19.1716 H   0  0  0  0  0  0
  -30.3799  -11.5154   19.9683 H   0  0  0  0  0  0
  -29.7969  -11.7475   17.5231 H   0  0  0  0  0  0
  -29.6247  -13.4755   17.7182 H   0  0  0  0  0  0
  -27.8919  -11.2922   18.9118 H   0  0  0  0  0  0
  -27.3771  -12.5353   17.8017 H   0  0  0  0  0  0
  -27.6280  -14.2599   19.4648 H   0  0  0  0  0  0
  -28.7402  -12.1947   21.4254 H   0  0  0  0  0  0
  -28.4205  -13.8742   21.7948 H   0  0  0  0  0  0
  -25.2762   -9.5662   22.4777 H   0  0  0  0  0  0
  -24.0002   -7.4618   22.7471 H   0  0  0  0  0  0
  -21.0839   -8.8776   19.8982 H   0  0  0  0  0  0
  -22.3688  -10.9678   19.6202 H   0  0  0  0  0  0
  -21.2004   -7.6146   23.9717 H   0  0  0  0  0  0
  -21.1484   -6.0527   25.9081 H   0  0  0  0  0  0
  -22.0609   -2.7616   23.2840 H   0  0  0  0  0  0
  -22.4052  -11.9872   22.4785 H   0  0  0  0  0  0
  -21.1120  -13.1330   22.2694 H   0  0  0  0  0  0
  -24.6649  -15.8525   20.5331 H   0  0  0  0  0  0
  -26.2852  -15.6260   20.1057 H   0  0  0  0  0  0
  -26.7268  -32.5327   23.1010 H   0  0  0  0  0  0
  -25.0155  -33.9634   25.0387 H   0  0  0  0  0  0
  -22.7457  -31.2934   21.3809 H   0  0  0  0  0  0
  -23.3759  -35.9582   23.3305 H   0  0  0  0  0  0
  -24.3597  -36.8872   22.2052 H   0  0  0  0  0  0
  -23.7226  -37.6455   23.6650 H   0  0  0  0  0  0
  -26.1519  -31.4907   20.6154 H   0  0  0  0  0  0
  -26.8700  -30.7821   22.0275 H   0  0  0  0  0  0
  -28.1402  -28.8427   21.2255 H   0  0  0  0  0  0
  -25.9649  -25.8677   18.9936 H   0  0  0  0  0  0
  -23.9846  -27.3090   18.9724 H   0  0  0  0  0  0
  -23.8032  -30.5696   19.3969 H   0  0  0  0  0  0
  -22.7878  -29.2333   19.8406 H   0  0  0  0  0  0
  -25.1310  -36.1894   25.0805 H   0  0  0  0  0  0
  -20.9995  -28.3284   24.1356 H   0  0  0  0  0  0
  -20.5627  -26.2327   23.3628 H   0  0  0  0  0  0
  -21.6654  -26.7396   22.1232 H   0  0  0  0  0  0
  -19.6911  -25.6274   21.1257 H   0  0  0  0  0  0
  -19.6691  -27.3170   20.6713 H   0  0  0  0  0  0
  -17.4210  -26.6664   21.4027 H   0  0  0  0  0  0
  -18.0349  -26.0061   22.9005 H   0  0  0  0  0  0
  -19.7945  -30.7276   24.2254 H   0  0  0  0  0  0
  -17.5020  -31.6260   24.5155 H   0  0  0  0  0  0
  -15.5350  -30.2981   23.7651 H   0  0  0  0  0  0
  -15.8688  -28.0805   22.7086 H   0  0  0  0  0  0
  -24.5977  -30.6995   25.7764 H   0  0  0  0  0  0
  -24.8813  -32.2909   26.4687 H   0  0  0  0  0  0
  -25.8029  -30.9067   27.0264 H   0  0  0  0  0  0
  -26.2911  -29.6724   24.1228 H   0  0  0  0  0  0
  -27.3916  -29.7192   25.4805 H   0  0  0  0  0  0
  -27.8864  -30.4167   23.9561 H   0  0  0  0  0  0
  -27.2718  -33.3647   26.1960 H   0  0  0  0  0  0
  -28.3920  -32.6768   25.0283 H   0  0  0  0  0  0
  -28.0716  -31.8455   26.5428 H   0  0  0  0  0  0
  -28.2604  -38.0080   24.7506 H   0  0  0  0  0  0
  -28.1053  -36.2609   24.6300 H   0  0  0  0  0  0
  -27.2299  -37.1456   25.8874 H   0  0  0  0  0  0
  -20.9450  -29.8802   21.6857 H   0  0  0  0  0  0
  -26.0160  -38.2839   24.1406 H   0  0  0  0  0  0
  -30.2253  -18.3845   16.7276 H   0  0  0  0  0  0
  -30.5649  -16.4297   18.0979 H   0  0  0  0  0  0
  -29.1303  -18.6442   21.5165 H   0  0  0  0  0  0
  -27.6387  -23.0616   21.5438 H   0  0  0  0  0  0
  -27.2377  -25.2119   21.6107 H   0  0  0  0  0  0
  -29.9641  -21.2492   16.8776 H   0  0  0  0  0  0
  -28.3921  -21.4576   17.6294 H   0  0  0  0  0  0
  -25.5873  -18.9048   14.9232 H   0  0  0  0  0  0
  -26.9763  -19.4268   14.0580 H   0  0  0  0  0  0
  -25.5298  -19.0237   17.2585 H   0  0  0  0  0  0
  -26.9276  -19.5426   18.1194 H   0  0  0  0  0  0
  -28.2566  -21.0841   21.1220 H   0  0  0  0  0  0
  -28.9925  -15.7933   21.1652 H   0  0  0  0  0  0
  -28.8333  -20.2214   15.1910 H   0  0  0  0  0  0
  1 25  1  0  0  0
  1 30  2  0  0  0
  1 85  1  0  0  0
  2  3  1  0  0  0
  2 25  1  0  0  0
  2 88  1  0  0  0
  2 89  1  0  0  0
  3  4  1  0  0  0
  3 90  1  0  0  0
  3 91  1  0  0  0
  4  5  1  0  0  0
  4 92  1  0  0  0
  4 93  1  0  0  0
  5  6  1  0  0  0
  5 26  1  0  0  0
  5 94  1  0  0  0
  6 25  1  0  0  0
  6 95  1  0  0  0
  6 96  1  0  0  0
  7  8  2  0  0  0
  7 26  1  0  0  0
  7 29  1  0  0  0
  8  9  1  0  0  0
  8 22  1  0  0  0
  9 10  1  0  0  0
  9 27  2  0  0  0
 10 11  2  0  0  0
 10 15  1  0  0  0
 11 12  1  0  0  0
 11 97  1  0  0  0
 12 13  2  0  0  0
 12 98  1  0  0  0
 13 14  1  0  0  0
 13 31  1  0  0  0
 14 15  2  0  0  0
 14 99  1  0  0  0
 15100  1  0  0  0
 16 17  2  0  0  0
 16 21  1  0  0  0
 16 31  1  0  0  0
 17 18  1  0  0  0
 17101  1  0  0  0
 18 19  2  0  0  0
 18102  1  0  0  0
 19 20  1  0  0  0
 19 24  1  0  0  0
 20 21  2  0  0  0
 20103  1  0  0  0
 21 23  1  0  0  0
 22 28  1  0  0  0
 22 32  2  0  0  0
 26 27  1  0  0  0
 28104  1  0  0  0
 28105  1  0  0  0
 29106  1  0  0  0
 29107  1  0  0  0
 33 34  1  0  0  0
 33 66  1  0  0  0
 33 70  2  0  0  0
 34 36  1  0  0  0
 34 59  1  0  0  0
 34108  1  0  0  0
 35 44  2  0  0  0
 35 45  1  0  0  0
 35 68  1  0  0  0
 36 56  1  0  0  0
 36109  1  0  0  0
 37 39  1  0  0  0
 37 47  1  0  0  0
 37 66  1  0  0  0
 37110  1  0  0  0
 38 43  2  0  0  0
 38 46  1  0  0  0
 38 47  1  0  0  0
 39 64  1  0  0  0
 39 67  2  0  0  0
 40 52  1  0  0  0
 40 53  2  0  0  0
 40 58  1  0  0  0
 41111  1  0  0  0
 41112  1  0  0  0
 41113  1  0  0  0
 41 48  1  0  0  0
 42 43  1  0  0  0
 42 66  1  0  0  0
 42114  1  0  0  0
 42115  1  0  0  0
 43 44  1  0  0  0
 44116  1  0  0  0
 45 46  2  0  0  0
 45117  1  0  0  0
 46118  1  0  0  0
 47119  1  0  0  0
 47120  1  0  0  0
 48 56  1  0  0  0
 48 65  1  0  0  0
 48121  1  0  0  0
 49 50  1  0  0  0
 49 53  1  0  0  0
 49 64  1  0  0  0
 49122  1  0  0  0
 50 51  1  0  0  0
 50123  1  0  0  0
 50124  1  0  0  0
 51 52  1  0  0  0
 51125  1  0  0  0
 51126  1  0  0  0
 52127  1  0  0  0
 52128  1  0  0  0
 53 54  1  0  0  0
 54 55  2  0  0  0
 54129  1  0  0  0
 55 57  1  0  0  0
 55130  1  0  0  0
 56 69  2  0  0  0
 57 58  2  0  0  0
 57131  1  0  0  0
 58132  1  0  0  0
 59 60  1  0  0  0
 59 61  1  0  0  0
 59 62  1  0  0  0
 60133  1  0  0  0
 60134  1  0  0  0
 60135  1  0  0  0
 61136  1  0  0  0
 61137  1  0  0  0
 61138  1  0  0  0
 62139  1  0  0  0
 62140  1  0  0  0
 62141  1  0  0  0
 63 65  1  0  0  0
 63142  1  0  0  0
 63143  1  0  0  0
 63144  1  0  0  0
 64145  1  0  0  0
 65146  1  0  0  0
 68 78  1  0  0  0
 71 72  2  0  0  0
 71 74  1  0  0  0
 71147  1  0  0  0
 72 75  1  0  0  0
 72148  1  0  0  0
 73 75  2  0  0  0
 73 76  1  0  0  0
 73149  1  0  0  0
 74 76  2  0  0  0
 74 81  1  0  0  0
 75 85  1  0  0  0
 76 84  1  0  0  0
 77 78  2  0  0  0
 77 79  1  0  0  0
 77150  1  0  0  0
 78151  1  0  0  0
 79 84  1  0  0  0
 79 87  2  0  0  0
 80 82  1  0  0  0
 80 83  2  0  0  0
 80 86  1  0  0  0
 81 86  1  0  0  0
 81152  1  0  0  0
 81153  1  0  0  0
 82154  1  0  0  0
 82155  1  0  0  0
 83156  1  0  0  0
 83157  1  0  0  0
 84158  1  0  0  0
 85159  1  0  0  0
 86160  1  0  0  0
M  CHG  1  83   1
M  ISO  4   1 100  68 101  78 101  85 100
M  END
> <chiral flag>
0

> <version>
0

> <s_m_source_file>
/data/baiqing/PycharmProjects/Reinvent-master-3.2/result/LINK_invent/BTK/process_docking_weight1_custom_product_contain_oxygen_bond_distance_aromatic_linkinvent_7_9_3/rearranged_h_0067.sdf

> <i_m_source_file_index>
33

> <r_mmod_Potential_Energy-OPLS-2005>
65.7324981689453

> <r_mmod_Stretch_Energy-OPLS-2005>
176.083541870117

> <r_mmod_Bend_Energy-OPLS-2005>
266.5546875

> <r_mmod_Torsional_Energy-OPLS-2005>
269.958190917969

> <r_mmod_Improper_Torsional_Energy-OPLS-2005>
5.45515203475952

> <r_mmod_Van_der_Waal_Energy-OPLS-2005>
139.330200195312

> <r_mmod_Electrostatic_Energy-OPLS-2005>
-423.7099609375

> <r_mmod_Solvation_Energy-OPLS-2005>
-498.001617431641

> <b_mmod_Minimization_Converged-OPLS-2005>
0

> <r_mmod_RMS_Derivative-OPLS-2005>
3.49315476417542

$$$$
33
                    3D
 Structure written by MMmdl.
154162  0  0  1  0            999 V2000
  -30.5108  -15.0485   20.4208 C   0  0  0  0  0  0
  -30.4416  -12.6633   19.4986 C   0  0  0  0  0  0
  -29.5222  -12.5404   18.2601 C   0  0  0  0  0  0
  -28.0610  -12.3045   18.6859 C   0  0  0  0  0  0
  -27.6213  -13.2538   19.8303 C   0  0  2  0  0  0
  -28.6650  -13.3343   20.9644 C   0  0  0  0  0  0
  -25.2437  -13.8222   20.5724 C   0  0  0  0  0  0
  -24.1767  -13.0443   20.9256 C   0  0  0  0  0  0
  -24.6393  -11.6928   20.8769 C   0  0  0  0  0  0
  -23.9075  -10.4294   21.0416 C   0  0  0  0  0  0
  -24.3623   -9.4208   21.9191 C   0  0  0  0  0  0
  -23.6299   -8.2244   22.0753 C   0  0  0  0  0  0
  -22.4282   -8.0281   21.3541 C   0  0  0  0  0  0
  -21.9917   -9.0255   20.4643 C   0  0  0  0  0  0
  -22.7246  -10.2139   20.3061 C   0  0  0  0  0  0
  -21.6855   -6.0737   22.5277 C   0  0  0  0  0  0
  -21.4013   -6.5644   23.8208 C   0  0  0  0  0  0
  -21.3653   -5.6798   24.9172 C   0  0  0  0  0  0
  -21.6046   -4.3059   24.7225 C   0  0  0  0  0  0
  -21.8818   -3.8150   23.4343 C   0  0  0  0  0  0
  -21.9194   -4.6965   22.3400 C   0  0  0  0  0  0
  -22.7787  -13.5213   21.1893 C   0  0  0  0  0  0
  -22.1665   -4.2154   21.0976 F   0  0  0  0  0  0
  -21.5624   -3.4538   25.7734 F   0  0  0  0  0  0
  -29.9205  -13.7787   20.3467 N   0  0  0  0  0  0
  -26.2853  -12.9456   20.3236 N   0  0  0  0  0  0
  -25.9322  -11.6584   20.5738 N   0  0  0  0  0  0
  -22.0427  -12.8203   22.0443 N   0  0  0  0  0  0
  -25.4087  -15.1949   20.4119 N   0  0  0  0  0  0
  -31.7318  -15.0786   20.2218 O   0  0  0  0  0  0
  -21.6646   -6.8881   21.4238 O   0  0  0  0  0  0
  -22.3479  -14.5515   20.6727 O   0  0  0  0  0  0
  -24.6510  -31.8370   23.1814 C   0  0  0  0  0  0
  -25.9244  -32.4662   23.8227 C   0  0  1  0  0  0
  -27.2107  -27.0536   20.1648 C   0  0  0  0  0  0
  -25.5960  -33.8468   24.2143 N   0  0  0  0  0  0
  -23.4593  -30.4539   21.5296 C   0  0  2  0  0  0
  -24.9093  -28.8676   20.1110 C   0  0  0  0  0  0
  -22.7612  -29.4508   22.4832 C   0  0  0  0  0  0
  -18.0322  -28.1387   22.8468 C   0  0  0  0  0  0
  -24.1503  -36.7242   23.2641 C   0  0  0  0  0  0
  -26.0211  -30.6842   21.3936 C   0  0  0  0  0  0
  -26.0909  -29.2872   20.7355 C   0  0  0  0  0  0
  -27.2423  -28.3987   20.7419 C   0  0  0  0  0  0
  -26.0028  -26.7616   19.4916 C   0  0  0  0  0  0
  -24.8830  -27.6212   19.4706 C   0  0  0  0  0  0
  -23.6907  -29.7794   20.1513 C   0  0  0  0  0  0
  -25.4135  -36.3015   24.0312 C   0  0  1  0  0  0
  -20.5936  -28.3726   23.1211 C   0  0  2  0  0  0
  -20.6807  -26.9424   22.5394 C   0  0  0  0  0  0
  -19.5778  -26.6373   21.5206 C   0  0  0  0  0  0
  -18.1959  -26.7922   22.1616 C   0  0  0  0  0  0
  -19.1580  -28.8876   23.2830 C   0  0  0  0  0  0
  -18.9488  -30.1469   23.8863 C   0  0  0  0  0  0
  -17.6481  -30.6584   24.0552 C   0  0  0  0  0  0
  -25.9088  -34.9392   23.5048 C   0  0  0  0  0  0
  -16.5376  -29.9072   23.6334 C   0  0  0  0  0  0
  -16.7305  -28.6489   23.0357 C   0  0  0  0  0  0
  -26.4536  -31.6546   25.0696 C   0  0  0  0  0  0
  -25.3681  -31.3740   26.1356 C   0  0  0  0  0  0
  -27.0423  -30.2940   24.6319 C   0  0  0  0  0  0
  -27.6061  -32.4322   25.7475 C   0  0  0  0  0  0
  -27.5583  -37.1775   24.8463 C   0  0  0  0  0  0
  -21.4299  -29.3045   22.3578 N   0  0  0  0  0  0
  -26.4296  -37.3731   23.9397 N   0  0  0  0  0  0
  -24.7311  -31.0151   22.0890 N   0  0  0  0  0  0
  -23.4216  -28.8060   23.3017 O   0  0  0  0  0  0
  -28.2318  -26.0087   20.2261 O   0  0  0  0  0  0
  -26.5692  -34.8907   22.4639 O   0  0  0  0  0  0
  -23.5608  -32.1283   23.6982 O   0  0  0  0  0  0
  -31.4834  -19.3398   21.9034 C   0  0  0  0  0  0
  -31.1791  -18.0453   21.4402 C   0  0  0  0  0  0
  -29.2437  -19.0366   20.3749 C   0  0  0  0  0  0
  -30.7047  -20.5034   21.6529 C   0  0  0  0  0  0
  -30.0203  -17.7747   20.6964 C   0  0  0  0  0  0
  -29.5612  -20.4687   20.7729 C   0  0  0  0  0  0
  -31.1377  -21.6428   22.4927 C   0  0  0  0  0  0
  -28.9704  -23.1758   20.2391 C   0  0  0  0  0  0
  -27.8671  -24.4555   20.2634 C   0  0  0  0  0  0
  -31.2077  -21.4878   23.8157 N   0  0  0  0  0  0
  -28.7100  -21.7708   20.4957 N   0  0  0  0  0  0
  -29.7248  -16.2623   20.4443 N   0  0  0  0  0  0
  -31.5424  -22.8062   22.0014 N   0  3  0  0  0  0
  -30.1092  -23.4833   19.8791 O   0  0  0  0  0  0
  -31.4679  -12.8473   19.1764 H   0  0  0  0  0  0
  -30.4683  -11.7286   20.0612 H   0  0  0  0  0  0
  -29.8615  -11.7320   17.6115 H   0  0  0  0  0  0
  -29.5856  -13.4546   17.6680 H   0  0  0  0  0  0
  -27.9794  -11.2684   19.0177 H   0  0  0  0  0  0
  -27.3935  -12.4026   17.8293 H   0  0  0  0  0  0
  -27.5655  -14.2428   19.3746 H   0  0  0  0  0  0
  -28.7837  -12.3733   21.4664 H   0  0  0  0  0  0
  -28.3474  -14.0472   21.7269 H   0  0  0  0  0  0
  -25.2755   -9.5696   22.4778 H   0  0  0  0  0  0
  -24.0002   -7.4640   22.7477 H   0  0  0  0  0  0
  -21.0845   -8.8781   19.8949 H   0  0  0  0  0  0
  -22.3695  -10.9686   19.6177 H   0  0  0  0  0  0
  -21.2006   -7.6151   23.9714 H   0  0  0  0  0  0
  -21.1472   -6.0526   25.9077 H   0  0  0  0  0  0
  -22.0599   -2.7612   23.2843 H   0  0  0  0  0  0
  -22.4040  -11.9872   22.4843 H   0  0  0  0  0  0
  -21.1035  -13.1218   22.2620 H   0  0  0  0  0  0
  -24.6344  -15.8415   20.5179 H   0  0  0  0  0  0
  -26.2364  -15.6315   20.0301 H   0  0  0  0  0  0
  -26.7301  -32.5247   23.0937 H   0  0  0  0  0  0
  -25.0054  -33.9556   25.0250 H   0  0  0  0  0  0
  -22.7667  -31.2825   21.3688 H   0  0  0  0  0  0
  -23.3784  -35.9557   23.3287 H   0  0  0  0  0  0
  -24.3581  -36.8902   22.2060 H   0  0  0  0  0  0
  -23.7241  -37.6420   23.6702 H   0  0  0  0  0  0
  -26.1868  -31.4350   20.6195 H   0  0  0  0  0  0
  -26.8882  -30.7362   22.0413 H   0  0  0  0  0  0
  -28.1411  -28.7149   21.2538 H   0  0  0  0  0  0
  -25.8822  -25.8184   18.9836 H   0  0  0  0  0  0
  -23.9838  -27.2966   18.9645 H   0  0  0  0  0  0
  -23.8353  -30.5524   19.3953 H   0  0  0  0  0  0
  -22.8040  -29.2255   19.8382 H   0  0  0  0  0  0
  -25.1324  -36.1849   25.0807 H   0  0  0  0  0  0
  -21.0019  -28.3334   24.1336 H   0  0  0  0  0  0
  -20.5703  -26.2341   23.3621 H   0  0  0  0  0  0
  -21.6669  -26.7429   22.1186 H   0  0  0  0  0  0
  -19.6943  -25.6274   21.1260 H   0  0  0  0  0  0
  -19.6718  -27.3167   20.6720 H   0  0  0  0  0  0
  -17.4225  -26.6673   21.4024 H   0  0  0  0  0  0
  -18.0361  -26.0067   22.9017 H   0  0  0  0  0  0
  -19.7969  -30.7282   24.2231 H   0  0  0  0  0  0
  -17.5039  -31.6263   24.5149 H   0  0  0  0  0  0
  -15.5371  -30.2954   23.7674 H   0  0  0  0  0  0
  -15.8713  -28.0788   22.7090 H   0  0  0  0  0  0
  -24.5894  -30.7070   25.7626 H   0  0  0  0  0  0
  -24.8823  -32.2918   26.4688 H   0  0  0  0  0  0
  -25.7917  -30.8948   27.0191 H   0  0  0  0  0  0
  -26.3056  -29.6631   24.1335 H   0  0  0  0  0  0
  -27.4024  -29.7280   25.4913 H   0  0  0  0  0  0
  -27.8968  -30.4164   23.9664 H   0  0  0  0  0  0
  -27.2676  -33.3679   26.1940 H   0  0  0  0  0  0
  -28.3918  -32.6789   25.0319 H   0  0  0  0  0  0
  -28.0676  -31.8511   26.5468 H   0  0  0  0  0  0
  -28.2576  -38.0100   24.7529 H   0  0  0  0  0  0
  -28.1120  -36.2623   24.6289 H   0  0  0  0  0  0
  -27.2295  -37.1403   25.8868 H   0  0  0  0  0  0
  -20.9534  -29.8742   21.6731 H   0  0  0  0  0  0
  -26.0181  -38.2805   24.1405 H   0  0  0  0  0  0
  -32.3529  -19.4240   22.5418 H   0  0  0  0  0  0
  -31.8265  -17.2357   21.7435 H   0  0  0  0  0  0
  -28.3399  -18.8940   19.8025 H   0  0  0  0  0  0
  -27.2471  -24.3045   21.1475 H   0  0  0  0  0  0
  -27.2191  -24.2437   19.4156 H   0  0  0  0  0  0
  -30.8959  -20.6165   24.2201 H   0  0  0  0  0  0
  -31.5198  -22.2125   24.4424 H   0  0  0  0  0  0
  -27.7142  -21.5970   20.5363 H   0  0  0  0  0  0
  -28.7423  -16.0672   20.3336 H   0  0  0  0  0  0
  -31.2599  -23.0375   21.0448 H   0  0  0  0  0  0
  -31.9261  -23.5416   22.5721 H   0  0  0  0  0  0
  1 25  1  0  0  0
  1 30  2  0  0  0
  1 82  1  0  0  0
  2  3  1  0  0  0
  2 25  1  0  0  0
  2 85  1  0  0  0
  2 86  1  0  0  0
  3  4  1  0  0  0
  3 87  1  0  0  0
  3 88  1  0  0  0
  4  5  1  0  0  0
  4 89  1  0  0  0
  4 90  1  0  0  0
  5  6  1  0  0  0
  5 26  1  0  0  0
  5 91  1  0  0  0
  6 25  1  0  0  0
  6 92  1  0  0  0
  6 93  1  0  0  0
  7  8  2  0  0  0
  7 26  1  0  0  0
  7 29  1  0  0  0
  8  9  1  0  0  0
  8 22  1  0  0  0
  9 10  1  0  0  0
  9 27  2  0  0  0
 10 11  2  0  0  0
 10 15  1  0  0  0
 11 12  1  0  0  0
 11 94  1  0  0  0
 12 13  2  0  0  0
 12 95  1  0  0  0
 13 14  1  0  0  0
 13 31  1  0  0  0
 14 15  2  0  0  0
 14 96  1  0  0  0
 15 97  1  0  0  0
 16 17  2  0  0  0
 16 21  1  0  0  0
 16 31  1  0  0  0
 17 18  1  0  0  0
 17 98  1  0  0  0
 18 19  2  0  0  0
 18 99  1  0  0  0
 19 20  1  0  0  0
 19 24  1  0  0  0
 20 21  2  0  0  0
 20100  1  0  0  0
 21 23  1  0  0  0
 22 28  1  0  0  0
 22 32  2  0  0  0
 26 27  1  0  0  0
 28101  1  0  0  0
 28102  1  0  0  0
 29103  1  0  0  0
 29104  1  0  0  0
 33 34  1  0  0  0
 33 66  1  0  0  0
 33 70  2  0  0  0
 34 36  1  0  0  0
 34 59  1  0  0  0
 34105  1  0  0  0
 35 44  2  0  0  0
 35 45  1  0  0  0
 35 68  1  0  0  0
 36 56  1  0  0  0
 36106  1  0  0  0
 37 39  1  0  0  0
 37 47  1  0  0  0
 37 66  1  0  0  0
 37107  1  0  0  0
 38 43  2  0  0  0
 38 46  1  0  0  0
 38 47  1  0  0  0
 39 64  1  0  0  0
 39 67  2  0  0  0
 40 52  1  0  0  0
 40 53  2  0  0  0
 40 58  1  0  0  0
 41108  1  0  0  0
 41109  1  0  0  0
 41110  1  0  0  0
 41 48  1  0  0  0
 42 43  1  0  0  0
 42 66  1  0  0  0
 42111  1  0  0  0
 42112  1  0  0  0
 43 44  1  0  0  0
 44113  1  0  0  0
 45 46  2  0  0  0
 45114  1  0  0  0
 46115  1  0  0  0
 47116  1  0  0  0
 47117  1  0  0  0
 48 56  1  0  0  0
 48 65  1  0  0  0
 48118  1  0  0  0
 49 50  1  0  0  0
 49 53  1  0  0  0
 49 64  1  0  0  0
 49119  1  0  0  0
 50 51  1  0  0  0
 50120  1  0  0  0
 50121  1  0  0  0
 51 52  1  0  0  0
 51122  1  0  0  0
 51123  1  0  0  0
 52124  1  0  0  0
 52125  1  0  0  0
 53 54  1  0  0  0
 54 55  2  0  0  0
 54126  1  0  0  0
 55 57  1  0  0  0
 55127  1  0  0  0
 56 69  2  0  0  0
 57 58  2  0  0  0
 57128  1  0  0  0
 58129  1  0  0  0
 59 60  1  0  0  0
 59 61  1  0  0  0
 59 62  1  0  0  0
 60130  1  0  0  0
 60131  1  0  0  0
 60132  1  0  0  0
 61133  1  0  0  0
 61134  1  0  0  0
 61135  1  0  0  0
 62136  1  0  0  0
 62137  1  0  0  0
 62138  1  0  0  0
 63 65  1  0  0  0
 63139  1  0  0  0
 63140  1  0  0  0
 63141  1  0  0  0
 64142  1  0  0  0
 65143  1  0  0  0
 68 79  1  0  0  0
 71 72  2  0  0  0
 71 74  1  0  0  0
 71144  1  0  0  0
 72 75  1  0  0  0
 72145  1  0  0  0
 73 75  2  0  0  0
 73 76  1  0  0  0
 73146  1  0  0  0
 74 76  2  0  0  0
 74 77  1  0  0  0
 75 82  1  0  0  0
 76 81  1  0  0  0
 77 80  1  0  0  0
 77 83  2  0  0  0
 78 79  1  0  0  0
 78 81  1  0  0  0
 78 84  2  0  0  0
 79147  1  0  0  0
 79148  1  0  0  0
 80149  1  0  0  0
 80150  1  0  0  0
 81151  1  0  0  0
 82152  1  0  0  0
 83153  1  0  0  0
 83154  1  0  0  0
M  CHG  1  83   1
M  ISO  4   1 100  68 101  79 101  82 100
M  END
> <chiral flag>
0

> <version>
0

> <s_m_source_file>
/data/baiqing/PycharmProjects/Reinvent-master-3.2/result/LINK_invent/BTK/process_docking_weight1_custom_product_contain_oxygen_bond_distance_aromatic_linkinvent_7_9_3/rearranged_h_0067.sdf

> <i_m_source_file_index>
34

> <r_mmod_Potential_Energy-OPLS-2005>
517.477844238281

> <r_mmod_Stretch_Energy-OPLS-2005>
358.858734130859

> <r_mmod_Bend_Energy-OPLS-2005>
288.999145507812

> <r_mmod_Torsional_Energy-OPLS-2005>
263.021606445312

> <r_mmod_Improper_Torsional_Energy-OPLS-2005>
9.51687622070312

> <r_mmod_Van_der_Waal_Energy-OPLS-2005>
150.356796264648

> <r_mmod_Electrostatic_Energy-OPLS-2005>
-372.952239990234

> <r_mmod_Solvation_Energy-OPLS-2005>
-454.676086425781

> <b_mmod_Minimization_Converged-OPLS-2005>
0

> <r_mmod_RMS_Derivative-OPLS-2005>
1.51757621765137

$$$$
34
                    3D
 Structure written by MMmdl.
165174  0  0  1  0            999 V2000
  -30.7070  -14.6378   20.5088 C   0  0  0  0  0  0
  -30.4113  -12.4024   19.4539 C   0  0  0  0  0  0
  -29.4946  -12.4965   18.2194 C   0  0  0  0  0  0
  -28.0223  -12.3355   18.6390 C   0  0  0  0  0  0
  -27.6411  -13.2315   19.8481 C   0  0  2  0  0  0
  -28.6895  -13.1592   20.9801 C   0  0  0  0  0  0
  -25.2507  -13.8199   20.5686 C   0  0  0  0  0  0
  -24.1802  -13.0443   20.9209 C   0  0  0  0  0  0
  -24.6396  -11.6922   20.8750 C   0  0  0  0  0  0
  -23.9074  -10.4300   21.0410 C   0  0  0  0  0  0
  -24.3620   -9.4209   21.9187 C   0  0  0  0  0  0
  -23.6298   -8.2239   22.0755 C   0  0  0  0  0  0
  -22.4279   -8.0279   21.3542 C   0  0  0  0  0  0
  -21.9913   -9.0254   20.4646 C   0  0  0  0  0  0
  -22.7244  -10.2135   20.3063 C   0  0  0  0  0  0
  -21.6850   -6.0731   22.5281 C   0  0  0  0  0  0
  -21.4014   -6.5634   23.8214 C   0  0  0  0  0  0
  -21.3661   -5.6788   24.9174 C   0  0  0  0  0  0
  -21.6048   -4.3052   24.7228 C   0  0  0  0  0  0
  -21.8818   -3.8141   23.4348 C   0  0  0  0  0  0
  -21.9196   -4.6959   22.3403 C   0  0  0  0  0  0
  -22.7825  -13.5224   21.1870 C   0  0  0  0  0  0
  -22.1664   -4.2139   21.0982 F   0  0  0  0  0  0
  -21.5632   -3.4543   25.7742 F   0  0  0  0  0  0
  -29.9948  -13.4713   20.3880 N   0  0  0  0  0  0
  -26.2938  -12.9409   20.3291 N   0  0  0  0  0  0
  -25.9328  -11.6554   20.5762 N   0  0  0  0  0  0
  -22.0478  -12.8204   22.0420 N   0  0  0  0  0  0
  -25.4171  -15.1922   20.4048 N   0  0  0  0  0  0
  -31.8987  -14.6390   20.1911 O   0  0  0  0  0  0
  -21.6643   -6.8874   21.4239 O   0  0  0  0  0  0
  -22.3503  -14.5527   20.6719 O   0  0  0  0  0  0
  -24.6298  -31.8596   23.2066 C   0  0  0  0  0  0
  -25.9150  -32.4770   23.8369 C   0  0  1  0  0  0
  -27.2046  -27.3015   20.0991 C   0  0  0  0  0  0
  -25.5964  -33.8572   24.2295 N   0  0  0  0  0  0
  -23.4204  -30.4906   21.5515 C   0  0  2  0  0  0
  -24.8601  -28.9558   20.1096 C   0  0  0  0  0  0
  -22.7503  -29.4628   22.4954 C   0  0  0  0  0  0
  -18.0294  -28.1403   22.8480 C   0  0  0  0  0  0
  -24.1483  -36.7262   23.2640 C   0  0  0  0  0  0
  -25.9673  -30.7844   21.3840 C   0  0  0  0  0  0
  -26.0338  -29.4133   20.7200 C   0  0  0  0  0  0
  -27.2061  -28.5960   20.7129 C   0  0  0  0  0  0
  -26.0008  -26.9191   19.4529 C   0  0  0  0  0  0
  -24.8467  -27.7141   19.4679 C   0  0  0  0  0  0
  -23.6332  -29.8398   20.1623 C   0  0  0  0  0  0
  -25.4103  -36.3060   24.0335 C   0  0  1  0  0  0
  -20.5899  -28.3695   23.1302 C   0  0  2  0  0  0
  -20.6780  -26.9425   22.5415 C   0  0  0  0  0  0
  -19.5747  -26.6395   21.5224 C   0  0  0  0  0  0
  -18.1930  -26.7943   22.1634 C   0  0  0  0  0  0
  -19.1552  -28.8869   23.2878 C   0  0  0  0  0  0
  -18.9463  -30.1470   23.8878 C   0  0  0  0  0  0
  -17.6458  -30.6591   24.0578 C   0  0  0  0  0  0
  -25.9052  -34.9438   23.5109 C   0  0  0  0  0  0
  -16.5352  -29.9093   23.6339 C   0  0  0  0  0  0
  -16.7279  -28.6533   23.0332 C   0  0  0  0  0  0
  -26.4520  -31.6575   25.0738 C   0  0  0  0  0  0
  -25.3754  -31.3723   26.1470 C   0  0  0  0  0  0
  -27.0356  -30.2987   24.6200 C   0  0  0  0  0  0
  -27.6082  -32.4309   25.7510 C   0  0  0  0  0  0
  -27.5569  -37.1784   24.8468 C   0  0  0  0  0  0
  -21.4215  -29.3039   22.3696 N   0  0  0  0  0  0
  -26.4269  -37.3759   23.9422 N   0  0  0  0  0  0
  -24.6919  -31.0606   22.1029 N   0  0  0  0  0  0
  -23.4228  -28.8156   23.3018 O   0  0  0  0  0  0
  -28.3096  -26.4215   20.1530 O   0  0  0  0  0  0
  -26.5604  -34.8916   22.4661 O   0  0  0  0  0  0
  -23.5468  -32.1420   23.7377 O   0  0  0  0  0  0
  -30.6248  -19.1460   19.6080 C   0  0  0  0  0  0
  -30.2662  -20.4800   19.2903 C   0  0  0  0  0  0
  -28.6165  -20.4457   21.0389 C   0  0  0  0  0  0
  -30.0035  -18.4026   20.6424 C   0  0  0  0  0  0
  -29.2346  -21.1670   19.9787 C   0  0  0  0  0  0
  -28.9928  -19.1008   21.3888 C   0  0  0  0  0  0
  -28.1900  -22.4624   18.2350 C   0  0  0  0  0  0
  -30.6375  -17.0371   20.9854 C   0  0  0  0  0  0
  -27.7746  -23.7664   17.5392 C   0  0  0  0  0  0
  -28.3469  -25.0406   18.1564 C   0  0  0  0  0  0
  -28.9649  -23.7764   20.2258 C   0  0  0  0  0  0
  -28.1363  -25.0229   19.6709 C   0  0  1  0  0  0
  -30.4173  -19.2842   24.2107 C   0  0  0  0  0  0
  -28.7594  -22.4679   19.4792 N   0  0  0  0  0  0
  -28.3426  -18.5332   22.4928 N   0  0  0  0  0  0
  -30.0386  -15.8245   20.7293 N   0  0  0  0  0  0
  -27.9498  -21.4213   17.6131 O   0  0  0  0  0  0
  -31.7737  -17.1115   21.4689 O   0  0  0  0  0  0
  -27.9907  -18.4409   25.0193 O   0  0  0  0  0  0
  -29.5361  -16.7522   23.8879 O   0  0  0  0  0  0
  -29.0281  -18.1248   24.0244 S   0  0  0  0  0  0
  -31.4563  -12.4807   19.1494 H   0  0  0  0  0  0
  -30.3136  -11.4257   19.9310 H   0  0  0  0  0  0
  -29.7611  -11.7301   17.4909 H   0  0  0  0  0  0
  -29.6365  -13.4575   17.7230 H   0  0  0  0  0  0
  -27.8683  -11.2859   18.8945 H   0  0  0  0  0  0
  -27.3623  -12.5407   17.7949 H   0  0  0  0  0  0
  -27.6401  -14.2546   19.4722 H   0  0  0  0  0  0
  -28.7048  -12.1680   21.4357 H   0  0  0  0  0  0
  -28.4414  -13.8596   21.7788 H   0  0  0  0  0  0
  -25.2774   -9.5676   22.4755 H   0  0  0  0  0  0
  -24.0011   -7.4627   22.7476 H   0  0  0  0  0  0
  -21.0846   -8.8778   19.8951 H   0  0  0  0  0  0
  -22.3718  -10.9668   19.6166 H   0  0  0  0  0  0
  -21.2000   -7.6143   23.9707 H   0  0  0  0  0  0
  -21.1488   -6.0522   25.9073 H   0  0  0  0  0  0
  -22.0595   -2.7605   23.2855 H   0  0  0  0  0  0
  -22.4114  -11.9871   22.4801 H   0  0  0  0  0  0
  -21.1092  -13.1212   22.2639 H   0  0  0  0  0  0
  -24.6403  -15.8383   20.4951 H   0  0  0  0  0  0
  -26.2527  -15.6298   20.0393 H   0  0  0  0  0  0
  -26.7216  -32.5429   23.1112 H   0  0  0  0  0  0
  -25.0176  -33.9723   25.0489 H   0  0  0  0  0  0
  -22.7130  -31.3122   21.4169 H   0  0  0  0  0  0
  -23.3742  -35.9588   23.3282 H   0  0  0  0  0  0
  -24.3606  -36.8885   22.2058 H   0  0  0  0  0  0
  -23.7222  -37.6461   23.6660 H   0  0  0  0  0  0
  -26.1079  -31.5508   20.6204 H   0  0  0  0  0  0
  -26.8463  -30.8247   22.0162 H   0  0  0  0  0  0
  -28.1027  -28.9419   21.2083 H   0  0  0  0  0  0
  -25.8925  -25.9908   18.9164 H   0  0  0  0  0  0
  -23.9501  -27.3648   18.9761 H   0  0  0  0  0  0
  -23.7591  -30.6240   19.4148 H   0  0  0  0  0  0
  -22.7500  -29.2789   19.8506 H   0  0  0  0  0  0
  -25.1278  -36.1899   25.0822 H   0  0  0  0  0  0
  -20.9986  -28.3248   24.1426 H   0  0  0  0  0  0
  -20.5714  -26.2294   23.3606 H   0  0  0  0  0  0
  -21.6647  -26.7472   22.1187 H   0  0  0  0  0  0
  -19.6904  -25.6310   21.1242 H   0  0  0  0  0  0
  -19.6674  -27.3224   20.6766 H   0  0  0  0  0  0
  -17.4203  -26.6691   21.4035 H   0  0  0  0  0  0
  -18.0323  -26.0107   22.9048 H   0  0  0  0  0  0
  -19.7937  -30.7307   24.2225 H   0  0  0  0  0  0
  -17.5010  -31.6265   24.5185 H   0  0  0  0  0  0
  -15.5358  -30.2980   23.7670 H   0  0  0  0  0  0
  -15.8687  -28.0859   22.7013 H   0  0  0  0  0  0
  -24.5937  -30.7054   25.7815 H   0  0  0  0  0  0
  -24.8948  -32.2903   26.4870 H   0  0  0  0  0  0
  -25.8120  -30.8935   27.0243 H   0  0  0  0  0  0
  -26.2940  -29.6739   24.1219 H   0  0  0  0  0  0
  -27.4031  -29.7241   25.4709 H   0  0  0  0  0  0
  -27.8812  -30.4239   23.9438 H   0  0  0  0  0  0
  -27.2680  -33.3598   26.2085 H   0  0  0  0  0  0
  -28.3907  -32.6879   25.0363 H   0  0  0  0  0  0
  -28.0713  -31.8432   26.5438 H   0  0  0  0  0  0
  -28.2572  -38.0099   24.7540 H   0  0  0  0  0  0
  -28.1089  -36.2636   24.6251 H   0  0  0  0  0  0
  -27.2324  -37.1373   25.8884 H   0  0  0  0  0  0
  -20.9413  -29.8760   21.6899 H   0  0  0  0  0  0
  -26.0142  -38.2820   24.1449 H   0  0  0  0  0  0
  -31.4251  -18.6821   19.0477 H   0  0  0  0  0  0
  -30.7743  -20.9659   18.4686 H   0  0  0  0  0  0
  -27.8256  -20.9351   21.5902 H   0  0  0  0  0  0
  -26.6858  -23.8090   17.5587 H   0  0  0  0  0  0
  -28.0581  -23.7133   16.4878 H   0  0  0  0  0  0
  -27.8682  -25.9030   17.6947 H   0  0  0  0  0  0
  -29.4090  -25.1350   17.9259 H   0  0  0  0  0  0
  -28.7284  -23.6187   21.2779 H   0  0  0  0  0  0
  -30.0284  -24.0089   20.1853 H   0  0  0  0  0  0
  -27.1203  -24.7126   19.9110 H   0  0  0  0  0  0
  -30.0469  -20.3061   24.1774 H   0  0  0  0  0  0
  -31.1450  -19.1282   23.4180 H   0  0  0  0  0  0
  -30.8959  -19.1132   25.1725 H   0  0  0  0  0  0
  -27.4116  -18.9053   22.6334 H   0  0  0  0  0  0
  -29.0399  -15.8237   20.6127 H   0  0  0  0  0  0
  1 25  1  0  0  0
  1 30  2  0  0  0
  1 86  1  0  0  0
  2  3  1  0  0  0
  2 25  1  0  0  0
  2 92  1  0  0  0
  2 93  1  0  0  0
  3  4  1  0  0  0
  3 94  1  0  0  0
  3 95  1  0  0  0
  4  5  1  0  0  0
  4 96  1  0  0  0
  4 97  1  0  0  0
  5  6  1  0  0  0
  5 26  1  0  0  0
  5 98  1  0  0  0
  6 25  1  0  0  0
  6 99  1  0  0  0
  6100  1  0  0  0
  7  8  2  0  0  0
  7 26  1  0  0  0
  7 29  1  0  0  0
  8  9  1  0  0  0
  8 22  1  0  0  0
  9 10  1  0  0  0
  9 27  2  0  0  0
 10 11  2  0  0  0
 10 15  1  0  0  0
 11 12  1  0  0  0
 11101  1  0  0  0
 12 13  2  0  0  0
 12102  1  0  0  0
 13 14  1  0  0  0
 13 31  1  0  0  0
 14 15  2  0  0  0
 14103  1  0  0  0
 15104  1  0  0  0
 16 17  2  0  0  0
 16 21  1  0  0  0
 16 31  1  0  0  0
 17 18  1  0  0  0
 17105  1  0  0  0
 18 19  2  0  0  0
 18106  1  0  0  0
 19 20  1  0  0  0
 19 24  1  0  0  0
 20 21  2  0  0  0
 20107  1  0  0  0
 21 23  1  0  0  0
 22 28  1  0  0  0
 22 32  2  0  0  0
 26 27  1  0  0  0
 28108  1  0  0  0
 28109  1  0  0  0
 29110  1  0  0  0
 29111  1  0  0  0
 33 34  1  0  0  0
 33 66  1  0  0  0
 33 70  2  0  0  0
 34 36  1  0  0  0
 34 59  1  0  0  0
 34112  1  0  0  0
 35 44  2  0  0  0
 35 45  1  0  0  0
 35 68  1  0  0  0
 36 56  1  0  0  0
 36113  1  0  0  0
 37 39  1  0  0  0
 37 47  1  0  0  0
 37 66  1  0  0  0
 37114  1  0  0  0
 38 43  2  0  0  0
 38 46  1  0  0  0
 38 47  1  0  0  0
 39 64  1  0  0  0
 39 67  2  0  0  0
 40 52  1  0  0  0
 40 53  2  0  0  0
 40 58  1  0  0  0
 41115  1  0  0  0
 41116  1  0  0  0
 41117  1  0  0  0
 41 48  1  0  0  0
 42 43  1  0  0  0
 42 66  1  0  0  0
 42118  1  0  0  0
 42119  1  0  0  0
 43 44  1  0  0  0
 44120  1  0  0  0
 45 46  2  0  0  0
 45121  1  0  0  0
 46122  1  0  0  0
 47123  1  0  0  0
 47124  1  0  0  0
 48 56  1  0  0  0
 48 65  1  0  0  0
 48125  1  0  0  0
 49 50  1  0  0  0
 49 53  1  0  0  0
 49 64  1  0  0  0
 49126  1  0  0  0
 50 51  1  0  0  0
 50127  1  0  0  0
 50128  1  0  0  0
 51 52  1  0  0  0
 51129  1  0  0  0
 51130  1  0  0  0
 52131  1  0  0  0
 52132  1  0  0  0
 53 54  1  0  0  0
 54 55  2  0  0  0
 54133  1  0  0  0
 55 57  1  0  0  0
 55134  1  0  0  0
 56 69  2  0  0  0
 57 58  2  0  0  0
 57135  1  0  0  0
 58136  1  0  0  0
 59 60  1  0  0  0
 59 61  1  0  0  0
 59 62  1  0  0  0
 60137  1  0  0  0
 60138  1  0  0  0
 60139  1  0  0  0
 61140  1  0  0  0
 61141  1  0  0  0
 61142  1  0  0  0
 62143  1  0  0  0
 62144  1  0  0  0
 62145  1  0  0  0
 63 65  1  0  0  0
 63146  1  0  0  0
 63147  1  0  0  0
 63148  1  0  0  0
 64149  1  0  0  0
 65150  1  0  0  0
 68 82  1  0  0  0
 71 72  2  0  0  0
 71 74  1  0  0  0
 71151  1  0  0  0
 72 75  1  0  0  0
 72152  1  0  0  0
 73 75  2  0  0  0
 73 76  1  0  0  0
 73153  1  0  0  0
 74 76  2  0  0  0
 74 78  1  0  0  0
 75 84  1  0  0  0
 76 85  1  0  0  0
 77 79  1  0  0  0
 77 84  1  0  0  0
 77 87  2  0  0  0
 78 86  1  0  0  0
 78 88  2  0  0  0
 79 80  1  0  0  0
 79154  1  0  0  0
 79155  1  0  0  0
 80 82  1  0  0  0
 80156  1  0  0  0
 80157  1  0  0  0
 81 82  1  0  0  0
 81 84  1  0  0  0
 81158  1  0  0  0
 81159  1  0  0  0
 82160  1  0  0  0
 83161  1  0  0  0
 83162  1  0  0  0
 83163  1  0  0  0
 83 91  1  0  0  0
 85 91  1  0  0  0
 85164  1  0  0  0
 86165  1  0  0  0
 89 91  2  0  0  0
 90 91  2  0  0  0
M  ISO  4   1 100  68 101  82 101  86 100
M  END
> <chiral flag>
0

> <version>
0

> <s_m_source_file>
/data/baiqing/PycharmProjects/Reinvent-master-3.2/result/LINK_invent/BTK/process_docking_weight1_custom_product_contain_oxygen_bond_distance_aromatic_linkinvent_7_9_3/rearranged_h_0067.sdf

> <i_m_source_file_index>
35

> <r_mmod_Potential_Energy-OPLS-2005>
-48.2700157165527

> <r_mmod_Stretch_Energy-OPLS-2005>
91.8740921020508

> <r_mmod_Bend_Energy-OPLS-2005>
166.306350708008

> <r_mmod_Torsional_Energy-OPLS-2005>
329.789428710938

> <r_mmod_Improper_Torsional_Energy-OPLS-2005>
11.2779264450073

> <r_mmod_Van_der_Waal_Energy-OPLS-2005>
160.095932006836

> <r_mmod_Electrostatic_Energy-OPLS-2005>
-598.583068847656

> <r_mmod_Solvation_Energy-OPLS-2005>
-269.353912353516

> <b_mmod_Minimization_Converged-OPLS-2005>
0

> <r_mmod_RMS_Derivative-OPLS-2005>
2.18789649009705

$$$$
35
                    3D
 Structure written by MMmdl.
156165  0  0  1  0            999 V2000
  -30.5865  -14.6497   20.5142 C   0  0  0  0  0  0
  -30.4411  -12.4045   19.4507 C   0  0  0  0  0  0
  -29.5093  -12.5205   18.2220 C   0  0  0  0  0  0
  -28.0301  -12.3494   18.6263 C   0  0  0  0  0  0
  -27.6502  -13.2087   19.8624 C   0  0  2  0  0  0
  -28.6912  -13.0464   20.9926 C   0  0  0  0  0  0
  -25.2533  -13.8128   20.5604 C   0  0  0  0  0  0
  -24.1809  -13.0426   20.9182 C   0  0  0  0  0  0
  -24.6364  -11.6891   20.8733 C   0  0  0  0  0  0
  -23.9027  -10.4289   21.0409 C   0  0  0  0  0  0
  -24.3590   -9.4220   21.9186 C   0  0  0  0  0  0
  -23.6287   -8.2241   22.0748 C   0  0  0  0  0  0
  -22.4268   -8.0267   21.3539 C   0  0  0  0  0  0
  -21.9892   -9.0236   20.4640 C   0  0  0  0  0  0
  -22.7196  -10.2130   20.3062 C   0  0  0  0  0  0
  -21.6853   -6.0734   22.5285 C   0  0  0  0  0  0
  -21.4008   -6.5637   23.8215 C   0  0  0  0  0  0
  -21.3660   -5.6794   24.9180 C   0  0  0  0  0  0
  -21.6051   -4.3057   24.7232 C   0  0  0  0  0  0
  -21.8812   -3.8146   23.4351 C   0  0  0  0  0  0
  -21.9190   -4.6964   22.3410 C   0  0  0  0  0  0
  -22.7837  -13.5246   21.1863 C   0  0  0  0  0  0
  -22.1659   -4.2152   21.0985 F   0  0  0  0  0  0
  -21.5639   -3.4540   25.7743 F   0  0  0  0  0  0
  -30.0052  -13.4107   20.4393 N   0  0  0  0  0  0
  -26.2953  -12.9294   20.3273 N   0  0  0  0  0  0
  -25.9287  -11.6465   20.5739 N   0  0  0  0  0  0
  -22.0467  -12.8255   22.0408 N   0  0  0  0  0  0
  -25.4215  -15.1823   20.3850 N   0  0  0  0  0  0
  -31.7412  -14.8347   20.1134 O   0  0  0  0  0  0
  -21.6638   -6.8866   21.4241 O   0  0  0  0  0  0
  -22.3540  -14.5570   20.6717 O   0  0  0  0  0  0
  -24.6263  -31.8630   23.1995 C   0  0  0  0  0  0
  -25.9130  -32.4791   23.8305 C   0  0  1  0  0  0
  -27.2125  -27.3226   20.1143 C   0  0  0  0  0  0
  -25.5945  -33.8583   24.2250 N   0  0  0  0  0  0
  -23.4169  -30.4916   21.5424 C   0  0  2  0  0  0
  -24.8605  -28.9493   20.1077 C   0  0  0  0  0  0
  -22.7464  -29.4667   22.4886 C   0  0  0  0  0  0
  -18.0309  -28.1381   22.8464 C   0  0  0  0  0  0
  -24.1509  -36.7274   23.2635 C   0  0  0  0  0  0
  -25.9602  -30.7942   21.3722 C   0  0  0  0  0  0
  -26.0316  -29.4241   20.7120 C   0  0  0  0  0  0
  -27.2112  -28.6231   20.7060 C   0  0  0  0  0  0
  -26.0203  -26.9094   19.4738 C   0  0  0  0  0  0
  -24.8571  -27.6962   19.4806 C   0  0  0  0  0  0
  -23.6304  -29.8296   20.1566 C   0  0  0  0  0  0
  -25.4133  -36.3077   24.0330 C   0  0  1  0  0  0
  -20.5909  -28.3700   23.1248 C   0  0  2  0  0  0
  -20.6807  -26.9418   22.5394 C   0  0  0  0  0  0
  -19.5790  -26.6375   21.5196 C   0  0  0  0  0  0
  -18.1964  -26.7923   22.1604 C   0  0  0  0  0  0
  -19.1560  -28.8848   23.2862 C   0  0  0  0  0  0
  -18.9495  -30.1447   23.8895 C   0  0  0  0  0  0
  -17.6498  -30.6584   24.0559 C   0  0  0  0  0  0
  -25.9072  -34.9460   23.5084 C   0  0  0  0  0  0
  -16.5384  -29.9090   23.6330 C   0  0  0  0  0  0
  -16.7296  -28.6507   23.0338 C   0  0  0  0  0  0
  -26.4506  -31.6587   25.0667 C   0  0  0  0  0  0
  -25.3707  -31.3756   26.1358 C   0  0  0  0  0  0
  -27.0342  -30.3012   24.6113 C   0  0  0  0  0  0
  -27.6074  -32.4295   25.7446 C   0  0  0  0  0  0
  -27.5593  -37.1783   24.8465 C   0  0  0  0  0  0
  -21.4183  -29.3064   22.3626 N   0  0  0  0  0  0
  -26.4303  -37.3774   23.9413 N   0  0  0  0  0  0
  -24.6864  -31.0664   22.0934 N   0  0  0  0  0  0
  -23.4194  -28.8209   23.2966 O   0  0  0  0  0  0
  -28.3141  -26.4542   20.1866 O   0  0  0  0  0  0
  -26.5637  -34.8937   22.4649 O   0  0  0  0  0  0
  -23.5432  -32.1408   23.7342 O   0  0  0  0  0  0
  -30.7604  -19.2660   19.9704 C   0  0  0  0  0  0
  -30.7964  -17.8471   20.1093 C   0  0  0  0  0  0
  -28.6854  -19.3504   21.1557 C   0  0  0  0  0  0
  -28.7096  -17.9261   21.3060 C   0  0  0  0  0  0
  -29.7024  -20.0792   20.4816 C   0  0  0  0  0  0
  -29.7768  -17.1270   20.7820 C   0  0  0  0  0  0
  -30.5294  -22.3509   19.6003 C   0  0  0  0  0  0
  -28.5790  -22.4445   20.8448 C   0  0  0  0  0  0
  -29.0782  -23.9179   20.6048 C   0  0  2  0  0  0
  -27.5423  -17.2966   22.0566 C   0  0  0  0  0  0
  -28.0356  -24.9994   20.0819 C   0  0  0  0  0  0
  -29.6450  -21.5552   20.3360 N   0  0  0  0  0  0
  -29.7586  -15.6656   20.9264 N   0  0  0  0  0  0
  -31.5167  -22.0133   18.9467 O   0  0  0  0  0  0
  -30.1234  -23.6460   19.6832 O   0  0  0  0  0  0
  -31.4814  -12.5484   19.1520 H   0  0  0  0  0  0
  -30.3913  -11.4043   19.8834 H   0  0  0  0  0  0
  -29.7827  -11.7778   17.4712 H   0  0  0  0  0  0
  -29.6437  -13.4946   17.7487 H   0  0  0  0  0  0
  -27.8645  -11.2931   18.8406 H   0  0  0  0  0  0
  -27.3804  -12.5921   17.7836 H   0  0  0  0  0  0
  -27.6718  -14.2467   19.5316 H   0  0  0  0  0  0
  -28.7106  -12.0147   21.3477 H   0  0  0  0  0  0
  -28.4268  -13.6508   21.8615 H   0  0  0  0  0  0
  -25.2725   -9.5728   22.4767 H   0  0  0  0  0  0
  -24.0015   -7.4643   22.7462 H   0  0  0  0  0  0
  -21.0826   -8.8731   19.8944 H   0  0  0  0  0  0
  -22.3623  -10.9672   19.6185 H   0  0  0  0  0  0
  -21.1981   -7.6142   23.9731 H   0  0  0  0  0  0
  -21.1494   -6.0515   25.9089 H   0  0  0  0  0  0
  -22.0585   -2.7609   23.2850 H   0  0  0  0  0  0
  -22.4047  -11.9903   22.4803 H   0  0  0  0  0  0
  -21.1092  -13.1312   22.2626 H   0  0  0  0  0  0
  -24.6349  -15.8194   20.4376 H   0  0  0  0  0  0
  -26.2422  -15.6032   19.9677 H   0  0  0  0  0  0
  -26.7194  -32.5474   23.1041 H   0  0  0  0  0  0
  -25.0113  -33.9733   25.0404 H   0  0  0  0  0  0
  -22.7112  -31.3131   21.4005 H   0  0  0  0  0  0
  -23.3791  -35.9586   23.3288 H   0  0  0  0  0  0
  -24.3598  -36.8889   22.2050 H   0  0  0  0  0  0
  -23.7253  -37.6466   23.6659 H   0  0  0  0  0  0
  -26.1019  -31.5596   20.6082 H   0  0  0  0  0  0
  -26.8362  -30.8314   22.0080 H   0  0  0  0  0  0
  -28.1068  -28.9819   21.1947 H   0  0  0  0  0  0
  -25.9499  -25.9566   18.9709 H   0  0  0  0  0  0
  -23.9590  -27.3265   19.0046 H   0  0  0  0  0  0
  -23.7515  -30.6054   19.4001 H   0  0  0  0  0  0
  -22.7499  -29.2607   19.8518 H   0  0  0  0  0  0
  -25.1326  -36.1908   25.0824 H   0  0  0  0  0  0
  -21.0023  -28.3302   24.1355 H   0  0  0  0  0  0
  -20.5709  -26.2319   23.3601 H   0  0  0  0  0  0
  -21.6685  -26.7448   22.1194 H   0  0  0  0  0  0
  -19.6969  -25.6282   21.1242 H   0  0  0  0  0  0
  -19.6751  -27.3176   20.6720 H   0  0  0  0  0  0
  -17.4236  -26.6654   21.4005 H   0  0  0  0  0  0
  -18.0378  -26.0056   22.9000 H   0  0  0  0  0  0
  -19.7982  -30.7250   24.2256 H   0  0  0  0  0  0
  -17.5072  -31.6272   24.5155 H   0  0  0  0  0  0
  -15.5395  -30.3005   23.7654 H   0  0  0  0  0  0
  -15.8688  -28.0844   22.7047 H   0  0  0  0  0  0
  -24.5901  -30.7110   25.7636 H   0  0  0  0  0  0
  -24.8894  -32.2955   26.4697 H   0  0  0  0  0  0
  -25.7969  -30.8955   27.0174 H   0  0  0  0  0  0
  -26.2908  -29.6754   24.1165 H   0  0  0  0  0  0
  -27.4088  -29.7279   25.4599 H   0  0  0  0  0  0
  -27.8758  -30.4301   23.9300 H   0  0  0  0  0  0
  -27.2710  -33.3604   26.2022 H   0  0  0  0  0  0
  -28.3896  -32.6820   25.0273 H   0  0  0  0  0  0
  -28.0724  -31.8403   26.5359 H   0  0  0  0  0  0
  -28.2587  -38.0100   24.7532 H   0  0  0  0  0  0
  -28.1112  -36.2628   24.6269 H   0  0  0  0  0  0
  -27.2308  -37.1397   25.8865 H   0  0  0  0  0  0
  -20.9333  -29.8764   21.6828 H   0  0  0  0  0  0
  -26.0183  -38.2844   24.1422 H   0  0  0  0  0  0
  -31.5926  -19.7040   19.4444 H   0  0  0  0  0  0
  -31.6305  -17.3162   19.6756 H   0  0  0  0  0  0
  -27.8502  -19.8937   21.5738 H   0  0  0  0  0  0
  -27.6594  -22.2524   20.2907 H   0  0  0  0  0  0
  -28.3748  -22.2721   21.9028 H   0  0  0  0  0  0
  -29.5300  -24.2860   21.5265 H   0  0  0  0  0  0
  -27.5213  -17.6544   23.0861 H   0  0  0  0  0  0
  -27.5711  -16.2091   22.0923 H   0  0  0  0  0  0
  -26.5966  -17.5808   21.5928 H   0  0  0  0  0  0
  -27.1281  -24.8094   20.6573 H   0  0  0  0  0  0
  -27.7970  -24.7613   19.0450 H   0  0  0  0  0  0
  -28.8922  -15.3074   21.2970 H   0  0  0  0  0  0
  1 25  1  0  0  0
  1 30  2  0  0  0
  1 83  1  0  0  0
  2  3  1  0  0  0
  2 25  1  0  0  0
  2 86  1  0  0  0
  2 87  1  0  0  0
  3  4  1  0  0  0
  3 88  1  0  0  0
  3 89  1  0  0  0
  4  5  1  0  0  0
  4 90  1  0  0  0
  4 91  1  0  0  0
  5  6  1  0  0  0
  5 26  1  0  0  0
  5 92  1  0  0  0
  6 25  1  0  0  0
  6 93  1  0  0  0
  6 94  1  0  0  0
  7  8  2  0  0  0
  7 26  1  0  0  0
  7 29  1  0  0  0
  8  9  1  0  0  0
  8 22  1  0  0  0
  9 10  1  0  0  0
  9 27  2  0  0  0
 10 11  2  0  0  0
 10 15  1  0  0  0
 11 12  1  0  0  0
 11 95  1  0  0  0
 12 13  2  0  0  0
 12 96  1  0  0  0
 13 14  1  0  0  0
 13 31  1  0  0  0
 14 15  2  0  0  0
 14 97  1  0  0  0
 15 98  1  0  0  0
 16 17  2  0  0  0
 16 21  1  0  0  0
 16 31  1  0  0  0
 17 18  1  0  0  0
 17 99  1  0  0  0
 18 19  2  0  0  0
 18100  1  0  0  0
 19 20  1  0  0  0
 19 24  1  0  0  0
 20 21  2  0  0  0
 20101  1  0  0  0
 21 23  1  0  0  0
 22 28  1  0  0  0
 22 32  2  0  0  0
 26 27  1  0  0  0
 28102  1  0  0  0
 28103  1  0  0  0
 29104  1  0  0  0
 29105  1  0  0  0
 33 34  1  0  0  0
 33 66  1  0  0  0
 33 70  2  0  0  0
 34 36  1  0  0  0
 34 59  1  0  0  0
 34106  1  0  0  0
 35 44  2  0  0  0
 35 45  1  0  0  0
 35 68  1  0  0  0
 36 56  1  0  0  0
 36107  1  0  0  0
 37 39  1  0  0  0
 37 47  1  0  0  0
 37 66  1  0  0  0
 37108  1  0  0  0
 38 43  2  0  0  0
 38 46  1  0  0  0
 38 47  1  0  0  0
 39 64  1  0  0  0
 39 67  2  0  0  0
 40 52  1  0  0  0
 40 53  2  0  0  0
 40 58  1  0  0  0
 41109  1  0  0  0
 41110  1  0  0  0
 41111  1  0  0  0
 41 48  1  0  0  0
 42 43  1  0  0  0
 42 66  1  0  0  0
 42112  1  0  0  0
 42113  1  0  0  0
 43 44  1  0  0  0
 44114  1  0  0  0
 45 46  2  0  0  0
 45115  1  0  0  0
 46116  1  0  0  0
 47117  1  0  0  0
 47118  1  0  0  0
 48 56  1  0  0  0
 48 65  1  0  0  0
 48119  1  0  0  0
 49 50  1  0  0  0
 49 53  1  0  0  0
 49 64  1  0  0  0
 49120  1  0  0  0
 50 51  1  0  0  0
 50121  1  0  0  0
 50122  1  0  0  0
 51 52  1  0  0  0
 51123  1  0  0  0
 51124  1  0  0  0
 52125  1  0  0  0
 52126  1  0  0  0
 53 54  1  0  0  0
 54 55  2  0  0  0
 54127  1  0  0  0
 55 57  1  0  0  0
 55128  1  0  0  0
 56 69  2  0  0  0
 57 58  2  0  0  0
 57129  1  0  0  0
 58130  1  0  0  0
 59 60  1  0  0  0
 59 61  1  0  0  0
 59 62  1  0  0  0
 60131  1  0  0  0
 60132  1  0  0  0
 60133  1  0  0  0
 61134  1  0  0  0
 61135  1  0  0  0
 61136  1  0  0  0
 62137  1  0  0  0
 62138  1  0  0  0
 62139  1  0  0  0
 63 65  1  0  0  0
 63140  1  0  0  0
 63141  1  0  0  0
 63142  1  0  0  0
 64143  1  0  0  0
 65144  1  0  0  0
 68 81  1  0  0  0
 71 72  2  0  0  0
 71 75  1  0  0  0
 71145  1  0  0  0
 72 76  1  0  0  0
 72146  1  0  0  0
 73 74  1  0  0  0
 73 75  2  0  0  0
 73147  1  0  0  0
 74 76  2  0  0  0
 74 80  1  0  0  0
 75 82  1  0  0  0
 76 83  1  0  0  0
 77 82  1  0  0  0
 77 84  2  0  0  0
 77 85  1  0  0  0
 78 79  1  0  0  0
 78 82  1  0  0  0
 78148  1  0  0  0
 78149  1  0  0  0
 79 81  1  0  0  0
 79 85  1  0  0  0
 79150  1  0  0  0
 80151  1  0  0  0
 80152  1  0  0  0
 80153  1  0  0  0
 81154  1  0  0  0
 81155  1  0  0  0
 83156  1  0  0  0
M  ISO  4   1 100  68 101  81 101  83 100
M  END
> <chiral flag>
0

> <version>
0

> <s_m_source_file>
/data/baiqing/PycharmProjects/Reinvent-master-3.2/result/LINK_invent/BTK/process_docking_weight1_custom_product_contain_oxygen_bond_distance_aromatic_linkinvent_7_9_3/rearranged_h_0067.sdf

> <i_m_source_file_index>
36

> <r_mmod_Potential_Energy-OPLS-2005>
45.5417900085449

> <r_mmod_Stretch_Energy-OPLS-2005>
81.9648208618164

> <r_mmod_Bend_Energy-OPLS-2005>
161.545181274414

> <r_mmod_Torsional_Energy-OPLS-2005>
229.897186279297

> <r_mmod_Improper_Torsional_Energy-OPLS-2005>
4.24250984191895

> <r_mmod_Van_der_Waal_Energy-OPLS-2005>
150.788146972656

> <r_mmod_Electrostatic_Energy-OPLS-2005>
-409.764770507812

> <r_mmod_Solvation_Energy-OPLS-2005>
-225.676864624023

> <b_mmod_Minimization_Converged-OPLS-2005>
0

> <r_mmod_RMS_Derivative-OPLS-2005>
2.15005898475647

$$$$
36
                    3D
 Structure written by MMmdl.
155163  0  0  1  0            999 V2000
  -30.6022  -14.6049   20.5384 C   0  0  0  0  0  0
  -30.4506  -12.3721   19.4507 C   0  0  0  0  0  0
  -29.5130  -12.4865   18.2280 C   0  0  0  0  0  0
  -28.0409  -12.2911   18.6566 C   0  0  0  0  0  0
  -27.6547  -13.1865   19.8644 C   0  0  2  0  0  0
  -28.6959  -13.0301   20.9946 C   0  0  0  0  0  0
  -25.2623  -13.8096   20.5693 C   0  0  0  0  0  0
  -24.1861  -13.0425   20.9195 C   0  0  0  0  0  0
  -24.6370  -11.6876   20.8765 C   0  0  0  0  0  0
  -23.9018  -10.4295   21.0468 C   0  0  0  0  0  0
  -24.3587   -9.4202   21.9232 C   0  0  0  0  0  0
  -23.6286   -8.2226   22.0759 C   0  0  0  0  0  0
  -22.4269   -8.0275   21.3551 C   0  0  0  0  0  0
  -21.9908   -9.0242   20.4650 C   0  0  0  0  0  0
  -22.7209  -10.2128   20.3096 C   0  0  0  0  0  0
  -21.6820   -6.0740   22.5282 C   0  0  0  0  0  0
  -21.3995   -6.5654   23.8213 C   0  0  0  0  0  0
  -21.3665   -5.6809   24.9184 C   0  0  0  0  0  0
  -21.6043   -4.3072   24.7233 C   0  0  0  0  0  0
  -21.8823   -3.8161   23.4361 C   0  0  0  0  0  0
  -21.9193   -4.6977   22.3416 C   0  0  0  0  0  0
  -22.7888  -13.5251   21.1860 C   0  0  0  0  0  0
  -22.1654   -4.2167   21.0990 F   0  0  0  0  0  0
  -21.5646   -3.4555   25.7747 F   0  0  0  0  0  0
  -30.0086  -13.3794   20.4292 N   0  0  0  0  0  0
  -26.2996  -12.9197   20.3310 N   0  0  0  0  0  0
  -25.9281  -11.6395   20.5757 N   0  0  0  0  0  0
  -22.0510  -12.8258   22.0395 N   0  0  0  0  0  0
  -25.4446  -15.1822   20.4071 N   0  0  0  0  0  0
  -31.7881  -14.7900   20.2492 O   0  0  0  0  0  0
  -21.6618   -6.8883   21.4245 O   0  0  0  0  0  0
  -22.3607  -14.5577   20.6707 O   0  0  0  0  0  0
  -24.6260  -31.8594   23.2059 C   0  0  0  0  0  0
  -25.9131  -32.4767   23.8374 C   0  0  1  0  0  0
  -27.2419  -27.3539   20.1178 C   0  0  0  0  0  0
  -25.5931  -33.8561   24.2302 N   0  0  0  0  0  0
  -23.4206  -30.4847   21.5409 C   0  0  2  0  0  0
  -24.8722  -28.9368   20.1160 C   0  0  0  0  0  0
  -22.7446  -29.4663   22.4903 C   0  0  0  0  0  0
  -18.0299  -28.1376   22.8484 C   0  0  0  0  0  0
  -24.1486  -36.7306   23.2628 C   0  0  0  0  0  0
  -25.9586  -30.8008   21.3717 C   0  0  0  0  0  0
  -26.0390  -29.4283   20.7191 C   0  0  0  0  0  0
  -27.2283  -28.6467   20.7145 C   0  0  0  0  0  0
  -26.0602  -26.9017   19.4938 C   0  0  0  0  0  0
  -24.8834  -27.6763   19.4971 C   0  0  0  0  0  0
  -23.6385  -29.8128   20.1601 C   0  0  0  0  0  0
  -25.4105  -36.3080   24.0326 C   0  0  1  0  0  0
  -20.5881  -28.3744   23.1261 C   0  0  2  0  0  0
  -20.6814  -26.9383   22.5573 C   0  0  0  0  0  0
  -19.5787  -26.6130   21.5463 C   0  0  0  0  0  0
  -18.1978  -26.7783   22.1908 C   0  0  0  0  0  0
  -19.1537  -28.8902   23.2825 C   0  0  0  0  0  0
  -18.9459  -30.1541   23.8752 C   0  0  0  0  0  0
  -17.6448  -30.6628   24.0444 C   0  0  0  0  0  0
  -25.9031  -34.9440   23.5113 C   0  0  0  0  0  0
  -16.5362  -29.9054   23.6314 C   0  0  0  0  0  0
  -16.7293  -28.6474   23.0325 C   0  0  0  0  0  0
  -26.4533  -31.6575   25.0736 C   0  0  0  0  0  0
  -25.3798  -31.3703   26.1495 C   0  0  0  0  0  0
  -27.0333  -30.2998   24.6155 C   0  0  0  0  0  0
  -27.6094  -32.4308   25.7503 C   0  0  0  0  0  0
  -27.5574  -37.1810   24.8458 C   0  0  0  0  0  0
  -21.4171  -29.3043   22.3596 N   0  0  0  0  0  0
  -26.4284  -37.3778   23.9405 N   0  0  0  0  0  0
  -24.6857  -31.0656   22.0964 N   0  0  0  0  0  0
  -23.4158  -28.8238   23.3016 O   0  0  0  0  0  0
  -28.3507  -26.5089   20.1399 O   0  0  0  0  0  0
  -26.5593  -34.8914   22.4674 O   0  0  0  0  0  0
  -23.5431  -32.1364   23.7419 O   0  0  0  0  0  0
  -29.5145  -18.1836   23.3701 C   0  0  0  0  0  0
  -29.6715  -16.9638   22.6850 C   0  0  0  0  0  0
  -29.4534  -19.3992   22.6632 C   0  0  0  0  0  0
  -29.7342  -18.1761   20.5631 C   0  0  0  0  0  0
  -29.7948  -16.9293   21.2776 C   0  0  0  0  0  0
  -29.5540  -19.4203   21.2573 C   0  0  0  0  0  0
  -28.2383  -21.4376   20.6528 C   0  0  0  0  0  0
  -28.8488  -23.9629   20.4788 C   0  0  0  0  0  0
  -26.9763  -20.6262   20.7879 C   0  0  0  0  0  0
  -28.1650  -25.2988   20.9559 C   0  0  0  0  0  0
  -29.7122  -15.6375   20.6309 N   0  0  0  0  0  0
  -28.0026  -22.7933   20.6228 N   0  0  0  0  0  0
  -29.4312  -20.7521   20.6210 N   0  3  0  0  0  0
  -30.0283  -23.8692   20.1128 O   0  0  0  0  0  0
  -31.4929  -12.5158   19.1594 H   0  0  0  0  0  0
  -30.3882  -11.3738   19.8892 H   0  0  0  0  0  0
  -29.7846  -11.7455   17.4736 H   0  0  0  0  0  0
  -29.6333  -13.4640   17.7592 H   0  0  0  0  0  0
  -27.9283  -11.2417   18.9374 H   0  0  0  0  0  0
  -27.3672  -12.4494   17.8155 H   0  0  0  0  0  0
  -27.6738  -14.2150   19.5079 H   0  0  0  0  0  0
  -28.7052  -12.0036   21.3659 H   0  0  0  0  0  0
  -28.4402  -13.6451   21.8591 H   0  0  0  0  0  0
  -25.2741   -9.5679   22.4787 H   0  0  0  0  0  0
  -24.0007   -7.4622   22.7474 H   0  0  0  0  0  0
  -21.0838   -8.8792   19.8935 H   0  0  0  0  0  0
  -22.3721  -10.9695   19.6207 H   0  0  0  0  0  0
  -21.1954   -7.6157   23.9726 H   0  0  0  0  0  0
  -21.1476   -6.0534   25.9086 H   0  0  0  0  0  0
  -22.0590   -2.7628   23.2852 H   0  0  0  0  0  0
  -22.4048  -11.9875   22.4776 H   0  0  0  0  0  0
  -21.1142  -13.1325   22.2594 H   0  0  0  0  0  0
  -24.6887  -15.8476   20.5226 H   0  0  0  0  0  0
  -26.2916  -15.6157   20.0637 H   0  0  0  0  0  0
  -26.7196  -32.5478   23.1121 H   0  0  0  0  0  0
  -25.0114  -33.9691   25.0475 H   0  0  0  0  0  0
  -22.7147  -31.3057   21.3925 H   0  0  0  0  0  0
  -23.3716  -35.9668   23.3299 H   0  0  0  0  0  0
  -24.3570  -36.8922   22.2035 H   0  0  0  0  0  0
  -23.7270  -37.6539   23.6628 H   0  0  0  0  0  0
  -26.0853  -31.5594   20.5976 H   0  0  0  0  0  0
  -26.8434  -30.8564   21.9951 H   0  0  0  0  0  0
  -28.1243  -29.0123   21.1966 H   0  0  0  0  0  0
  -26.0405  -25.9326   19.0130 H   0  0  0  0  0  0
  -23.9912  -27.2956   19.0193 H   0  0  0  0  0  0
  -23.7629  -30.5842   19.4001 H   0  0  0  0  0  0
  -22.7625  -29.2418   19.8502 H   0  0  0  0  0  0
  -25.1276  -36.1938   25.0813 H   0  0  0  0  0  0
  -20.9921  -28.3451   24.1385 H   0  0  0  0  0  0
  -20.5648  -26.2449   23.3915 H   0  0  0  0  0  0
  -21.6725  -26.7296   22.1477 H   0  0  0  0  0  0
  -19.6933  -25.5885   21.1867 H   0  0  0  0  0  0
  -19.6685  -27.2666   20.6798 H   0  0  0  0  0  0
  -17.4193  -26.6136   21.4459 H   0  0  0  0  0  0
  -18.0531  -26.0183   22.9607 H   0  0  0  0  0  0
  -19.7905  -30.7462   24.1992 H   0  0  0  0  0  0
  -17.4955  -31.6362   24.4899 H   0  0  0  0  0  0
  -15.5366  -30.2894   23.7736 H   0  0  0  0  0  0
  -15.8678  -28.0777   22.7111 H   0  0  0  0  0  0
  -24.5976  -30.7025   25.7882 H   0  0  0  0  0  0
  -24.8967  -32.2841   26.4951 H   0  0  0  0  0  0
  -25.8168  -30.8904   27.0267 H   0  0  0  0  0  0
  -26.2856  -29.6765   24.1224 H   0  0  0  0  0  0
  -27.4094  -29.7258   25.4644 H   0  0  0  0  0  0
  -27.8736  -30.4298   23.9330 H   0  0  0  0  0  0
  -27.2707  -33.3599   26.2125 H   0  0  0  0  0  0
  -28.3900  -32.6893   25.0322 H   0  0  0  0  0  0
  -28.0789  -31.8404   26.5393 H   0  0  0  0  0  0
  -28.2611  -38.0095   24.7482 H   0  0  0  0  0  0
  -28.1054  -36.2611   24.6298 H   0  0  0  0  0  0
  -27.2289  -37.1521   25.8870 H   0  0  0  0  0  0
  -20.9361  -29.8674   21.6744 H   0  0  0  0  0  0
  -26.0160  -38.2870   24.1360 H   0  0  0  0  0  0
  -29.3956  -18.1855   24.4442 H   0  0  0  0  0  0
  -29.6441  -16.0424   23.2539 H   0  0  0  0  0  0
  -29.3140  -20.3181   23.2134 H   0  0  0  0  0  0
  -29.7684  -18.1642   19.4838 H   0  0  0  0  0  0
  -26.8892  -20.1987   21.7856 H   0  0  0  0  0  0
  -26.0892  -21.2355   20.6165 H   0  0  0  0  0  0
  -26.9578  -19.8264   20.0474 H   0  0  0  0  0  0
  -28.5633  -25.5093   21.9507 H   0  0  0  0  0  0
  -27.1072  -25.0833   21.1163 H   0  0  0  0  0  0
  -28.7677  -15.3090   20.5202 H   0  0  0  0  0  0
  -27.0296  -22.9651   20.8165 H   0  0  0  0  0  0
  -30.2237  -21.1714   20.1497 H   0  0  0  0  0  0
  1 25  1  0  0  0
  1 30  2  0  0  0
  1 81  1  0  0  0
  2  3  1  0  0  0
  2 25  1  0  0  0
  2 85  1  0  0  0
  2 86  1  0  0  0
  3  4  1  0  0  0
  3 87  1  0  0  0
  3 88  1  0  0  0
  4  5  1  0  0  0
  4 89  1  0  0  0
  4 90  1  0  0  0
  5  6  1  0  0  0
  5 26  1  0  0  0
  5 91  1  0  0  0
  6 25  1  0  0  0
  6 92  1  0  0  0
  6 93  1  0  0  0
  7  8  2  0  0  0
  7 26  1  0  0  0
  7 29  1  0  0  0
  8  9  1  0  0  0
  8 22  1  0  0  0
  9 10  1  0  0  0
  9 27  2  0  0  0
 10 11  2  0  0  0
 10 15  1  0  0  0
 11 12  1  0  0  0
 11 94  1  0  0  0
 12 13  2  0  0  0
 12 95  1  0  0  0
 13 14  1  0  0  0
 13 31  1  0  0  0
 14 15  2  0  0  0
 14 96  1  0  0  0
 15 97  1  0  0  0
 16 17  2  0  0  0
 16 21  1  0  0  0
 16 31  1  0  0  0
 17 18  1  0  0  0
 17 98  1  0  0  0
 18 19  2  0  0  0
 18 99  1  0  0  0
 19 20  1  0  0  0
 19 24  1  0  0  0
 20 21  2  0  0  0
 20100  1  0  0  0
 21 23  1  0  0  0
 22 28  1  0  0  0
 22 32  2  0  0  0
 26 27  1  0  0  0
 28101  1  0  0  0
 28102  1  0  0  0
 29103  1  0  0  0
 29104  1  0  0  0
 33 34  1  0  0  0
 33 66  1  0  0  0
 33 70  2  0  0  0
 34 36  1  0  0  0
 34 59  1  0  0  0
 34105  1  0  0  0
 35 44  2  0  0  0
 35 45  1  0  0  0
 35 68  1  0  0  0
 36 56  1  0  0  0
 36106  1  0  0  0
 37 39  1  0  0  0
 37 47  1  0  0  0
 37 66  1  0  0  0
 37107  1  0  0  0
 38 43  2  0  0  0
 38 46  1  0  0  0
 38 47  1  0  0  0
 39 64  1  0  0  0
 39 67  2  0  0  0
 40 52  1  0  0  0
 40 53  2  0  0  0
 40 58  1  0  0  0
 41108  1  0  0  0
 41109  1  0  0  0
 41110  1  0  0  0
 41 48  1  0  0  0
 42 43  1  0  0  0
 42 66  1  0  0  0
 42111  1  0  0  0
 42112  1  0  0  0
 43 44  1  0  0  0
 44113  1  0  0  0
 45 46  2  0  0  0
 45114  1  0  0  0
 46115  1  0  0  0
 47116  1  0  0  0
 47117  1  0  0  0
 48 56  1  0  0  0
 48 65  1  0  0  0
 48118  1  0  0  0
 49 50  1  0  0  0
 49 53  1  0  0  0
 49 64  1  0  0  0
 49119  1  0  0  0
 50 51  1  0  0  0
 50120  1  0  0  0
 50121  1  0  0  0
 51 52  1  0  0  0
 51122  1  0  0  0
 51123  1  0  0  0
 52124  1  0  0  0
 52125  1  0  0  0
 53 54  1  0  0  0
 54 55  2  0  0  0
 54126  1  0  0  0
 55 57  1  0  0  0
 55127  1  0  0  0
 56 69  2  0  0  0
 57 58  2  0  0  0
 57128  1  0  0  0
 58129  1  0  0  0
 59 60  1  0  0  0
 59 61  1  0  0  0
 59 62  1  0  0  0
 60130  1  0  0  0
 60131  1  0  0  0
 60132  1  0  0  0
 61133  1  0  0  0
 61134  1  0  0  0
 61135  1  0  0  0
 62136  1  0  0  0
 62137  1  0  0  0
 62138  1  0  0  0
 63 65  1  0  0  0
 63139  1  0  0  0
 63140  1  0  0  0
 63141  1  0  0  0
 64142  1  0  0  0
 65143  1  0  0  0
 68 80  1  0  0  0
 71 72  2  0  0  0
 71 73  1  0  0  0
 71144  1  0  0  0
 72 75  1  0  0  0
 72145  1  0  0  0
 73 76  2  0  0  0
 73146  1  0  0  0
 74 75  2  0  0  0
 74 76  1  0  0  0
 74147  1  0  0  0
 75 81  1  0  0  0
 76 83  1  0  0  0
 77 79  1  0  0  0
 77 82  1  0  0  0
 77 83  2  0  0  0
 78 80  1  0  0  0
 78 82  1  0  0  0
 78 84  2  0  0  0
 79148  1  0  0  0
 79149  1  0  0  0
 79150  1  0  0  0
 80151  1  0  0  0
 80152  1  0  0  0
 81153  1  0  0  0
 82154  1  0  0  0
 83155  1  0  0  0
M  CHG  1  83   1
M  ISO  4   1 100  68 101  80 101  81 100
M  END
> <chiral flag>
0

> <version>
0

> <s_m_source_file>
/data/baiqing/PycharmProjects/Reinvent-master-3.2/result/LINK_invent/BTK/process_docking_weight1_custom_product_contain_oxygen_bond_distance_aromatic_linkinvent_7_9_3/rearranged_h_0067.sdf

> <i_m_source_file_index>
37

> <r_mmod_Potential_Energy-OPLS-2005>
27.3157844543457

> <r_mmod_Stretch_Energy-OPLS-2005>
64.6754837036133

> <r_mmod_Bend_Energy-OPLS-2005>
157.059921264648

> <r_mmod_Torsional_Energy-OPLS-2005>
307.198272705078

> <r_mmod_Improper_Torsional_Energy-OPLS-2005>
13.2907638549805

> <r_mmod_Van_der_Waal_Energy-OPLS-2005>
138.336364746094

> <r_mmod_Electrostatic_Energy-OPLS-2005>
-220.07112121582

> <r_mmod_Solvation_Energy-OPLS-2005>
-476.090759277344

> <b_mmod_Minimization_Converged-OPLS-2005>
0

> <r_mmod_RMS_Derivative-OPLS-2005>
4.81444644927979

$$$$
37
                    3D
 Structure written by MMmdl.
165174  0  0  1  0            999 V2000
  -30.6028  -14.7877   20.4374 C   0  0  0  0  0  0
  -30.4538  -12.4575   19.5240 C   0  0  0  0  0  0
  -29.5389  -12.4134   18.2780 C   0  0  0  0  0  0
  -28.0455  -12.3351   18.6572 C   0  0  0  0  0  0
  -27.6480  -13.2430   19.8559 C   0  0  2  0  0  0
  -28.6899  -13.1836   20.9919 C   0  0  0  0  0  0
  -25.2513  -13.8208   20.5617 C   0  0  0  0  0  0
  -24.1820  -13.0449   20.9192 C   0  0  0  0  0  0
  -24.6420  -11.6941   20.8754 C   0  0  0  0  0  0
  -23.9081  -10.4308   21.0381 C   0  0  0  0  0  0
  -24.3618   -9.4233   21.9172 C   0  0  0  0  0  0
  -23.6313   -8.2257   22.0737 C   0  0  0  0  0  0
  -22.4310   -8.0270   21.3516 C   0  0  0  0  0  0
  -21.9916   -9.0242   20.4636 C   0  0  0  0  0  0
  -22.7233  -10.2141   20.3053 C   0  0  0  0  0  0
  -21.6871   -6.0748   22.5265 C   0  0  0  0  0  0
  -21.4010   -6.5638   23.8190 C   0  0  0  0  0  0
  -21.3661   -5.6783   24.9158 C   0  0  0  0  0  0
  -21.6063   -4.3050   24.7207 C   0  0  0  0  0  0
  -21.8821   -3.8154   23.4310 C   0  0  0  0  0  0
  -21.9184   -4.6970   22.3384 C   0  0  0  0  0  0
  -22.7826  -13.5222   21.1847 C   0  0  0  0  0  0
  -22.1650   -4.2150   21.0963 F   0  0  0  0  0  0
  -21.5641   -3.4529   25.7714 F   0  0  0  0  0  0
  -29.9917  -13.5490   20.4155 N   0  0  0  0  0  0
  -26.2985  -12.9444   20.3321 N   0  0  0  0  0  0
  -25.9376  -11.6582   20.5875 N   0  0  0  0  0  0
  -22.0444  -12.8209   22.0376 N   0  0  0  0  0  0
  -25.4213  -15.1904   20.3826 N   0  0  0  0  0  0
  -31.7890  -14.8837   20.1046 O   0  0  0  0  0  0
  -21.6651   -6.8871   21.4223 O   0  0  0  0  0  0
  -22.3500  -14.5533   20.6715 O   0  0  0  0  0  0
  -24.6314  -31.8543   23.1974 C   0  0  0  0  0  0
  -25.9151  -32.4723   23.8331 C   0  0  1  0  0  0
  -27.2203  -27.2597   20.1556 C   0  0  0  0  0  0
  -25.5952  -33.8534   24.2246 N   0  0  0  0  0  0
  -23.4249  -30.4781   21.5419 C   0  0  2  0  0  0
  -24.8708  -28.9227   20.1141 C   0  0  0  0  0  0
  -22.7484  -29.4619   22.4922 C   0  0  0  0  0  0
  -18.0279  -28.1363   22.8458 C   0  0  0  0  0  0
  -24.1492  -36.7271   23.2640 C   0  0  0  0  0  0
  -25.9714  -30.7739   21.3707 C   0  0  0  0  0  0
  -26.0451  -29.3982   20.7117 C   0  0  0  0  0  0
  -27.2238  -28.5842   20.7112 C   0  0  0  0  0  0
  -26.0149  -26.8473   19.5375 C   0  0  0  0  0  0
  -24.8604  -27.6541   19.5179 C   0  0  0  0  0  0
  -23.6390  -29.8076   20.1589 C   0  0  0  0  0  0
  -25.4111  -36.3042   24.0325 C   0  0  1  0  0  0
  -20.5880  -28.3688   23.1243 C   0  0  2  0  0  0
  -20.6756  -26.9401   22.5394 C   0  0  0  0  0  0
  -19.5752  -26.6354   21.5185 C   0  0  0  0  0  0
  -18.1927  -26.7901   22.1590 C   0  0  0  0  0  0
  -19.1529  -28.8843   23.2831 C   0  0  0  0  0  0
  -18.9465  -30.1443   23.8849 C   0  0  0  0  0  0
  -17.6472  -30.6572   24.0545 C   0  0  0  0  0  0
  -25.9068  -34.9418   23.5083 C   0  0  0  0  0  0
  -16.5361  -29.9071   23.6321 C   0  0  0  0  0  0
  -16.7267  -28.6482   23.0339 C   0  0  0  0  0  0
  -26.4487  -31.6551   25.0736 C   0  0  0  0  0  0
  -25.3710  -31.3750   26.1463 C   0  0  0  0  0  0
  -27.0350  -30.2953   24.6270 C   0  0  0  0  0  0
  -27.6016  -32.4315   25.7537 C   0  0  0  0  0  0
  -27.5568  -37.1792   24.8457 C   0  0  0  0  0  0
  -21.4194  -29.3041   22.3655 N   0  0  0  0  0  0
  -26.4268  -37.3754   23.9416 N   0  0  0  0  0  0
  -24.6958  -31.0529   22.0935 N   0  0  0  0  0  0
  -23.4193  -28.8155   23.3014 O   0  0  0  0  0  0
  -28.3190  -26.3693   20.2472 O   0  0  0  0  0  0
  -26.5627  -34.8913   22.4652 O   0  0  0  0  0  0
  -23.5468  -32.1387   23.7278 O   0  0  0  0  0  0
  -29.3358  -19.6880   18.5187 C   0  0  0  0  0  0
  -29.6851  -18.5677   20.6317 C   0  0  0  0  0  0
  -29.6507  -17.2550   18.5562 C   0  0  0  0  0  0
  -29.4206  -18.4619   17.8470 C   0  0  0  0  0  0
  -29.4661  -19.8259   19.9142 C   0  0  0  0  0  0
  -29.7716  -17.2501   19.9823 C   0  0  0  0  0  0
  -29.5677  -21.7530   21.6778 C   0  0  0  0  0  0
  -29.4266  -23.1012   21.7407 C   0  0  0  0  0  0
  -30.7169  -15.7174   16.9579 C   0  0  0  0  0  0
  -30.8809  -23.8576   23.5784 C   0  0  0  0  0  0
  -29.6920  -16.0176   17.7730 C   0  0  0  0  0  0
  -29.6986  -23.8748   22.9390 C   0  0  0  0  0  0
  -28.9391  -22.3640   19.5755 C   0  0  0  0  0  0
  -29.1688  -23.7202   20.3634 C   0  0  1  0  0  0
  -29.2419  -18.5150   16.3284 C   0  0  0  0  0  0
  -28.0625  -24.8901   20.1469 C   0  0  0  0  0  0
  -29.3563  -21.1947   20.4223 N   0  0  0  0  0  0
  -29.8392  -15.9277   20.6932 N   0  0  0  0  0  0
  -31.4944  -12.5877   19.2195 H   0  0  0  0  0  0
  -30.4285  -11.5122   20.0657 H   0  0  0  0  0  0
  -29.8123  -11.5482   17.6692 H   0  0  0  0  0  0
  -29.7253  -13.2785   17.6503 H   0  0  0  0  0  0
  -27.8283  -11.2938   18.8937 H   0  0  0  0  0  0
  -27.4307  -12.5748   17.7890 H   0  0  0  0  0  0
  -27.6400  -14.2684   19.4862 H   0  0  0  0  0  0
  -28.7309  -12.1848   21.4228 H   0  0  0  0  0  0
  -28.4187  -13.8531   21.8107 H   0  0  0  0  0  0
  -25.2744   -9.5730   22.4762 H   0  0  0  0  0  0
  -24.0007   -7.4650   22.7467 H   0  0  0  0  0  0
  -21.0839   -8.8792   19.8951 H   0  0  0  0  0  0
  -22.3673  -10.9682   19.6186 H   0  0  0  0  0  0
  -21.2008   -7.6149   23.9696 H   0  0  0  0  0  0
  -21.1496   -6.0515   25.9063 H   0  0  0  0  0  0
  -22.0616   -2.7619   23.2809 H   0  0  0  0  0  0
  -22.3995  -11.9831   22.4747 H   0  0  0  0  0  0
  -21.1106  -13.1327   22.2634 H   0  0  0  0  0  0
  -24.6539  -15.8521   20.4414 H   0  0  0  0  0  0
  -26.2749  -15.6077   20.0340 H   0  0  0  0  0  0
  -26.7231  -32.5364   23.1090 H   0  0  0  0  0  0
  -25.0092  -33.9682   25.0383 H   0  0  0  0  0  0
  -22.7240  -31.3026   21.3956 H   0  0  0  0  0  0
  -23.3756  -35.9599   23.3273 H   0  0  0  0  0  0
  -24.3585  -36.8928   22.2060 H   0  0  0  0  0  0
  -23.7263  -37.6476   23.6678 H   0  0  0  0  0  0
  -26.1124  -31.5417   20.6084 H   0  0  0  0  0  0
  -26.8471  -30.8149   22.0065 H   0  0  0  0  0  0
  -28.1239  -28.9454   21.1873 H   0  0  0  0  0  0
  -25.9153  -25.8672   19.0948 H   0  0  0  0  0  0
  -23.9524  -27.2754   19.0681 H   0  0  0  0  0  0
  -23.7584  -30.5819   19.4000 H   0  0  0  0  0  0
  -22.7567  -29.2386   19.8566 H   0  0  0  0  0  0
  -25.1291  -36.1864   25.0814 H   0  0  0  0  0  0
  -20.9960  -28.3254   24.1368 H   0  0  0  0  0  0
  -20.5585  -26.2323   23.3604 H   0  0  0  0  0  0
  -21.6633  -26.7375   22.1241 H   0  0  0  0  0  0
  -19.6922  -25.6252   21.1241 H   0  0  0  0  0  0
  -19.6694  -27.3126   20.6682 H   0  0  0  0  0  0
  -17.4194  -26.6607   21.3995 H   0  0  0  0  0  0
  -18.0348  -26.0035   22.8979 H   0  0  0  0  0  0
  -19.7961  -30.7239   24.2185 H   0  0  0  0  0  0
  -17.5055  -31.6247   24.5163 H   0  0  0  0  0  0
  -15.5368  -30.2973   23.7686 H   0  0  0  0  0  0
  -15.8650  -28.0815   22.7073 H   0  0  0  0  0  0
  -24.5885  -30.7067   25.7834 H   0  0  0  0  0  0
  -24.8900  -32.2947   26.4811 H   0  0  0  0  0  0
  -25.8040  -30.9012   27.0282 H   0  0  0  0  0  0
  -26.2962  -29.6695   24.1244 H   0  0  0  0  0  0
  -27.3943  -29.7217   25.4826 H   0  0  0  0  0  0
  -27.8861  -30.4198   23.9575 H   0  0  0  0  0  0
  -27.2569  -33.3612   26.2077 H   0  0  0  0  0  0
  -28.3852  -32.6886   25.0399 H   0  0  0  0  0  0
  -28.0632  -31.8468   26.5505 H   0  0  0  0  0  0
  -28.2554  -38.0114   24.7501 H   0  0  0  0  0  0
  -28.1085  -36.2646   24.6248 H   0  0  0  0  0  0
  -27.2291  -37.1389   25.8860 H   0  0  0  0  0  0
  -20.9376  -29.8824   21.6917 H   0  0  0  0  0  0
  -26.0129  -38.2816   24.1432 H   0  0  0  0  0  0
  -29.1664  -20.5455   17.8890 H   0  0  0  0  0  0
  -29.7851  -18.6154   21.7066 H   0  0  0  0  0  0
  -29.8436  -21.0889   22.4876 H   0  0  0  0  0  0
  -30.7293  -14.8139   16.3668 H   0  0  0  0  0  0
  -31.5628  -16.3848   16.8746 H   0  0  0  0  0  0
  -31.0435  -24.4437   24.4743 H   0  0  0  0  0  0
  -31.7063  -23.2623   23.2158 H   0  0  0  0  0  0
  -28.8420  -15.3596   17.8565 H   0  0  0  0  0  0
  -28.9073  -24.4847   23.3509 H   0  0  0  0  0  0
  -29.4962  -22.4175   18.6410 H   0  0  0  0  0  0
  -27.8818  -22.2446   19.3276 H   0  0  0  0  0  0
  -30.1297  -24.1163   20.0290 H   0  0  0  0  0  0
  -28.4520  -19.2181   16.0593 H   0  0  0  0  0  0
  -28.9661  -17.5627   15.8796 H   0  0  0  0  0  0
  -30.1633  -18.8629   15.8586 H   0  0  0  0  0  0
  -27.1855  -24.6358   20.7448 H   0  0  0  0  0  0
  -27.7634  -24.7523   19.1074 H   0  0  0  0  0  0
  -28.9983  -15.7164   21.2110 H   0  0  0  0  0  0
  1 25  1  0  0  0
  1 30  2  0  0  0
  1 88  1  0  0  0
  2  3  1  0  0  0
  2 25  1  0  0  0
  2 89  1  0  0  0
  2 90  1  0  0  0
  3  4  1  0  0  0
  3 91  1  0  0  0
  3 92  1  0  0  0
  4  5  1  0  0  0
  4 93  1  0  0  0
  4 94  1  0  0  0
  5  6  1  0  0  0
  5 26  1  0  0  0
  5 95  1  0  0  0
  6 25  1  0  0  0
  6 96  1  0  0  0
  6 97  1  0  0  0
  7  8  2  0  0  0
  7 26  1  0  0  0
  7 29  1  0  0  0
  8  9  1  0  0  0
  8 22  1  0  0  0
  9 10  1  0  0  0
  9 27  2  0  0  0
 10 11  2  0  0  0
 10 15  1  0  0  0
 11 12  1  0  0  0
 11 98  1  0  0  0
 12 13  2  0  0  0
 12 99  1  0  0  0
 13 14  1  0  0  0
 13 31  1  0  0  0
 14 15  2  0  0  0
 14100  1  0  0  0
 15101  1  0  0  0
 16 17  2  0  0  0
 16 21  1  0  0  0
 16 31  1  0  0  0
 17 18  1  0  0  0
 17102  1  0  0  0
 18 19  2  0  0  0
 18103  1  0  0  0
 19 20  1  0  0  0
 19 24  1  0  0  0
 20 21  2  0  0  0
 20104  1  0  0  0
 21 23  1  0  0  0
 22 28  1  0  0  0
 22 32  2  0  0  0
 26 27  1  0  0  0
 28105  1  0  0  0
 28106  1  0  0  0
 29107  1  0  0  0
 29108  1  0  0  0
 33 34  1  0  0  0
 33 66  1  0  0  0
 33 70  2  0  0  0
 34 36  1  0  0  0
 34 59  1  0  0  0
 34109  1  0  0  0
 35 44  2  0  0  0
 35 45  1  0  0  0
 35 68  1  0  0  0
 36 56  1  0  0  0
 36110  1  0  0  0
 37 39  1  0  0  0
 37 47  1  0  0  0
 37 66  1  0  0  0
 37111  1  0  0  0
 38 43  2  0  0  0
 38 46  1  0  0  0
 38 47  1  0  0  0
 39 64  1  0  0  0
 39 67  2  0  0  0
 40 52  1  0  0  0
 40 53  2  0  0  0
 40 58  1  0  0  0
 41112  1  0  0  0
 41113  1  0  0  0
 41114  1  0  0  0
 41 48  1  0  0  0
 42 43  1  0  0  0
 42 66  1  0  0  0
 42115  1  0  0  0
 42116  1  0  0  0
 43 44  1  0  0  0
 44117  1  0  0  0
 45 46  2  0  0  0
 45118  1  0  0  0
 46119  1  0  0  0
 47120  1  0  0  0
 47121  1  0  0  0
 48 56  1  0  0  0
 48 65  1  0  0  0
 48122  1  0  0  0
 49 50  1  0  0  0
 49 53  1  0  0  0
 49 64  1  0  0  0
 49123  1  0  0  0
 50 51  1  0  0  0
 50124  1  0  0  0
 50125  1  0  0  0
 51 52  1  0  0  0
 51126  1  0  0  0
 51127  1  0  0  0
 52128  1  0  0  0
 52129  1  0  0  0
 53 54  1  0  0  0
 54 55  2  0  0  0
 54130  1  0  0  0
 55 57  1  0  0  0
 55131  1  0  0  0
 56 69  2  0  0  0
 57 58  2  0  0  0
 57132  1  0  0  0
 58133  1  0  0  0
 59 60  1  0  0  0
 59 61  1  0  0  0
 59 62  1  0  0  0
 60134  1  0  0  0
 60135  1  0  0  0
 60136  1  0  0  0
 61137  1  0  0  0
 61138  1  0  0  0
 61139  1  0  0  0
 62140  1  0  0  0
 62141  1  0  0  0
 62142  1  0  0  0
 63 65  1  0  0  0
 63143  1  0  0  0
 63144  1  0  0  0
 63145  1  0  0  0
 64146  1  0  0  0
 65147  1  0  0  0
 68 86  1  0  0  0
 71 74  2  0  0  0
 71 75  1  0  0  0
 71148  1  0  0  0
 72 75  2  0  0  0
 72 76  1  0  0  0
 72149  1  0  0  0
 73 74  1  0  0  0
 73 76  2  0  0  0
 73 81  1  0  0  0
 74 85  1  0  0  0
 75 87  1  0  0  0
 76 88  1  0  0  0
 77 78  2  0  0  0
 77 87  1  0  0  0
 77150  1  0  0  0
 78 82  1  0  0  0
 78 84  1  0  0  0
 79 81  2  0  0  0
 79151  1  0  0  0
 79152  1  0  0  0
 80 82  2  0  0  0
 80153  1  0  0  0
 80154  1  0  0  0
 81155  1  0  0  0
 82156  1  0  0  0
 83 84  1  0  0  0
 83 87  1  0  0  0
 83157  1  0  0  0
 83158  1  0  0  0
 84 86  1  0  0  0
 84159  1  0  0  0
 85160  1  0  0  0
 85161  1  0  0  0
 85162  1  0  0  0
 86163  1  0  0  0
 86164  1  0  0  0
 88165  1  0  0  0
M  ISO  4   1 100  68 101  86 101  88 100
M  END
> <chiral flag>
0

> <version>
0

> <s_m_source_file>
/data/baiqing/PycharmProjects/Reinvent-master-3.2/result/LINK_invent/BTK/process_docking_weight1_custom_product_contain_oxygen_bond_distance_aromatic_linkinvent_7_9_3/rearranged_h_0067.sdf

> <i_m_source_file_index>
38

> <r_mmod_Potential_Energy-OPLS-2005>
364.886901855469

> <r_mmod_Stretch_Energy-OPLS-2005>
131.512329101562

> <r_mmod_Bend_Energy-OPLS-2005>
254.239486694336

> <r_mmod_Torsional_Energy-OPLS-2005>
298.221771240234

> <r_mmod_Improper_Torsional_Energy-OPLS-2005>
5.64886999130249

> <r_mmod_Van_der_Waal_Energy-OPLS-2005>
148.720642089844

> <r_mmod_Electrostatic_Energy-OPLS-2005>
-360.864105224609

> <r_mmod_Solvation_Energy-OPLS-2005>
-212.348159790039

> <b_mmod_Minimization_Converged-OPLS-2005>
0

> <r_mmod_RMS_Derivative-OPLS-2005>
4.52173805236816

$$$$
38
                    3D
 Structure written by MMmdl.
166174  0  0  1  0            999 V2000
  -30.9632  -13.9255   21.1013 C   0  0  0  0  0  0
  -30.6504  -12.2767   19.3094 C   0  0  0  0  0  0
  -29.7968  -12.3552   18.0323 C   0  0  0  0  0  0
  -28.3446  -12.3948   18.4153 C   0  0  0  0  0  0
  -28.0620  -13.7139   19.1712 C   0  0  2  0  0  0
  -29.1957  -14.1450   19.9995 C   0  0  0  0  0  0
  -25.1005  -14.4660   20.8192 C   0  0  0  0  0  0
  -23.9787  -13.5076   21.1584 C   0  0  0  0  0  0
  -24.5860  -12.3705   21.5602 C   0  0  0  0  0  0
  -23.9157  -10.8901   21.3031 C   0  0  0  0  0  0
  -24.3655   -9.7393   22.0528 C   0  0  0  0  0  0
  -23.7127   -8.4590   22.0984 C   0  0  0  0  0  0
  -22.5266   -8.2050   21.3689 C   0  0  0  0  0  0
  -22.1186   -9.2559   20.5091 C   0  0  0  0  0  0
  -22.7935  -10.5264   20.4674 C   0  0  0  0  0  0
  -21.7581   -6.1521   22.5042 C   0  0  0  0  0  0
  -21.4531   -6.6153   23.8048 C   0  0  0  0  0  0
  -21.3711   -5.7166   24.8938 C   0  0  0  0  0  0
  -21.6012   -4.3409   24.6993 C   0  0  0  0  0  0
  -21.8771   -3.8614   23.4082 C   0  0  0  0  0  0
  -21.9422   -4.7570   22.3198 C   0  0  0  0  0  0
  -22.4723  -13.7417   21.2647 C   0  0  0  0  0  0
  -22.1856   -4.2644   21.0807 F   0  0  0  0  0  0
  -21.5436   -3.4796   25.7440 F   0  0  0  0  0  0
  -30.1794  -13.1815   20.3559 N   0  0  0  0  0  0
  -26.3777  -14.5350   19.9139 N   0  0  0  0  0  0
  -24.9728  -13.7735   21.0665 N   0  0  0  0  0  0
  -21.7846  -12.9416   22.0732 N   0  0  0  0  0  0
  -26.4226  -14.9717   19.7575 N   0  0  0  0  0  0
  -31.9051  -14.5696   20.6090 O   0  0  0  0  0  0
  -21.7992   -7.0086   21.4070 O   0  0  0  0  0  0
  -21.9742  -14.6778   20.6569 O   0  0  0  0  0  0
  -24.7237  -31.7471   23.1342 C   0  0  0  0  0  0
  -25.9656  -32.4153   23.7941 C   0  0  1  0  0  0
  -26.6507  -26.0375   20.3695 C   0  0  0  0  0  0
  -25.6057  -33.8036   24.1732 N   0  0  0  0  0  0
  -23.5412  -30.3722   21.5016 C   0  0  2  0  0  0
  -24.9042  -28.6246   20.0992 C   0  0  0  0  0  0
  -22.7851  -29.4086   22.4599 C   0  0  0  0  0  0
  -18.0341  -28.1444   22.8441 C   0  0  0  0  0  0
  -24.1501  -36.7021   23.2659 C   0  0  0  0  0  0
  -26.1239  -30.2408   21.5043 C   0  0  0  0  0  0
  -26.0689  -28.7537   20.8551 C   0  0  0  0  0  0
  -26.9453  -27.4881   20.9456 C   0  0  0  0  0  0
  -25.6234  -26.3073   19.4394 C   0  0  0  0  0  0
  -24.7804  -27.4550   19.3375 C   0  0  0  0  0  0
  -23.7971  -29.6966   20.1226 C   0  0  0  0  0  0
  -25.4172  -36.2738   24.0261 C   0  0  1  0  0  0
  -20.5984  -28.3792   23.1102 C   0  0  2  0  0  0
  -20.6782  -26.9427   22.5406 C   0  0  0  0  0  0
  -19.5748  -26.6351   21.5237 C   0  0  0  0  0  0
  -18.1945  -26.7962   22.1626 C   0  0  0  0  0  0
  -19.1611  -28.8953   23.2743 C   0  0  0  0  0  0
  -18.9512  -30.1541   23.8784 C   0  0  0  0  0  0
  -17.6490  -30.6608   24.0555 C   0  0  0  0  0  0
  -25.9200  -34.9127   23.4872 C   0  0  0  0  0  0
  -16.5379  -29.9090   23.6357 C   0  0  0  0  0  0
  -16.7322  -28.6525   23.0358 C   0  0  0  0  0  0
  -26.4665  -31.6441   25.0784 C   0  0  0  0  0  0
  -25.3553  -31.3893   26.1254 C   0  0  0  0  0  0
  -27.0674  -30.2695   24.7251 C   0  0  0  0  0  0
  -27.6073  -32.4450   25.7498 C   0  0  0  0  0  0
  -27.5580  -37.1645   24.8448 C   0  0  0  0  0  0
  -21.4480  -29.2972   22.3372 N   0  0  0  0  0  0
  -26.4256  -37.3566   23.9423 N   0  0  0  0  0  0
  -24.8325  -30.8435   22.0896 N   0  0  0  0  0  0
  -23.4137  -28.7707   23.3079 O   0  0  0  0  0  0
  -27.0899  -24.4156   20.5151 O   0  0  0  0  0  0
  -26.5918  -34.8780   22.4546 O   0  0  0  0  0  0
  -23.6188  -32.0873   23.5986 O   0  0  0  0  0  0
  -24.7020  -13.8306   18.5861 C   0  0  0  0  0  0
  -24.4848  -15.9324   19.1744 C   0  0  0  0  0  0
  -26.8369  -15.4515   21.9816 C   0  0  0  0  0  0
  -27.1517  -13.2807   21.5158 C   0  0  0  0  0  0
  -26.0357  -12.4084   19.6216 C   0  0  0  0  0  0
  -25.6411  -16.8560   20.7691 C   0  0  0  0  0  0
  -28.1382  -12.4804   22.3500 C   0  0  0  0  0  0
  -26.5097  -20.4003   20.6153 C   0  0  0  0  0  0
  -25.9944  -10.9233   19.2088 C   0  0  0  0  0  0
  -30.2056  -14.0858   25.3797 C   0  0  0  0  0  0
  -28.7440  -10.2714   23.0832 C   0  0  0  0  0  0
  -26.2547  -22.5456   20.5736 C   0  0  0  0  0  0
  -29.0318  -13.8049   24.4222 C   0  0  0  0  0  0
  -29.4252  -13.1503   23.0722 C   0  0  2  0  0  0
  -27.8869  -11.2251   22.4033 N   0  0  0  0  0  0
  -25.7416  -18.8417   20.7783 N   0  0  0  0  0  0
  -30.4900  -13.9752   22.3734 N   0  0  0  0  0  0
  -27.7165  -20.2033   20.4295 O   0  0  0  0  0  0
  -31.7000  -12.4427   19.0712 H   0  0  0  0  0  0
  -30.6025  -11.2690   19.7165 H   0  0  0  0  0  0
  -29.9816  -11.4757   17.4154 H   0  0  0  0  0  0
  -30.0725  -13.2157   17.4219 H   0  0  0  0  0  0
  -28.2886  -11.5315   19.0749 H   0  0  0  0  0  0
  -27.7215  -12.2836   17.5220 H   0  0  0  0  0  0
  -28.1766  -14.3352   18.2753 H   0  0  0  0  0  0
  -28.8689  -14.8693   20.7472 H   0  0  0  0  0  0
  -29.7106  -14.8526   19.3325 H   0  0  0  0  0  0
  -25.2268   -9.8784   22.6941 H   0  0  0  0  0  0
  -24.1223   -7.6909   22.7418 H   0  0  0  0  0  0
  -21.2393   -9.1101   19.8975 H   0  0  0  0  0  0
  -22.3832  -11.2888   19.8252 H   0  0  0  0  0  0
  -21.2846   -7.6678   23.9767 H   0  0  0  0  0  0
  -21.1339   -6.0836   25.8835 H   0  0  0  0  0  0
  -22.0348   -2.8055   23.2480 H   0  0  0  0  0  0
  -22.2321  -12.1859   22.5679 H   0  0  0  0  0  0
  -20.7915  -13.0794   22.1972 H   0  0  0  0  0  0
  -26.2279  -14.4819   18.8764 H   0  0  0  0  0  0
  -26.3407  -15.9604   19.5776 H   0  0  0  0  0  0
  -26.7736  -32.4418   23.0616 H   0  0  0  0  0  0
  -24.9956  -33.8991   24.9715 H   0  0  0  0  0  0
  -22.8957  -31.2355   21.3227 H   0  0  0  0  0  0
  -23.3834  -35.9267   23.3166 H   0  0  0  0  0  0
  -24.3568  -36.8885   22.2103 H   0  0  0  0  0  0
  -23.7166  -37.6093   23.6888 H   0  0  0  0  0  0
  -26.4434  -30.9178   20.7112 H   0  0  0  0  0  0
  -26.9478  -30.2623   22.2045 H   0  0  0  0  0  0
  -27.8004  -27.5516   21.6052 H   0  0  0  0  0  0
  -25.3172  -25.4638   18.8379 H   0  0  0  0  0  0
  -23.9495  -27.3829   18.6508 H   0  0  0  0  0  0
  -24.0598  -30.4658   19.3959 H   0  0  0  0  0  0
  -22.8701  -29.2605   19.7516 H   0  0  0  0  0  0
  -25.1388  -36.1444   25.0755 H   0  0  0  0  0  0
  -21.0047  -28.3440   24.1241 H   0  0  0  0  0  0
  -20.5644  -26.2425   23.3692 H   0  0  0  0  0  0
  -21.6651  -26.7338   22.1244 H   0  0  0  0  0  0
  -19.6871  -25.6241   21.1347 H   0  0  0  0  0  0
  -19.6701  -27.3098   20.6730 H   0  0  0  0  0  0
  -17.4216  -26.6738   21.4029 H   0  0  0  0  0  0
  -18.0283  -26.0152   22.9057 H   0  0  0  0  0  0
  -19.7985  -30.7408   24.2093 H   0  0  0  0  0  0
  -17.5025  -31.6263   24.5188 H   0  0  0  0  0  0
  -15.5371  -30.2928   23.7752 H   0  0  0  0  0  0
  -15.8736  -28.0804   22.7101 H   0  0  0  0  0  0
  -24.5785  -30.7267   25.7426 H   0  0  0  0  0  0
  -24.8652  -32.3115   26.4380 H   0  0  0  0  0  0
  -25.7473  -30.9132   27.0248 H   0  0  0  0  0  0
  -26.3375  -29.5957   24.2755 H   0  0  0  0  0  0
  -27.4232  -29.7652   25.6253 H   0  0  0  0  0  0
  -27.9378  -30.3580   24.0756 H   0  0  0  0  0  0
  -27.2653  -33.3922   26.1699 H   0  0  0  0  0  0
  -28.3962  -32.6776   25.0323 H   0  0  0  0  0  0
  -28.0709  -31.8884   26.5660 H   0  0  0  0  0  0
  -28.2468  -38.0064   24.7634 H   0  0  0  0  0  0
  -28.1216  -36.2596   24.6117 H   0  0  0  0  0  0
  -27.2314  -37.1072   25.8846 H   0  0  0  0  0  0
  -20.9852  -29.8601   21.6373 H   0  0  0  0  0  0
  -26.0047  -38.2587   24.1499 H   0  0  0  0  0  0
  -24.1187  -13.4731   17.7546 H   0  0  0  0  0  0
  -23.8547  -16.5650   18.5655 H   0  0  0  0  0  0
  -27.4210  -15.8725   22.7818 H   0  0  0  0  0  0
  -24.9759  -10.5828   19.0536 H   0  0  0  0  0  0
  -26.4639  -10.3080   19.9741 H   0  0  0  0  0  0
  -26.4643  -10.6976   18.2539 H   0  0  0  0  0  0
  -29.8481  -14.5913   26.2781 H   0  0  0  0  0  0
  -30.9705  -14.7203   24.9315 H   0  0  0  0  0  0
  -30.6793  -13.1572   25.6932 H   0  0  0  0  0  0
  -28.2092   -9.3345   23.2497 H   0  0  0  0  0  0
  -29.0716  -10.6066   24.0685 H   0  0  0  0  0  0
  -29.6156  -10.0312   22.4714 H   0  0  0  0  0  0
  -25.6028  -22.6686   21.4389 H   0  0  0  0  0  0
  -25.5704  -22.6312   19.7313 H   0  0  0  0  0  0
  -28.4916  -14.7362   24.2617 H   0  0  0  0  0  0
  -28.3275  -13.1499   24.9371 H   0  0  0  0  0  0
  -30.0722  -12.3309   23.3624 H   0  0  0  0  0  0
  -24.7817  -19.1494   20.9125 H   0  0  0  0  0  0
  -31.0273  -14.5856   22.9691 H   0  0  0  0  0  0
  1 25  1  0  0  0
  1 30  2  0  0  0
  1 87  1  0  0  0
  2  3  1  0  0  0
  2 25  1  0  0  0
  2 89  1  0  0  0
  2 90  1  0  0  0
  3  4  1  0  0  0
  3 91  1  0  0  0
  3 92  1  0  0  0
  4  5  1  0  0  0
  4 93  1  0  0  0
  4 94  1  0  0  0
  5  6  1  0  0  0
  5 26  1  0  0  0
  5 95  1  0  0  0
  6 25  1  0  0  0
  6 96  1  0  0  0
  6 97  1  0  0  0
  7  8  2  0  0  0
  7 26  1  0  0  0
  7 29  1  0  0  0
  8  9  1  0  0  0
  8 22  1  0  0  0
  9 10  1  0  0  0
  9 27  2  0  0  0
 10 11  2  0  0  0
 10 15  1  0  0  0
 11 12  1  0  0  0
 11 98  1  0  0  0
 12 13  2  0  0  0
 12 99  1  0  0  0
 13 14  1  0  0  0
 13 31  1  0  0  0
 14 15  2  0  0  0
 14100  1  0  0  0
 15101  1  0  0  0
 16 17  2  0  0  0
 16 21  1  0  0  0
 16 31  1  0  0  0
 17 18  1  0  0  0
 17102  1  0  0  0
 18 19  2  0  0  0
 18103  1  0  0  0
 19 20  1  0  0  0
 19 24  1  0  0  0
 20 21  2  0  0  0
 20104  1  0  0  0
 21 23  1  0  0  0
 22 28  1  0  0  0
 22 32  2  0  0  0
 26 27  1  0  0  0
 28105  1  0  0  0
 28106  1  0  0  0
 29107  1  0  0  0
 29108  1  0  0  0
 33 34  1  0  0  0
 33 66  1  0  0  0
 33 70  2  0  0  0
 34 36  1  0  0  0
 34 59  1  0  0  0
 34109  1  0  0  0
 35 44  2  0  0  0
 35 45  1  0  0  0
 35 68  1  0  0  0
 36 56  1  0  0  0
 36110  1  0  0  0
 37 39  1  0  0  0
 37 47  1  0  0  0
 37 66  1  0  0  0
 37111  1  0  0  0
 38 43  2  0  0  0
 38 46  1  0  0  0
 38 47  1  0  0  0
 39 64  1  0  0  0
 39 67  2  0  0  0
 40 52  1  0  0  0
 40 53  2  0  0  0
 40 58  1  0  0  0
 41112  1  0  0  0
 41113  1  0  0  0
 41114  1  0  0  0
 41 48  1  0  0  0
 42 43  1  0  0  0
 42 66  1  0  0  0
 42115  1  0  0  0
 42116  1  0  0  0
 43 44  1  0  0  0
 44117  1  0  0  0
 45 46  2  0  0  0
 45118  1  0  0  0
 46119  1  0  0  0
 47120  1  0  0  0
 47121  1  0  0  0
 48 56  1  0  0  0
 48 65  1  0  0  0
 48122  1  0  0  0
 49 50  1  0  0  0
 49 53  1  0  0  0
 49 64  1  0  0  0
 49123  1  0  0  0
 50 51  1  0  0  0
 50124  1  0  0  0
 50125  1  0  0  0
 51 52  1  0  0  0
 51126  1  0  0  0
 51127  1  0  0  0
 52128  1  0  0  0
 52129  1  0  0  0
 53 54  1  0  0  0
 54 55  2  0  0  0
 54130  1  0  0  0
 55 57  1  0  0  0
 55131  1  0  0  0
 56 69  2  0  0  0
 57 58  2  0  0  0
 57132  1  0  0  0
 58133  1  0  0  0
 59 60  1  0  0  0
 59 61  1  0  0  0
 59 62  1  0  0  0
 60134  1  0  0  0
 60135  1  0  0  0
 60136  1  0  0  0
 61137  1  0  0  0
 61138  1  0  0  0
 61139  1  0  0  0
 62140  1  0  0  0
 62141  1  0  0  0
 62142  1  0  0  0
 63 65  1  0  0  0
 63143  1  0  0  0
 63144  1  0  0  0
 63145  1  0  0  0
 64146  1  0  0  0
 65147  1  0  0  0
 68 82  1  0  0  0
 71 72  2  0  0  0
 71 75  1  0  0  0
 71148  1  0  0  0
 72 76  1  0  0  0
 72149  1  0  0  0
 73 74  1  0  0  0
 73 76  2  0  0  0
 73150  1  0  0  0
 74 75  2  0  0  0
 74 77  1  0  0  0
 75 79  1  0  0  0
 76 86  1  0  0  0
 77 84  1  0  0  0
 77 85  2  0  0  0
 78 82  1  0  0  0
 78 86  1  0  0  0
 78 88  2  0  0  0
 79151  1  0  0  0
 79152  1  0  0  0
 79153  1  0  0  0
 80 83  1  0  0  0
 80154  1  0  0  0
 80155  1  0  0  0
 80156  1  0  0  0
 81 85  1  0  0  0
 81157  1  0  0  0
 81158  1  0  0  0
 81159  1  0  0  0
 82160  1  0  0  0
 82161  1  0  0  0
 83162  1  0  0  0
 83163  1  0  0  0
 83 84  1  0  0  0
 84 87  1  0  0  0
 84164  1  0  0  0
 86165  1  0  0  0
 87166  1  0  0  0
M  ISO  4   1 100  68 101  82 101  87 100
M  END
> <chiral flag>
0

> <version>
0

> <s_m_source_file>
/data/baiqing/PycharmProjects/Reinvent-master-3.2/result/LINK_invent/BTK/process_docking_weight1_custom_product_contain_oxygen_bond_distance_aromatic_linkinvent_7_9_3/rearranged_h_0067.sdf

> <i_m_source_file_index>
39

> <r_mmod_Potential_Energy-OPLS-2005>
23083.693359375

> <r_mmod_Stretch_Energy-OPLS-2005>
12158.66015625

> <r_mmod_Bend_Energy-OPLS-2005>
3443.15966796875

> <r_mmod_Torsional_Energy-OPLS-2005>
553.492919921875

> <r_mmod_Improper_Torsional_Energy-OPLS-2005>
67.1249694824219

> <r_mmod_Van_der_Waal_Energy-OPLS-2005>
4336.66357421875

> <r_mmod_Electrostatic_Energy-OPLS-2005>
-397.718078613281

> <r_mmod_Solvation_Energy-OPLS-2005>
-234.482528686523

> <b_mmod_Minimization_Converged-OPLS-2005>
0

> <r_mmod_RMS_Derivative-OPLS-2005>
9.18971729278564

$$$$
39
                    3D
 Structure written by MMmdl.
160168  0  0  1  0            999 V2000
  -30.4783  -15.0258   20.5415 C   0  0  0  0  0  0
  -30.4464  -12.6697   19.5188 C   0  0  0  0  0  0
  -29.5184  -12.5668   18.2793 C   0  0  0  0  0  0
  -28.0585  -12.3137   18.6965 C   0  0  0  0  0  0
  -27.6168  -13.2517   19.8473 C   0  0  2  0  0  0
  -28.6455  -13.2966   20.9944 C   0  0  0  0  0  0
  -25.2364  -13.8249   20.5711 C   0  0  0  0  0  0
  -24.1681  -13.0442   20.9222 C   0  0  0  0  0  0
  -24.6311  -11.6953   20.8786 C   0  0  0  0  0  0
  -23.9015  -10.4303   21.0412 C   0  0  0  0  0  0
  -24.3573   -9.4218   21.9174 C   0  0  0  0  0  0
  -23.6285   -8.2242   22.0746 C   0  0  0  0  0  0
  -22.4255   -8.0271   21.3530 C   0  0  0  0  0  0
  -21.9880   -9.0250   20.4630 C   0  0  0  0  0  0
  -22.7198  -10.2139   20.3059 C   0  0  0  0  0  0
  -21.6844   -6.0733   22.5263 C   0  0  0  0  0  0
  -21.4040   -6.5647   23.8203 C   0  0  0  0  0  0
  -21.3670   -5.6791   24.9155 C   0  0  0  0  0  0
  -21.6039   -4.3044   24.7209 C   0  0  0  0  0  0
  -21.8824   -3.8147   23.4333 C   0  0  0  0  0  0
  -21.9190   -4.6965   22.3397 C   0  0  0  0  0  0
  -22.7719  -13.5218   21.1922 C   0  0  0  0  0  0
  -22.1653   -4.2158   21.0977 F   0  0  0  0  0  0
  -21.5615   -3.4525   25.7722 F   0  0  0  0  0  0
  -29.9128  -13.7498   20.4107 N   0  0  0  0  0  0
  -26.2748  -12.9461   20.3207 N   0  0  0  0  0  0
  -25.9228  -11.6578   20.5743 N   0  0  0  0  0  0
  -22.0362  -12.8244   22.0502 N   0  0  0  0  0  0
  -25.3988  -15.1994   20.4242 N   0  0  0  0  0  0
  -31.6886  -15.1095   20.3049 O   0  0  0  0  0  0
  -21.6639   -6.8851   21.4203 O   0  0  0  0  0  0
  -22.3437  -14.5511   20.6741 O   0  0  0  0  0  0
  -24.6496  -31.8377   23.1749 C   0  0  0  0  0  0
  -25.9233  -32.4681   23.8173 C   0  0  1  0  0  0
  -27.2093  -27.0419   20.2066 C   0  0  0  0  0  0
  -25.5936  -33.8495   24.2134 N   0  0  0  0  0  0
  -23.4583  -30.4499   21.5226 C   0  0  2  0  0  0
  -24.9107  -28.8566   20.1054 C   0  0  0  0  0  0
  -22.7621  -29.4529   22.4799 C   0  0  0  0  0  0
  -18.0340  -28.1415   22.8518 C   0  0  0  0  0  0
  -24.1475  -36.7281   23.2632 C   0  0  0  0  0  0
  -26.0143  -30.6884   21.3820 C   0  0  0  0  0  0
  -26.0883  -29.2879   20.7366 C   0  0  0  0  0  0
  -27.2398  -28.3973   20.7583 C   0  0  0  0  0  0
  -26.0187  -26.7437   19.5061 C   0  0  0  0  0  0
  -24.8975  -27.6117   19.4623 C   0  0  0  0  0  0
  -23.6908  -29.7720   20.1452 C   0  0  0  0  0  0
  -25.4119  -36.3045   24.0292 C   0  0  1  0  0  0
  -20.5966  -28.3763   23.1234 C   0  0  2  0  0  0
  -20.6851  -26.9452   22.5429 C   0  0  0  0  0  0
  -19.5799  -26.6415   21.5237 C   0  0  0  0  0  0
  -18.1975  -26.7960   22.1644 C   0  0  0  0  0  0
  -19.1589  -28.8909   23.2873 C   0  0  0  0  0  0
  -18.9490  -30.1512   23.8910 C   0  0  0  0  0  0
  -17.6489  -30.6614   24.0594 C   0  0  0  0  0  0
  -25.9099  -34.9416   23.5039 C   0  0  0  0  0  0
  -16.5399  -29.9106   23.6344 C   0  0  0  0  0  0
  -16.7323  -28.6513   23.0370 C   0  0  0  0  0  0
  -26.4503  -31.6536   25.0645 C   0  0  0  0  0  0
  -25.3666  -31.3714   26.1330 C   0  0  0  0  0  0
  -27.0374  -30.2948   24.6201 C   0  0  0  0  0  0
  -27.6053  -32.4266   25.7453 C   0  0  0  0  0  0
  -27.5566  -37.1797   24.8467 C   0  0  0  0  0  0
  -21.4292  -29.3072   22.3600 N   0  0  0  0  0  0
  -26.4281  -37.3761   23.9400 N   0  0  0  0  0  0
  -24.7276  -31.0148   22.0843 N   0  0  0  0  0  0
  -23.4201  -28.8146   23.3049 O   0  0  0  0  0  0
  -28.2067  -25.9710   20.3302 O   0  0  0  0  0  0
  -26.5678  -34.8926   22.4637 O   0  0  0  0  0  0
  -23.5573  -32.1282   23.6910 O   0  0  0  0  0  0
  -29.1800  -18.9684   20.5957 C   0  0  0  0  0  0
  -30.2297  -17.8497   22.4685 C   0  0  0  0  0  0
  -29.5253  -20.2481   22.6244 C   0  0  0  0  0  0
  -29.7322  -17.6782   21.1580 C   0  0  0  0  0  0
  -29.1272  -20.3349   21.2534 C   0  0  0  0  0  0
  -30.1127  -19.0731   23.1727 C   0  0  0  0  0  0
  -28.8688  -23.1159   20.8708 C   0  0  0  0  0  0
  -29.1724  -21.3741   23.5989 C   0  0  0  0  0  0
  -27.8514  -25.9468   23.0267 C   0  0  0  0  0  0
  -25.8366  -24.4690   22.4742 C   0  0  0  0  0  0
  -27.8309  -24.4821   20.8113 C   0  0  1  0  0  0
  -27.3467  -24.6756   22.2997 C   0  0  0  0  0  0
  -28.5236  -21.7064   20.7366 N   0  0  0  0  0  0
  -29.6309  -16.1958   20.6697 N   0  0  0  0  0  0
  -30.0524  -23.3669   21.1171 O   0  0  0  0  0  0
  -30.5230  -19.0864   24.4662 F   0  0  0  0  0  0
  -31.4642  -12.8797   19.1852 H   0  0  0  0  0  0
  -30.4764  -11.7114   20.0455 H   0  0  0  0  0  0
  -29.8469  -11.7734   17.6090 H   0  0  0  0  0  0
  -29.5689  -13.4960   17.7065 H   0  0  0  0  0  0
  -27.9736  -11.2757   19.0205 H   0  0  0  0  0  0
  -27.3891  -12.4216   17.8447 H   0  0  0  0  0  0
  -27.5752  -14.2494   19.4128 H   0  0  0  0  0  0
  -28.7387  -12.3309   21.4940 H   0  0  0  0  0  0
  -28.3234  -14.0049   21.7612 H   0  0  0  0  0  0
  -25.2688   -9.5711   22.4766 H   0  0  0  0  0  0
  -23.9976   -7.4648   22.7494 H   0  0  0  0  0  0
  -21.0795   -8.8772   19.8970 H   0  0  0  0  0  0
  -22.3608  -10.9684   19.6223 H   0  0  0  0  0  0
  -21.2038   -7.6155   23.9703 H   0  0  0  0  0  0
  -21.1477   -6.0511   25.9050 H   0  0  0  0  0  0
  -22.0581   -2.7601   23.2825 H   0  0  0  0  0  0
  -22.4015  -11.9943   22.4901 H   0  0  0  0  0  0
  -21.1007  -13.1336   22.2762 H   0  0  0  0  0  0
  -24.6145  -15.8306   20.5351 H   0  0  0  0  0  0
  -26.2299  -15.6536   20.0719 H   0  0  0  0  0  0
  -26.7321  -32.5283   23.0887 H   0  0  0  0  0  0
  -24.9993  -33.9591   25.0215 H   0  0  0  0  0  0
  -22.7651  -31.2771   21.3633 H   0  0  0  0  0  0
  -23.3705  -35.9647   23.3292 H   0  0  0  0  0  0
  -24.3549  -36.8961   22.2056 H   0  0  0  0  0  0
  -23.7302  -37.6503   23.6687 H   0  0  0  0  0  0
  -26.1577  -31.4300   20.5911 H   0  0  0  0  0  0
  -26.8858  -30.7592   22.0206 H   0  0  0  0  0  0
  -28.1272  -28.7113   21.2824 H   0  0  0  0  0  0
  -25.9374  -25.7864   19.0031 H   0  0  0  0  0  0
  -24.0110  -27.2873   18.9347 H   0  0  0  0  0  0
  -23.8392  -30.5436   19.3903 H   0  0  0  0  0  0
  -22.8021  -29.2194   19.8342 H   0  0  0  0  0  0
  -25.1288  -36.1826   25.0775 H   0  0  0  0  0  0
  -21.0049  -28.3389   24.1342 H   0  0  0  0  0  0
  -20.5760  -26.2374   23.3670 H   0  0  0  0  0  0
  -21.6726  -26.7515   22.1188 H   0  0  0  0  0  0
  -19.6992  -25.6299   21.1291 H   0  0  0  0  0  0
  -19.6728  -27.3209   20.6724 H   0  0  0  0  0  0
  -17.4268  -26.6742   21.4030 H   0  0  0  0  0  0
  -18.0364  -26.0091   22.9001 H   0  0  0  0  0  0
  -19.7971  -30.7321   24.2277 H   0  0  0  0  0  0
  -17.5038  -31.6271   24.5178 H   0  0  0  0  0  0
  -15.5385  -30.2985   23.7637 H   0  0  0  0  0  0
  -15.8736  -28.0802   22.7073 H   0  0  0  0  0  0
  -24.5784  -30.7157   25.7563 H   0  0  0  0  0  0
  -24.8901  -32.2900   26.4765 H   0  0  0  0  0  0
  -25.7901  -30.8825   27.0105 H   0  0  0  0  0  0
  -26.2952  -29.6680   24.1238 H   0  0  0  0  0  0
  -27.4015  -29.7250   25.4735 H   0  0  0  0  0  0
  -27.8847  -30.4178   23.9471 H   0  0  0  0  0  0
  -27.2645  -33.3516   26.2079 H   0  0  0  0  0  0
  -28.3833  -32.6898   25.0289 H   0  0  0  0  0  0
  -28.0731  -31.8398   26.5352 H   0  0  0  0  0  0
  -28.2570  -38.0088   24.7476 H   0  0  0  0  0  0
  -28.1070  -36.2636   24.6281 H   0  0  0  0  0  0
  -27.2307  -37.1447   25.8878 H   0  0  0  0  0  0
  -20.9520  -29.8694   21.6698 H   0  0  0  0  0  0
  -26.0132  -38.2826   24.1408 H   0  0  0  0  0  0
  -28.7510  -18.9000   19.6125 H   0  0  0  0  0  0
  -30.6295  -16.9937   22.9932 H   0  0  0  0  0  0
  -29.7544  -22.2715   23.4200 H   0  0  0  0  0  0
  -29.3286  -21.0939   24.6400 H   0  0  0  0  0  0
  -28.1082  -21.6101   23.5143 H   0  0  0  0  0  0
  -27.9799  -25.7833   24.0949 H   0  0  0  0  0  0
  -27.1547  -26.7805   22.9123 H   0  0  0  0  0  0
  -28.8231  -26.2658   22.6525 H   0  0  0  0  0  0
  -25.5037  -24.8013   23.4615 H   0  0  0  0  0  0
  -25.5912  -23.4105   22.3802 H   0  0  0  0  0  0
  -25.2583  -25.0142   21.7272 H   0  0  0  0  0  0
  -26.9867  -24.1478   20.2015 H   0  0  0  0  0  0
  -27.7989  -23.8897   22.9069 H   0  0  0  0  0  0
  -27.6469  -21.5890   20.2400 H   0  0  0  0  0  0
  -28.6767  -15.8815   20.6425 H   0  0  0  0  0  0
  1 25  1  0  0  0
  1 30  2  0  0  0
  1 84  1  0  0  0
  2  3  1  0  0  0
  2 25  1  0  0  0
  2 87  1  0  0  0
  2 88  1  0  0  0
  3  4  1  0  0  0
  3 89  1  0  0  0
  3 90  1  0  0  0
  4  5  1  0  0  0
  4 91  1  0  0  0
  4 92  1  0  0  0
  5  6  1  0  0  0
  5 26  1  0  0  0
  5 93  1  0  0  0
  6 25  1  0  0  0
  6 94  1  0  0  0
  6 95  1  0  0  0
  7  8  2  0  0  0
  7 26  1  0  0  0
  7 29  1  0  0  0
  8  9  1  0  0  0
  8 22  1  0  0  0
  9 10  1  0  0  0
  9 27  2  0  0  0
 10 11  2  0  0  0
 10 15  1  0  0  0
 11 12  1  0  0  0
 11 96  1  0  0  0
 12 13  2  0  0  0
 12 97  1  0  0  0
 13 14  1  0  0  0
 13 31  1  0  0  0
 14 15  2  0  0  0
 14 98  1  0  0  0
 15 99  1  0  0  0
 16 17  2  0  0  0
 16 21  1  0  0  0
 16 31  1  0  0  0
 17 18  1  0  0  0
 17100  1  0  0  0
 18 19  2  0  0  0
 18101  1  0  0  0
 19 20  1  0  0  0
 19 24  1  0  0  0
 20 21  2  0  0  0
 20102  1  0  0  0
 21 23  1  0  0  0
 22 28  1  0  0  0
 22 32  2  0  0  0
 26 27  1  0  0  0
 28103  1  0  0  0
 28104  1  0  0  0
 29105  1  0  0  0
 29106  1  0  0  0
 33 34  1  0  0  0
 33 66  1  0  0  0
 33 70  2  0  0  0
 34 36  1  0  0  0
 34 59  1  0  0  0
 34107  1  0  0  0
 35 44  2  0  0  0
 35 45  1  0  0  0
 35 68  1  0  0  0
 36 56  1  0  0  0
 36108  1  0  0  0
 37 39  1  0  0  0
 37 47  1  0  0  0
 37 66  1  0  0  0
 37109  1  0  0  0
 38 43  2  0  0  0
 38 46  1  0  0  0
 38 47  1  0  0  0
 39 64  1  0  0  0
 39 67  2  0  0  0
 40 52  1  0  0  0
 40 53  2  0  0  0
 40 58  1  0  0  0
 41110  1  0  0  0
 41111  1  0  0  0
 41112  1  0  0  0
 41 48  1  0  0  0
 42 43  1  0  0  0
 42 66  1  0  0  0
 42113  1  0  0  0
 42114  1  0  0  0
 43 44  1  0  0  0
 44115  1  0  0  0
 45 46  2  0  0  0
 45116  1  0  0  0
 46117  1  0  0  0
 47118  1  0  0  0
 47119  1  0  0  0
 48 56  1  0  0  0
 48 65  1  0  0  0
 48120  1  0  0  0
 49 50  1  0  0  0
 49 53  1  0  0  0
 49 64  1  0  0  0
 49121  1  0  0  0
 50 51  1  0  0  0
 50122  1  0  0  0
 50123  1  0  0  0
 51 52  1  0  0  0
 51124  1  0  0  0
 51125  1  0  0  0
 52126  1  0  0  0
 52127  1  0  0  0
 53 54  1  0  0  0
 54 55  2  0  0  0
 54128  1  0  0  0
 55 57  1  0  0  0
 55129  1  0  0  0
 56 69  2  0  0  0
 57 58  2  0  0  0
 57130  1  0  0  0
 58131  1  0  0  0
 59 60  1  0  0  0
 59 61  1  0  0  0
 59 62  1  0  0  0
 60132  1  0  0  0
 60133  1  0  0  0
 60134  1  0  0  0
 61135  1  0  0  0
 61136  1  0  0  0
 61137  1  0  0  0
 62138  1  0  0  0
 62139  1  0  0  0
 62140  1  0  0  0
 63 65  1  0  0  0
 63141  1  0  0  0
 63142  1  0  0  0
 63143  1  0  0  0
 64144  1  0  0  0
 65145  1  0  0  0
 68 81  1  0  0  0
 71 74  2  0  0  0
 71 75  1  0  0  0
 71146  1  0  0  0
 72 74  1  0  0  0
 72 76  2  0  0  0
 72147  1  0  0  0
 73 75  2  0  0  0
 73 76  1  0  0  0
 73 78  1  0  0  0
 74 84  1  0  0  0
 75 83  1  0  0  0
 76 86  1  0  0  0
 77 81  1  0  0  0
 77 83  1  0  0  0
 77 85  2  0  0  0
 78148  1  0  0  0
 78149  1  0  0  0
 78150  1  0  0  0
 79151  1  0  0  0
 79152  1  0  0  0
 79153  1  0  0  0
 79 82  1  0  0  0
 80 82  1  0  0  0
 80154  1  0  0  0
 80155  1  0  0  0
 80156  1  0  0  0
 81 82  1  0  0  0
 81157  1  0  0  0
 82158  1  0  0  0
 83159  1  0  0  0
 84160  1  0  0  0
M  ISO  4   1 100  68 101  81 101  84 100
M  END
> <chiral flag>
0

> <version>
0

> <s_m_source_file>
/data/baiqing/PycharmProjects/Reinvent-master-3.2/result/LINK_invent/BTK/process_docking_weight1_custom_product_contain_oxygen_bond_distance_aromatic_linkinvent_7_9_3/rearranged_h_0067.sdf

> <i_m_source_file_index>
40

> <r_mmod_Potential_Energy-OPLS-2005>
881.584899902344

> <r_mmod_Stretch_Energy-OPLS-2005>
388.549987792969

> <r_mmod_Bend_Energy-OPLS-2005>
304.404663085938

> <r_mmod_Torsional_Energy-OPLS-2005>
316.494018554688

> <r_mmod_Improper_Torsional_Energy-OPLS-2005>
10.7383279800415

> <r_mmod_Van_der_Waal_Energy-OPLS-2005>
131.255661010742

> <r_mmod_Electrostatic_Energy-OPLS-2005>
-314.043487548828

> <r_mmod_Solvation_Energy-OPLS-2005>
-240.401504516602

> <b_mmod_Minimization_Converged-OPLS-2005>
0

> <r_mmod_RMS_Derivative-OPLS-2005>
9.30889320373535

$$$$
40
                    3D
 Structure written by MMmdl.
153161  0  0  1  0            999 V2000
  -30.6400  -14.7608   20.5187 C   0  0  0  0  0  0
  -30.4386  -12.4834   19.4735 C   0  0  0  0  0  0
  -29.5101  -12.5195   18.2397 C   0  0  0  0  0  0
  -28.0451  -12.3193   18.6640 C   0  0  0  0  0  0
  -27.6444  -13.2309   19.8533 C   0  0  2  0  0  0
  -28.6922  -13.1852   20.9906 C   0  0  0  0  0  0
  -25.2541  -13.8189   20.5651 C   0  0  0  0  0  0
  -24.1837  -13.0415   20.9181 C   0  0  0  0  0  0
  -24.6439  -11.6908   20.8765 C   0  0  0  0  0  0
  -23.9116  -10.4284   21.0427 C   0  0  0  0  0  0
  -24.3659   -9.4200   21.9213 C   0  0  0  0  0  0
  -23.6307   -8.2247   22.0775 C   0  0  0  0  0  0
  -22.4291   -8.0293   21.3575 C   0  0  0  0  0  0
  -21.9941   -9.0270   20.4688 C   0  0  0  0  0  0
  -22.7279  -10.2136   20.3091 C   0  0  0  0  0  0
  -21.6862   -6.0751   22.5295 C   0  0  0  0  0  0
  -21.4013   -6.5652   23.8228 C   0  0  0  0  0  0
  -21.3657   -5.6801   24.9187 C   0  0  0  0  0  0
  -21.6039   -4.3066   24.7234 C   0  0  0  0  0  0
  -21.8816   -3.8164   23.4355 C   0  0  0  0  0  0
  -21.9187   -4.6978   22.3408 C   0  0  0  0  0  0
  -22.7873  -13.5237   21.1822 C   0  0  0  0  0  0
  -22.1661   -4.2164   21.0986 F   0  0  0  0  0  0
  -21.5625   -3.4544   25.7744 F   0  0  0  0  0  0
  -29.9921  -13.5459   20.4068 N   0  0  0  0  0  0
  -26.2975  -12.9396   20.3326 N   0  0  0  0  0  0
  -25.9369  -11.6540   20.5791 N   0  0  0  0  0  0
  -22.0523  -12.8225   22.0396 N   0  0  0  0  0  0
  -25.4151  -15.1873   20.3894 N   0  0  0  0  0  0
  -31.8300  -14.8512   20.2013 O   0  0  0  0  0  0
  -21.6656   -6.8889   21.4260 O   0  0  0  0  0  0
  -22.3561  -14.5521   20.6644 O   0  0  0  0  0  0
  -24.6253  -31.8572   23.2015 C   0  0  0  0  0  0
  -25.9098  -32.4771   23.8333 C   0  0  1  0  0  0
  -27.2286  -27.2598   20.1616 C   0  0  0  0  0  0
  -25.5952  -33.8566   24.2269 N   0  0  0  0  0  0
  -23.4295  -30.4747   21.5414 C   0  0  2  0  0  0
  -24.8831  -28.9175   20.1181 C   0  0  0  0  0  0
  -22.7486  -29.4586   22.4886 C   0  0  0  0  0  0
  -18.0283  -28.1413   22.8449 C   0  0  0  0  0  0
  -24.1485  -36.7261   23.2643 C   0  0  0  0  0  0
  -25.9702  -30.7731   21.3804 C   0  0  0  0  0  0
  -26.0497  -29.3894   20.7318 C   0  0  0  0  0  0
  -27.2257  -28.5734   20.7413 C   0  0  0  0  0  0
  -26.0414  -26.8509   19.5194 C   0  0  0  0  0  0
  -24.8831  -27.6546   19.5012 C   0  0  0  0  0  0
  -23.6566  -29.8089   20.1574 C   0  0  0  0  0  0
  -25.4116  -36.3055   24.0327 C   0  0  1  0  0  0
  -20.5885  -28.3709   23.1270 C   0  0  2  0  0  0
  -20.6778  -26.9420   22.5419 C   0  0  0  0  0  0
  -19.5763  -26.6398   21.5208 C   0  0  0  0  0  0
  -18.1938  -26.7944   22.1600 C   0  0  0  0  0  0
  -19.1539  -28.8870   23.2847 C   0  0  0  0  0  0
  -18.9472  -30.1459   23.8871 C   0  0  0  0  0  0
  -17.6486  -30.6600   24.0563 C   0  0  0  0  0  0
  -25.9057  -34.9441   23.5085 C   0  0  0  0  0  0
  -16.5373  -29.9118   23.6339 C   0  0  0  0  0  0
  -16.7276  -28.6553   23.0326 C   0  0  0  0  0  0
  -26.4505  -31.6590   25.0702 C   0  0  0  0  0  0
  -25.3754  -31.3732   26.1441 C   0  0  0  0  0  0
  -27.0365  -30.3030   24.6145 C   0  0  0  0  0  0
  -27.6108  -32.4300   25.7461 C   0  0  0  0  0  0
  -27.5553  -37.1768   24.8466 C   0  0  0  0  0  0
  -21.4189  -29.3048   22.3654 N   0  0  0  0  0  0
  -26.4275  -37.3757   23.9400 N   0  0  0  0  0  0
  -24.6942  -31.0518   22.1008 N   0  0  0  0  0  0
  -23.4185  -28.8100   23.2976 O   0  0  0  0  0  0
  -28.3379  -26.3828   20.1860 O   0  0  0  0  0  0
  -26.5603  -34.8914   22.4634 O   0  0  0  0  0  0
  -23.5408  -32.1413   23.7300 O   0  0  0  0  0  0
  -31.2585  -17.5401   22.0153 C   0  0  0  0  0  0
  -31.5582  -18.8466   22.4578 C   0  0  0  0  0  0
  -29.5802  -18.4981   20.5526 C   0  0  0  0  0  0
  -29.8958  -19.8729   20.9454 C   0  0  0  0  0  0
  -30.2516  -17.3066   21.0544 C   0  0  0  0  0  0
  -30.9187  -19.9988   21.9378 C   0  0  0  0  0  0
  -29.2000  -21.1052   20.2516 C   0  0  0  0  0  0
  -28.9684  -23.7318   20.0189 C   0  0  0  0  0  0
  -28.1808  -24.9734   20.7068 C   0  0  0  0  0  0
  -31.3597  -21.2219   22.4598 N   0  0  0  0  0  0
  -29.8735  -15.9036   20.7303 N   0  0  0  0  0  0
  -29.2335  -22.4016   20.7517 N   0  0  0  0  0  0
  -28.6060  -20.8927   19.1935 O   0  0  0  0  0  0
  -31.4768  -12.6154   19.1635 H   0  0  0  0  0  0
  -30.3960  -11.5082   19.9605 H   0  0  0  0  0  0
  -29.7961  -11.7517   17.5209 H   0  0  0  0  0  0
  -29.6206  -13.4741   17.7250 H   0  0  0  0  0  0
  -27.9254  -11.2708   18.9431 H   0  0  0  0  0  0
  -27.3774  -12.4863   17.8187 H   0  0  0  0  0  0
  -27.6264  -14.2460   19.4566 H   0  0  0  0  0  0
  -28.7448  -12.1957   21.4477 H   0  0  0  0  0  0
  -28.4164  -13.8738   21.7899 H   0  0  0  0  0  0
  -25.2801   -9.5643   22.4804 H   0  0  0  0  0  0
  -24.0001   -7.4634   22.7478 H   0  0  0  0  0  0
  -21.0885   -8.8816   19.8976 H   0  0  0  0  0  0
  -22.3779  -10.9687   19.6205 H   0  0  0  0  0  0
  -21.2024   -7.6168   23.9730 H   0  0  0  0  0  0
  -21.1471   -6.0545   25.9089 H   0  0  0  0  0  0
  -22.0597   -2.7626   23.2857 H   0  0  0  0  0  0
  -22.4155  -11.9895   22.4781 H   0  0  0  0  0  0
  -21.1155  -13.1286   22.2628 H   0  0  0  0  0  0
  -24.6216  -15.8162   20.4427 H   0  0  0  0  0  0
  -26.2292  -15.6201   19.9731 H   0  0  0  0  0  0
  -26.7144  -32.5423   23.1053 H   0  0  0  0  0  0
  -25.0105  -33.9709   25.0421 H   0  0  0  0  0  0
  -22.7224  -31.2919   21.3840 H   0  0  0  0  0  0
  -23.3770  -35.9564   23.3328 H   0  0  0  0  0  0
  -24.3575  -36.8880   22.2049 H   0  0  0  0  0  0
  -23.7234  -37.6474   23.6665 H   0  0  0  0  0  0
  -26.0821  -31.5306   20.6058 H   0  0  0  0  0  0
  -26.8595  -30.8405   21.9942 H   0  0  0  0  0  0
  -28.1152  -28.9291   21.2425 H   0  0  0  0  0  0
  -25.9966  -25.8886   19.0345 H   0  0  0  0  0  0
  -23.9920  -27.2907   19.0101 H   0  0  0  0  0  0
  -23.7941  -30.5886   19.4076 H   0  0  0  0  0  0
  -22.7772  -29.2482   19.8383 H   0  0  0  0  0  0
  -25.1286  -36.1922   25.0826 H   0  0  0  0  0  0
  -20.9925  -28.3310   24.1411 H   0  0  0  0  0  0
  -20.5716  -26.2290   23.3611 H   0  0  0  0  0  0
  -21.6638  -26.7481   22.1168 H   0  0  0  0  0  0
  -19.6958  -25.6320   21.1226 H   0  0  0  0  0  0
  -19.6743  -27.3205   20.6744 H   0  0  0  0  0  0
  -17.4201  -26.6656   21.4026 H   0  0  0  0  0  0
  -18.0357  -26.0111   22.9018 H   0  0  0  0  0  0
  -19.7970  -30.7257   24.2245 H   0  0  0  0  0  0
  -17.5076  -31.6285   24.5162 H   0  0  0  0  0  0
  -15.5383  -30.3025   23.7721 H   0  0  0  0  0  0
  -15.8655  -28.0914   22.7025 H   0  0  0  0  0  0
  -24.5958  -30.7031   25.7798 H   0  0  0  0  0  0
  -24.8870  -32.2864   26.4830 H   0  0  0  0  0  0
  -25.8079  -30.8964   27.0238 H   0  0  0  0  0  0
  -26.2936  -29.6760   24.1196 H   0  0  0  0  0  0
  -27.4145  -29.7302   25.4629 H   0  0  0  0  0  0
  -27.8752  -30.4364   23.9314 H   0  0  0  0  0  0
  -27.2833  -33.3672   26.1960 H   0  0  0  0  0  0
  -28.3977  -32.6737   25.0315 H   0  0  0  0  0  0
  -28.0692  -31.8441   26.5436 H   0  0  0  0  0  0
  -28.2571  -38.0061   24.7507 H   0  0  0  0  0  0
  -28.1050  -36.2588   24.6321 H   0  0  0  0  0  0
  -27.2238  -37.1453   25.8862 H   0  0  0  0  0  0
  -20.9394  -29.8797   21.6859 H   0  0  0  0  0  0
  -26.0167  -38.2808   24.1521 H   0  0  0  0  0  0
  -31.7995  -16.7141   22.4580 H   0  0  0  0  0  0
  -32.3228  -18.9552   23.2172 H   0  0  0  0  0  0
  -28.7921  -18.3626   19.8246 H   0  0  0  0  0  0
  -29.9554  -24.0987   19.7373 H   0  0  0  0  0  0
  -28.4727  -23.5290   19.0706 H   0  0  0  0  0  0
  -28.4817  -25.0152   21.7539 H   0  0  0  0  0  0
  -27.1220  -24.7124   20.7487 H   0  0  0  0  0  0
  -32.0739  -21.1503   23.1790 H   0  0  0  0  0  0
  -31.6570  -21.9194   21.7860 H   0  0  0  0  0  0
  -28.8796  -15.7353   20.7155 H   0  0  0  0  0  0
  -29.7179  -22.4718   21.6390 H   0  0  0  0  0  0
  1 25  1  0  0  0
  1 30  2  0  0  0
  1 81  1  0  0  0
  2  3  1  0  0  0
  2 25  1  0  0  0
  2 84  1  0  0  0
  2 85  1  0  0  0
  3  4  1  0  0  0
  3 86  1  0  0  0
  3 87  1  0  0  0
  4  5  1  0  0  0
  4 88  1  0  0  0
  4 89  1  0  0  0
  5  6  1  0  0  0
  5 26  1  0  0  0
  5 90  1  0  0  0
  6 25  1  0  0  0
  6 91  1  0  0  0
  6 92  1  0  0  0
  7  8  2  0  0  0
  7 26  1  0  0  0
  7 29  1  0  0  0
  8  9  1  0  0  0
  8 22  1  0  0  0
  9 10  1  0  0  0
  9 27  2  0  0  0
 10 11  2  0  0  0
 10 15  1  0  0  0
 11 12  1  0  0  0
 11 93  1  0  0  0
 12 13  2  0  0  0
 12 94  1  0  0  0
 13 14  1  0  0  0
 13 31  1  0  0  0
 14 15  2  0  0  0
 14 95  1  0  0  0
 15 96  1  0  0  0
 16 17  2  0  0  0
 16 21  1  0  0  0
 16 31  1  0  0  0
 17 18  1  0  0  0
 17 97  1  0  0  0
 18 19  2  0  0  0
 18 98  1  0  0  0
 19 20  1  0  0  0
 19 24  1  0  0  0
 20 21  2  0  0  0
 20 99  1  0  0  0
 21 23  1  0  0  0
 22 28  1  0  0  0
 22 32  2  0  0  0
 26 27  1  0  0  0
 28100  1  0  0  0
 28101  1  0  0  0
 29102  1  0  0  0
 29103  1  0  0  0
 33 34  1  0  0  0
 33 66  1  0  0  0
 33 70  2  0  0  0
 34 36  1  0  0  0
 34 59  1  0  0  0
 34104  1  0  0  0
 35 44  2  0  0  0
 35 45  1  0  0  0
 35 68  1  0  0  0
 36 56  1  0  0  0
 36105  1  0  0  0
 37 39  1  0  0  0
 37 47  1  0  0  0
 37 66  1  0  0  0
 37106  1  0  0  0
 38 43  2  0  0  0
 38 46  1  0  0  0
 38 47  1  0  0  0
 39 64  1  0  0  0
 39 67  2  0  0  0
 40 52  1  0  0  0
 40 53  2  0  0  0
 40 58  1  0  0  0
 41107  1  0  0  0
 41108  1  0  0  0
 41109  1  0  0  0
 41 48  1  0  0  0
 42 43  1  0  0  0
 42 66  1  0  0  0
 42110  1  0  0  0
 42111  1  0  0  0
 43 44  1  0  0  0
 44112  1  0  0  0
 45 46  2  0  0  0
 45113  1  0  0  0
 46114  1  0  0  0
 47115  1  0  0  0
 47116  1  0  0  0
 48 56  1  0  0  0
 48 65  1  0  0  0
 48117  1  0  0  0
 49 50  1  0  0  0
 49 53  1  0  0  0
 49 64  1  0  0  0
 49118  1  0  0  0
 50 51  1  0  0  0
 50119  1  0  0  0
 50120  1  0  0  0
 51 52  1  0  0  0
 51121  1  0  0  0
 51122  1  0  0  0
 52123  1  0  0  0
 52124  1  0  0  0
 53 54  1  0  0  0
 54 55  2  0  0  0
 54125  1  0  0  0
 55 57  1  0  0  0
 55126  1  0  0  0
 56 69  2  0  0  0
 57 58  2  0  0  0
 57127  1  0  0  0
 58128  1  0  0  0
 59 60  1  0  0  0
 59 61  1  0  0  0
 59 62  1  0  0  0
 60129  1  0  0  0
 60130  1  0  0  0
 60131  1  0  0  0
 61132  1  0  0  0
 61133  1  0  0  0
 61134  1  0  0  0
 62135  1  0  0  0
 62136  1  0  0  0
 62137  1  0  0  0
 63 65  1  0  0  0
 63138  1  0  0  0
 63139  1  0  0  0
 63140  1  0  0  0
 64141  1  0  0  0
 65142  1  0  0  0
 68 79  1  0  0  0
 71 72  2  0  0  0
 71 75  1  0  0  0
 71143  1  0  0  0
 72 76  1  0  0  0
 72144  1  0  0  0
 73 74  1  0  0  0
 73 75  2  0  0  0
 73145  1  0  0  0
 74 76  2  0  0  0
 74 77  1  0  0  0
 75 81  1  0  0  0
 76 80  1  0  0  0
 77 82  1  0  0  0
 77 83  2  0  0  0
 78 79  1  0  0  0
 78 82  1  0  0  0
 78146  1  0  0  0
 78147  1  0  0  0
 79148  1  0  0  0
 79149  1  0  0  0
 80150  1  0  0  0
 80151  1  0  0  0
 81152  1  0  0  0
 82153  1  0  0  0
M  ISO  4   1 100  68 101  79 101  81 100
M  END
> <chiral flag>
0

> <version>
0

> <s_m_source_file>
/data/baiqing/PycharmProjects/Reinvent-master-3.2/result/LINK_invent/BTK/process_docking_weight1_custom_product_contain_oxygen_bond_distance_aromatic_linkinvent_7_9_3/rearranged_h_0067.sdf

> <i_m_source_file_index>
41

> <r_mmod_Potential_Energy-OPLS-2005>
154.529632568359

> <r_mmod_Stretch_Energy-OPLS-2005>
132.292144775391

> <r_mmod_Bend_Energy-OPLS-2005>
166.174377441406

> <r_mmod_Torsional_Energy-OPLS-2005>
265.733612060547

> <r_mmod_Improper_Torsional_Energy-OPLS-2005>
12.8588466644287

> <r_mmod_Van_der_Waal_Energy-OPLS-2005>
139.610244750977

> <r_mmod_Electrostatic_Energy-OPLS-2005>
-411.811065673828

> <r_mmod_Solvation_Energy-OPLS-2005>
-238.867340087891

> <b_mmod_Minimization_Converged-OPLS-2005>
0

> <r_mmod_RMS_Derivative-OPLS-2005>
5.41647005081177

$$$$
41
                    3D
 Structure written by MMmdl.
150158  0  0  1  0            999 V2000
  -30.6066  -14.7975   20.4533 C   0  0  0  0  0  0
  -30.4309  -12.4910   19.4775 C   0  0  0  0  0  0
  -29.5098  -12.5067   18.2383 C   0  0  0  0  0  0
  -28.0384  -12.3214   18.6562 C   0  0  0  0  0  0
  -27.6360  -13.2361   19.8437 C   0  0  2  0  0  0
  -28.6810  -13.2056   20.9792 C   0  0  0  0  0  0
  -25.2489  -13.8201   20.5700 C   0  0  0  0  0  0
  -24.1791  -13.0437   20.9219 C   0  0  0  0  0  0
  -24.6387  -11.6916   20.8754 C   0  0  0  0  0  0
  -23.9065  -10.4289   21.0405 C   0  0  0  0  0  0
  -24.3615   -9.4204   21.9180 C   0  0  0  0  0  0
  -23.6292   -8.2240   22.0751 C   0  0  0  0  0  0
  -22.4276   -8.0277   21.3541 C   0  0  0  0  0  0
  -21.9911   -9.0249   20.4644 C   0  0  0  0  0  0
  -22.7239  -10.2129   20.3053 C   0  0  0  0  0  0
  -21.6852   -6.0730   22.5275 C   0  0  0  0  0  0
  -21.4014   -6.5635   23.8209 C   0  0  0  0  0  0
  -21.3658   -5.6790   24.9173 C   0  0  0  0  0  0
  -21.6046   -4.3053   24.7227 C   0  0  0  0  0  0
  -21.8821   -3.8141   23.4350 C   0  0  0  0  0  0
  -21.9196   -4.6957   22.3403 C   0  0  0  0  0  0
  -22.7810  -13.5213   21.1873 C   0  0  0  0  0  0
  -22.1663   -4.2141   21.0982 F   0  0  0  0  0  0
  -21.5630   -3.4539   25.7740 F   0  0  0  0  0  0
  -29.9720  -13.5718   20.3859 N   0  0  0  0  0  0
  -26.2909  -12.9414   20.3259 N   0  0  0  0  0  0
  -25.9317  -11.6553   20.5747 N   0  0  0  0  0  0
  -22.0458  -12.8198   22.0426 N   0  0  0  0  0  0
  -25.4169  -15.1927   20.4103 N   0  0  0  0  0  0
  -31.8045  -14.8466   20.1589 O   0  0  0  0  0  0
  -21.6642   -6.8873   21.4236 O   0  0  0  0  0  0
  -22.3495  -14.5520   20.6717 O   0  0  0  0  0  0
  -24.6349  -31.8524   23.1934 C   0  0  0  0  0  0
  -25.9159  -32.4739   23.8298 C   0  0  1  0  0  0
  -27.2187  -27.2241   20.1393 C   0  0  0  0  0  0
  -25.5941  -33.8542   24.2227 N   0  0  0  0  0  0
  -23.4330  -30.4729   21.5371 C   0  0  2  0  0  0
  -24.8803  -28.9093   20.1107 C   0  0  0  0  0  0
  -22.7518  -29.4595   22.4886 C   0  0  0  0  0  0
  -18.0291  -28.1401   22.8493 C   0  0  0  0  0  0
  -24.1484  -36.7279   23.2639 C   0  0  0  0  0  0
  -25.9807  -30.7544   21.3761 C   0  0  0  0  0  0
  -26.0533  -29.3727   20.7193 C   0  0  0  0  0  0
  -27.2259  -28.5451   20.7153 C   0  0  0  0  0  0
  -26.0209  -26.8331   19.5035 C   0  0  0  0  0  0
  -24.8717  -27.6510   19.4891 C   0  0  0  0  0  0
  -23.6531  -29.8009   20.1552 C   0  0  0  0  0  0
  -25.4113  -36.3058   24.0317 C   0  0  1  0  0  0
  -20.5902  -28.3723   23.1258 C   0  0  2  0  0  0
  -20.6783  -26.9437   22.5405 C   0  0  0  0  0  0
  -19.5755  -26.6403   21.5212 C   0  0  0  0  0  0
  -18.1936  -26.7942   22.1630 C   0  0  0  0  0  0
  -19.1548  -28.8881   23.2873 C   0  0  0  0  0  0
  -18.9465  -30.1478   23.8897 C   0  0  0  0  0  0
  -17.6466  -30.6603   24.0569 C   0  0  0  0  0  0
  -25.9059  -34.9435   23.5078 C   0  0  0  0  0  0
  -16.5359  -29.9101   23.6334 C   0  0  0  0  0  0
  -16.7279  -28.6516   23.0363 C   0  0  0  0  0  0
  -26.4510  -31.6577   25.0707 C   0  0  0  0  0  0
  -25.3723  -31.3744   26.1421 C   0  0  0  0  0  0
  -27.0350  -30.2985   24.6216 C   0  0  0  0  0  0
  -27.6047  -32.4334   25.7488 C   0  0  0  0  0  0
  -27.5568  -37.1799   24.8468 C   0  0  0  0  0  0
  -21.4222  -29.3057   22.3634 N   0  0  0  0  0  0
  -26.4289  -37.3759   23.9400 N   0  0  0  0  0  0
  -24.7023  -31.0457   22.0924 N   0  0  0  0  0  0
  -23.4203  -28.8135   23.2997 O   0  0  0  0  0  0
  -28.3108  -26.3184   20.2006 O   0  0  0  0  0  0
  -26.5636  -34.8922   22.4650 O   0  0  0  0  0  0
  -23.5497  -32.1364   23.7212 O   0  0  0  0  0  0
  -31.5725  -17.6962   21.1444 C   0  0  0  0  0  0
  -32.0373  -19.0121   21.3047 C   0  0  0  0  0  0
  -29.4178  -18.6062   20.4809 C   0  0  0  0  0  0
  -29.8712  -20.0011   20.6376 C   0  0  0  0  0  0
  -30.2568  -17.4166   20.7167 C   0  0  0  0  0  0
  -31.2226  -20.1323   21.0589 C   0  0  0  0  0  0
  -29.0128  -21.3140   20.3922 C   0  0  0  0  0  0
  -29.3867  -23.9254   20.5240 C   0  0  0  0  0  0
  -28.1018  -24.8053   20.1341 C   0  0  0  0  0  0
  -29.8487  -15.9714   20.6049 N   0  0  0  0  0  0
  -29.6209  -22.5463   20.5822 N   0  0  0  0  0  0
  -27.8329  -21.2163   20.0430 O   0  0  0  0  0  0
  -30.3661  -24.6105   20.8348 O   0  0  0  0  0  0
  -31.7858  -21.3508   21.2503 F   0  0  0  0  0  0
  -31.4697  -12.6194   19.1692 H   0  0  0  0  0  0
  -30.3889  -11.5242   19.9816 H   0  0  0  0  0  0
  -29.8018  -11.7216   17.5394 H   0  0  0  0  0  0
  -29.6259  -13.4516   17.7050 H   0  0  0  0  0  0
  -27.9085  -11.2755   18.9375 H   0  0  0  0  0  0
  -27.3786  -12.4909   17.8043 H   0  0  0  0  0  0
  -27.6187  -14.2499   19.4432 H   0  0  0  0  0  0
  -28.7334  -12.2169   21.4374 H   0  0  0  0  0  0
  -28.4090  -13.9009   21.7751 H   0  0  0  0  0  0
  -25.2759   -9.5682   22.4758 H   0  0  0  0  0  0
  -24.0001   -7.4631   22.7468 H   0  0  0  0  0  0
  -21.0843   -8.8764   19.8946 H   0  0  0  0  0  0
  -22.3693  -10.9666   19.6163 H   0  0  0  0  0  0
  -21.2004   -7.6143   23.9707 H   0  0  0  0  0  0
  -21.1479   -6.0524   25.9076 H   0  0  0  0  0  0
  -22.0603   -2.7603   23.2854 H   0  0  0  0  0  0
  -22.4083  -11.9871   22.4827 H   0  0  0  0  0  0
  -21.1066  -13.1203   22.2610 H   0  0  0  0  0  0
  -24.6468  -15.8439   20.5199 H   0  0  0  0  0  0
  -26.2541  -15.6302   20.0480 H   0  0  0  0  0  0
  -26.7219  -32.5374   23.1024 H   0  0  0  0  0  0
  -25.0058  -33.9663   25.0354 H   0  0  0  0  0  0
  -22.7304  -31.2956   21.3864 H   0  0  0  0  0  0
  -23.3743  -35.9617   23.3318 H   0  0  0  0  0  0
  -24.3555  -36.8895   22.2049 H   0  0  0  0  0  0
  -23.7258  -37.6489   23.6662 H   0  0  0  0  0  0
  -26.1182  -31.5111   20.6025 H   0  0  0  0  0  0
  -26.8588  -30.8083   22.0085 H   0  0  0  0  0  0
  -28.1255  -28.8962   21.2009 H   0  0  0  0  0  0
  -25.9468  -25.8677   19.0248 H   0  0  0  0  0  0
  -23.9727  -27.2920   19.0065 H   0  0  0  0  0  0
  -23.7808  -30.5742   19.3973 H   0  0  0  0  0  0
  -22.7707  -29.2351   19.8507 H   0  0  0  0  0  0
  -25.1299  -36.1890   25.0811 H   0  0  0  0  0  0
  -20.9998  -28.3314   24.1381 H   0  0  0  0  0  0
  -20.5682  -26.2340   23.3618 H   0  0  0  0  0  0
  -21.6647  -26.7462   22.1194 H   0  0  0  0  0  0
  -19.6921  -25.6309   21.1253 H   0  0  0  0  0  0
  -19.6688  -27.3202   20.6729 H   0  0  0  0  0  0
  -17.4203  -26.6698   21.4036 H   0  0  0  0  0  0
  -18.0343  -26.0078   22.9018 H   0  0  0  0  0  0
  -19.7938  -30.7294   24.2277 H   0  0  0  0  0  0
  -17.5015  -31.6279   24.5173 H   0  0  0  0  0  0
  -15.5359  -30.3005   23.7659 H   0  0  0  0  0  0
  -15.8676  -28.0831   22.7095 H   0  0  0  0  0  0
  -24.5900  -30.7086   25.7751 H   0  0  0  0  0  0
  -24.8912  -32.2922   26.4816 H   0  0  0  0  0  0
  -25.8040  -30.8946   27.0212 H   0  0  0  0  0  0
  -26.2933  -29.6732   24.1229 H   0  0  0  0  0  0
  -27.3993  -29.7250   25.4747 H   0  0  0  0  0  0
  -27.8826  -30.4228   23.9475 H   0  0  0  0  0  0
  -27.2634  -33.3642   26.2023 H   0  0  0  0  0  0
  -28.3881  -32.6887   25.0343 H   0  0  0  0  0  0
  -28.0679  -31.8490   26.5444 H   0  0  0  0  0  0
  -28.2601  -38.0077   24.7475 H   0  0  0  0  0  0
  -28.1053  -36.2609   24.6345 H   0  0  0  0  0  0
  -27.2280  -37.1500   25.8871 H   0  0  0  0  0  0
  -20.9426  -29.8758   21.6804 H   0  0  0  0  0  0
  -26.0167  -38.2832   24.1401 H   0  0  0  0  0  0
  -32.2646  -16.9024   21.3817 H   0  0  0  0  0  0
  -33.0540  -19.1696   21.6347 H   0  0  0  0  0  0
  -28.3948  -18.4544   20.1675 H   0  0  0  0  0  0
  -27.8004  -24.5205   19.1261 H   0  0  0  0  0  0
  -27.2888  -24.5248   20.8036 H   0  0  0  0  0  0
  -28.8551  -15.8044   20.6512 H   0  0  0  0  0  0
  -30.5775  -22.3786   20.8706 H   0  0  0  0  0  0
  1 25  1  0  0  0
  1 30  2  0  0  0
  1 80  1  0  0  0
  2  3  1  0  0  0
  2 25  1  0  0  0
  2 85  1  0  0  0
  2 86  1  0  0  0
  3  4  1  0  0  0
  3 87  1  0  0  0
  3 88  1  0  0  0
  4  5  1  0  0  0
  4 89  1  0  0  0
  4 90  1  0  0  0
  5  6  1  0  0  0
  5 26  1  0  0  0
  5 91  1  0  0  0
  6 25  1  0  0  0
  6 92  1  0  0  0
  6 93  1  0  0  0
  7  8  2  0  0  0
  7 26  1  0  0  0
  7 29  1  0  0  0
  8  9  1  0  0  0
  8 22  1  0  0  0
  9 10  1  0  0  0
  9 27  2  0  0  0
 10 11  2  0  0  0
 10 15  1  0  0  0
 11 12  1  0  0  0
 11 94  1  0  0  0
 12 13  2  0  0  0
 12 95  1  0  0  0
 13 14  1  0  0  0
 13 31  1  0  0  0
 14 15  2  0  0  0
 14 96  1  0  0  0
 15 97  1  0  0  0
 16 17  2  0  0  0
 16 21  1  0  0  0
 16 31  1  0  0  0
 17 18  1  0  0  0
 17 98  1  0  0  0
 18 19  2  0  0  0
 18 99  1  0  0  0
 19 20  1  0  0  0
 19 24  1  0  0  0
 20 21  2  0  0  0
 20100  1  0  0  0
 21 23  1  0  0  0
 22 28  1  0  0  0
 22 32  2  0  0  0
 26 27  1  0  0  0
 28101  1  0  0  0
 28102  1  0  0  0
 29103  1  0  0  0
 29104  1  0  0  0
 33 34  1  0  0  0
 33 66  1  0  0  0
 33 70  2  0  0  0
 34 36  1  0  0  0
 34 59  1  0  0  0
 34105  1  0  0  0
 35 44  2  0  0  0
 35 45  1  0  0  0
 35 68  1  0  0  0
 36 56  1  0  0  0
 36106  1  0  0  0
 37 39  1  0  0  0
 37 47  1  0  0  0
 37 66  1  0  0  0
 37107  1  0  0  0
 38 43  2  0  0  0
 38 46  1  0  0  0
 38 47  1  0  0  0
 39 64  1  0  0  0
 39 67  2  0  0  0
 40 52  1  0  0  0
 40 53  2  0  0  0
 40 58  1  0  0  0
 41108  1  0  0  0
 41109  1  0  0  0
 41110  1  0  0  0
 41 48  1  0  0  0
 42 43  1  0  0  0
 42 66  1  0  0  0
 42111  1  0  0  0
 42112  1  0  0  0
 43 44  1  0  0  0
 44113  1  0  0  0
 45 46  2  0  0  0
 45114  1  0  0  0
 46115  1  0  0  0
 47116  1  0  0  0
 47117  1  0  0  0
 48 56  1  0  0  0
 48 65  1  0  0  0
 48118  1  0  0  0
 49 50  1  0  0  0
 49 53  1  0  0  0
 49 64  1  0  0  0
 49119  1  0  0  0
 50 51  1  0  0  0
 50120  1  0  0  0
 50121  1  0  0  0
 51 52  1  0  0  0
 51122  1  0  0  0
 51123  1  0  0  0
 52124  1  0  0  0
 52125  1  0  0  0
 53 54  1  0  0  0
 54 55  2  0  0  0
 54126  1  0  0  0
 55 57  1  0  0  0
 55127  1  0  0  0
 56 69  2  0  0  0
 57 58  2  0  0  0
 57128  1  0  0  0
 58129  1  0  0  0
 59 60  1  0  0  0
 59 61  1  0  0  0
 59 62  1  0  0  0
 60130  1  0  0  0
 60131  1  0  0  0
 60132  1  0  0  0
 61133  1  0  0  0
 61134  1  0  0  0
 61135  1  0  0  0
 62136  1  0  0  0
 62137  1  0  0  0
 62138  1  0  0  0
 63 65  1  0  0  0
 63139  1  0  0  0
 63140  1  0  0  0
 63141  1  0  0  0
 64142  1  0  0  0
 65143  1  0  0  0
 68 79  1  0  0  0
 71 72  2  0  0  0
 71 75  1  0  0  0
 71144  1  0  0  0
 72 76  1  0  0  0
 72145  1  0  0  0
 73 74  1  0  0  0
 73 75  2  0  0  0
 73146  1  0  0  0
 74 76  2  0  0  0
 74 77  1  0  0  0
 75 80  1  0  0  0
 76 84  1  0  0  0
 77 81  1  0  0  0
 77 82  2  0  0  0
 78 79  1  0  0  0
 78 81  1  0  0  0
 78 83  2  0  0  0
 79147  1  0  0  0
 79148  1  0  0  0
 80149  1  0  0  0
 81150  1  0  0  0
M  ISO  4   1 100  68 101  79 101  80 100
M  END
> <chiral flag>
0

> <version>
0

> <s_m_source_file>
/data/baiqing/PycharmProjects/Reinvent-master-3.2/result/LINK_invent/BTK/process_docking_weight1_custom_product_contain_oxygen_bond_distance_aromatic_linkinvent_7_9_3/rearranged_h_0067.sdf

> <i_m_source_file_index>
42

> <r_mmod_Potential_Energy-OPLS-2005>
90.3558578491211

> <r_mmod_Stretch_Energy-OPLS-2005>
154.358474731445

> <r_mmod_Bend_Energy-OPLS-2005>
231.961212158203

> <r_mmod_Torsional_Energy-OPLS-2005>
220.42658996582

> <r_mmod_Improper_Torsional_Energy-OPLS-2005>
5.59665489196777

> <r_mmod_Van_der_Waal_Energy-OPLS-2005>
146.337036132812

> <r_mmod_Electrostatic_Energy-OPLS-2005>
-530.86669921875

> <r_mmod_Solvation_Energy-OPLS-2005>
-246.142852783203

> <b_mmod_Minimization_Converged-OPLS-2005>
0

> <r_mmod_RMS_Derivative-OPLS-2005>
1.20821118354797

$$$$
42
                    3D
 Structure written by MMmdl.
155163  0  0  1  0            999 V2000
  -30.6121  -14.7337   20.4837 C   0  0  0  0  0  0
  -30.4386  -12.4561   19.4516 C   0  0  0  0  0  0
  -29.5096  -12.5118   18.2196 C   0  0  0  0  0  0
  -28.0348  -12.3333   18.6358 C   0  0  0  0  0  0
  -27.6418  -13.2280   19.8421 C   0  0  2  0  0  0
  -28.6903  -13.1549   20.9721 C   0  0  0  0  0  0
  -25.2522  -13.8177   20.5663 C   0  0  0  0  0  0
  -24.1810  -13.0433   20.9194 C   0  0  0  0  0  0
  -24.6399  -11.6910   20.8738 C   0  0  0  0  0  0
  -23.9075  -10.4288   21.0408 C   0  0  0  0  0  0
  -24.3624   -9.4199   21.9184 C   0  0  0  0  0  0
  -23.6289   -8.2243   22.0763 C   0  0  0  0  0  0
  -22.4271   -8.0282   21.3551 C   0  0  0  0  0  0
  -21.9909   -9.0261   20.4656 C   0  0  0  0  0  0
  -22.7250  -10.2133   20.3055 C   0  0  0  0  0  0
  -21.6859   -6.0728   22.5281 C   0  0  0  0  0  0
  -21.4016   -6.5632   23.8212 C   0  0  0  0  0  0
  -21.3659   -5.6788   24.9176 C   0  0  0  0  0  0
  -21.6044   -4.3051   24.7232 C   0  0  0  0  0  0
  -21.8818   -3.8142   23.4355 C   0  0  0  0  0  0
  -21.9183   -4.6954   22.3408 C   0  0  0  0  0  0
  -22.7826  -13.5223   21.1857 C   0  0  0  0  0  0
  -22.1656   -4.2137   21.0988 F   0  0  0  0  0  0
  -21.5628   -3.4537   25.7748 F   0  0  0  0  0  0
  -29.9863  -13.5127   20.3815 N   0  0  0  0  0  0
  -26.2948  -12.9384   20.3232 N   0  0  0  0  0  0
  -25.9323  -11.6536   20.5717 N   0  0  0  0  0  0
  -22.0464  -12.8220   22.0421 N   0  0  0  0  0  0
  -25.4160  -15.1908   20.4071 N   0  0  0  0  0  0
  -31.8178  -14.8342   20.2414 O   0  0  0  0  0  0
  -21.6638   -6.8878   21.4245 O   0  0  0  0  0  0
  -22.3511  -14.5531   20.6705 O   0  0  0  0  0  0
  -24.6312  -31.8559   23.1969 C   0  0  0  0  0  0
  -25.9128  -32.4761   23.8331 C   0  0  1  0  0  0
  -27.2196  -27.2612   20.1513 C   0  0  0  0  0  0
  -25.5927  -33.8563   24.2267 N   0  0  0  0  0  0
  -23.4293  -30.4767   21.5399 C   0  0  2  0  0  0
  -24.8776  -28.9186   20.1144 C   0  0  0  0  0  0
  -22.7500  -29.4611   22.4904 C   0  0  0  0  0  0
  -18.0292  -28.1407   22.8479 C   0  0  0  0  0  0
  -24.1481  -36.7272   23.2644 C   0  0  0  0  0  0
  -25.9744  -30.7701   21.3762 C   0  0  0  0  0  0
  -26.0474  -29.3907   20.7240 C   0  0  0  0  0  0
  -27.2244  -28.5759   20.7250 C   0  0  0  0  0  0
  -26.0319  -26.8563   19.5069 C   0  0  0  0  0  0
  -24.8736  -27.6592   19.4941 C   0  0  0  0  0  0
  -23.6483  -29.8050   20.1580 C   0  0  0  0  0  0
  -25.4113  -36.3076   24.0335 C   0  0  1  0  0  0
  -20.5898  -28.3712   23.1260 C   0  0  2  0  0  0
  -20.6784  -26.9434   22.5408 C   0  0  0  0  0  0
  -19.5761  -26.6404   21.5216 C   0  0  0  0  0  0
  -18.1936  -26.7952   22.1626 C   0  0  0  0  0  0
  -19.1543  -28.8876   23.2868 C   0  0  0  0  0  0
  -18.9470  -30.1480   23.8894 C   0  0  0  0  0  0
  -17.6462  -30.6601   24.0572 C   0  0  0  0  0  0
  -25.9050  -34.9443   23.5106 C   0  0  0  0  0  0
  -16.5358  -29.9100   23.6333 C   0  0  0  0  0  0
  -16.7279  -28.6520   23.0356 C   0  0  0  0  0  0
  -26.4505  -31.6588   25.0717 C   0  0  0  0  0  0
  -25.3728  -31.3735   26.1437 C   0  0  0  0  0  0
  -27.0356  -30.3001   24.6203 C   0  0  0  0  0  0
  -27.6052  -32.4338   25.7488 C   0  0  0  0  0  0
  -27.5576  -37.1794   24.8473 C   0  0  0  0  0  0
  -21.4206  -29.3061   22.3643 N   0  0  0  0  0  0
  -26.4290  -37.3773   23.9415 N   0  0  0  0  0  0
  -24.6972  -31.0521   22.0941 N   0  0  0  0  0  0
  -23.4187  -28.8173   23.3026 O   0  0  0  0  0  0
  -28.3109  -26.3656   20.1831 O   0  0  0  0  0  0
  -26.5621  -34.8923   22.4667 O   0  0  0  0  0  0
  -23.5453  -32.1385   23.7255 O   0  0  0  0  0  0
  -30.3464  -19.8163   22.2643 C   0  0  0  0  0  0
  -30.7147  -17.3835   22.2513 C   0  0  0  0  0  0
  -29.5474  -18.4656   20.4078 C   0  0  0  0  0  0
  -30.8438  -18.6405   22.8808 C   0  0  0  0  0  0
  -29.6915  -19.7852   21.0113 C   0  0  0  0  0  0
  -30.0520  -17.2378   21.0159 C   0  0  0  0  0  0
  -31.5471  -18.7152   24.2030 C   0  0  0  0  0  0
  -28.9160  -22.2905   20.9502 C   0  0  0  0  0  0
  -28.9047  -23.6766   20.1370 C   0  0  0  0  0  0
  -28.0857  -24.9645   20.6940 C   0  0  0  0  0  0
  -31.0516  -19.5746   25.0812 N   0  0  0  0  0  0
  -29.2967  -21.0785   20.3793 N   0  0  0  0  0  0
  -29.8035  -15.8603   20.5337 N   0  0  0  0  0  0
  -32.4906  -17.9749   24.4779 O   0  0  0  0  0  0
  -28.5486  -22.3282   22.1267 O   0  0  0  0  0  0
  -31.4792  -12.5895   19.1480 H   0  0  0  0  0  0
  -30.3860  -11.4769   19.9309 H   0  0  0  0  0  0
  -29.7932  -11.7429   17.4994 H   0  0  0  0  0  0
  -29.6341  -13.4683   17.7074 H   0  0  0  0  0  0
  -27.8910  -11.2830   18.8915 H   0  0  0  0  0  0
  -27.3777  -12.5306   17.7880 H   0  0  0  0  0  0
  -27.6353  -14.2506   19.4644 H   0  0  0  0  0  0
  -28.7293  -12.1539   21.4069 H   0  0  0  0  0  0
  -28.4308  -13.8343   21.7868 H   0  0  0  0  0  0
  -25.2779   -9.5663   22.4746 H   0  0  0  0  0  0
  -23.9989   -7.4639   22.7485 H   0  0  0  0  0  0
  -21.0838   -8.8790   19.8971 H   0  0  0  0  0  0
  -22.3725  -10.9662   19.6152 H   0  0  0  0  0  0
  -21.2018   -7.6143   23.9716 H   0  0  0  0  0  0
  -21.1480   -6.0520   25.9078 H   0  0  0  0  0  0
  -22.0594   -2.7600   23.2865 H   0  0  0  0  0  0
  -22.4075  -11.9891   22.4833 H   0  0  0  0  0  0
  -21.1072  -13.1247   22.2613 H   0  0  0  0  0  0
  -24.6415  -15.8357   20.5199 H   0  0  0  0  0  0
  -26.2546  -15.6422   20.0677 H   0  0  0  0  0  0
  -26.7191  -32.5416   23.1077 H   0  0  0  0  0  0
  -25.0109  -33.9700   25.0436 H   0  0  0  0  0  0
  -22.7275  -31.2991   21.3891 H   0  0  0  0  0  0
  -23.3758  -35.9585   23.3316 H   0  0  0  0  0  0
  -24.3573  -36.8883   22.2057 H   0  0  0  0  0  0
  -23.7218  -37.6475   23.6648 H   0  0  0  0  0  0
  -26.1117  -31.5268   20.6022 H   0  0  0  0  0  0
  -26.8531  -30.8227   22.0071 H   0  0  0  0  0  0
  -28.1236  -28.9319   21.2077 H   0  0  0  0  0  0
  -25.9884  -25.8929   19.0193 H   0  0  0  0  0  0
  -23.9786  -27.2940   19.0102 H   0  0  0  0  0  0
  -23.7751  -30.5781   19.4002 H   0  0  0  0  0  0
  -22.7673  -29.2365   19.8544 H   0  0  0  0  0  0
  -25.1291  -36.1933   25.0826 H   0  0  0  0  0  0
  -20.9997  -28.3313   24.1380 H   0  0  0  0  0  0
  -20.5693  -26.2334   23.3615 H   0  0  0  0  0  0
  -21.6645  -26.7467   22.1198 H   0  0  0  0  0  0
  -19.6919  -25.6313   21.1253 H   0  0  0  0  0  0
  -19.6699  -27.3205   20.6734 H   0  0  0  0  0  0
  -17.4207  -26.6701   21.4032 H   0  0  0  0  0  0
  -18.0334  -26.0101   22.9027 H   0  0  0  0  0  0
  -19.7949  -30.7303   24.2259 H   0  0  0  0  0  0
  -17.5023  -31.6279   24.5190 H   0  0  0  0  0  0
  -15.5362  -30.3007   23.7664 H   0  0  0  0  0  0
  -15.8683  -28.0847   22.7068 H   0  0  0  0  0  0
  -24.5899  -30.7086   25.7777 H   0  0  0  0  0  0
  -24.8923  -32.2900   26.4857 H   0  0  0  0  0  0
  -25.8045  -30.8931   27.0224 H   0  0  0  0  0  0
  -26.2941  -29.6749   24.1211 H   0  0  0  0  0  0
  -27.4029  -29.7261   25.4724 H   0  0  0  0  0  0
  -27.8821  -30.4296   23.9452 H   0  0  0  0  0  0
  -27.2651  -33.3641   26.2046 H   0  0  0  0  0  0
  -28.3858  -32.6900   25.0312 H   0  0  0  0  0  0
  -28.0718  -31.8487   26.5426 H   0  0  0  0  0  0
  -28.2609  -38.0082   24.7514 H   0  0  0  0  0  0
  -28.1065  -36.2612   24.6306 H   0  0  0  0  0  0
  -27.2294  -37.1446   25.8881 H   0  0  0  0  0  0
  -20.9386  -29.8758   21.6823 H   0  0  0  0  0  0
  -26.0179  -38.2850   24.1419 H   0  0  0  0  0  0
  -30.5021  -20.7638   22.7622 H   0  0  0  0  0  0
  -31.0904  -16.5100   22.7659 H   0  0  0  0  0  0
  -29.0365  -18.3954   19.4578 H   0  0  0  0  0  0
  -28.5822  -23.4707   19.1179 H   0  0  0  0  0  0
  -29.9497  -23.9743   20.0596 H   0  0  0  0  0  0
  -27.0277  -24.7100   20.6334 H   0  0  0  0  0  0
  -28.2772  -25.0290   21.7653 H   0  0  0  0  0  0
  -30.2414  -20.1240   24.8420 H   0  0  0  0  0  0
  -31.4633  -19.6588   25.9996 H   0  0  0  0  0  0
  -29.4066  -21.1101   19.3744 H   0  0  0  0  0  0
  -28.8347  -15.6581   20.3484 H   0  0  0  0  0  0
  1 25  1  0  0  0
  1 30  2  0  0  0
  1 83  1  0  0  0
  2  3  1  0  0  0
  2 25  1  0  0  0
  2 86  1  0  0  0
  2 87  1  0  0  0
  3  4  1  0  0  0
  3 88  1  0  0  0
  3 89  1  0  0  0
  4  5  1  0  0  0
  4 90  1  0  0  0
  4 91  1  0  0  0
  5  6  1  0  0  0
  5 26  1  0  0  0
  5 92  1  0  0  0
  6 25  1  0  0  0
  6 93  1  0  0  0
  6 94  1  0  0  0
  7  8  2  0  0  0
  7 26  1  0  0  0
  7 29  1  0  0  0
  8  9  1  0  0  0
  8 22  1  0  0  0
  9 10  1  0  0  0
  9 27  2  0  0  0
 10 11  2  0  0  0
 10 15  1  0  0  0
 11 12  1  0  0  0
 11 95  1  0  0  0
 12 13  2  0  0  0
 12 96  1  0  0  0
 13 14  1  0  0  0
 13 31  1  0  0  0
 14 15  2  0  0  0
 14 97  1  0  0  0
 15 98  1  0  0  0
 16 17  2  0  0  0
 16 21  1  0  0  0
 16 31  1  0  0  0
 17 18  1  0  0  0
 17 99  1  0  0  0
 18 19  2  0  0  0
 18100  1  0  0  0
 19 20  1  0  0  0
 19 24  1  0  0  0
 20 21  2  0  0  0
 20101  1  0  0  0
 21 23  1  0  0  0
 22 28  1  0  0  0
 22 32  2  0  0  0
 26 27  1  0  0  0
 28102  1  0  0  0
 28103  1  0  0  0
 29104  1  0  0  0
 29105  1  0  0  0
 33 34  1  0  0  0
 33 66  1  0  0  0
 33 70  2  0  0  0
 34 36  1  0  0  0
 34 59  1  0  0  0
 34106  1  0  0  0
 35 44  2  0  0  0
 35 45  1  0  0  0
 35 68  1  0  0  0
 36 56  1  0  0  0
 36107  1  0  0  0
 37 39  1  0  0  0
 37 47  1  0  0  0
 37 66  1  0  0  0
 37108  1  0  0  0
 38 43  2  0  0  0
 38 46  1  0  0  0
 38 47  1  0  0  0
 39 64  1  0  0  0
 39 67  2  0  0  0
 40 52  1  0  0  0
 40 53  2  0  0  0
 40 58  1  0  0  0
 41109  1  0  0  0
 41110  1  0  0  0
 41111  1  0  0  0
 41 48  1  0  0  0
 42 43  1  0  0  0
 42 66  1  0  0  0
 42112  1  0  0  0
 42113  1  0  0  0
 43 44  1  0  0  0
 44114  1  0  0  0
 45 46  2  0  0  0
 45115  1  0  0  0
 46116  1  0  0  0
 47117  1  0  0  0
 47118  1  0  0  0
 48 56  1  0  0  0
 48 65  1  0  0  0
 48119  1  0  0  0
 49 50  1  0  0  0
 49 53  1  0  0  0
 49 64  1  0  0  0
 49120  1  0  0  0
 50 51  1  0  0  0
 50121  1  0  0  0
 50122  1  0  0  0
 51 52  1  0  0  0
 51123  1  0  0  0
 51124  1  0  0  0
 52125  1  0  0  0
 52126  1  0  0  0
 53 54  1  0  0  0
 54 55  2  0  0  0
 54127  1  0  0  0
 55 57  1  0  0  0
 55128  1  0  0  0
 56 69  2  0  0  0
 57 58  2  0  0  0
 57129  1  0  0  0
 58130  1  0  0  0
 59 60  1  0  0  0
 59 61  1  0  0  0
 59 62  1  0  0  0
 60131  1  0  0  0
 60132  1  0  0  0
 60133  1  0  0  0
 61134  1  0  0  0
 61135  1  0  0  0
 61136  1  0  0  0
 62137  1  0  0  0
 62138  1  0  0  0
 62139  1  0  0  0
 63 65  1  0  0  0
 63140  1  0  0  0
 63141  1  0  0  0
 63142  1  0  0  0
 64143  1  0  0  0
 65144  1  0  0  0
 68 80  1  0  0  0
 71 74  2  0  0  0
 71 75  1  0  0  0
 71145  1  0  0  0
 72 74  1  0  0  0
 72 76  2  0  0  0
 72146  1  0  0  0
 73 75  2  0  0  0
 73 76  1  0  0  0
 73147  1  0  0  0
 74 77  1  0  0  0
 75 82  1  0  0  0
 76 83  1  0  0  0
 77 81  1  0  0  0
 77 84  2  0  0  0
 78 79  1  0  0  0
 78 82  1  0  0  0
 78 85  2  0  0  0
 79 80  1  0  0  0
 79148  1  0  0  0
 79149  1  0  0  0
 80150  1  0  0  0
 80151  1  0  0  0
 81152  1  0  0  0
 81153  1  0  0  0
 82154  1  0  0  0
 83155  1  0  0  0
M  ISO  4   1 100  68 101  80 101  83 100
M  END
> <chiral flag>
0

> <version>
0

> <s_m_source_file>
/data/baiqing/PycharmProjects/Reinvent-master-3.2/result/LINK_invent/BTK/process_docking_weight1_custom_product_contain_oxygen_bond_distance_aromatic_linkinvent_7_9_3/rearranged_h_0067.sdf

> <i_m_source_file_index>
43

> <r_mmod_Potential_Energy-OPLS-2005>
-29.4535961151123

> <r_mmod_Stretch_Energy-OPLS-2005>
122.960639953613

> <r_mmod_Bend_Energy-OPLS-2005>
154.754547119141

> <r_mmod_Torsional_Energy-OPLS-2005>
284.074188232422

> <r_mmod_Improper_Torsional_Energy-OPLS-2005>
9.58107757568359

> <r_mmod_Van_der_Waal_Energy-OPLS-2005>
138.698837280273

> <r_mmod_Electrostatic_Energy-OPLS-2005>
-551.2509765625

> <r_mmod_Solvation_Energy-OPLS-2005>
-273.704162597656

> <b_mmod_Minimization_Converged-OPLS-2005>
0

> <r_mmod_RMS_Derivative-OPLS-2005>
2.29679346084595

$$$$
43
                    3D
 Structure written by MMmdl.
159168  0  0  1  0            999 V2000
  -30.6440  -14.7655   20.3959 C   0  0  0  0  0  0
  -30.4282  -12.4577   19.4756 C   0  0  0  0  0  0
  -29.5019  -12.4617   18.2405 C   0  0  0  0  0  0
  -28.0302  -12.3090   18.6590 C   0  0  0  0  0  0
  -27.6371  -13.2372   19.8394 C   0  0  2  0  0  0
  -28.6886  -13.2206   20.9705 C   0  0  0  0  0  0
  -25.2501  -13.8219   20.5707 C   0  0  0  0  0  0
  -24.1798  -13.0457   20.9224 C   0  0  0  0  0  0
  -24.6394  -11.6936   20.8767 C   0  0  0  0  0  0
  -23.9075  -10.4304   21.0414 C   0  0  0  0  0  0
  -24.3622   -9.4211   21.9185 C   0  0  0  0  0  0
  -23.6297   -8.2244   22.0749 C   0  0  0  0  0  0
  -22.4282   -8.0280   21.3538 C   0  0  0  0  0  0
  -21.9917   -9.0263   20.4650 C   0  0  0  0  0  0
  -22.7249  -10.2142   20.3065 C   0  0  0  0  0  0
  -21.6853   -6.0734   22.5277 C   0  0  0  0  0  0
  -21.4015   -6.5633   23.8212 C   0  0  0  0  0  0
  -21.3662   -5.6790   24.9173 C   0  0  0  0  0  0
  -21.6045   -4.3054   24.7227 C   0  0  0  0  0  0
  -21.8818   -3.8143   23.4348 C   0  0  0  0  0  0
  -21.9192   -4.6961   22.3402 C   0  0  0  0  0  0
  -22.7816  -13.5227   21.1875 C   0  0  0  0  0  0
  -22.1659   -4.2143   21.0982 F   0  0  0  0  0  0
  -21.5630   -3.4537   25.7740 F   0  0  0  0  0  0
  -29.9853  -13.5543   20.3692 N   0  0  0  0  0  0
  -26.2928  -12.9438   20.3281 N   0  0  0  0  0  0
  -25.9330  -11.6577   20.5781 N   0  0  0  0  0  0
  -22.0463  -12.8218   22.0433 N   0  0  0  0  0  0
  -25.4179  -15.1944   20.4100 N   0  0  0  0  0  0
  -31.8584  -14.7833   20.2000 O   0  0  0  0  0  0
  -21.6641   -6.8881   21.4242 O   0  0  0  0  0  0
  -22.3496  -14.5529   20.6718 O   0  0  0  0  0  0
  -24.6338  -31.8547   23.2007 C   0  0  0  0  0  0
  -25.9158  -32.4754   23.8340 C   0  0  1  0  0  0
  -27.2064  -27.2383   20.1259 C   0  0  0  0  0  0
  -25.5948  -33.8556   24.2258 N   0  0  0  0  0  0
  -23.4308  -30.4825   21.5433 C   0  0  2  0  0  0
  -24.8774  -28.9388   20.1058 C   0  0  0  0  0  0
  -22.7515  -29.4608   22.4882 C   0  0  0  0  0  0
  -18.0297  -28.1383   22.8482 C   0  0  0  0  0  0
  -24.1491  -36.7285   23.2634 C   0  0  0  0  0  0
  -25.9816  -30.7593   21.3889 C   0  0  0  0  0  0
  -26.0512  -29.3826   20.7282 C   0  0  0  0  0  0
  -27.2165  -28.5428   20.7356 C   0  0  0  0  0  0
  -26.0150  -26.8972   19.4383 C   0  0  0  0  0  0
  -24.8666  -27.7044   19.4490 C   0  0  0  0  0  0
  -23.6510  -29.8277   20.1565 C   0  0  0  0  0  0
  -25.4116  -36.3068   24.0323 C   0  0  1  0  0  0
  -20.5906  -28.3702   23.1253 C   0  0  2  0  0  0
  -20.6784  -26.9417   22.5400 C   0  0  0  0  0  0
  -19.5757  -26.6381   21.5204 C   0  0  0  0  0  0
  -18.1938  -26.7924   22.1621 C   0  0  0  0  0  0
  -19.1552  -28.8857   23.2866 C   0  0  0  0  0  0
  -18.9471  -30.1456   23.8887 C   0  0  0  0  0  0
  -17.6471  -30.6586   24.0557 C   0  0  0  0  0  0
  -25.9063  -34.9436   23.5091 C   0  0  0  0  0  0
  -16.5362  -29.9081   23.6330 C   0  0  0  0  0  0
  -16.7284  -28.6499   23.0350 C   0  0  0  0  0  0
  -26.4512  -31.6580   25.0732 C   0  0  0  0  0  0
  -25.3737  -31.3740   26.1455 C   0  0  0  0  0  0
  -27.0364  -30.2990   24.6247 C   0  0  0  0  0  0
  -27.6060  -32.4323   25.7510 C   0  0  0  0  0  0
  -27.5582  -37.1799   24.8461 C   0  0  0  0  0  0
  -21.4216  -29.3051   22.3635 N   0  0  0  0  0  0
  -26.4288  -37.3771   23.9413 N   0  0  0  0  0  0
  -24.7011  -31.0504   22.0996 N   0  0  0  0  0  0
  -23.4210  -28.8120   23.2965 O   0  0  0  0  0  0
  -28.2558  -26.2787   20.2285 O   0  0  0  0  0  0
  -26.5626  -34.8915   22.4656 O   0  0  0  0  0  0
  -23.5482  -32.1367   23.7296 O   0  0  0  0  0  0
  -31.3786  -18.8651   18.2880 C   0  0  0  0  0  0
  -30.8157  -20.0064   18.8662 C   0  0  0  0  0  0
  -29.0564  -23.1222   21.6568 C   0  0  0  0  0  0
  -29.6455  -18.5697   20.4405 C   0  0  0  0  0  0
  -31.0713  -17.5599   18.7294 C   0  0  0  0  0  0
  -28.6601  -23.5112   20.3348 C   0  0  0  0  0  0
  -29.9047  -19.9210   19.9304 C   0  0  0  0  0  0
  -30.2324  -17.3403   19.8810 C   0  0  0  0  0  0
  -29.4773  -21.8050   21.6580 C   0  0  0  0  0  0
  -28.8868  -22.3303   19.6126 C   0  0  0  0  0  0
  -31.6690  -16.5275   17.8407 C   0  0  0  0  0  0
  -30.6891  -15.7400   16.9867 C   0  0  0  0  0  0
  -27.9213  -24.8507   19.8562 C   0  0  0  0  0  0
  -29.4012  -21.2450   20.3877 N   0  0  0  0  0  0
  -29.9122  -15.9572   20.4008 N   0  0  0  0  0  0
  -32.8829  -16.3877   17.6638 O   0  0  0  0  0  0
  -29.9507  -21.0682   22.7009 O   0  0  0  0  0  0
  -28.6467  -22.1234   18.2859 O   0  0  0  0  0  0
  -31.4669  -12.5701   19.1590 H   0  0  0  0  0  0
  -30.3757  -11.4986   19.9944 H   0  0  0  0  0  0
  -29.7806  -11.6591   17.5564 H   0  0  0  0  0  0
  -29.6208  -13.3857   17.6827 H   0  0  0  0  0  0
  -27.8826  -11.2669   18.9442 H   0  0  0  0  0  0
  -27.3739  -12.4835   17.8059 H   0  0  0  0  0  0
  -27.6185  -14.2469   19.4283 H   0  0  0  0  0  0
  -28.7281  -12.2429   21.4528 H   0  0  0  0  0  0
  -28.4285  -13.9401   21.7483 H   0  0  0  0  0  0
  -25.2768   -9.5682   22.4760 H   0  0  0  0  0  0
  -24.0005   -7.4632   22.7465 H   0  0  0  0  0  0
  -21.0845   -8.8793   19.8958 H   0  0  0  0  0  0
  -22.3708  -10.9684   19.6178 H   0  0  0  0  0  0
  -21.2009   -7.6143   23.9716 H   0  0  0  0  0  0
  -21.1484   -6.0515   25.9073 H   0  0  0  0  0  0
  -22.0597   -2.7601   23.2851 H   0  0  0  0  0  0
  -22.4078  -11.9888   22.4840 H   0  0  0  0  0  0
  -21.1081  -13.1245   22.2642 H   0  0  0  0  0  0
  -24.6496  -15.8469   20.5237 H   0  0  0  0  0  0
  -26.2605  -15.6343   20.0626 H   0  0  0  0  0  0
  -26.7215  -32.5398   23.1068 H   0  0  0  0  0  0
  -25.0101  -33.9686   25.0407 H   0  0  0  0  0  0
  -22.7291  -31.3068   21.4014 H   0  0  0  0  0  0
  -23.3756  -35.9617   23.3283 H   0  0  0  0  0  0
  -24.3585  -36.8921   22.2052 H   0  0  0  0  0  0
  -23.7244  -37.6481   23.6667 H   0  0  0  0  0  0
  -26.1281  -31.5197   20.6207 H   0  0  0  0  0  0
  -26.8563  -30.8037   22.0253 H   0  0  0  0  0  0
  -28.1043  -28.8699   21.2577 H   0  0  0  0  0  0
  -25.9148  -25.9737   18.8898 H   0  0  0  0  0  0
  -23.9750  -27.3669   18.9378 H   0  0  0  0  0  0
  -23.7805  -30.6082   19.4062 H   0  0  0  0  0  0
  -22.7685  -29.2669   19.8452 H   0  0  0  0  0  0
  -25.1299  -36.1904   25.0816 H   0  0  0  0  0  0
  -21.0005  -28.3279   24.1370 H   0  0  0  0  0  0
  -20.5675  -26.2310   23.3607 H   0  0  0  0  0  0
  -21.6652  -26.7427   22.1202 H   0  0  0  0  0  0
  -19.6922  -25.6288   21.1240 H   0  0  0  0  0  0
  -19.6695  -27.3182   20.6727 H   0  0  0  0  0  0
  -17.4207  -26.6658   21.4028 H   0  0  0  0  0  0
  -18.0353  -26.0067   22.9023 H   0  0  0  0  0  0
  -19.7947  -30.7270   24.2254 H   0  0  0  0  0  0
  -17.5027  -31.6267   24.5155 H   0  0  0  0  0  0
  -15.5363  -30.2980   23.7665 H   0  0  0  0  0  0
  -15.8682  -28.0821   22.7065 H   0  0  0  0  0  0
  -24.5913  -30.7082   25.7788 H   0  0  0  0  0  0
  -24.8932  -32.2918   26.4858 H   0  0  0  0  0  0
  -25.8061  -30.8934   27.0242 H   0  0  0  0  0  0
  -26.2956  -29.6730   24.1258 H   0  0  0  0  0  0
  -27.4007  -29.7260   25.4784 H   0  0  0  0  0  0
  -27.8855  -30.4240   23.9525 H   0  0  0  0  0  0
  -27.2658  -33.3625   26.2071 H   0  0  0  0  0  0
  -28.3886  -32.6878   25.0354 H   0  0  0  0  0  0
  -28.0711  -31.8459   26.5444 H   0  0  0  0  0  0
  -28.2587  -38.0107   24.7527 H   0  0  0  0  0  0
  -28.1090  -36.2642   24.6261 H   0  0  0  0  0  0
  -27.2308  -37.1418   25.8864 H   0  0  0  0  0  0
  -20.9387  -29.8801   21.6874 H   0  0  0  0  0  0
  -26.0161  -38.2842   24.1423 H   0  0  0  0  0  0
  -32.0353  -19.0092   17.4397 H   0  0  0  0  0  0
  -31.0793  -20.9729   18.4599 H   0  0  0  0  0  0
  -29.0019  -23.7502   22.5351 H   0  0  0  0  0  0
  -28.9750  -18.4810   21.2831 H   0  0  0  0  0  0
  -30.4670  -16.2960   16.0762 H   0  0  0  0  0  0
  -29.7547  -15.5785   17.5219 H   0  0  0  0  0  0
  -31.1188  -14.7786   16.7072 H   0  0  0  0  0  0
  -26.9146  -24.6466   20.2210 H   0  0  0  0  0  0
  -27.8729  -24.8094   18.7673 H   0  0  0  0  0  0
  -28.9684  -15.8425   20.7389 H   0  0  0  0  0  0
  -29.9975  -21.6365   23.4632 H   0  0  0  0  0  0
  -28.3500  -22.9416   17.9030 H   0  0  0  0  0  0
  1 25  1  0  0  0
  1 30  2  0  0  0
  1 85  1  0  0  0
  2  3  1  0  0  0
  2 25  1  0  0  0
  2 89  1  0  0  0
  2 90  1  0  0  0
  3  4  1  0  0  0
  3 91  1  0  0  0
  3 92  1  0  0  0
  4  5  1  0  0  0
  4 93  1  0  0  0
  4 94  1  0  0  0
  5  6  1  0  0  0
  5 26  1  0  0  0
  5 95  1  0  0  0
  6 25  1  0  0  0
  6 96  1  0  0  0
  6 97  1  0  0  0
  7  8  2  0  0  0
  7 26  1  0  0  0
  7 29  1  0  0  0
  8  9  1  0  0  0
  8 22  1  0  0  0
  9 10  1  0  0  0
  9 27  2  0  0  0
 10 11  2  0  0  0
 10 15  1  0  0  0
 11 12  1  0  0  0
 11 98  1  0  0  0
 12 13  2  0  0  0
 12 99  1  0  0  0
 13 14  1  0  0  0
 13 31  1  0  0  0
 14 15  2  0  0  0
 14100  1  0  0  0
 15101  1  0  0  0
 16 17  2  0  0  0
 16 21  1  0  0  0
 16 31  1  0  0  0
 17 18  1  0  0  0
 17102  1  0  0  0
 18 19  2  0  0  0
 18103  1  0  0  0
 19 20  1  0  0  0
 19 24  1  0  0  0
 20 21  2  0  0  0
 20104  1  0  0  0
 21 23  1  0  0  0
 22 28  1  0  0  0
 22 32  2  0  0  0
 26 27  1  0  0  0
 28105  1  0  0  0
 28106  1  0  0  0
 29107  1  0  0  0
 29108  1  0  0  0
 33 34  1  0  0  0
 33 66  1  0  0  0
 33 70  2  0  0  0
 34 36  1  0  0  0
 34 59  1  0  0  0
 34109  1  0  0  0
 35 44  2  0  0  0
 35 45  1  0  0  0
 35 68  1  0  0  0
 36 56  1  0  0  0
 36110  1  0  0  0
 37 39  1  0  0  0
 37 47  1  0  0  0
 37 66  1  0  0  0
 37111  1  0  0  0
 38 43  2  0  0  0
 38 46  1  0  0  0
 38 47  1  0  0  0
 39 64  1  0  0  0
 39 67  2  0  0  0
 40 52  1  0  0  0
 40 53  2  0  0  0
 40 58  1  0  0  0
 41112  1  0  0  0
 41113  1  0  0  0
 41114  1  0  0  0
 41 48  1  0  0  0
 42 43  1  0  0  0
 42 66  1  0  0  0
 42115  1  0  0  0
 42116  1  0  0  0
 43 44  1  0  0  0
 44117  1  0  0  0
 45 46  2  0  0  0
 45118  1  0  0  0
 46119  1  0  0  0
 47120  1  0  0  0
 47121  1  0  0  0
 48 56  1  0  0  0
 48 65  1  0  0  0
 48122  1  0  0  0
 49 50  1  0  0  0
 49 53  1  0  0  0
 49 64  1  0  0  0
 49123  1  0  0  0
 50 51  1  0  0  0
 50124  1  0  0  0
 50125  1  0  0  0
 51 52  1  0  0  0
 51126  1  0  0  0
 51127  1  0  0  0
 52128  1  0  0  0
 52129  1  0  0  0
 53 54  1  0  0  0
 54 55  2  0  0  0
 54130  1  0  0  0
 55 57  1  0  0  0
 55131  1  0  0  0
 56 69  2  0  0  0
 57 58  2  0  0  0
 57132  1  0  0  0
 58133  1  0  0  0
 59 60  1  0  0  0
 59 61  1  0  0  0
 59 62  1  0  0  0
 60134  1  0  0  0
 60135  1  0  0  0
 60136  1  0  0  0
 61137  1  0  0  0
 61138  1  0  0  0
 61139  1  0  0  0
 62140  1  0  0  0
 62141  1  0  0  0
 62142  1  0  0  0
 63 65  1  0  0  0
 63143  1  0  0  0
 63144  1  0  0  0
 63145  1  0  0  0
 64146  1  0  0  0
 65147  1  0  0  0
 68 83  1  0  0  0
 71 72  2  0  0  0
 71 75  1  0  0  0
 71148  1  0  0  0
 72 77  1  0  0  0
 72149  1  0  0  0
 73 76  1  0  0  0
 73 79  2  0  0  0
 73150  1  0  0  0
 74 77  2  0  0  0
 74 78  1  0  0  0
 74151  1  0  0  0
 75 78  2  0  0  0
 75 81  1  0  0  0
 76 80  2  0  0  0
 76 83  1  0  0  0
 77 84  1  0  0  0
 78 85  1  0  0  0
 79 84  1  0  0  0
 79 87  1  0  0  0
 80 84  1  0  0  0
 80 88  1  0  0  0
 81 82  1  0  0  0
 81 86  2  0  0  0
 82152  1  0  0  0
 82153  1  0  0  0
 82154  1  0  0  0
 83155  1  0  0  0
 83156  1  0  0  0
 85157  1  0  0  0
 87158  1  0  0  0
 88159  1  0  0  0
M  ISO  4   1 100  68 101  83 101  85 100
M  END
> <chiral flag>
0

> <version>
0

> <s_m_source_file>
/data/baiqing/PycharmProjects/Reinvent-master-3.2/result/LINK_invent/BTK/process_docking_weight1_custom_product_contain_oxygen_bond_distance_aromatic_linkinvent_7_9_3/rearranged_h_0067.sdf

> <i_m_source_file_index>
44

> <r_mmod_Potential_Energy-OPLS-2005>
356.427764892578

> <r_mmod_Stretch_Energy-OPLS-2005>
142.161605834961

> <r_mmod_Bend_Energy-OPLS-2005>
192.426605224609

> <r_mmod_Torsional_Energy-OPLS-2005>
300.600219726562

> <r_mmod_Improper_Torsional_Energy-OPLS-2005>
9.37116527557373

> <r_mmod_Van_der_Waal_Energy-OPLS-2005>
147.65251159668

> <r_mmod_Electrostatic_Energy-OPLS-2005>
-288.435913085938

> <r_mmod_Solvation_Energy-OPLS-2005>
-257.5283203125

> <b_mmod_Minimization_Converged-OPLS-2005>
0

> <r_mmod_RMS_Derivative-OPLS-2005>
1.12025892734528

$$$$
44
                    3D
 Structure written by MMmdl.
163172  0  0  1  0            999 V2000
  -30.4835  -15.1279   20.3639 C   0  0  0  0  0  0
  -30.4372  -12.6903   19.5221 C   0  0  0  0  0  0
  -29.5366  -12.5640   18.2693 C   0  0  0  0  0  0
  -28.0704  -12.3313   18.6719 C   0  0  0  0  0  0
  -27.6237  -13.2679   19.8227 C   0  0  2  0  0  0
  -28.6621  -13.3620   20.9664 C   0  0  0  0  0  0
  -25.2433  -13.8042   20.5709 C   0  0  0  0  0  0
  -24.1778  -13.0290   20.9268 C   0  0  0  0  0  0
  -24.6451  -11.6817   20.8742 C   0  0  0  0  0  0
  -23.9104  -10.4227   21.0380 C   0  0  0  0  0  0
  -24.3621   -9.4154   21.9185 C   0  0  0  0  0  0
  -23.6280   -8.2206   22.0751 C   0  0  0  0  0  0
  -22.4263   -8.0278   21.3540 C   0  0  0  0  0  0
  -21.9903   -9.0237   20.4628 C   0  0  0  0  0  0
  -22.7250  -10.2107   20.3036 C   0  0  0  0  0  0
  -21.6833   -6.0754   22.5291 C   0  0  0  0  0  0
  -21.4024   -6.5655   23.8231 C   0  0  0  0  0  0
  -21.3649   -5.6796   24.9187 C   0  0  0  0  0  0
  -21.6022   -4.3056   24.7231 C   0  0  0  0  0  0
  -21.8803   -3.8163   23.4350 C   0  0  0  0  0  0
  -21.9185   -4.6987   22.3414 C   0  0  0  0  0  0
  -22.7813  -13.5118   21.1891 C   0  0  0  0  0  0
  -22.1639   -4.2202   21.0984 F   0  0  0  0  0  0
  -21.5617   -3.4512   25.7722 F   0  0  0  0  0  0
  -29.9227  -13.8257   20.3684 N   0  0  0  0  0  0
  -26.2894  -12.9389   20.3162 N   0  0  0  0  0  0
  -25.9399  -11.6503   20.5667 N   0  0  0  0  0  0
  -22.0374  -12.8185   22.0452 N   0  0  0  0  0  0
  -25.3987  -15.1671   20.4035 N   0  0  0  0  0  0
  -31.6851  -15.1553   20.0832 O   0  0  0  0  0  0
  -21.6585   -6.8912   21.4266 O   0  0  0  0  0  0
  -22.3584  -14.5471   20.6760 O   0  0  0  0  0  0
  -24.6590  -31.8282   23.1781 C   0  0  0  0  0  0
  -25.9288  -32.4609   23.8243 C   0  0  1  0  0  0
  -27.2293  -27.0214   20.1686 C   0  0  0  0  0  0
  -25.5948  -33.8431   24.2148 N   0  0  0  0  0  0
  -23.4672  -30.4493   21.5182 C   0  0  2  0  0  0
  -24.9270  -28.8530   20.1141 C   0  0  0  0  0  0
  -22.7585  -29.4544   22.4759 C   0  0  0  0  0  0
  -18.0265  -28.1232   22.8567 C   0  0  0  0  0  0
  -24.1457  -36.7223   23.2668 C   0  0  0  0  0  0
  -26.0357  -30.6706   21.3970 C   0  0  0  0  0  0
  -26.1069  -29.2672   20.7457 C   0  0  0  0  0  0
  -27.2494  -28.3655   20.7610 C   0  0  0  0  0  0
  -26.0244  -26.7388   19.4866 C   0  0  0  0  0  0
  -24.9061  -27.6051   19.4737 C   0  0  0  0  0  0
  -23.7073  -29.7678   20.1433 C   0  0  0  0  0  0
  -25.4093  -36.3012   24.0349 C   0  0  1  0  0  0
  -20.5927  -28.3727   23.1106 C   0  0  2  0  0  0
  -20.6844  -26.9396   22.5244 C   0  0  0  0  0  0
  -19.5576  -26.6245   21.5318 C   0  0  0  0  0  0
  -18.1880  -26.7673   22.1962 C   0  0  0  0  0  0
  -19.1546  -28.8806   23.2782 C   0  0  0  0  0  0
  -18.9453  -30.1430   23.8737 C   0  0  0  0  0  0
  -17.6436  -30.6536   24.0505 C   0  0  0  0  0  0
  -25.9060  -34.9376   23.5058 C   0  0  0  0  0  0
  -16.5306  -29.9001   23.6300 C   0  0  0  0  0  0
  -16.7247  -28.6376   23.0361 C   0  0  0  0  0  0
  -26.4560  -31.6529   25.0726 C   0  0  0  0  0  0
  -25.3742  -31.3771   26.1437 C   0  0  0  0  0  0
  -27.0478  -30.2902   24.6415 C   0  0  0  0  0  0
  -27.6027  -32.4356   25.7522 C   0  0  0  0  0  0
  -27.5551  -37.1762   24.8486 C   0  0  0  0  0  0
  -21.4266  -29.3145   22.3545 N   0  0  0  0  0  0
  -26.4248  -37.3717   23.9448 N   0  0  0  0  0  0
  -24.7399  -31.0056   22.0852 N   0  0  0  0  0  0
  -23.4147  -28.8109   23.2964 O   0  0  0  0  0  0
  -28.2711  -25.9903   20.2700 O   0  0  0  0  0  0
  -26.5651  -34.8896   22.4639 O   0  0  0  0  0  0
  -23.5670  -32.1241   23.6888 O   0  0  0  0  0  0
  -27.7413  -17.6739   18.6270 C   0  0  0  0  0  0
  -29.1643  -17.6665   18.7059 C   0  0  0  0  0  0
  -27.7085  -18.8089   20.7720 C   0  0  0  0  0  0
  -29.0511  -19.1350   20.5254 C   0  0  0  0  0  0
  -26.9986  -18.1666   19.7356 C   0  0  0  0  0  0
  -29.7155  -17.8482   19.9956 C   0  0  0  0  0  0
  -29.8222  -21.8875   19.9362 C   0  0  0  0  0  0
  -22.6503  -19.3926   21.0534 C   0  0  0  0  0  0
  -23.3939  -18.4351   20.4697 C   0  0  0  0  0  0
  -24.7803  -18.3179   20.8372 C   0  0  0  0  0  0
  -27.9332  -21.6108   20.6180 C   0  0  0  0  0  0
  -28.7613  -22.9801   20.6146 C   0  0  2  0  0  0
  -29.2208  -23.4026   22.0124 C   0  0  0  0  0  0
  -28.1740  -24.4317   19.8672 C   0  0  0  0  0  0
  -29.1534  -20.7279   20.5240 N   0  0  0  0  0  0
  -25.5722  -18.1569   19.7556 N   0  0  0  0  0  0
  -29.7148  -16.3598   20.5702 N   0  0  0  0  0  0
  -30.7516  -21.9600   19.1657 O   0  0  0  0  0  0
  -25.1689  -18.2966   22.0075 O   0  0  0  0  0  0
  -31.4750  -12.8461   19.2239 H   0  0  0  0  0  0
  -30.4420  -11.7420   20.0655 H   0  0  0  0  0  0
  -29.8744  -11.7474   17.6309 H   0  0  0  0  0  0
  -29.6239  -13.4728   17.6717 H   0  0  0  0  0  0
  -27.9746  -11.2938   18.9850 H   0  0  0  0  0  0
  -27.4176  -12.4473   17.8006 H   0  0  0  0  0  0
  -27.5540  -14.2582   19.3663 H   0  0  0  0  0  0
  -28.7834  -12.3969   21.4606 H   0  0  0  0  0  0
  -28.3276  -14.0665   21.7331 H   0  0  0  0  0  0
  -25.2781   -9.5596   22.4755 H   0  0  0  0  0  0
  -23.9965   -7.4593   22.7459 H   0  0  0  0  0  0
  -21.0837   -8.8753   19.8940 H   0  0  0  0  0  0
  -22.3722  -10.9640   19.6132 H   0  0  0  0  0  0
  -21.2017   -7.6166   23.9767 H   0  0  0  0  0  0
  -21.1478   -6.0512   25.9101 H   0  0  0  0  0  0
  -22.0592   -2.7640   23.2796 H   0  0  0  0  0  0
  -22.3882  -11.9904   22.5015 H   0  0  0  0  0  0
  -21.0987  -13.1287   22.2541 H   0  0  0  0  0  0
  -24.5949  -15.7779   20.4682 H   0  0  0  0  0  0
  -26.2150  -15.6118   20.0076 H   0  0  0  0  0  0
  -26.7424  -32.5192   23.1040 H   0  0  0  0  0  0
  -25.0135  -33.9496   25.0326 H   0  0  0  0  0  0
  -22.7848  -31.2845   21.3476 H   0  0  0  0  0  0
  -23.3727  -35.9531   23.3284 H   0  0  0  0  0  0
  -24.3594  -36.8873   22.2096 H   0  0  0  0  0  0
  -23.7181  -37.6403   23.6703 H   0  0  0  0  0  0
  -26.2011  -31.4162   20.6175 H   0  0  0  0  0  0
  -26.9030  -30.7318   22.0425 H   0  0  0  0  0  0
  -28.1426  -28.6660   21.2930 H   0  0  0  0  0  0
  -25.9004  -25.7975   18.9753 H   0  0  0  0  0  0
  -24.0098  -27.2755   18.9674 H   0  0  0  0  0  0
  -23.8545  -30.5331   19.3844 H   0  0  0  0  0  0
  -22.8182  -29.2186   19.8275 H   0  0  0  0  0  0
  -25.1254  -36.1830   25.0834 H   0  0  0  0  0  0
  -20.9996  -28.3300   24.1231 H   0  0  0  0  0  0
  -20.5933  -26.2257   23.3446 H   0  0  0  0  0  0
  -21.6685  -26.7439   22.0927 H   0  0  0  0  0  0
  -19.6680  -25.6187   21.1291 H   0  0  0  0  0  0
  -19.6145  -27.3157   20.6910 H   0  0  0  0  0  0
  -17.4008  -26.6077   21.4566 H   0  0  0  0  0  0
  -18.0447  -25.9927   22.9569 H   0  0  0  0  0  0
  -19.7928  -30.7293   24.1967 H   0  0  0  0  0  0
  -17.4983  -31.6182   24.5121 H   0  0  0  0  0  0
  -15.5338  -30.2900   23.7620 H   0  0  0  0  0  0
  -15.8655  -28.0661   22.7170 H   0  0  0  0  0  0
  -24.5916  -30.7066   25.7859 H   0  0  0  0  0  0
  -24.8938  -32.2964   26.4792 H   0  0  0  0  0  0
  -25.8070  -30.9071   27.0292 H   0  0  0  0  0  0
  -26.3174  -29.6566   24.1367 H   0  0  0  0  0  0
  -27.3997  -29.7251   25.5074 H   0  0  0  0  0  0
  -27.9109  -30.4091   23.9855 H   0  0  0  0  0  0
  -27.2550  -33.3698   26.1973 H   0  0  0  0  0  0
  -28.3913  -32.6870   25.0407 H   0  0  0  0  0  0
  -28.0632  -31.8592   26.5569 H   0  0  0  0  0  0
  -28.2551  -38.0068   24.7503 H   0  0  0  0  0  0
  -28.1036  -36.2586   24.6289 H   0  0  0  0  0  0
  -27.2295  -37.1419   25.8898 H   0  0  0  0  0  0
  -20.9479  -29.8907   21.6764 H   0  0  0  0  0  0
  -26.0109  -38.2773   24.1446 H   0  0  0  0  0  0
  -27.2240  -17.2546   17.7701 H   0  0  0  0  0  0
  -29.7001  -17.1094   17.9556 H   0  0  0  0  0  0
  -27.1062  -19.4196   21.4168 H   0  0  0  0  0  0
  -21.6031  -19.5101   20.8280 H   0  0  0  0  0  0
  -23.0810  -20.0865   21.7705 H   0  0  0  0  0  0
  -22.9763  -17.7400   19.7536 H   0  0  0  0  0  0
  -27.2784  -21.4836   19.7466 H   0  0  0  0  0  0
  -27.3528  -21.5288   21.5383 H   0  0  0  0  0  0
  -28.3671  -23.4761   22.6926 H   0  0  0  0  0  0
  -29.7087  -24.3774   21.9940 H   0  0  0  0  0  0
  -29.9189  -22.6957   22.4652 H   0  0  0  0  0  0
  -27.1285  -24.2221   19.6467 H   0  0  0  0  0  0
  -28.6304  -24.4220   18.8785 H   0  0  0  0  0  0
  -25.1069  -18.0392   18.8684 H   0  0  0  0  0  0
  -28.8239  -16.1260   20.9818 H   0  0  0  0  0  0
  1 25  1  0  0  0
  1 30  2  0  0  0
  1 87  1  0  0  0
  2  3  1  0  0  0
  2 25  1  0  0  0
  2 90  1  0  0  0
  2 91  1  0  0  0
  3  4  1  0  0  0
  3 92  1  0  0  0
  3 93  1  0  0  0
  4  5  1  0  0  0
  4 94  1  0  0  0
  4 95  1  0  0  0
  5  6  1  0  0  0
  5 26  1  0  0  0
  5 96  1  0  0  0
  6 25  1  0  0  0
  6 97  1  0  0  0
  6 98  1  0  0  0
  7  8  2  0  0  0
  7 26  1  0  0  0
  7 29  1  0  0  0
  8  9  1  0  0  0
  8 22  1  0  0  0
  9 10  1  0  0  0
  9 27  2  0  0  0
 10 11  2  0  0  0
 10 15  1  0  0  0
 11 12  1  0  0  0
 11 99  1  0  0  0
 12 13  2  0  0  0
 12100  1  0  0  0
 13 14  1  0  0  0
 13 31  1  0  0  0
 14 15  2  0  0  0
 14101  1  0  0  0
 15102  1  0  0  0
 16 17  2  0  0  0
 16 21  1  0  0  0
 16 31  1  0  0  0
 17 18  1  0  0  0
 17103  1  0  0  0
 18 19  2  0  0  0
 18104  1  0  0  0
 19 20  1  0  0  0
 19 24  1  0  0  0
 20 21  2  0  0  0
 20105  1  0  0  0
 21 23  1  0  0  0
 22 28  1  0  0  0
 22 32  2  0  0  0
 26 27  1  0  0  0
 28106  1  0  0  0
 28107  1  0  0  0
 29108  1  0  0  0
 29109  1  0  0  0
 33 34  1  0  0  0
 33 66  1  0  0  0
 33 70  2  0  0  0
 34 36  1  0  0  0
 34 59  1  0  0  0
 34110  1  0  0  0
 35 44  2  0  0  0
 35 45  1  0  0  0
 35 68  1  0  0  0
 36 56  1  0  0  0
 36111  1  0  0  0
 37 39  1  0  0  0
 37 47  1  0  0  0
 37 66  1  0  0  0
 37112  1  0  0  0
 38 43  2  0  0  0
 38 46  1  0  0  0
 38 47  1  0  0  0
 39 64  1  0  0  0
 39 67  2  0  0  0
 40 52  1  0  0  0
 40 53  2  0  0  0
 40 58  1  0  0  0
 41113  1  0  0  0
 41114  1  0  0  0
 41115  1  0  0  0
 41 48  1  0  0  0
 42 43  1  0  0  0
 42 66  1  0  0  0
 42116  1  0  0  0
 42117  1  0  0  0
 43 44  1  0  0  0
 44118  1  0  0  0
 45 46  2  0  0  0
 45119  1  0  0  0
 46120  1  0  0  0
 47121  1  0  0  0
 47122  1  0  0  0
 48 56  1  0  0  0
 48 65  1  0  0  0
 48123  1  0  0  0
 49 50  1  0  0  0
 49 53  1  0  0  0
 49 64  1  0  0  0
 49124  1  0  0  0
 50 51  1  0  0  0
 50125  1  0  0  0
 50126  1  0  0  0
 51 52  1  0  0  0
 51127  1  0  0  0
 51128  1  0  0  0
 52129  1  0  0  0
 52130  1  0  0  0
 53 54  1  0  0  0
 54 55  2  0  0  0
 54131  1  0  0  0
 55 57  1  0  0  0
 55132  1  0  0  0
 56 69  2  0  0  0
 57 58  2  0  0  0
 57133  1  0  0  0
 58134  1  0  0  0
 59 60  1  0  0  0
 59 61  1  0  0  0
 59 62  1  0  0  0
 60135  1  0  0  0
 60136  1  0  0  0
 60137  1  0  0  0
 61138  1  0  0  0
 61139  1  0  0  0
 61140  1  0  0  0
 62141  1  0  0  0
 62142  1  0  0  0
 62143  1  0  0  0
 63 65  1  0  0  0
 63144  1  0  0  0
 63145  1  0  0  0
 63146  1  0  0  0
 64147  1  0  0  0
 65148  1  0  0  0
 68 84  1  0  0  0
 71 72  2  0  0  0
 71 75  1  0  0  0
 71149  1  0  0  0
 72 76  1  0  0  0
 72150  1  0  0  0
 73 74  1  0  0  0
 73 75  2  0  0  0
 73151  1  0  0  0
 74 76  2  0  0  0
 74 85  1  0  0  0
 75 86  1  0  0  0
 76 87  1  0  0  0
 77 82  1  0  0  0
 77 85  1  0  0  0
 77 88  2  0  0  0
 78 79  2  0  0  0
 78152  1  0  0  0
 78153  1  0  0  0
 79 80  1  0  0  0
 79154  1  0  0  0
 80 86  1  0  0  0
 80 89  2  0  0  0
 81 82  1  0  0  0
 81 85  1  0  0  0
 81155  1  0  0  0
 81156  1  0  0  0
 82 83  1  0  0  0
 82 84  1  0  0  0
 83157  1  0  0  0
 83158  1  0  0  0
 83159  1  0  0  0
 84160  1  0  0  0
 84161  1  0  0  0
 86162  1  0  0  0
 87163  1  0  0  0
M  ISO  4   1 100  68 101  84 101  87 100
M  END
> <chiral flag>
0

> <version>
0

> <s_m_source_file>
/data/baiqing/PycharmProjects/Reinvent-master-3.2/result/LINK_invent/BTK/process_docking_weight1_custom_product_contain_oxygen_bond_distance_aromatic_linkinvent_7_9_3/rearranged_h_0067.sdf

> <i_m_source_file_index>
45

> <r_mmod_Potential_Energy-OPLS-2005>
1180.66711425781

> <r_mmod_Stretch_Energy-OPLS-2005>
422.901275634766

> <r_mmod_Bend_Energy-OPLS-2005>
447.987060546875

> <r_mmod_Torsional_Energy-OPLS-2005>
514.272583007812

> <r_mmod_Improper_Torsional_Energy-OPLS-2005>
42.5995864868164

> <r_mmod_Van_der_Waal_Energy-OPLS-2005>
153.259475708008

> <r_mmod_Electrostatic_Energy-OPLS-2005>
-472.752624511719

> <r_mmod_Solvation_Energy-OPLS-2005>
-247.922286987305

> <b_mmod_Minimization_Converged-OPLS-2005>
0

> <r_mmod_RMS_Derivative-OPLS-2005>
11.5355234146118

$$$$
45
                    3D
 Structure written by MMmdl.
155163  0  0  1  0            999 V2000
  -30.5962  -14.8138   20.4111 C   0  0  0  0  0  0
  -30.4409  -12.4730   19.5294 C   0  0  0  0  0  0
  -29.5379  -12.4316   18.2767 C   0  0  0  0  0  0
  -28.0457  -12.3325   18.6578 C   0  0  0  0  0  0
  -27.6411  -13.2439   19.8507 C   0  0  2  0  0  0
  -28.6797  -13.2226   20.9952 C   0  0  0  0  0  0
  -25.2483  -13.8245   20.5669 C   0  0  0  0  0  0
  -24.1782  -13.0468   20.9161 C   0  0  0  0  0  0
  -24.6385  -11.6953   20.8711 C   0  0  0  0  0  0
  -23.9034  -10.4322   21.0378 C   0  0  0  0  0  0
  -24.3583   -9.4250   21.9183 C   0  0  0  0  0  0
  -23.6271   -8.2276   22.0748 C   0  0  0  0  0  0
  -22.4247   -8.0292   21.3558 C   0  0  0  0  0  0
  -21.9881   -9.0244   20.4645 C   0  0  0  0  0  0
  -22.7183  -10.2136   20.3041 C   0  0  0  0  0  0
  -21.6854   -6.0730   22.5256 C   0  0  0  0  0  0
  -21.4028   -6.5653   23.8179 C   0  0  0  0  0  0
  -21.3672   -5.6817   24.9158 C   0  0  0  0  0  0
  -21.6054   -4.3075   24.7221 C   0  0  0  0  0  0
  -21.8821   -3.8150   23.4343 C   0  0  0  0  0  0
  -21.9199   -4.6968   22.3388 C   0  0  0  0  0  0
  -22.7804  -13.5234   21.1868 C   0  0  0  0  0  0
  -22.1637   -4.2153   21.0959 F   0  0  0  0  0  0
  -21.5645   -3.4552   25.7739 F   0  0  0  0  0  0
  -29.9797  -13.5746   20.4126 N   0  0  0  0  0  0
  -26.2928  -12.9464   20.3280 N   0  0  0  0  0  0
  -25.9341  -11.6597   20.5761 N   0  0  0  0  0  0
  -22.0498  -12.8202   22.0447 N   0  0  0  0  0  0
  -25.4208  -15.1967   20.4108 N   0  0  0  0  0  0
  -31.7847  -14.8848   20.0860 O   0  0  0  0  0  0
  -21.6648   -6.8872   21.4217 O   0  0  0  0  0  0
  -22.3456  -14.5527   20.6731 O   0  0  0  0  0  0
  -24.6368  -31.8533   23.2037 C   0  0  0  0  0  0
  -25.9186  -32.4752   23.8375 C   0  0  1  0  0  0
  -27.2040  -27.2294   20.1156 C   0  0  0  0  0  0
  -25.5985  -33.8560   24.2278 N   0  0  0  0  0  0
  -23.4328  -30.4816   21.5494 C   0  0  2  0  0  0
  -24.8760  -28.9389   20.1049 C   0  0  0  0  0  0
  -22.7519  -29.4597   22.4938 C   0  0  0  0  0  0
  -18.0284  -28.1393   22.8520 C   0  0  0  0  0  0
  -24.1485  -36.7273   23.2647 C   0  0  0  0  0  0
  -25.9844  -30.7532   21.3939 C   0  0  0  0  0  0
  -26.0505  -29.3784   20.7272 C   0  0  0  0  0  0
  -27.2143  -28.5346   20.7279 C   0  0  0  0  0  0
  -26.0118  -26.8950   19.4274 C   0  0  0  0  0  0
  -24.8652  -27.7076   19.4417 C   0  0  0  0  0  0
  -23.6494  -29.8292   20.1601 C   0  0  0  0  0  0
  -25.4118  -36.3067   24.0327 C   0  0  1  0  0  0
  -20.5900  -28.3697   23.1274 C   0  0  2  0  0  0
  -20.6786  -26.9417   22.5421 C   0  0  0  0  0  0
  -19.5741  -26.6375   21.5250 C   0  0  0  0  0  0
  -18.1910  -26.7938   22.1649 C   0  0  0  0  0  0
  -19.1545  -28.8873   23.2890 C   0  0  0  0  0  0
  -18.9454  -30.1481   23.8893 C   0  0  0  0  0  0
  -17.6453  -30.6604   24.0566 C   0  0  0  0  0  0
  -25.9057  -34.9442   23.5090 C   0  0  0  0  0  0
  -16.5348  -29.9094   23.6357 C   0  0  0  0  0  0
  -16.7266  -28.6506   23.0380 C   0  0  0  0  0  0
  -26.4539  -31.6614   25.0795 C   0  0  0  0  0  0
  -25.3735  -31.3764   26.1490 C   0  0  0  0  0  0
  -27.0464  -30.3045   24.6350 C   0  0  0  0  0  0
  -27.6055  -32.4403   25.7571 C   0  0  0  0  0  0
  -27.5572  -37.1796   24.8468 C   0  0  0  0  0  0
  -21.4219  -29.3048   22.3667 N   0  0  0  0  0  0
  -26.4287  -37.3768   23.9405 N   0  0  0  0  0  0
  -24.7037  -31.0475   22.1041 N   0  0  0  0  0  0
  -23.4211  -28.8102   23.3020 O   0  0  0  0  0  0
  -28.2805  -26.2926   20.1810 O   0  0  0  0  0  0
  -26.5593  -34.8915   22.4636 O   0  0  0  0  0  0
  -23.5511  -32.1388   23.7300 O   0  0  0  0  0  0
  -29.3932  -19.7792   18.4328 C   0  0  0  0  0  0
  -29.6277  -18.6147   20.5471 C   0  0  0  0  0  0
  -29.5493  -18.5562   17.7572 C   0  0  0  0  0  0
  -29.7476  -17.3347   18.4605 C   0  0  0  0  0  0
  -29.4171  -19.8834   19.8366 C   0  0  0  0  0  0
  -29.7951  -17.3071   19.8927 C   0  0  0  0  0  0
  -28.9030  -23.7837   20.3039 C   0  0  0  0  0  0
  -28.0777  -24.8724   20.0182 C   0  0  0  0  0  0
  -28.5474  -22.3502   19.9413 C   0  0  0  0  0  0
  -29.4709  -18.6008   16.2363 C   0  0  0  0  0  0
  -29.8435  -16.0443   17.6536 C   0  0  0  0  0  0
  -29.3182  -21.2752   20.3989 N   0  0  0  0  0  0
  -29.8375  -15.9781   20.6145 N   0  0  0  0  0  0
  -27.5613  -22.1106   19.2387 O   0  0  0  0  0  0
  -31.4841  -12.5920   19.2344 H   0  0  0  0  0  0
  -30.3976  -11.5236   20.0661 H   0  0  0  0  0  0
  -29.8107  -11.5700   17.6687 H   0  0  0  0  0  0
  -29.7325  -13.2928   17.6433 H   0  0  0  0  0  0
  -27.8479  -11.2918   18.9143 H   0  0  0  0  0  0
  -27.4227  -12.5494   17.7889 H   0  0  0  0  0  0
  -27.6192  -14.2600   19.4569 H   0  0  0  0  0  0
  -28.7201  -12.2472   21.4815 H   0  0  0  0  0  0
  -28.4025  -13.9383   21.7723 H   0  0  0  0  0  0
  -25.2738   -9.5759   22.4752 H   0  0  0  0  0  0
  -24.0014   -7.4685   22.7444 H   0  0  0  0  0  0
  -21.0826   -8.8710   19.8933 H   0  0  0  0  0  0
  -22.3612  -10.9648   19.6119 H   0  0  0  0  0  0
  -21.1994   -7.6154   23.9687 H   0  0  0  0  0  0
  -21.1496   -6.0549   25.9059 H   0  0  0  0  0  0
  -22.0597   -2.7611   23.2838 H   0  0  0  0  0  0
  -22.4126  -11.9816   22.4746 H   0  0  0  0  0  0
  -21.1148  -13.1232   22.2741 H   0  0  0  0  0  0
  -24.6514  -15.8548   20.4735 H   0  0  0  0  0  0
  -26.2923  -15.6341   20.1387 H   0  0  0  0  0  0
  -26.7256  -32.5383   23.1113 H   0  0  0  0  0  0
  -25.0263  -33.9721   25.0517 H   0  0  0  0  0  0
  -22.7355  -31.3096   21.4100 H   0  0  0  0  0  0
  -23.3771  -35.9583   23.3290 H   0  0  0  0  0  0
  -24.3578  -36.8913   22.2066 H   0  0  0  0  0  0
  -23.7225  -37.6457   23.6692 H   0  0  0  0  0  0
  -26.1445  -31.5183   20.6336 H   0  0  0  0  0  0
  -26.8535  -30.7884   22.0380 H   0  0  0  0  0  0
  -28.1097  -28.8626   21.2355 H   0  0  0  0  0  0
  -25.9103  -25.9904   18.8511 H   0  0  0  0  0  0
  -23.9764  -27.3822   18.9205 H   0  0  0  0  0  0
  -23.7731  -30.6145   19.4120 H   0  0  0  0  0  0
  -22.7651  -29.2675   19.8532 H   0  0  0  0  0  0
  -25.1312  -36.1910   25.0823 H   0  0  0  0  0  0
  -20.9997  -28.3266   24.1391 H   0  0  0  0  0  0
  -20.5749  -26.2289   23.3626 H   0  0  0  0  0  0
  -21.6634  -26.7481   22.1152 H   0  0  0  0  0  0
  -19.6887  -25.6280   21.1272 H   0  0  0  0  0  0
  -19.6669  -27.3196   20.6782 H   0  0  0  0  0  0
  -17.4201  -26.6768   21.4013 H   0  0  0  0  0  0
  -18.0236  -26.0064   22.9008 H   0  0  0  0  0  0
  -19.7918  -30.7319   24.2241 H   0  0  0  0  0  0
  -17.4985  -31.6284   24.5156 H   0  0  0  0  0  0
  -15.5345  -30.2980   23.7685 H   0  0  0  0  0  0
  -15.8662  -28.0821   22.7112 H   0  0  0  0  0  0
  -24.5909  -30.7115   25.7796 H   0  0  0  0  0  0
  -24.8938  -32.2946   26.4900 H   0  0  0  0  0  0
  -25.8019  -30.8944   27.0286 H   0  0  0  0  0  0
  -26.3115  -29.6725   24.1343 H   0  0  0  0  0  0
  -27.4124  -29.7377   25.4924 H   0  0  0  0  0  0
  -27.8984  -30.4366   23.9664 H   0  0  0  0  0  0
  -27.2639  -33.3732   26.2065 H   0  0  0  0  0  0
  -28.3896  -32.6922   25.0416 H   0  0  0  0  0  0
  -28.0685  -31.8601   26.5558 H   0  0  0  0  0  0
  -28.2576  -38.0108   24.7544 H   0  0  0  0  0  0
  -28.1084  -36.2646   24.6270 H   0  0  0  0  0  0
  -27.2283  -37.1390   25.8865 H   0  0  0  0  0  0
  -20.9394  -29.8799   21.6906 H   0  0  0  0  0  0
  -26.0165  -38.2833   24.1422 H   0  0  0  0  0  0
  -29.2685  -20.6741   17.8379 H   0  0  0  0  0  0
  -29.6497  -18.6433   21.6258 H   0  0  0  0  0  0
  -29.8563  -23.9800   20.7705 H   0  0  0  0  0  0
  -27.1242  -24.6380   19.5809 H   0  0  0  0  0  0
  -29.3821  -19.6199   15.8583 H   0  0  0  0  0  0
  -28.5982  -18.0485   15.8838 H   0  0  0  0  0  0
  -30.3690  -18.1727   15.7885 H   0  0  0  0  0  0
  -29.6395  -16.1452   16.5912 H   0  0  0  0  0  0
  -29.1093  -15.3372   18.0255 H   0  0  0  0  0  0
  -30.8418  -15.6169   17.7313 H   0  0  0  0  0  0
  -29.9754  -21.4993   21.1341 H   0  0  0  0  0  0
  -29.0259  -15.8180   21.1927 H   0  0  0  0  0  0
  1 25  1  0  0  0
  1 30  2  0  0  0
  1 83  1  0  0  0
  2  3  1  0  0  0
  2 25  1  0  0  0
  2 85  1  0  0  0
  2 86  1  0  0  0
  3  4  1  0  0  0
  3 87  1  0  0  0
  3 88  1  0  0  0
  4  5  1  0  0  0
  4 89  1  0  0  0
  4 90  1  0  0  0
  5  6  1  0  0  0
  5 26  1  0  0  0
  5 91  1  0  0  0
  6 25  1  0  0  0
  6 92  1  0  0  0
  6 93  1  0  0  0
  7  8  2  0  0  0
  7 26  1  0  0  0
  7 29  1  0  0  0
  8  9  1  0  0  0
  8 22  1  0  0  0
  9 10  1  0  0  0
  9 27  2  0  0  0
 10 11  2  0  0  0
 10 15  1  0  0  0
 11 12  1  0  0  0
 11 94  1  0  0  0
 12 13  2  0  0  0
 12 95  1  0  0  0
 13 14  1  0  0  0
 13 31  1  0  0  0
 14 15  2  0  0  0
 14 96  1  0  0  0
 15 97  1  0  0  0
 16 17  2  0  0  0
 16 21  1  0  0  0
 16 31  1  0  0  0
 17 18  1  0  0  0
 17 98  1  0  0  0
 18 19  2  0  0  0
 18 99  1  0  0  0
 19 20  1  0  0  0
 19 24  1  0  0  0
 20 21  2  0  0  0
 20100  1  0  0  0
 21 23  1  0  0  0
 22 28  1  0  0  0
 22 32  2  0  0  0
 26 27  1  0  0  0
 28101  1  0  0  0
 28102  1  0  0  0
 29103  1  0  0  0
 29104  1  0  0  0
 33 34  1  0  0  0
 33 66  1  0  0  0
 33 70  2  0  0  0
 34 36  1  0  0  0
 34 59  1  0  0  0
 34105  1  0  0  0
 35 44  2  0  0  0
 35 45  1  0  0  0
 35 68  1  0  0  0
 36 56  1  0  0  0
 36106  1  0  0  0
 37 39  1  0  0  0
 37 47  1  0  0  0
 37 66  1  0  0  0
 37107  1  0  0  0
 38 43  2  0  0  0
 38 46  1  0  0  0
 38 47  1  0  0  0
 39 64  1  0  0  0
 39 67  2  0  0  0
 40 52  1  0  0  0
 40 53  2  0  0  0
 40 58  1  0  0  0
 41108  1  0  0  0
 41109  1  0  0  0
 41110  1  0  0  0
 41 48  1  0  0  0
 42 43  1  0  0  0
 42 66  1  0  0  0
 42111  1  0  0  0
 42112  1  0  0  0
 43 44  1  0  0  0
 44113  1  0  0  0
 45 46  2  0  0  0
 45114  1  0  0  0
 46115  1  0  0  0
 47116  1  0  0  0
 47117  1  0  0  0
 48 56  1  0  0  0
 48 65  1  0  0  0
 48118  1  0  0  0
 49 50  1  0  0  0
 49 53  1  0  0  0
 49 64  1  0  0  0
 49119  1  0  0  0
 50 51  1  0  0  0
 50120  1  0  0  0
 50121  1  0  0  0
 51 52  1  0  0  0
 51122  1  0  0  0
 51123  1  0  0  0
 52124  1  0  0  0
 52125  1  0  0  0
 53 54  1  0  0  0
 54 55  2  0  0  0
 54126  1  0  0  0
 55 57  1  0  0  0
 55127  1  0  0  0
 56 69  2  0  0  0
 57 58  2  0  0  0
 57128  1  0  0  0
 58129  1  0  0  0
 59 60  1  0  0  0
 59 61  1  0  0  0
 59 62  1  0  0  0
 60130  1  0  0  0
 60131  1  0  0  0
 60132  1  0  0  0
 61133  1  0  0  0
 61134  1  0  0  0
 61135  1  0  0  0
 62136  1  0  0  0
 62137  1  0  0  0
 62138  1  0  0  0
 63 65  1  0  0  0
 63139  1  0  0  0
 63140  1  0  0  0
 63141  1  0  0  0
 64142  1  0  0  0
 65143  1  0  0  0
 68 78  1  0  0  0
 71 73  2  0  0  0
 71 75  1  0  0  0
 71144  1  0  0  0
 72 75  2  0  0  0
 72 76  1  0  0  0
 72145  1  0  0  0
 73 74  1  0  0  0
 73 80  1  0  0  0
 74 76  2  0  0  0
 74 81  1  0  0  0
 75 82  1  0  0  0
 76 83  1  0  0  0
 77 78  2  0  0  0
 77 79  1  0  0  0
 77146  1  0  0  0
 78147  1  0  0  0
 79 82  1  0  0  0
 79 84  2  0  0  0
 80148  1  0  0  0
 80149  1  0  0  0
 80150  1  0  0  0
 81151  1  0  0  0
 81152  1  0  0  0
 81153  1  0  0  0
 82154  1  0  0  0
 83155  1  0  0  0
M  ISO  4   1 100  68 101  78 101  83 100
M  END
> <chiral flag>
0

> <version>
0

> <s_m_source_file>
/data/baiqing/PycharmProjects/Reinvent-master-3.2/result/LINK_invent/BTK/process_docking_weight1_custom_product_contain_oxygen_bond_distance_aromatic_linkinvent_7_9_3/rearranged_h_0067.sdf

> <i_m_source_file_index>
46

> <r_mmod_Potential_Energy-OPLS-2005>
243.710189819336

> <r_mmod_Stretch_Energy-OPLS-2005>
155.00813293457

> <r_mmod_Bend_Energy-OPLS-2005>
173.854034423828

> <r_mmod_Torsional_Energy-OPLS-2005>
272.98681640625

> <r_mmod_Improper_Torsional_Energy-OPLS-2005>
5.48091268539429

> <r_mmod_Van_der_Waal_Energy-OPLS-2005>
158.340438842773

> <r_mmod_Electrostatic_Energy-OPLS-2005>
-410.823608398438

> <r_mmod_Solvation_Energy-OPLS-2005>
-228.853500366211

> <b_mmod_Minimization_Converged-OPLS-2005>
0

> <r_mmod_RMS_Derivative-OPLS-2005>
3.53095841407776

$$$$
46
                    3D
 Structure written by MMmdl.
160168  0  0  1  0            999 V2000
  -30.5780  -14.7694   20.3881 C   0  0  0  0  0  0
  -30.4421  -12.4507   19.4727 C   0  0  0  0  0  0
  -29.5150  -12.4202   18.2355 C   0  0  0  0  0  0
  -28.0287  -12.3159   18.6384 C   0  0  0  0  0  0
  -27.6391  -13.2290   19.8342 C   0  0  2  0  0  0
  -28.6860  -13.1714   20.9639 C   0  0  0  0  0  0
  -25.2510  -13.8210   20.5644 C   0  0  0  0  0  0
  -24.1805  -13.0463   20.9195 C   0  0  0  0  0  0
  -24.6371  -11.6948   20.8741 C   0  0  0  0  0  0
  -23.9067  -10.4317   21.0368 C   0  0  0  0  0  0
  -24.3626   -9.4230   21.9143 C   0  0  0  0  0  0
  -23.6313   -8.2260   22.0723 C   0  0  0  0  0  0
  -22.4296   -8.0291   21.3520 C   0  0  0  0  0  0
  -21.9932   -9.0256   20.4621 C   0  0  0  0  0  0
  -22.7242  -10.2138   20.3019 C   0  0  0  0  0  0
  -21.6873   -6.0734   22.5274 C   0  0  0  0  0  0
  -21.4029   -6.5627   23.8201 C   0  0  0  0  0  0
  -21.3664   -5.6770   24.9161 C   0  0  0  0  0  0
  -21.6055   -4.3035   24.7207 C   0  0  0  0  0  0
  -21.8827   -3.8134   23.4322 C   0  0  0  0  0  0
  -21.9191   -4.6958   22.3383 C   0  0  0  0  0  0
  -22.7807  -13.5219   21.1846 C   0  0  0  0  0  0
  -22.1646   -4.2133   21.0960 F   0  0  0  0  0  0
  -21.5633   -3.4519   25.7714 F   0  0  0  0  0  0
  -29.9821  -13.5284   20.3776 N   0  0  0  0  0  0
  -26.2929  -12.9396   20.3219 N   0  0  0  0  0  0
  -25.9303  -11.6552   20.5774 N   0  0  0  0  0  0
  -22.0426  -12.8233   22.0410 N   0  0  0  0  0  0
  -25.4201  -15.1943   20.4078 N   0  0  0  0  0  0
  -31.7866  -14.8654   20.1545 O   0  0  0  0  0  0
  -21.6669   -6.8887   21.4232 O   0  0  0  0  0  0
  -22.3479  -14.5484   20.6644 O   0  0  0  0  0  0
  -24.6297  -31.8523   23.1942 C   0  0  0  0  0  0
  -25.9116  -32.4741   23.8294 C   0  0  1  0  0  0
  -27.2277  -27.2597   20.1368 C   0  0  0  0  0  0
  -25.5897  -33.8550   24.2197 N   0  0  0  0  0  0
  -23.4265  -30.4694   21.5403 C   0  0  2  0  0  0
  -24.8744  -28.9037   20.1234 C   0  0  0  0  0  0
  -22.7507  -29.4559   22.4946 C   0  0  0  0  0  0
  -18.0284  -28.1373   22.8479 C   0  0  0  0  0  0
  -24.1491  -36.7292   23.2635 C   0  0  0  0  0  0
  -25.9710  -30.7667   21.3712 C   0  0  0  0  0  0
  -26.0471  -29.3854   20.7193 C   0  0  0  0  0  0
  -27.2323  -28.5803   20.7019 C   0  0  0  0  0  0
  -26.0297  -26.8318   19.5357 C   0  0  0  0  0  0
  -24.8690  -27.6342   19.5199 C   0  0  0  0  0  0
  -23.6450  -29.7911   20.1616 C   0  0  0  0  0  0
  -25.4125  -36.3065   24.0302 C   0  0  1  0  0  0
  -20.5887  -28.3661   23.1294 C   0  0  2  0  0  0
  -20.6767  -26.9384   22.5419 C   0  0  0  0  0  0
  -19.5753  -26.6359   21.5225 C   0  0  0  0  0  0
  -18.1933  -26.7909   22.1624 C   0  0  0  0  0  0
  -19.1537  -28.8850   23.2868 C   0  0  0  0  0  0
  -18.9455  -30.1464   23.8872 C   0  0  0  0  0  0
  -17.6449  -30.6576   24.0565 C   0  0  0  0  0  0
  -25.9071  -34.9439   23.5066 C   0  0  0  0  0  0
  -16.5344  -29.9072   23.6325 C   0  0  0  0  0  0
  -16.7274  -28.6497   23.0328 C   0  0  0  0  0  0
  -26.4464  -31.6574   25.0704 C   0  0  0  0  0  0
  -25.3650  -31.3769   26.1407 C   0  0  0  0  0  0
  -27.0313  -30.2976   24.6213 C   0  0  0  0  0  0
  -27.5995  -32.4330   25.7504 C   0  0  0  0  0  0
  -27.5584  -37.1804   24.8453 C   0  0  0  0  0  0
  -21.4214  -29.3002   22.3693 N   0  0  0  0  0  0
  -26.4296  -37.3769   23.9398 N   0  0  0  0  0  0
  -24.6947  -31.0492   22.0916 N   0  0  0  0  0  0
  -23.4230  -28.8108   23.3033 O   0  0  0  0  0  0
  -28.3534  -26.4118   20.0672 O   0  0  0  0  0  0
  -26.5674  -34.8913   22.4652 O   0  0  0  0  0  0
  -23.5444  -32.1343   23.7230 O   0  0  0  0  0  0
  -30.3947  -18.6427   17.8048 C   0  0  0  0  0  0
  -29.9944  -19.8234   18.4493 C   0  0  0  0  0  0
  -29.3742  -18.4812   20.3752 C   0  0  0  0  0  0
  -30.2737  -17.3644   18.3930 C   0  0  0  0  0  0
  -29.4174  -19.7981   19.7375 C   0  0  0  0  0  0
  -29.8504  -17.2372   19.7591 C   0  0  0  0  0  0
  -29.1321  -22.3959   19.9804 C   0  0  0  0  0  0
  -31.9621  -16.0075   17.0248 C   0  0  0  0  0  0
  -29.5755  -16.2239   16.2107 C   0  0  0  0  0  0
  -28.0730  -23.6094   20.0269 C   0  0  0  0  0  0
  -28.3867  -25.0521   20.7164 C   0  0  0  0  0  0
  -30.4960  -16.1769   17.4460 C   0  0  0  0  0  0
  -28.7936  -21.0648   20.2317 N   0  0  0  0  0  0
  -29.7522  -15.8952   20.4252 N   0  0  0  0  0  0
  -30.2965  -22.6854   19.7000 O   0  0  0  0  0  0
  -31.4763  -12.5986   19.1598 H   0  0  0  0  0  0
  -30.4226  -11.4909   19.9913 H   0  0  0  0  0  0
  -29.7843  -11.5702   17.6064 H   0  0  0  0  0  0
  -29.6603  -13.2895   17.6031 H   0  0  0  0  0  0
  -27.8446  -11.2748   18.8997 H   0  0  0  0  0  0
  -27.3921  -12.5261   17.7789 H   0  0  0  0  0  0
  -27.6257  -14.2445   19.4383 H   0  0  0  0  0  0
  -28.7284  -12.1736   21.3989 H   0  0  0  0  0  0
  -28.4297  -13.8532   21.7762 H   0  0  0  0  0  0
  -25.2757   -9.5721   22.4727 H   0  0  0  0  0  0
  -24.0011   -7.4669   22.7460 H   0  0  0  0  0  0
  -21.0840   -8.8769   19.8972 H   0  0  0  0  0  0
  -22.3656  -10.9667   19.6141 H   0  0  0  0  0  0
  -21.2036   -7.6139   23.9698 H   0  0  0  0  0  0
  -21.1477   -6.0499   25.9061 H   0  0  0  0  0  0
  -22.0608   -2.7602   23.2811 H   0  0  0  0  0  0
  -22.4028  -11.9944   22.4900 H   0  0  0  0  0  0
  -21.1019  -13.1248   22.2531 H   0  0  0  0  0  0
  -24.6510  -15.8467   20.5261 H   0  0  0  0  0  0
  -26.2648  -15.6408   20.0753 H   0  0  0  0  0  0
  -26.7206  -32.5390   23.1058 H   0  0  0  0  0  0
  -24.9962  -33.9674   25.0286 H   0  0  0  0  0  0
  -22.7202  -31.2881   21.3900 H   0  0  0  0  0  0
  -23.3754  -35.9633   23.3293 H   0  0  0  0  0  0
  -24.3574  -36.8927   22.2054 H   0  0  0  0  0  0
  -23.7257  -37.6484   23.6689 H   0  0  0  0  0  0
  -26.1043  -31.5275   20.6005 H   0  0  0  0  0  0
  -26.8498  -30.8163   22.0025 H   0  0  0  0  0  0
  -28.1423  -28.9570   21.1479 H   0  0  0  0  0  0
  -25.9931  -25.8553   19.0750 H   0  0  0  0  0  0
  -23.9707  -27.2579   19.0501 H   0  0  0  0  0  0
  -23.7668  -30.5579   19.3956 H   0  0  0  0  0  0
  -22.7645  -29.2173   19.8645 H   0  0  0  0  0  0
  -25.1321  -36.1884   25.0798 H   0  0  0  0  0  0
  -20.9979  -28.3226   24.1415 H   0  0  0  0  0  0
  -20.5652  -26.2283   23.3614 H   0  0  0  0  0  0
  -21.6632  -26.7404   22.1219 H   0  0  0  0  0  0
  -19.6903  -25.6270   21.1250 H   0  0  0  0  0  0
  -19.6677  -27.3172   20.6760 H   0  0  0  0  0  0
  -17.4195  -26.6658   21.4024 H   0  0  0  0  0  0
  -18.0329  -26.0052   22.9023 H   0  0  0  0  0  0
  -19.7935  -30.7302   24.2206 H   0  0  0  0  0  0
  -17.4998  -31.6249   24.5167 H   0  0  0  0  0  0
  -15.5341  -30.2961   23.7667 H   0  0  0  0  0  0
  -15.8674  -28.0844   22.6999 H   0  0  0  0  0  0
  -24.5775  -30.7191   25.7701 H   0  0  0  0  0  0
  -24.8913  -32.2979   26.4825 H   0  0  0  0  0  0
  -25.7898  -30.8900   27.0190 H   0  0  0  0  0  0
  -26.2917  -29.6738   24.1184 H   0  0  0  0  0  0
  -27.3907  -29.7220   25.4748 H   0  0  0  0  0  0
  -27.8821  -30.4229   23.9516 H   0  0  0  0  0  0
  -27.2557  -33.3596   26.2119 H   0  0  0  0  0  0
  -28.3805  -32.6948   25.0352 H   0  0  0  0  0  0
  -28.0680  -31.8446   26.5404 H   0  0  0  0  0  0
  -28.2589  -38.0112   24.7507 H   0  0  0  0  0  0
  -28.1086  -36.2639   24.6270 H   0  0  0  0  0  0
  -27.2304  -37.1437   25.8854 H   0  0  0  0  0  0
  -20.9420  -29.8718   21.6875 H   0  0  0  0  0  0
  -26.0156  -38.2835   24.1395 H   0  0  0  0  0  0
  -30.7444  -18.7217   16.7836 H   0  0  0  0  0  0
  -30.0669  -20.7428   17.8873 H   0  0  0  0  0  0
  -28.9420  -18.4192   21.3641 H   0  0  0  0  0  0
  -32.6161  -15.9039   17.8892 H   0  0  0  0  0  0
  -32.3174  -16.8569   16.4416 H   0  0  0  0  0  0
  -32.0842  -15.1082   16.4202 H   0  0  0  0  0  0
  -28.5297  -16.3290   16.5031 H   0  0  0  0  0  0
  -29.6529  -15.3016   15.6328 H   0  0  0  0  0  0
  -29.8211  -17.0432   15.5344 H   0  0  0  0  0  0
  -27.1680  -23.2198   20.4937 H   0  0  0  0  0  0
  -27.7929  -23.7958   18.9904 H   0  0  0  0  0  0
  -29.3945  -24.9745   21.1233 H   0  0  0  0  0  0
  -27.7633  -25.1168   21.6087 H   0  0  0  0  0  0
  -30.1968  -15.2750   17.9479 H   0  0  0  0  0  0
  -27.9030  -20.9425   20.6981 H   0  0  0  0  0  0
  -28.8486  -15.7053   20.8321 H   0  0  0  0  0  0
  1 25  1  0  0  0
  1 30  2  0  0  0
  1 84  1  0  0  0
  2  3  1  0  0  0
  2 25  1  0  0  0
  2 86  1  0  0  0
  2 87  1  0  0  0
  3  4  1  0  0  0
  3 88  1  0  0  0
  3 89  1  0  0  0
  4  5  1  0  0  0
  4 90  1  0  0  0
  4 91  1  0  0  0
  5  6  1  0  0  0
  5 26  1  0  0  0
  5 92  1  0  0  0
  6 25  1  0  0  0
  6 93  1  0  0  0
  6 94  1  0  0  0
  7  8  2  0  0  0
  7 26  1  0  0  0
  7 29  1  0  0  0
  8  9  1  0  0  0
  8 22  1  0  0  0
  9 10  1  0  0  0
  9 27  2  0  0  0
 10 11  2  0  0  0
 10 15  1  0  0  0
 11 12  1  0  0  0
 11 95  1  0  0  0
 12 13  2  0  0  0
 12 96  1  0  0  0
 13 14  1  0  0  0
 13 31  1  0  0  0
 14 15  2  0  0  0
 14 97  1  0  0  0
 15 98  1  0  0  0
 16 17  2  0  0  0
 16 21  1  0  0  0
 16 31  1  0  0  0
 17 18  1  0  0  0
 17 99  1  0  0  0
 18 19  2  0  0  0
 18100  1  0  0  0
 19 20  1  0  0  0
 19 24  1  0  0  0
 20 21  2  0  0  0
 20101  1  0  0  0
 21 23  1  0  0  0
 22 28  1  0  0  0
 22 32  2  0  0  0
 26 27  1  0  0  0
 28102  1  0  0  0
 28103  1  0  0  0
 29104  1  0  0  0
 29105  1  0  0  0
 33 34  1  0  0  0
 33 66  1  0  0  0
 33 70  2  0  0  0
 34 36  1  0  0  0
 34 59  1  0  0  0
 34106  1  0  0  0
 35 44  2  0  0  0
 35 45  1  0  0  0
 35 68  1  0  0  0
 36 56  1  0  0  0
 36107  1  0  0  0
 37 39  1  0  0  0
 37 47  1  0  0  0
 37 66  1  0  0  0
 37108  1  0  0  0
 38 43  2  0  0  0
 38 46  1  0  0  0
 38 47  1  0  0  0
 39 64  1  0  0  0
 39 67  2  0  0  0
 40 52  1  0  0  0
 40 53  2  0  0  0
 40 58  1  0  0  0
 41109  1  0  0  0
 41110  1  0  0  0
 41111  1  0  0  0
 41 48  1  0  0  0
 42 43  1  0  0  0
 42 66  1  0  0  0
 42112  1  0  0  0
 42113  1  0  0  0
 43 44  1  0  0  0
 44114  1  0  0  0
 45 46  2  0  0  0
 45115  1  0  0  0
 46116  1  0  0  0
 47117  1  0  0  0
 47118  1  0  0  0
 48 56  1  0  0  0
 48 65  1  0  0  0
 48119  1  0  0  0
 49 50  1  0  0  0
 49 53  1  0  0  0
 49 64  1  0  0  0
 49120  1  0  0  0
 50 51  1  0  0  0
 50121  1  0  0  0
 50122  1  0  0  0
 51 52  1  0  0  0
 51123  1  0  0  0
 51124  1  0  0  0
 52125  1  0  0  0
 52126  1  0  0  0
 53 54  1  0  0  0
 54 55  2  0  0  0
 54127  1  0  0  0
 55 57  1  0  0  0
 55128  1  0  0  0
 56 69  2  0  0  0
 57 58  2  0  0  0
 57129  1  0  0  0
 58130  1  0  0  0
 59 60  1  0  0  0
 59 61  1  0  0  0
 59 62  1  0  0  0
 60131  1  0  0  0
 60132  1  0  0  0
 60133  1  0  0  0
 61134  1  0  0  0
 61135  1  0  0  0
 61136  1  0  0  0
 62137  1  0  0  0
 62138  1  0  0  0
 62139  1  0  0  0
 63 65  1  0  0  0
 63140  1  0  0  0
 63141  1  0  0  0
 63142  1  0  0  0
 64143  1  0  0  0
 65144  1  0  0  0
 68 81  1  0  0  0
 71 72  2  0  0  0
 71 74  1  0  0  0
 71145  1  0  0  0
 72 75  1  0  0  0
 72146  1  0  0  0
 73 75  2  0  0  0
 73 76  1  0  0  0
 73147  1  0  0  0
 74 76  2  0  0  0
 74 82  1  0  0  0
 75 83  1  0  0  0
 76 84  1  0  0  0
 77 80  1  0  0  0
 77 83  1  0  0  0
 77 85  2  0  0  0
 78148  1  0  0  0
 78149  1  0  0  0
 78150  1  0  0  0
 78 82  1  0  0  0
 79 82  1  0  0  0
 79151  1  0  0  0
 79152  1  0  0  0
 79153  1  0  0  0
 80 81  1  0  0  0
 80154  1  0  0  0
 80155  1  0  0  0
 81156  1  0  0  0
 81157  1  0  0  0
 82158  1  0  0  0
 83159  1  0  0  0
 84160  1  0  0  0
M  ISO  4   1 100  68 101  81 101  84 100
M  END
> <chiral flag>
0

> <version>
0

> <s_m_source_file>
/data/baiqing/PycharmProjects/Reinvent-master-3.2/result/LINK_invent/BTK/process_docking_weight1_custom_product_contain_oxygen_bond_distance_aromatic_linkinvent_7_9_3/rearranged_h_0067.sdf

> <i_m_source_file_index>
47

> <r_mmod_Potential_Energy-OPLS-2005>
236.748992919922

> <r_mmod_Stretch_Energy-OPLS-2005>
140.975646972656

> <r_mmod_Bend_Energy-OPLS-2005>
189.478057861328

> <r_mmod_Torsional_Energy-OPLS-2005>
301.070922851562

> <r_mmod_Improper_Torsional_Energy-OPLS-2005>
7.88356447219849

> <r_mmod_Van_der_Waal_Energy-OPLS-2005>
134.811645507812

> <r_mmod_Electrostatic_Energy-OPLS-2005>
-389.638702392578

> <r_mmod_Solvation_Energy-OPLS-2005>
-238.518249511719

> <b_mmod_Minimization_Converged-OPLS-2005>
0

> <r_mmod_RMS_Derivative-OPLS-2005>
3.91391372680664

$$$$
47
                    3D
 Structure written by MMmdl.
155163  0  0  1  0            999 V2000
  -30.5179  -15.0495   20.4095 C   0  0  0  0  0  0
  -30.4406  -12.6611   19.4970 C   0  0  0  0  0  0
  -29.5220  -12.5389   18.2586 C   0  0  0  0  0  0
  -28.0605  -12.3047   18.6846 C   0  0  0  0  0  0
  -27.6215  -13.2558   19.8280 C   0  0  2  0  0  0
  -28.6656  -13.3382   20.9609 C   0  0  0  0  0  0
  -25.2432  -13.8224   20.5714 C   0  0  0  0  0  0
  -24.1764  -13.0437   20.9241 C   0  0  0  0  0  0
  -24.6396  -11.6927   20.8767 C   0  0  0  0  0  0
  -23.9086  -10.4293   21.0414 C   0  0  0  0  0  0
  -24.3632   -9.4206   21.9192 C   0  0  0  0  0  0
  -23.6302   -8.2243   22.0757 C   0  0  0  0  0  0
  -22.4284   -8.0284   21.3545 C   0  0  0  0  0  0
  -21.9926   -9.0258   20.4646 C   0  0  0  0  0  0
  -22.7260  -10.2135   20.3058 C   0  0  0  0  0  0
  -21.6854   -6.0741   22.5282 C   0  0  0  0  0  0
  -21.4015   -6.5645   23.8215 C   0  0  0  0  0  0
  -21.3659   -5.6795   24.9177 C   0  0  0  0  0  0
  -21.6043   -4.3057   24.7226 C   0  0  0  0  0  0
  -21.8818   -3.8151   23.4345 C   0  0  0  0  0  0
  -21.9192   -4.6970   22.3405 C   0  0  0  0  0  0
  -22.7783  -13.5204   21.1892 C   0  0  0  0  0  0
  -22.1660   -4.2157   21.0981 F   0  0  0  0  0  0
  -21.5629   -3.4541   25.7738 F   0  0  0  0  0  0
  -29.9226  -13.7806   20.3434 N   0  0  0  0  0  0
  -26.2856  -12.9467   20.3228 N   0  0  0  0  0  0
  -25.9328  -11.6591   20.5740 N   0  0  0  0  0  0
  -22.0434  -12.8186   22.0444 N   0  0  0  0  0  0
  -25.4069  -15.1954   20.4115 N   0  0  0  0  0  0
  -31.7371  -15.0712   20.2023 O   0  0  0  0  0  0
  -21.6640   -6.8884   21.4243 O   0  0  0  0  0  0
  -22.3467  -14.5509   20.6734 O   0  0  0  0  0  0
  -24.6509  -31.8380   23.1824 C   0  0  0  0  0  0
  -25.9253  -32.4663   23.8243 C   0  0  1  0  0  0
  -27.2146  -27.0620   20.1653 C   0  0  0  0  0  0
  -25.5971  -33.8471   24.2155 N   0  0  0  0  0  0
  -23.4581  -30.4557   21.5292 C   0  0  2  0  0  0
  -24.9084  -28.8702   20.1128 C   0  0  0  0  0  0
  -22.7605  -29.4523   22.4835 C   0  0  0  0  0  0
  -18.0309  -28.1403   22.8473 C   0  0  0  0  0  0
  -24.1493  -36.7234   23.2644 C   0  0  0  0  0  0
  -26.0202  -30.6886   21.3924 C   0  0  0  0  0  0
  -26.0900  -29.2924   20.7356 C   0  0  0  0  0  0
  -27.2431  -28.4072   20.7406 C   0  0  0  0  0  0
  -26.0059  -26.7640   19.4973 C   0  0  0  0  0  0
  -24.8846  -27.6220   19.4753 C   0  0  0  0  0  0
  -23.6893  -29.7817   20.1509 C   0  0  0  0  0  0
  -25.4125  -36.3009   24.0312 C   0  0  1  0  0  0
  -20.5929  -28.3737   23.1217 C   0  0  2  0  0  0
  -20.6794  -26.9433   22.5402 C   0  0  0  0  0  0
  -19.5769  -26.6381   21.5214 C   0  0  0  0  0  0
  -18.1947  -26.7943   22.1616 C   0  0  0  0  0  0
  -19.1569  -28.8885   23.2838 C   0  0  0  0  0  0
  -18.9486  -30.1478   23.8870 C   0  0  0  0  0  0
  -17.6483  -30.6598   24.0556 C   0  0  0  0  0  0
  -25.9083  -34.9390   23.5042 C   0  0  0  0  0  0
  -16.5373  -29.9090   23.6340 C   0  0  0  0  0  0
  -16.7292  -28.6506   23.0364 C   0  0  0  0  0  0
  -26.4546  -31.6553   25.0712 C   0  0  0  0  0  0
  -25.3704  -31.3763   26.1387 C   0  0  0  0  0  0
  -27.0424  -30.2939   24.6345 C   0  0  0  0  0  0
  -27.6072  -32.4331   25.7497 C   0  0  0  0  0  0
  -27.5573  -37.1772   24.8462 C   0  0  0  0  0  0
  -21.4288  -29.3056   22.3586 N   0  0  0  0  0  0
  -26.4278  -37.3735   23.9413 N   0  0  0  0  0  0
  -24.7302  -31.0171   22.0891 N   0  0  0  0  0  0
  -23.4213  -28.8081   23.3019 O   0  0  0  0  0  0
  -28.2418  -26.0248   20.2244 O   0  0  0  0  0  0
  -26.5679  -34.8902   22.4626 O   0  0  0  0  0  0
  -23.5609  -32.1290   23.6993 O   0  0  0  0  0  0
  -31.6593  -19.4076   21.5679 C   0  0  0  0  0  0
  -31.2998  -18.0953   21.2053 C   0  0  0  0  0  0
  -29.2363  -19.0400   20.3610 C   0  0  0  0  0  0
  -30.8472  -20.5539   21.3673 C   0  0  0  0  0  0
  -30.0561  -17.7926   20.6239 C   0  0  0  0  0  0
  -29.5988  -20.4814   20.6665 C   0  0  0  0  0  0
  -33.0720  -23.6384   21.7515 C   0  0  0  0  0  0
  -32.5920  -22.4262   21.4332 C   0  0  0  0  0  0
  -29.0065  -23.2042   20.2296 C   0  0  0  0  0  0
  -31.3635  -21.8060   22.0718 C   0  0  0  0  0  0
  -27.8898  -24.4701   20.2479 C   0  0  0  0  0  0
  -28.7474  -21.7898   20.4445 N   0  0  0  0  0  0
  -29.7399  -16.2704   20.4438 N   0  0  0  0  0  0
  -30.1478  -23.5477   19.9199 O   0  0  0  0  0  0
  -31.4676  -12.8377   19.1742 H   0  0  0  0  0  0
  -30.4631  -11.7271   20.0605 H   0  0  0  0  0  0
  -29.8601  -11.7274   17.6126 H   0  0  0  0  0  0
  -29.5868  -13.4520   17.6647 H   0  0  0  0  0  0
  -27.9780  -11.2691   19.0172 H   0  0  0  0  0  0
  -27.3927  -12.4027   17.8278 H   0  0  0  0  0  0
  -27.5655  -14.2442   19.3712 H   0  0  0  0  0  0
  -28.7832  -12.3776   21.4644 H   0  0  0  0  0  0
  -28.3484  -14.0532   21.7216 H   0  0  0  0  0  0
  -25.2774   -9.5687   22.4771 H   0  0  0  0  0  0
  -24.0012   -7.4635   22.7476 H   0  0  0  0  0  0
  -21.0859   -8.8777   19.8947 H   0  0  0  0  0  0
  -22.3720  -10.9675   19.6166 H   0  0  0  0  0  0
  -21.2004   -7.6152   23.9723 H   0  0  0  0  0  0
  -21.1483   -6.0524   25.9081 H   0  0  0  0  0  0
  -22.0595   -2.7613   23.2843 H   0  0  0  0  0  0
  -22.4052  -11.9844   22.4827 H   0  0  0  0  0  0
  -21.1046  -13.1199   22.2644 H   0  0  0  0  0  0
  -24.6315  -15.8417   20.5116 H   0  0  0  0  0  0
  -26.2437  -15.6373   20.0552 H   0  0  0  0  0  0
  -26.7323  -32.5245   23.0971 H   0  0  0  0  0  0
  -25.0099  -33.9579   25.0291 H   0  0  0  0  0  0
  -22.7645  -31.2836   21.3689 H   0  0  0  0  0  0
  -23.3769  -35.9551   23.3278 H   0  0  0  0  0  0
  -24.3581  -36.8894   22.2064 H   0  0  0  0  0  0
  -23.7234  -37.6414   23.6701 H   0  0  0  0  0  0
  -26.1862  -31.4380   20.6172 H   0  0  0  0  0  0
  -26.8869  -30.7406   22.0394 H   0  0  0  0  0  0
  -28.1411  -28.7269   21.2502 H   0  0  0  0  0  0
  -25.8879  -25.8181   18.9930 H   0  0  0  0  0  0
  -23.9865  -27.2943   18.9696 H   0  0  0  0  0  0
  -23.8332  -30.5541   19.3948 H   0  0  0  0  0  0
  -22.8022  -29.2289   19.8362 H   0  0  0  0  0  0
  -25.1317  -36.1824   25.0806 H   0  0  0  0  0  0
  -21.0020  -28.3330   24.1338 H   0  0  0  0  0  0
  -20.5684  -26.2356   23.3630 H   0  0  0  0  0  0
  -21.6659  -26.7430   22.1204 H   0  0  0  0  0  0
  -19.6933  -25.6286   21.1259 H   0  0  0  0  0  0
  -19.6706  -27.3177   20.6733 H   0  0  0  0  0  0
  -17.4221  -26.6695   21.4012 H   0  0  0  0  0  0
  -18.0333  -26.0090   22.9013 H   0  0  0  0  0  0
  -19.7962  -30.7296   24.2234 H   0  0  0  0  0  0
  -17.5036  -31.6276   24.5164 H   0  0  0  0  0  0
  -15.5373  -30.2986   23.7678 H   0  0  0  0  0  0
  -15.8689  -28.0809   22.7112 H   0  0  0  0  0  0
  -24.5928  -30.7059   25.7709 H   0  0  0  0  0  0
  -24.8841  -32.2944   26.4691 H   0  0  0  0  0  0
  -25.7967  -30.9029   27.0239 H   0  0  0  0  0  0
  -26.3061  -29.6643   24.1336 H   0  0  0  0  0  0
  -27.4001  -29.7263   25.4947 H   0  0  0  0  0  0
  -27.8985  -30.4162   23.9706 H   0  0  0  0  0  0
  -27.2677  -33.3680   26.1965 H   0  0  0  0  0  0
  -28.3934  -32.6803   25.0351 H   0  0  0  0  0  0
  -28.0680  -31.8520   26.5494 H   0  0  0  0  0  0
  -28.2568  -38.0091   24.7525 H   0  0  0  0  0  0
  -28.1090  -36.2618   24.6259 H   0  0  0  0  0  0
  -27.2295  -37.1384   25.8866 H   0  0  0  0  0  0
  -20.9519  -29.8751   21.6737 H   0  0  0  0  0  0
  -26.0133  -38.2794   24.1431 H   0  0  0  0  0  0
  -32.6005  -19.5282   22.0866 H   0  0  0  0  0  0
  -31.9911  -17.3027   21.4545 H   0  0  0  0  0  0
  -28.2674  -18.8829   19.9097 H   0  0  0  0  0  0
  -33.9567  -24.0327   21.2717 H   0  0  0  0  0  0
  -32.5876  -24.2560   22.4950 H   0  0  0  0  0  0
  -33.1053  -21.8324   20.6893 H   0  0  0  0  0  0
  -31.6637  -21.4997   23.0750 H   0  0  0  0  0  0
  -30.5906  -22.5463   22.2594 H   0  0  0  0  0  0
  -27.2561  -24.3082   21.1203 H   0  0  0  0  0  0
  -27.2590  -24.2601   19.3868 H   0  0  0  0  0  0
  -27.7515  -21.6147   20.4803 H   0  0  0  0  0  0
  -28.7531  -16.0751   20.3777 H   0  0  0  0  0  0
  1 25  1  0  0  0
  1 30  2  0  0  0
  1 83  1  0  0  0
  2  3  1  0  0  0
  2 25  1  0  0  0
  2 85  1  0  0  0
  2 86  1  0  0  0
  3  4  1  0  0  0
  3 87  1  0  0  0
  3 88  1  0  0  0
  4  5  1  0  0  0
  4 89  1  0  0  0
  4 90  1  0  0  0
  5  6  1  0  0  0
  5 26  1  0  0  0
  5 91  1  0  0  0
  6 25  1  0  0  0
  6 92  1  0  0  0
  6 93  1  0  0  0
  7  8  2  0  0  0
  7 26  1  0  0  0
  7 29  1  0  0  0
  8  9  1  0  0  0
  8 22  1  0  0  0
  9 10  1  0  0  0
  9 27  2  0  0  0
 10 11  2  0  0  0
 10 15  1  0  0  0
 11 12  1  0  0  0
 11 94  1  0  0  0
 12 13  2  0  0  0
 12 95  1  0  0  0
 13 14  1  0  0  0
 13 31  1  0  0  0
 14 15  2  0  0  0
 14 96  1  0  0  0
 15 97  1  0  0  0
 16 17  2  0  0  0
 16 21  1  0  0  0
 16 31  1  0  0  0
 17 18  1  0  0  0
 17 98  1  0  0  0
 18 19  2  0  0  0
 18 99  1  0  0  0
 19 20  1  0  0  0
 19 24  1  0  0  0
 20 21  2  0  0  0
 20100  1  0  0  0
 21 23  1  0  0  0
 22 28  1  0  0  0
 22 32  2  0  0  0
 26 27  1  0  0  0
 28101  1  0  0  0
 28102  1  0  0  0
 29103  1  0  0  0
 29104  1  0  0  0
 33 34  1  0  0  0
 33 66  1  0  0  0
 33 70  2  0  0  0
 34 36  1  0  0  0
 34 59  1  0  0  0
 34105  1  0  0  0
 35 44  2  0  0  0
 35 45  1  0  0  0
 35 68  1  0  0  0
 36 56  1  0  0  0
 36106  1  0  0  0
 37 39  1  0  0  0
 37 47  1  0  0  0
 37 66  1  0  0  0
 37107  1  0  0  0
 38 43  2  0  0  0
 38 46  1  0  0  0
 38 47  1  0  0  0
 39 64  1  0  0  0
 39 67  2  0  0  0
 40 52  1  0  0  0
 40 53  2  0  0  0
 40 58  1  0  0  0
 41108  1  0  0  0
 41109  1  0  0  0
 41110  1  0  0  0
 41 48  1  0  0  0
 42 43  1  0  0  0
 42 66  1  0  0  0
 42111  1  0  0  0
 42112  1  0  0  0
 43 44  1  0  0  0
 44113  1  0  0  0
 45 46  2  0  0  0
 45114  1  0  0  0
 46115  1  0  0  0
 47116  1  0  0  0
 47117  1  0  0  0
 48 56  1  0  0  0
 48 65  1  0  0  0
 48118  1  0  0  0
 49 50  1  0  0  0
 49 53  1  0  0  0
 49 64  1  0  0  0
 49119  1  0  0  0
 50 51  1  0  0  0
 50120  1  0  0  0
 50121  1  0  0  0
 51 52  1  0  0  0
 51122  1  0  0  0
 51123  1  0  0  0
 52124  1  0  0  0
 52125  1  0  0  0
 53 54  1  0  0  0
 54 55  2  0  0  0
 54126  1  0  0  0
 55 57  1  0  0  0
 55127  1  0  0  0
 56 69  2  0  0  0
 57 58  2  0  0  0
 57128  1  0  0  0
 58129  1  0  0  0
 59 60  1  0  0  0
 59 61  1  0  0  0
 59 62  1  0  0  0
 60130  1  0  0  0
 60131  1  0  0  0
 60132  1  0  0  0
 61133  1  0  0  0
 61134  1  0  0  0
 61135  1  0  0  0
 62136  1  0  0  0
 62137  1  0  0  0
 62138  1  0  0  0
 63 65  1  0  0  0
 63139  1  0  0  0
 63140  1  0  0  0
 63141  1  0  0  0
 64142  1  0  0  0
 65143  1  0  0  0
 68 81  1  0  0  0
 71 72  2  0  0  0
 71 74  1  0  0  0
 71144  1  0  0  0
 72 75  1  0  0  0
 72145  1  0  0  0
 73 75  2  0  0  0
 73 76  1  0  0  0
 73146  1  0  0  0
 74 76  2  0  0  0
 74 80  1  0  0  0
 75 83  1  0  0  0
 76 82  1  0  0  0
 77 78  2  0  0  0
 77147  1  0  0  0
 77148  1  0  0  0
 78 80  1  0  0  0
 78149  1  0  0  0
 79 81  1  0  0  0
 79 82  1  0  0  0
 79 84  2  0  0  0
 80150  1  0  0  0
 80151  1  0  0  0
 81152  1  0  0  0
 81153  1  0  0  0
 82154  1  0  0  0
 83155  1  0  0  0
M  ISO  4   1 100  68 101  81 101  83 100
M  END
> <chiral flag>
0

> <version>
0

> <s_m_source_file>
/data/baiqing/PycharmProjects/Reinvent-master-3.2/result/LINK_invent/BTK/process_docking_weight1_custom_product_contain_oxygen_bond_distance_aromatic_linkinvent_7_9_3/rearranged_h_0067.sdf

> <i_m_source_file_index>
48

> <r_mmod_Potential_Energy-OPLS-2005>
703.45654296875

> <r_mmod_Stretch_Energy-OPLS-2005>
354.146148681641

> <r_mmod_Bend_Energy-OPLS-2005>
283.362976074219

> <r_mmod_Torsional_Energy-OPLS-2005>
249.339935302734

> <r_mmod_Improper_Torsional_Energy-OPLS-2005>
7.52991008758545

> <r_mmod_Van_der_Waal_Energy-OPLS-2005>
135.663696289062

> <r_mmod_Electrostatic_Energy-OPLS-2005>
-348.499420166016

> <r_mmod_Solvation_Energy-OPLS-2005>
-246.948593139648

> <b_mmod_Minimization_Converged-OPLS-2005>
0

> <r_mmod_RMS_Derivative-OPLS-2005>
0.689482450485229

$$$$
48
                    3D
 Structure written by MMmdl.
155163  0  0  1  0            999 V2000
  -30.5912  -14.7478   20.4624 C   0  0  0  0  0  0
  -30.4381  -12.4614   19.4509 C   0  0  0  0  0  0
  -29.5083  -12.5023   18.2186 C   0  0  0  0  0  0
  -28.0327  -12.3241   18.6379 C   0  0  0  0  0  0
  -27.6378  -13.2240   19.8389 C   0  0  2  0  0  0
  -28.6865  -13.1616   20.9687 C   0  0  0  0  0  0
  -25.2499  -13.8166   20.5672 C   0  0  0  0  0  0
  -24.1797  -13.0421   20.9211 C   0  0  0  0  0  0
  -24.6377  -11.6903   20.8731 C   0  0  0  0  0  0
  -23.9050  -10.4292   21.0403 C   0  0  0  0  0  0
  -24.3611   -9.4214   21.9181 C   0  0  0  0  0  0
  -23.6295   -8.2247   22.0751 C   0  0  0  0  0  0
  -22.4278   -8.0279   21.3546 C   0  0  0  0  0  0
  -21.9908   -9.0246   20.4648 C   0  0  0  0  0  0
  -22.7221  -10.2129   20.3057 C   0  0  0  0  0  0
  -21.6854   -6.0739   22.5282 C   0  0  0  0  0  0
  -21.4012   -6.5641   23.8215 C   0  0  0  0  0  0
  -21.3655   -5.6787   24.9177 C   0  0  0  0  0  0
  -21.6043   -4.3053   24.7225 C   0  0  0  0  0  0
  -21.8812   -3.8149   23.4349 C   0  0  0  0  0  0
  -21.9191   -4.6966   22.3405 C   0  0  0  0  0  0
  -22.7827  -13.5224   21.1858 C   0  0  0  0  0  0
  -22.1667   -4.2144   21.0983 F   0  0  0  0  0  0
  -21.5627   -3.4540   25.7748 F   0  0  0  0  0  0
  -29.9779  -13.5210   20.3730 N   0  0  0  0  0  0
  -26.2916  -12.9361   20.3234 N   0  0  0  0  0  0
  -25.9304  -11.6516   20.5731 N   0  0  0  0  0  0
  -22.0462  -12.8233   22.0419 N   0  0  0  0  0  0
  -25.4153  -15.1893   20.4039 N   0  0  0  0  0  0
  -31.8026  -14.8508   20.2487 O   0  0  0  0  0  0
  -21.6641   -6.8883   21.4249 O   0  0  0  0  0  0
  -22.3522  -14.5522   20.6688 O   0  0  0  0  0  0
  -24.6331  -31.8524   23.1940 C   0  0  0  0  0  0
  -25.9160  -32.4733   23.8283 C   0  0  1  0  0  0
  -27.2189  -27.2594   20.1388 C   0  0  0  0  0  0
  -25.5957  -33.8535   24.2217 N   0  0  0  0  0  0
  -23.4293  -30.4730   21.5377 C   0  0  2  0  0  0
  -24.8750  -28.9109   20.1147 C   0  0  0  0  0  0
  -22.7501  -29.4589   22.4896 C   0  0  0  0  0  0
  -18.0288  -28.1404   22.8494 C   0  0  0  0  0  0
  -24.1488  -36.7274   23.2628 C   0  0  0  0  0  0
  -25.9723  -30.7688   21.3675 C   0  0  0  0  0  0
  -26.0469  -29.3866   20.7180 C   0  0  0  0  0  0
  -27.2254  -28.5746   20.7138 C   0  0  0  0  0  0
  -26.0269  -26.8422   19.5136 C   0  0  0  0  0  0
  -24.8701  -27.6477   19.5001 C   0  0  0  0  0  0
  -23.6478  -29.8009   20.1556 C   0  0  0  0  0  0
  -25.4108  -36.3034   24.0308 C   0  0  1  0  0  0
  -20.5895  -28.3706   23.1273 C   0  0  2  0  0  0
  -20.6771  -26.9423   22.5417 C   0  0  0  0  0  0
  -19.5746  -26.6400   21.5217 C   0  0  0  0  0  0
  -18.1929  -26.7953   22.1633 C   0  0  0  0  0  0
  -19.1546  -28.8865   23.2885 C   0  0  0  0  0  0
  -18.9472  -30.1466   23.8901 C   0  0  0  0  0  0
  -17.6464  -30.6597   24.0567 C   0  0  0  0  0  0
  -25.9058  -34.9422   23.5054 C   0  0  0  0  0  0
  -16.5351  -29.9100   23.6334 C   0  0  0  0  0  0
  -16.7272  -28.6522   23.0354 C   0  0  0  0  0  0
  -26.4531  -31.6562   25.0678 C   0  0  0  0  0  0
  -25.3772  -31.3747   26.1415 C   0  0  0  0  0  0
  -27.0352  -30.2969   24.6160 C   0  0  0  0  0  0
  -27.6052  -32.4336   25.7490 C   0  0  0  0  0  0
  -27.5569  -37.1778   24.8457 C   0  0  0  0  0  0
  -21.4202  -29.3045   22.3657 N   0  0  0  0  0  0
  -26.4271  -37.3752   23.9419 N   0  0  0  0  0  0
  -24.6978  -31.0505   22.0904 N   0  0  0  0  0  0
  -23.4193  -28.8119   23.2995 O   0  0  0  0  0  0
  -28.3190  -26.3775   20.1365 O   0  0  0  0  0  0
  -26.5623  -34.8911   22.4618 O   0  0  0  0  0  0
  -23.5497  -32.1326   23.7261 O   0  0  0  0  0  0
  -30.5394  -17.3683   22.2486 C   0  0  0  0  0  0
  -29.4546  -18.4762   20.3745 C   0  0  0  0  0  0
  -30.5462  -18.5979   22.9457 C   0  0  0  0  0  0
  -29.9619  -17.2450   20.9724 C   0  0  0  0  0  0
  -29.5091  -19.7859   21.0221 C   0  0  0  0  0  0
  -30.0151  -19.7754   22.3538 C   0  0  0  0  0  0
  -31.0431  -18.6107   24.3646 C   0  0  0  0  0  0
  -29.2486  -22.3994   20.6543 C   0  0  0  0  0  0
  -28.4663  -23.6081   19.9407 C   0  0  0  0  0  0
  -28.1730  -25.0011   20.7303 C   0  0  0  0  0  0
  -32.1644  -17.9377   24.6024 N   0  0  0  0  0  0
  -28.9800  -21.0498   20.4070 N   0  0  0  0  0  0
  -29.7724  -15.8720   20.4459 N   0  0  0  0  0  0
  -30.4528  -19.2075   25.2643 O   0  0  0  0  0  0
  -30.1900  -22.7352   21.3733 O   0  0  0  0  0  0
  -29.9491  -20.8960   23.1117 F   0  0  0  0  0  0
  -31.4749  -12.6081   19.1438 H   0  0  0  0  0  0
  -30.4023  -11.4856   19.9377 H   0  0  0  0  0  0
  -29.7925  -11.7269   17.5042 H   0  0  0  0  0  0
  -29.6301  -13.4530   17.6979 H   0  0  0  0  0  0
  -27.8884  -11.2766   18.9023 H   0  0  0  0  0  0
  -27.3749  -12.5160   17.7892 H   0  0  0  0  0  0
  -27.6264  -14.2422   19.4509 H   0  0  0  0  0  0
  -28.7290  -12.1647   21.4129 H   0  0  0  0  0  0
  -28.4233  -13.8495   21.7740 H   0  0  0  0  0  0
  -25.2749   -9.5696   22.4756 H   0  0  0  0  0  0
  -23.9999   -7.4639   22.7469 H   0  0  0  0  0  0
  -21.0837   -8.8756   19.8960 H   0  0  0  0  0  0
  -22.3666  -10.9669   19.6170 H   0  0  0  0  0  0
  -21.2009   -7.6145   23.9718 H   0  0  0  0  0  0
  -21.1482   -6.0524   25.9075 H   0  0  0  0  0  0
  -22.0595   -2.7613   23.2850 H   0  0  0  0  0  0
  -22.4088  -11.9913   22.4850 H   0  0  0  0  0  0
  -21.1070  -13.1258   22.2595 H   0  0  0  0  0  0
  -24.6358  -15.8314   20.4968 H   0  0  0  0  0  0
  -26.2460  -15.6328   20.0354 H   0  0  0  0  0  0
  -26.7215  -32.5386   23.1015 H   0  0  0  0  0  0
  -25.0130  -33.9655   25.0375 H   0  0  0  0  0  0
  -22.7272  -31.2961   21.3872 H   0  0  0  0  0  0
  -23.3732  -35.9625   23.3278 H   0  0  0  0  0  0
  -24.3575  -36.8923   22.2049 H   0  0  0  0  0  0
  -23.7284  -37.6483   23.6672 H   0  0  0  0  0  0
  -26.1072  -31.5233   20.5914 H   0  0  0  0  0  0
  -26.8520  -30.8231   21.9966 H   0  0  0  0  0  0
  -28.1274  -28.9373   21.1878 H   0  0  0  0  0  0
  -25.9880  -25.8704   19.0406 H   0  0  0  0  0  0
  -23.9714  -27.2785   19.0254 H   0  0  0  0  0  0
  -23.7803  -30.5732   19.3976 H   0  0  0  0  0  0
  -22.7648  -29.2374   19.8472 H   0  0  0  0  0  0
  -25.1303  -36.1835   25.0804 H   0  0  0  0  0  0
  -20.9997  -28.3288   24.1390 H   0  0  0  0  0  0
  -20.5684  -26.2312   23.3621 H   0  0  0  0  0  0
  -21.6639  -26.7454   22.1201 H   0  0  0  0  0  0
  -19.6904  -25.6315   21.1248 H   0  0  0  0  0  0
  -19.6686  -27.3207   20.6747 H   0  0  0  0  0  0
  -17.4202  -26.6705   21.4031 H   0  0  0  0  0  0
  -18.0319  -26.0102   22.9039 H   0  0  0  0  0  0
  -19.7939  -30.7297   24.2276 H   0  0  0  0  0  0
  -17.5012  -31.6278   24.5178 H   0  0  0  0  0  0
  -15.5356  -30.2998   23.7657 H   0  0  0  0  0  0
  -15.8680  -28.0836   22.7064 H   0  0  0  0  0  0
  -24.5934  -30.7102   25.7779 H   0  0  0  0  0  0
  -24.8992  -32.2939   26.4818 H   0  0  0  0  0  0
  -25.8119  -30.8964   27.0202 H   0  0  0  0  0  0
  -26.2903  -29.6745   24.1200 H   0  0  0  0  0  0
  -27.4028  -29.7224   25.4672 H   0  0  0  0  0  0
  -27.8795  -30.4217   23.9380 H   0  0  0  0  0  0
  -27.2581  -33.3620   26.2047 H   0  0  0  0  0  0
  -28.3885  -32.6944   25.0360 H   0  0  0  0  0  0
  -28.0684  -31.8496   26.5449 H   0  0  0  0  0  0
  -28.2555  -38.0102   24.7510 H   0  0  0  0  0  0
  -28.1094  -36.2632   24.6253 H   0  0  0  0  0  0
  -27.2296  -37.1391   25.8862 H   0  0  0  0  0  0
  -20.9390  -29.8778   21.6866 H   0  0  0  0  0  0
  -26.0120  -38.2811   24.1457 H   0  0  0  0  0  0
  -30.9013  -16.4831   22.7555 H   0  0  0  0  0  0
  -28.9970  -18.4135   19.3970 H   0  0  0  0  0  0
  -27.5228  -23.2235   19.5538 H   0  0  0  0  0  0
  -29.0559  -23.8532   19.0589 H   0  0  0  0  0  0
  -27.1715  -24.9204   21.1532 H   0  0  0  0  0  0
  -28.8160  -25.0150   21.6097 H   0  0  0  0  0  0
  -32.6485  -17.4696   23.8514 H   0  0  0  0  0  0
  -32.5479  -17.9057   25.5362 H   0  0  0  0  0  0
  -28.3136  -20.9013   19.6621 H   0  0  0  0  0  0
  -28.8273  -15.6669   20.1675 H   0  0  0  0  0  0
  1 25  1  0  0  0
  1 30  2  0  0  0
  1 83  1  0  0  0
  2  3  1  0  0  0
  2 25  1  0  0  0
  2 87  1  0  0  0
  2 88  1  0  0  0
  3  4  1  0  0  0
  3 89  1  0  0  0
  3 90  1  0  0  0
  4  5  1  0  0  0
  4 91  1  0  0  0
  4 92  1  0  0  0
  5  6  1  0  0  0
  5 26  1  0  0  0
  5 93  1  0  0  0
  6 25  1  0  0  0
  6 94  1  0  0  0
  6 95  1  0  0  0
  7  8  2  0  0  0
  7 26  1  0  0  0
  7 29  1  0  0  0
  8  9  1  0  0  0
  8 22  1  0  0  0
  9 10  1  0  0  0
  9 27  2  0  0  0
 10 11  2  0  0  0
 10 15  1  0  0  0
 11 12  1  0  0  0
 11 96  1  0  0  0
 12 13  2  0  0  0
 12 97  1  0  0  0
 13 14  1  0  0  0
 13 31  1  0  0  0
 14 15  2  0  0  0
 14 98  1  0  0  0
 15 99  1  0  0  0
 16 17  2  0  0  0
 16 21  1  0  0  0
 16 31  1  0  0  0
 17 18  1  0  0  0
 17100  1  0  0  0
 18 19  2  0  0  0
 18101  1  0  0  0
 19 20  1  0  0  0
 19 24  1  0  0  0
 20 21  2  0  0  0
 20102  1  0  0  0
 21 23  1  0  0  0
 22 28  1  0  0  0
 22 32  2  0  0  0
 26 27  1  0  0  0
 28103  1  0  0  0
 28104  1  0  0  0
 29105  1  0  0  0
 29106  1  0  0  0
 33 34  1  0  0  0
 33 66  1  0  0  0
 33 70  2  0  0  0
 34 36  1  0  0  0
 34 59  1  0  0  0
 34107  1  0  0  0
 35 44  2  0  0  0
 35 45  1  0  0  0
 35 68  1  0  0  0
 36 56  1  0  0  0
 36108  1  0  0  0
 37 39  1  0  0  0
 37 47  1  0  0  0
 37 66  1  0  0  0
 37109  1  0  0  0
 38 43  2  0  0  0
 38 46  1  0  0  0
 38 47  1  0  0  0
 39 64  1  0  0  0
 39 67  2  0  0  0
 40 52  1  0  0  0
 40 53  2  0  0  0
 40 58  1  0  0  0
 41110  1  0  0  0
 41111  1  0  0  0
 41112  1  0  0  0
 41 48  1  0  0  0
 42 43  1  0  0  0
 42 66  1  0  0  0
 42113  1  0  0  0
 42114  1  0  0  0
 43 44  1  0  0  0
 44115  1  0  0  0
 45 46  2  0  0  0
 45116  1  0  0  0
 46117  1  0  0  0
 47118  1  0  0  0
 47119  1  0  0  0
 48 56  1  0  0  0
 48 65  1  0  0  0
 48120  1  0  0  0
 49 50  1  0  0  0
 49 53  1  0  0  0
 49 64  1  0  0  0
 49121  1  0  0  0
 50 51  1  0  0  0
 50122  1  0  0  0
 50123  1  0  0  0
 51 52  1  0  0  0
 51124  1  0  0  0
 51125  1  0  0  0
 52126  1  0  0  0
 52127  1  0  0  0
 53 54  1  0  0  0
 54 55  2  0  0  0
 54128  1  0  0  0
 55 57  1  0  0  0
 55129  1  0  0  0
 56 69  2  0  0  0
 57 58  2  0  0  0
 57130  1  0  0  0
 58131  1  0  0  0
 59 60  1  0  0  0
 59 61  1  0  0  0
 59 62  1  0  0  0
 60132  1  0  0  0
 60133  1  0  0  0
 60134  1  0  0  0
 61135  1  0  0  0
 61136  1  0  0  0
 61137  1  0  0  0
 62138  1  0  0  0
 62139  1  0  0  0
 62140  1  0  0  0
 63 65  1  0  0  0
 63141  1  0  0  0
 63142  1  0  0  0
 63143  1  0  0  0
 64144  1  0  0  0
 65145  1  0  0  0
 68 80  1  0  0  0
 71 73  2  0  0  0
 71 74  1  0  0  0
 71146  1  0  0  0
 72 74  2  0  0  0
 72 75  1  0  0  0
 72147  1  0  0  0
 73 76  1  0  0  0
 73 77  1  0  0  0
 74 83  1  0  0  0
 75 76  2  0  0  0
 75 82  1  0  0  0
 76 86  1  0  0  0
 77 81  1  0  0  0
 77 84  2  0  0  0
 78 79  1  0  0  0
 78 82  1  0  0  0
 78 85  2  0  0  0
 79 80  1  0  0  0
 79148  1  0  0  0
 79149  1  0  0  0
 80150  1  0  0  0
 80151  1  0  0  0
 81152  1  0  0  0
 81153  1  0  0  0
 82154  1  0  0  0
 83155  1  0  0  0
M  ISO  4   1 100  68 101  80 101  83 100
M  END
> <chiral flag>
0

> <version>
0

> <s_m_source_file>
/data/baiqing/PycharmProjects/Reinvent-master-3.2/result/LINK_invent/BTK/process_docking_weight1_custom_product_contain_oxygen_bond_distance_aromatic_linkinvent_7_9_3/rearranged_h_0067.sdf

> <i_m_source_file_index>
49

> <r_mmod_Potential_Energy-OPLS-2005>
24.3104877471924

> <r_mmod_Stretch_Energy-OPLS-2005>
129.322372436523

> <r_mmod_Bend_Energy-OPLS-2005>
165.578170776367

> <r_mmod_Torsional_Energy-OPLS-2005>
290.918640136719

> <r_mmod_Improper_Torsional_Energy-OPLS-2005>
11.4595823287964

> <r_mmod_Van_der_Waal_Energy-OPLS-2005>
142.513565063477

> <r_mmod_Electrostatic_Energy-OPLS-2005>
-512.727783203125

> <r_mmod_Solvation_Energy-OPLS-2005>
-291.411254882812

> <b_mmod_Minimization_Converged-OPLS-2005>
0

> <r_mmod_RMS_Derivative-OPLS-2005>
2.27894234657288

$$$$
49
                    3D
 Structure written by MMmdl.
157165  0  0  1  0            999 V2000
  -30.6163  -14.7248   20.4987 C   0  0  0  0  0  0
  -30.4277  -12.4515   19.4914 C   0  0  0  0  0  0
  -29.5150  -12.5220   18.2484 C   0  0  0  0  0  0
  -28.0391  -12.3402   18.6526 C   0  0  0  0  0  0
  -27.6415  -13.2341   19.8619 C   0  0  2  0  0  0
  -28.6751  -13.1531   21.0056 C   0  0  0  0  0  0
  -25.2460  -13.8265   20.5630 C   0  0  0  0  0  0
  -24.1768  -13.0485   20.9184 C   0  0  0  0  0  0
  -24.6364  -11.6952   20.8720 C   0  0  0  0  0  0
  -23.9078  -10.4310   21.0378 C   0  0  0  0  0  0
  -24.3628   -9.4217   21.9155 C   0  0  0  0  0  0
  -23.6292   -8.2261   22.0730 C   0  0  0  0  0  0
  -22.4274   -8.0309   21.3529 C   0  0  0  0  0  0
  -21.9911   -9.0276   20.4641 C   0  0  0  0  0  0
  -22.7244  -10.2153   20.3039 C   0  0  0  0  0  0
  -21.6880   -6.0744   22.5262 C   0  0  0  0  0  0
  -21.4033   -6.5637   23.8193 C   0  0  0  0  0  0
  -21.3624   -5.6785   24.9142 C   0  0  0  0  0  0
  -21.6015   -4.3049   24.7191 C   0  0  0  0  0  0
  -21.8828   -3.8147   23.4323 C   0  0  0  0  0  0
  -21.9200   -4.6969   22.3377 C   0  0  0  0  0  0
  -22.7801  -13.5253   21.1891 C   0  0  0  0  0  0
  -22.1678   -4.2152   21.0957 F   0  0  0  0  0  0
  -21.5577   -3.4527   25.7695 F   0  0  0  0  0  0
  -29.9858  -13.5028   20.4398 N   0  0  0  0  0  0
  -26.2897  -12.9464   20.3281 N   0  0  0  0  0  0
  -25.9292  -11.6601   20.5744 N   0  0  0  0  0  0
  -22.0483  -12.8184   22.0439 N   0  0  0  0  0  0
  -25.4152  -15.2006   20.3978 N   0  0  0  0  0  0
  -31.7685  -14.8368   20.0679 O   0  0  0  0  0  0
  -21.6662   -6.8894   21.4230 O   0  0  0  0  0  0
  -22.3461  -14.5561   20.6769 O   0  0  0  0  0  0
  -24.6292  -31.8515   23.1993 C   0  0  0  0  0  0
  -25.9109  -32.4734   23.8317 C   0  0  1  0  0  0
  -27.2097  -27.2595   20.1398 C   0  0  0  0  0  0
  -25.5908  -33.8538   24.2252 N   0  0  0  0  0  0
  -23.4265  -30.4741   21.5422 C   0  0  2  0  0  0
  -24.8747  -28.9317   20.1073 C   0  0  0  0  0  0
  -22.7494  -29.4541   22.4874 C   0  0  0  0  0  0
  -18.0322  -28.1354   22.8437 C   0  0  0  0  0  0
  -24.1498  -36.7299   23.2637 C   0  0  0  0  0  0
  -25.9729  -30.7673   21.3814 C   0  0  0  0  0  0
  -26.0472  -29.3928   20.7224 C   0  0  0  0  0  0
  -27.2193  -28.5708   20.7260 C   0  0  0  0  0  0
  -26.0195  -26.8793   19.4775 C   0  0  0  0  0  0
  -24.8668  -27.6833   19.4740 C   0  0  0  0  0  0
  -23.6438  -29.8145   20.1550 C   0  0  0  0  0  0
  -25.4104  -36.3042   24.0328 C   0  0  1  0  0  0
  -20.5904  -28.3709   23.1270 C   0  0  2  0  0  0
  -20.6809  -26.9427   22.5417 C   0  0  0  0  0  0
  -19.5824  -26.6356   21.5188 C   0  0  0  0  0  0
  -18.1970  -26.7914   22.1529 C   0  0  0  0  0  0
  -19.1563  -28.8832   23.2846 C   0  0  0  0  0  0
  -18.9461  -30.1415   23.8879 C   0  0  0  0  0  0
  -17.6474  -30.6535   24.0583 C   0  0  0  0  0  0
  -25.9049  -34.9417   23.5092 C   0  0  0  0  0  0
  -16.5359  -29.9038   23.6329 C   0  0  0  0  0  0
  -16.7316  -28.6492   23.0305 C   0  0  0  0  0  0
  -26.4500  -31.6562   25.0696 C   0  0  0  0  0  0
  -25.3736  -31.3704   26.1404 C   0  0  0  0  0  0
  -27.0379  -30.2995   24.6190 C   0  0  0  0  0  0
  -27.6013  -32.4318   25.7503 C   0  0  0  0  0  0
  -27.5569  -37.1785   24.8450 C   0  0  0  0  0  0
  -21.4198  -29.3037   22.3634 N   0  0  0  0  0  0
  -26.4273  -37.3735   23.9406 N   0  0  0  0  0  0
  -24.6944  -31.0482   22.0975 N   0  0  0  0  0  0
  -23.4210  -28.8031   23.2916 O   0  0  0  0  0  0
  -28.2792  -26.3312   20.2293 O   0  0  0  0  0  0
  -26.5631  -34.8904   22.4666 O   0  0  0  0  0  0
  -23.5457  -32.1309   23.7329 O   0  0  0  0  0  0
  -28.5234  -19.3358   18.8010 C   0  0  0  0  0  0
  -28.9121  -16.9189   18.9936 C   0  0  0  0  0  0
  -29.6055  -18.4338   20.7779 C   0  0  0  0  0  0
  -28.4073  -18.0296   18.2858 C   0  0  0  0  0  0
  -29.1110  -19.6063   20.0598 C   0  0  0  0  0  0
  -29.5271  -17.0714   20.2562 C   0  0  0  0  0  0
  -28.5581  -22.1709   20.0835 C   0  0  0  0  0  0
  -27.7324  -17.8396   16.9390 C   0  0  0  0  0  0
  -27.2688  -24.7899   21.8509 C   0  0  0  0  0  0
  -29.0474  -23.6773   20.3691 C   0  0  0  0  0  0
  -27.9492  -24.8709   20.4686 C   0  0  2  0  0  0
  -29.2401  -21.0296   20.5052 N   0  0  0  0  0  0
  -29.9475  -15.8412   20.9737 N   0  0  0  0  0  0
  -27.5022  -22.0637   19.4556 O   0  0  0  0  0  0
  -31.4736  -12.5646   19.2013 H   0  0  0  0  0  0
  -30.3645  -11.4690   19.9602 H   0  0  0  0  0  0
  -29.8055  -11.7569   17.5274 H   0  0  0  0  0  0
  -29.6439  -13.4856   17.7505 H   0  0  0  0  0  0
  -27.8998  -11.2914   18.9104 H   0  0  0  0  0  0
  -27.3902  -12.5297   17.7987 H   0  0  0  0  0  0
  -27.6444  -14.2611   19.5017 H   0  0  0  0  0  0
  -28.7004  -12.1495   21.4325 H   0  0  0  0  0  0
  -28.4015  -13.8280   21.8173 H   0  0  0  0  0  0
  -25.2764   -9.5696   22.4736 H   0  0  0  0  0  0
  -23.9998   -7.4652   22.7445 H   0  0  0  0  0  0
  -21.0832   -8.8787   19.8956 H   0  0  0  0  0  0
  -22.3677  -10.9684   19.6156 H   0  0  0  0  0  0
  -21.2069   -7.6150   23.9693 H   0  0  0  0  0  0
  -21.1438   -6.0514   25.9046 H   0  0  0  0  0  0
  -22.0653   -2.7621   23.2806 H   0  0  0  0  0  0
  -22.4180  -11.9856   22.4769 H   0  0  0  0  0  0
  -21.1122  -13.1195   22.2729 H   0  0  0  0  0  0
  -24.6508  -15.8601   20.5021 H   0  0  0  0  0  0
  -26.2660  -15.6483   20.0777 H   0  0  0  0  0  0
  -26.7167  -32.5393   23.1048 H   0  0  0  0  0  0
  -25.0070  -33.9694   25.0414 H   0  0  0  0  0  0
  -22.7232  -31.2949   21.4050 H   0  0  0  0  0  0
  -23.3745  -35.9660   23.3285 H   0  0  0  0  0  0
  -24.3589  -36.8925   22.2048 H   0  0  0  0  0  0
  -23.7270  -37.6501   23.6684 H   0  0  0  0  0  0
  -26.1046  -31.5287   20.6114 H   0  0  0  0  0  0
  -26.8543  -30.8163   22.0098 H   0  0  0  0  0  0
  -28.1126  -28.9116   21.2333 H   0  0  0  0  0  0
  -25.9341  -25.9363   18.9633 H   0  0  0  0  0  0
  -23.9737  -27.3245   18.9820 H   0  0  0  0  0  0
  -23.7617  -30.5893   19.3987 H   0  0  0  0  0  0
  -22.7669  -29.2397   19.8514 H   0  0  0  0  0  0
  -25.1299  -36.1878   25.0823 H   0  0  0  0  0  0
  -20.9992  -28.3265   24.1401 H   0  0  0  0  0  0
  -20.5664  -26.2315   23.3612 H   0  0  0  0  0  0
  -21.6705  -26.7478   22.1254 H   0  0  0  0  0  0
  -19.7100  -25.6235   21.1286 H   0  0  0  0  0  0
  -19.6806  -27.3143   20.6742 H   0  0  0  0  0  0
  -17.4280  -26.6699   21.3880 H   0  0  0  0  0  0
  -18.0291  -26.0020   22.8864 H   0  0  0  0  0  0
  -19.7935  -30.7224   24.2250 H   0  0  0  0  0  0
  -17.5054  -31.6210   24.5198 H   0  0  0  0  0  0
  -15.5367  -30.2934   23.7698 H   0  0  0  0  0  0
  -15.8720  -28.0819   22.6988 H   0  0  0  0  0  0
  -24.5882  -30.7085   25.7729 H   0  0  0  0  0  0
  -24.9014  -32.2894   26.4871 H   0  0  0  0  0  0
  -25.8041  -30.8818   27.0142 H   0  0  0  0  0  0
  -26.2985  -29.6739   24.1174 H   0  0  0  0  0  0
  -27.4019  -29.7224   25.4712 H   0  0  0  0  0  0
  -27.8868  -30.4308   23.9469 H   0  0  0  0  0  0
  -27.2573  -33.3603   26.2087 H   0  0  0  0  0  0
  -28.3823  -32.6890   25.0331 H   0  0  0  0  0  0
  -28.0702  -31.8430   26.5410 H   0  0  0  0  0  0
  -28.2564  -38.0104   24.7488 H   0  0  0  0  0  0
  -28.1062  -36.2609   24.6280 H   0  0  0  0  0  0
  -27.2272  -37.1439   25.8849 H   0  0  0  0  0  0
  -20.9429  -29.8783   21.6799 H   0  0  0  0  0  0
  -26.0145  -38.2799   24.1423 H   0  0  0  0  0  0
  -28.1555  -20.1435   18.1840 H   0  0  0  0  0  0
  -28.8038  -15.9330   18.5589 H   0  0  0  0  0  0
  -30.0673  -18.5795   21.7438 H   0  0  0  0  0  0
  -26.6800  -18.1261   16.9918 H   0  0  0  0  0  0
  -27.7853  -16.8047   16.5990 H   0  0  0  0  0  0
  -28.2156  -18.4663   16.1894 H   0  0  0  0  0  0
  -26.9753  -23.7668   22.0861 H   0  0  0  0  0  0
  -26.3641  -25.3957   21.8998 H   0  0  0  0  0  0
  -27.9388  -25.1304   22.6395 H   0  0  0  0  0  0
  -29.7179  -23.9252   19.5449 H   0  0  0  0  0  0
  -29.6718  -23.6823   21.2617 H   0  0  0  0  0  0
  -27.2146  -24.5759   19.7269 H   0  0  0  0  0  0
  -29.9760  -21.2025   21.1780 H   0  0  0  0  0  0
  -30.0161  -15.9308   21.9789 H   0  0  0  0  0  0
  1 25  1  0  0  0
  1 30  2  0  0  0
  1 83  1  0  0  0
  2  3  1  0  0  0
  2 25  1  0  0  0
  2 85  1  0  0  0
  2 86  1  0  0  0
  3  4  1  0  0  0
  3 87  1  0  0  0
  3 88  1  0  0  0
  4  5  1  0  0  0
  4 89  1  0  0  0
  4 90  1  0  0  0
  5  6  1  0  0  0
  5 26  1  0  0  0
  5 91  1  0  0  0
  6 25  1  0  0  0
  6 92  1  0  0  0
  6 93  1  0  0  0
  7  8  2  0  0  0
  7 26  1  0  0  0
  7 29  1  0  0  0
  8  9  1  0  0  0
  8 22  1  0  0  0
  9 10  1  0  0  0
  9 27  2  0  0  0
 10 11  2  0  0  0
 10 15  1  0  0  0
 11 12  1  0  0  0
 11 94  1  0  0  0
 12 13  2  0  0  0
 12 95  1  0  0  0
 13 14  1  0  0  0
 13 31  1  0  0  0
 14 15  2  0  0  0
 14 96  1  0  0  0
 15 97  1  0  0  0
 16 17  2  0  0  0
 16 21  1  0  0  0
 16 31  1  0  0  0
 17 18  1  0  0  0
 17 98  1  0  0  0
 18 19  2  0  0  0
 18 99  1  0  0  0
 19 20  1  0  0  0
 19 24  1  0  0  0
 20 21  2  0  0  0
 20100  1  0  0  0
 21 23  1  0  0  0
 22 28  1  0  0  0
 22 32  2  0  0  0
 26 27  1  0  0  0
 28101  1  0  0  0
 28102  1  0  0  0
 29103  1  0  0  0
 29104  1  0  0  0
 33 34  1  0  0  0
 33 66  1  0  0  0
 33 70  2  0  0  0
 34 36  1  0  0  0
 34 59  1  0  0  0
 34105  1  0  0  0
 35 44  2  0  0  0
 35 45  1  0  0  0
 35 68  1  0  0  0
 36 56  1  0  0  0
 36106  1  0  0  0
 37 39  1  0  0  0
 37 47  1  0  0  0
 37 66  1  0  0  0
 37107  1  0  0  0
 38 43  2  0  0  0
 38 46  1  0  0  0
 38 47  1  0  0  0
 39 64  1  0  0  0
 39 67  2  0  0  0
 40 52  1  0  0  0
 40 53  2  0  0  0
 40 58  1  0  0  0
 41108  1  0  0  0
 41109  1  0  0  0
 41110  1  0  0  0
 41 48  1  0  0  0
 42 43  1  0  0  0
 42 66  1  0  0  0
 42111  1  0  0  0
 42112  1  0  0  0
 43 44  1  0  0  0
 44113  1  0  0  0
 45 46  2  0  0  0
 45114  1  0  0  0
 46115  1  0  0  0
 47116  1  0  0  0
 47117  1  0  0  0
 48 56  1  0  0  0
 48 65  1  0  0  0
 48118  1  0  0  0
 49 50  1  0  0  0
 49 53  1  0  0  0
 49 64  1  0  0  0
 49119  1  0  0  0
 50 51  1  0  0  0
 50120  1  0  0  0
 50121  1  0  0  0
 51 52  1  0  0  0
 51122  1  0  0  0
 51123  1  0  0  0
 52124  1  0  0  0
 52125  1  0  0  0
 53 54  1  0  0  0
 54 55  2  0  0  0
 54126  1  0  0  0
 55 57  1  0  0  0
 55127  1  0  0  0
 56 69  2  0  0  0
 57 58  2  0  0  0
 57128  1  0  0  0
 58129  1  0  0  0
 59 60  1  0  0  0
 59 61  1  0  0  0
 59 62  1  0  0  0
 60130  1  0  0  0
 60131  1  0  0  0
 60132  1  0  0  0
 61133  1  0  0  0
 61134  1  0  0  0
 61135  1  0  0  0
 62136  1  0  0  0
 62137  1  0  0  0
 62138  1  0  0  0
 63 65  1  0  0  0
 63139  1  0  0  0
 63140  1  0  0  0
 63141  1  0  0  0
 64142  1  0  0  0
 65143  1  0  0  0
 68 81  1  0  0  0
 71 74  2  0  0  0
 71 75  1  0  0  0
 71144  1  0  0  0
 72 74  1  0  0  0
 72 76  2  0  0  0
 72145  1  0  0  0
 73 75  2  0  0  0
 73 76  1  0  0  0
 73146  1  0  0  0
 74 78  1  0  0  0
 75 82  1  0  0  0
 76 83  1  0  0  0
 77 80  1  0  0  0
 77 82  1  0  0  0
 77 84  2  0  0  0
 78147  1  0  0  0
 78148  1  0  0  0
 78149  1  0  0  0
 79150  1  0  0  0
 79151  1  0  0  0
 79152  1  0  0  0
 79 81  1  0  0  0
 80 81  1  0  0  0
 80153  1  0  0  0
 80154  1  0  0  0
 81155  1  0  0  0
 82156  1  0  0  0
 83157  1  0  0  0
M  ISO  4   1 100  68 101  81 101  83 100
M  END
> <chiral flag>
0

> <version>
0

> <s_m_source_file>
/data/baiqing/PycharmProjects/Reinvent-master-3.2/result/LINK_invent/BTK/process_docking_weight1_custom_product_contain_oxygen_bond_distance_aromatic_linkinvent_7_9_3/rearranged_h_0067.sdf

> <i_m_source_file_index>
50

> <r_mmod_Potential_Energy-OPLS-2005>
207.394195556641

> <r_mmod_Stretch_Energy-OPLS-2005>
129.9599609375

> <r_mmod_Bend_Energy-OPLS-2005>
161.518096923828

> <r_mmod_Torsional_Energy-OPLS-2005>
285.025268554688

> <r_mmod_Improper_Torsional_Energy-OPLS-2005>
3.52442288398743

> <r_mmod_Van_der_Waal_Energy-OPLS-2005>
143.511505126953

> <r_mmod_Electrostatic_Energy-OPLS-2005>
-376.03125

> <r_mmod_Solvation_Energy-OPLS-2005>
-225.328979492188

> <b_mmod_Minimization_Converged-OPLS-2005>
0

> <r_mmod_RMS_Derivative-OPLS-2005>
4.35781192779541

$$$$
50
                    3D
 Structure written by MMmdl.
155163  0  0  1  0            999 V2000
  -30.6388  -14.5905   20.4808 C   0  0  0  0  0  0
  -30.4433  -12.3561   19.4544 C   0  0  0  0  0  0
  -29.5141  -12.4891   18.2258 C   0  0  0  0  0  0
  -28.0321  -12.3450   18.6305 C   0  0  0  0  0  0
  -27.6592  -13.2130   19.8626 C   0  0  2  0  0  0
  -28.7022  -13.0577   20.9949 C   0  0  0  0  0  0
  -25.2608  -13.8176   20.5691 C   0  0  0  0  0  0
  -24.1866  -13.0455   20.9196 C   0  0  0  0  0  0
  -24.6435  -11.6918   20.8763 C   0  0  0  0  0  0
  -23.9104  -10.4305   21.0436 C   0  0  0  0  0  0
  -24.3647   -9.4198   21.9195 C   0  0  0  0  0  0
  -23.6301   -8.2247   22.0764 C   0  0  0  0  0  0
  -22.4276   -8.0309   21.3561 C   0  0  0  0  0  0
  -21.9929   -9.0298   20.4664 C   0  0  0  0  0  0
  -22.7282  -10.2165   20.3077 C   0  0  0  0  0  0
  -21.6853   -6.0757   22.5280 C   0  0  0  0  0  0
  -21.4020   -6.5659   23.8216 C   0  0  0  0  0  0
  -21.3645   -5.6799   24.9173 C   0  0  0  0  0  0
  -21.6036   -4.3068   24.7218 C   0  0  0  0  0  0
  -21.8822   -3.8168   23.4341 C   0  0  0  0  0  0
  -21.9199   -4.6990   22.3399 C   0  0  0  0  0  0
  -22.7889  -13.5260   21.1841 C   0  0  0  0  0  0
  -22.1660   -4.2180   21.0978 F   0  0  0  0  0  0
  -21.5624   -3.4540   25.7726 F   0  0  0  0  0  0
  -30.0261  -13.3723   20.4385 N   0  0  0  0  0  0
  -26.3034  -12.9345   20.3310 N   0  0  0  0  0  0
  -25.9359  -11.6507   20.5765 N   0  0  0  0  0  0
  -22.0512  -12.8256   22.0399 N   0  0  0  0  0  0
  -25.4347  -15.1894   20.4090 N   0  0  0  0  0  0
  -31.7893  -14.7612   20.0724 O   0  0  0  0  0  0
  -21.6629   -6.8907   21.4247 O   0  0  0  0  0  0
  -22.3561  -14.5556   20.6660 O   0  0  0  0  0  0
  -24.6201  -31.8630   23.2000 C   0  0  0  0  0  0
  -25.9064  -32.4796   23.8317 C   0  0  1  0  0  0
  -27.2337  -27.3768   20.0986 C   0  0  0  0  0  0
  -25.5890  -33.8600   24.2243 N   0  0  0  0  0  0
  -23.4102  -30.4837   21.5428 C   0  0  2  0  0  0
  -24.8560  -28.9374   20.1110 C   0  0  0  0  0  0
  -22.7418  -29.4654   22.4950 C   0  0  0  0  0  0
  -18.0279  -28.1372   22.8482 C   0  0  0  0  0  0
  -24.1488  -36.7327   23.2629 C   0  0  0  0  0  0
  -25.9422  -30.8090   21.3605 C   0  0  0  0  0  0
  -26.0176  -29.4376   20.7104 C   0  0  0  0  0  0
  -27.2058  -28.6629   20.7028 C   0  0  0  0  0  0
  -26.0513  -26.9064   19.4833 C   0  0  0  0  0  0
  -24.8706  -27.6741   19.4936 C   0  0  0  0  0  0
  -23.6191  -29.8074   20.1606 C   0  0  0  0  0  0
  -25.4111  -36.3104   24.0315 C   0  0  1  0  0  0
  -20.5872  -28.3688   23.1278 C   0  0  2  0  0  0
  -20.6766  -26.9414   22.5411 C   0  0  0  0  0  0
  -19.5754  -26.6385   21.5195 C   0  0  0  0  0  0
  -18.1936  -26.7915   22.1617 C   0  0  0  0  0  0
  -19.1527  -28.8839   23.2885 C   0  0  0  0  0  0
  -18.9462  -30.1433   23.8917 C   0  0  0  0  0  0
  -17.6468  -30.6583   24.0571 C   0  0  0  0  0  0
  -25.9047  -34.9471   23.5080 C   0  0  0  0  0  0
  -16.5360  -29.9094   23.6325 C   0  0  0  0  0  0
  -16.7266  -28.6503   23.0355 C   0  0  0  0  0  0
  -26.4469  -31.6610   25.0681 C   0  0  0  0  0  0
  -25.3706  -31.3795   26.1419 C   0  0  0  0  0  0
  -27.0275  -30.3024   24.6106 C   0  0  0  0  0  0
  -27.6025  -32.4349   25.7459 C   0  0  0  0  0  0
  -27.5595  -37.1795   24.8439 C   0  0  0  0  0  0
  -21.4142  -29.3047   22.3669 N   0  0  0  0  0  0
  -26.4287  -37.3801   23.9414 N   0  0  0  0  0  0
  -24.6766  -31.0670   22.0926 N   0  0  0  0  0  0
  -23.4157  -28.8221   23.3040 O   0  0  0  0  0  0
  -28.3926  -26.6120   20.1524 O   0  0  0  0  0  0
  -26.5633  -34.8946   22.4661 O   0  0  0  0  0  0
  -23.5379  -32.1407   23.7359 O   0  0  0  0  0  0
  -31.0258  -20.8112   21.7402 C   0  0  0  0  0  0
  -31.8445  -19.6805   21.8907 C   0  0  0  0  0  0
  -29.3956  -19.4593   20.5414 C   0  0  0  0  0  0
  -30.2165  -18.2899   20.6892 C   0  0  0  0  0  0
  -29.7980  -20.7317   21.0573 C   0  0  0  0  0  0
  -31.4584  -18.4319   21.3664 C   0  0  0  0  0  0
  -28.4298  -25.2840   19.7327 C   0  0  0  0  0  0
  -28.6787  -24.2327   20.5612 C   0  0  0  0  0  0
  -28.8637  -22.8484   20.0562 C   0  0  0  0  0  0
  -29.8101  -16.9499   20.0026 C   0  0  0  0  0  0
  -32.3508  -17.3735   21.5148 N   0  0  0  0  0  0
  -29.0094  -21.9383   21.0495 N   0  0  0  0  0  0
  -29.8265  -15.6508   20.7408 N   0  0  0  0  0  0
  -28.8716  -22.5232   18.8667 O   0  0  0  0  0  0
  -28.7963  -24.4704   21.8780 O   0  0  0  0  0  0
  -31.4849  -12.4792   19.1477 H   0  0  0  0  0  0
  -30.3775  -11.3580   19.8910 H   0  0  0  0  0  0
  -29.7749  -11.7359   17.4811 H   0  0  0  0  0  0
  -29.6744  -13.4577   17.7501 H   0  0  0  0  0  0
  -27.8539  -11.2934   18.8534 H   0  0  0  0  0  0
  -27.3882  -12.5902   17.7847 H   0  0  0  0  0  0
  -27.6805  -14.2486   19.5229 H   0  0  0  0  0  0
  -28.6987  -12.0412   21.3887 H   0  0  0  0  0  0
  -28.4583  -13.7046   21.8387 H   0  0  0  0  0  0
  -25.2808   -9.5644   22.4745 H   0  0  0  0  0  0
  -24.0014   -7.4625   22.7469 H   0  0  0  0  0  0
  -21.0862   -8.8842   19.8954 H   0  0  0  0  0  0
  -22.3772  -10.9723   19.6185 H   0  0  0  0  0  0
  -21.2002   -7.6160   23.9744 H   0  0  0  0  0  0
  -21.1459   -6.0512   25.9079 H   0  0  0  0  0  0
  -22.0611   -2.7642   23.2821 H   0  0  0  0  0  0
  -22.4094  -11.9923   22.4799 H   0  0  0  0  0  0
  -21.1138  -13.1305   22.2602 H   0  0  0  0  0  0
  -24.6731  -15.8499   20.5136 H   0  0  0  0  0  0
  -26.2821  -15.6233   20.0670 H   0  0  0  0  0  0
  -26.7133  -32.5487   23.1077 H   0  0  0  0  0  0
  -25.0017  -33.9742   25.0369 H   0  0  0  0  0  0
  -22.7044  -31.3041   21.3958 H   0  0  0  0  0  0
  -23.3748  -35.9661   23.3278 H   0  0  0  0  0  0
  -24.3589  -36.8966   22.2048 H   0  0  0  0  0  0
  -23.7245  -37.6525   23.6666 H   0  0  0  0  0  0
  -26.0553  -31.5684   20.5864 H   0  0  0  0  0  0
  -26.8289  -30.8669   21.9791 H   0  0  0  0  0  0
  -28.1019  -29.0410   21.1757 H   0  0  0  0  0  0
  -26.0257  -25.9386   19.0040 H   0  0  0  0  0  0
  -23.9772  -27.2827   19.0272 H   0  0  0  0  0  0
  -23.7251  -30.5751   19.3938 H   0  0  0  0  0  0
  -22.7428  -29.2239   19.8720 H   0  0  0  0  0  0
  -25.1296  -36.1948   25.0805 H   0  0  0  0  0  0
  -20.9968  -28.3273   24.1390 H   0  0  0  0  0  0
  -20.5642  -26.2307   23.3613 H   0  0  0  0  0  0
  -21.6646  -26.7443   22.1223 H   0  0  0  0  0  0
  -19.6942  -25.6297   21.1222 H   0  0  0  0  0  0
  -19.6700  -27.3193   20.6720 H   0  0  0  0  0  0
  -17.4204  -26.6630   21.4030 H   0  0  0  0  0  0
  -18.0386  -26.0049   22.9013 H   0  0  0  0  0  0
  -19.7948  -30.7219   24.2313 H   0  0  0  0  0  0
  -17.5045  -31.6261   24.5179 H   0  0  0  0  0  0
  -15.5370  -30.3024   23.7632 H   0  0  0  0  0  0
  -15.8659  -28.0826   22.7084 H   0  0  0  0  0  0
  -24.5811  -30.7230   25.7752 H   0  0  0  0  0  0
  -24.8983  -32.2999   26.4864 H   0  0  0  0  0  0
  -25.8005  -30.8936   27.0182 H   0  0  0  0  0  0
  -26.2814  -29.6813   24.1125 H   0  0  0  0  0  0
  -27.3965  -29.7260   25.4602 H   0  0  0  0  0  0
  -27.8701  -30.4311   23.9303 H   0  0  0  0  0  0
  -27.2595  -33.3616   26.2083 H   0  0  0  0  0  0
  -28.3810  -32.6977   25.0283 H   0  0  0  0  0  0
  -28.0720  -31.8449   26.5341 H   0  0  0  0  0  0
  -28.2568  -38.0138   24.7564 H   0  0  0  0  0  0
  -28.1136  -36.2674   24.6169 H   0  0  0  0  0  0
  -27.2326  -37.1331   25.8840 H   0  0  0  0  0  0
  -20.9310  -29.8738   21.6858 H   0  0  0  0  0  0
  -26.0172  -38.2868   24.1463 H   0  0  0  0  0  0
  -31.3568  -21.7530   22.1557 H   0  0  0  0  0  0
  -32.7874  -19.7955   22.4096 H   0  0  0  0  0  0
  -28.4473  -19.3815   20.0277 H   0  0  0  0  0  0
  -28.2915  -25.1876   18.6634 H   0  0  0  0  0  0
  -30.4175  -16.8585   19.1005 H   0  0  0  0  0  0
  -28.7925  -17.0686   19.6272 H   0  0  0  0  0  0
  -32.2329  -16.5222   20.9630 H   0  0  0  0  0  0
  -33.3107  -17.5570   21.7892 H   0  0  0  0  0  0
  -28.9238  -22.4019   21.9462 H   0  0  0  0  0  0
  -28.9458  -15.4027   21.1645 H   0  0  0  0  0  0
  -28.6524  -25.4015   21.9970 H   0  0  0  0  0  0
  1 25  1  0  0  0
  1 30  2  0  0  0
  1 83  1  0  0  0
  2  3  1  0  0  0
  2 25  1  0  0  0
  2 86  1  0  0  0
  2 87  1  0  0  0
  3  4  1  0  0  0
  3 88  1  0  0  0
  3 89  1  0  0  0
  4  5  1  0  0  0
  4 90  1  0  0  0
  4 91  1  0  0  0
  5  6  1  0  0  0
  5 26  1  0  0  0
  5 92  1  0  0  0
  6 25  1  0  0  0
  6 93  1  0  0  0
  6 94  1  0  0  0
  7  8  2  0  0  0
  7 26  1  0  0  0
  7 29  1  0  0  0
  8  9  1  0  0  0
  8 22  1  0  0  0
  9 10  1  0  0  0
  9 27  2  0  0  0
 10 11  2  0  0  0
 10 15  1  0  0  0
 11 12  1  0  0  0
 11 95  1  0  0  0
 12 13  2  0  0  0
 12 96  1  0  0  0
 13 14  1  0  0  0
 13 31  1  0  0  0
 14 15  2  0  0  0
 14 97  1  0  0  0
 15 98  1  0  0  0
 16 17  2  0  0  0
 16 21  1  0  0  0
 16 31  1  0  0  0
 17 18  1  0  0  0
 17 99  1  0  0  0
 18 19  2  0  0  0
 18100  1  0  0  0
 19 20  1  0  0  0
 19 24  1  0  0  0
 20 21  2  0  0  0
 20101  1  0  0  0
 21 23  1  0  0  0
 22 28  1  0  0  0
 22 32  2  0  0  0
 26 27  1  0  0  0
 28102  1  0  0  0
 28103  1  0  0  0
 29104  1  0  0  0
 29105  1  0  0  0
 33 34  1  0  0  0
 33 66  1  0  0  0
 33 70  2  0  0  0
 34 36  1  0  0  0
 34 59  1  0  0  0
 34106  1  0  0  0
 35 44  2  0  0  0
 35 45  1  0  0  0
 35 68  1  0  0  0
 36 56  1  0  0  0
 36107  1  0  0  0
 37 39  1  0  0  0
 37 47  1  0  0  0
 37 66  1  0  0  0
 37108  1  0  0  0
 38 43  2  0  0  0
 38 46  1  0  0  0
 38 47  1  0  0  0
 39 64  1  0  0  0
 39 67  2  0  0  0
 40 52  1  0  0  0
 40 53  2  0  0  0
 40 58  1  0  0  0
 41109  1  0  0  0
 41110  1  0  0  0
 41111  1  0  0  0
 41 48  1  0  0  0
 42 43  1  0  0  0
 42 66  1  0  0  0
 42112  1  0  0  0
 42113  1  0  0  0
 43 44  1  0  0  0
 44114  1  0  0  0
 45 46  2  0  0  0
 45115  1  0  0  0
 46116  1  0  0  0
 47117  1  0  0  0
 47118  1  0  0  0
 48 56  1  0  0  0
 48 65  1  0  0  0
 48119  1  0  0  0
 49 50  1  0  0  0
 49 53  1  0  0  0
 49 64  1  0  0  0
 49120  1  0  0  0
 50 51  1  0  0  0
 50121  1  0  0  0
 50122  1  0  0  0
 51 52  1  0  0  0
 51123  1  0  0  0
 51124  1  0  0  0
 52125  1  0  0  0
 52126  1  0  0  0
 53 54  1  0  0  0
 54 55  2  0  0  0
 54127  1  0  0  0
 55 57  1  0  0  0
 55128  1  0  0  0
 56 69  2  0  0  0
 57 58  2  0  0  0
 57129  1  0  0  0
 58130  1  0  0  0
 59 60  1  0  0  0
 59 61  1  0  0  0
 59 62  1  0  0  0
 60131  1  0  0  0
 60132  1  0  0  0
 60133  1  0  0  0
 61134  1  0  0  0
 61135  1  0  0  0
 61136  1  0  0  0
 62137  1  0  0  0
 62138  1  0  0  0
 62139  1  0  0  0
 63 65  1  0  0  0
 63140  1  0  0  0
 63141  1  0  0  0
 63142  1  0  0  0
 64143  1  0  0  0
 65144  1  0  0  0
 68 77  1  0  0  0
 71 72  2  0  0  0
 71 75  1  0  0  0
 71145  1  0  0  0
 72 76  1  0  0  0
 72146  1  0  0  0
 73 74  1  0  0  0
 73 75  2  0  0  0
 73147  1  0  0  0
 74 76  2  0  0  0
 74 80  1  0  0  0
 75 82  1  0  0  0
 76 81  1  0  0  0
 77 78  2  0  0  0
 77148  1  0  0  0
 78 79  1  0  0  0
 78 85  1  0  0  0
 79 82  1  0  0  0
 79 84  2  0  0  0
 80 83  1  0  0  0
 80149  1  0  0  0
 80150  1  0  0  0
 81151  1  0  0  0
 81152  1  0  0  0
 82153  1  0  0  0
 83154  1  0  0  0
 85155  1  0  0  0
M  ISO  4   1 100  68 101  77 101  83 100
M  END
> <chiral flag>
0

> <version>
0

> <s_m_source_file>
/data/baiqing/PycharmProjects/Reinvent-master-3.2/result/LINK_invent/BTK/process_docking_weight1_custom_product_contain_oxygen_bond_distance_aromatic_linkinvent_7_9_3/rearranged_h_0067.sdf

> <i_m_source_file_index>
51

> <r_mmod_Potential_Energy-OPLS-2005>
-96.8205337524414

> <r_mmod_Stretch_Energy-OPLS-2005>
55.0872764587402

> <r_mmod_Bend_Energy-OPLS-2005>
125.718269348145

> <r_mmod_Torsional_Energy-OPLS-2005>
256.9892578125

> <r_mmod_Improper_Torsional_Energy-OPLS-2005>
13.6951932907104

> <r_mmod_Van_der_Waal_Energy-OPLS-2005>
149.547637939453

> <r_mmod_Electrostatic_Energy-OPLS-2005>
-499.84033203125

> <r_mmod_Solvation_Energy-OPLS-2005>
-229.638488769531

> <b_mmod_Minimization_Converged-OPLS-2005>
0

> <r_mmod_RMS_Derivative-OPLS-2005>
3.04560232162476

$$$$
51
                    3D
 Structure written by MMmdl.
161170  0  0  1  0            999 V2000
  -30.5759  -14.9005   20.5113 C   0  0  0  0  0  0
  -30.4385  -12.5689   19.5083 C   0  0  0  0  0  0
  -29.5253  -12.5489   18.2598 C   0  0  0  0  0  0
  -28.0566  -12.3285   18.6652 C   0  0  0  0  0  0
  -27.6352  -13.2439   19.8423 C   0  0  2  0  0  0
  -28.6662  -13.2265   20.9868 C   0  0  0  0  0  0
  -25.2486  -13.8212   20.5691 C   0  0  0  0  0  0
  -24.1788  -13.0440   20.9194 C   0  0  0  0  0  0
  -24.6397  -11.6921   20.8722 C   0  0  0  0  0  0
  -23.9080  -10.4294   21.0396 C   0  0  0  0  0  0
  -24.3627   -9.4209   21.9177 C   0  0  0  0  0  0
  -23.6302   -8.2246   22.0750 C   0  0  0  0  0  0
  -22.4283   -8.0283   21.3544 C   0  0  0  0  0  0
  -21.9918   -9.0256   20.4647 C   0  0  0  0  0  0
  -22.7249  -10.2134   20.3052 C   0  0  0  0  0  0
  -21.6856   -6.0738   22.5279 C   0  0  0  0  0  0
  -21.4013   -6.5641   23.8212 C   0  0  0  0  0  0
  -21.3659   -5.6795   24.9175 C   0  0  0  0  0  0
  -21.6046   -4.3058   24.7224 C   0  0  0  0  0  0
  -21.8817   -3.8150   23.4345 C   0  0  0  0  0  0
  -21.9190   -4.6964   22.3402 C   0  0  0  0  0  0
  -22.7813  -13.5214   21.1867 C   0  0  0  0  0  0
  -22.1665   -4.2151   21.0979 F   0  0  0  0  0  0
  -21.5628   -3.4540   25.7736 F   0  0  0  0  0  0
  -29.9633  -13.6457   20.4284 N   0  0  0  0  0  0
  -26.2898  -12.9433   20.3208 N   0  0  0  0  0  0
  -25.9325  -11.6565   20.5693 N   0  0  0  0  0  0
  -22.0467  -12.8204   22.0430 N   0  0  0  0  0  0
  -25.4182  -15.1942   20.4180 N   0  0  0  0  0  0
  -31.7094  -15.0054   20.0268 O   0  0  0  0  0  0
  -21.6643   -6.8883   21.4245 O   0  0  0  0  0  0
  -22.3487  -14.5514   20.6706 O   0  0  0  0  0  0
  -24.6433  -31.8454   23.1903 C   0  0  0  0  0  0
  -25.9214  -32.4699   23.8278 C   0  0  1  0  0  0
  -27.2096  -27.1435   20.1408 C   0  0  0  0  0  0
  -25.5966  -33.8504   24.2193 N   0  0  0  0  0  0
  -23.4451  -30.4673   21.5359 C   0  0  2  0  0  0
  -24.8915  -28.8992   20.1077 C   0  0  0  0  0  0
  -22.7564  -29.4560   22.4866 C   0  0  0  0  0  0
  -18.0306  -28.1393   22.8481 C   0  0  0  0  0  0
  -24.1491  -36.7251   23.2640 C   0  0  0  0  0  0
  -26.0015  -30.7195   21.3902 C   0  0  0  0  0  0
  -26.0694  -29.3333   20.7285 C   0  0  0  0  0  0
  -27.2275  -28.4698   20.7322 C   0  0  0  0  0  0
  -26.0068  -26.8180   19.4720 C   0  0  0  0  0  0
  -24.8725  -27.6541   19.4658 C   0  0  0  0  0  0
  -23.6695  -29.8010   20.1535 C   0  0  0  0  0  0
  -25.4121  -36.3033   24.0318 C   0  0  1  0  0  0
  -20.5917  -28.3719   23.1238 C   0  0  2  0  0  0
  -20.6789  -26.9424   22.5401 C   0  0  0  0  0  0
  -19.5761  -26.6380   21.5210 C   0  0  0  0  0  0
  -18.1944  -26.7933   22.1624 C   0  0  0  0  0  0
  -19.1563  -28.8873   23.2852 C   0  0  0  0  0  0
  -18.9479  -30.1469   23.8877 C   0  0  0  0  0  0
  -17.6476  -30.6590   24.0557 C   0  0  0  0  0  0
  -25.9077  -34.9410   23.5060 C   0  0  0  0  0  0
  -16.5367  -29.9082   23.6336 C   0  0  0  0  0  0
  -16.7291  -28.6499   23.0362 C   0  0  0  0  0  0
  -26.4533  -31.6572   25.0724 C   0  0  0  0  0  0
  -25.3716  -31.3762   26.1417 C   0  0  0  0  0  0
  -27.0400  -30.2968   24.6312 C   0  0  0  0  0  0
  -27.6057  -32.4345   25.7510 C   0  0  0  0  0  0
  -27.5579  -37.1775   24.8461 C   0  0  0  0  0  0
  -21.4258  -29.3050   22.3615 N   0  0  0  0  0  0
  -26.4279  -37.3753   23.9422 N   0  0  0  0  0  0
  -24.7163  -31.0322   22.0933 N   0  0  0  0  0  0
  -23.4215  -28.8108   23.3010 O   0  0  0  0  0  0
  -28.2590  -26.1557   20.2327 O   0  0  0  0  0  0
  -26.5656  -34.8909   22.4636 O   0  0  0  0  0  0
  -23.5555  -32.1331   23.7131 O   0  0  0  0  0  0
  -29.0475  -19.4083   19.2358 C   0  0  0  0  0  0
  -29.3023  -18.0008   19.5043 C   0  0  0  0  0  0
  -29.9552  -18.5999   21.6748 C   0  0  0  0  0  0
  -29.7292  -20.0165   21.4047 C   0  0  0  0  0  0
  -29.2706  -20.5229   20.1381 C   0  0  0  0  0  0
  -29.7846  -17.4967   20.7516 C   0  0  0  0  0  0
  -29.5633  -22.3590   18.4661 C   0  0  0  0  0  0
  -29.4811  -23.8203   17.9840 C   0  0  0  0  0  0
  -28.1663  -24.5065   18.3689 C   0  0  0  0  0  0
  -28.7837  -23.2991   20.5663 C   0  0  0  0  0  0
  -28.0452  -24.6513   19.8898 C   0  0  1  0  0  0
  -30.0295  -20.9970   22.5243 C   0  0  0  0  0  0
  -29.9336  -15.8154   22.6105 C   0  0  0  0  0  0
  -29.1154  -22.0146   19.7138 N   0  0  0  0  0  0
  -29.9568  -16.0134   21.1508 N   0  0  0  0  0  0
  -30.0774  -21.5632   17.6734 O   0  0  0  0  0  0
  -31.4765  -12.7137   19.2054 H   0  0  0  0  0  0
  -30.4175  -11.6026   20.0149 H   0  0  0  0  0  0
  -29.8467  -11.7698   17.5667 H   0  0  0  0  0  0
  -29.6187  -13.4946   17.7237 H   0  0  0  0  0  0
  -27.9480  -11.2832   18.9563 H   0  0  0  0  0  0
  -27.3970  -12.4774   17.8097 H   0  0  0  0  0  0
  -27.6147  -14.2579   19.4410 H   0  0  0  0  0  0
  -28.7375  -12.2351   21.4378 H   0  0  0  0  0  0
  -28.3230  -13.8927   21.7749 H   0  0  0  0  0  0
  -25.2775   -9.5685   22.4745 H   0  0  0  0  0  0
  -24.0012   -7.4636   22.7466 H   0  0  0  0  0  0
  -21.0850   -8.8771   19.8954 H   0  0  0  0  0  0
  -22.3708  -10.9665   19.6154 H   0  0  0  0  0  0
  -21.2010   -7.6150   23.9716 H   0  0  0  0  0  0
  -21.1486   -6.0527   25.9078 H   0  0  0  0  0  0
  -22.0597   -2.7612   23.2842 H   0  0  0  0  0  0
  -22.4102  -11.9881   22.4833 H   0  0  0  0  0  0
  -21.1078  -13.1214   22.2626 H   0  0  0  0  0  0
  -24.6572  -15.8519   20.5472 H   0  0  0  0  0  0
  -26.2828  -15.6382   20.1348 H   0  0  0  0  0  0
  -26.7278  -32.5303   23.1002 H   0  0  0  0  0  0
  -25.0106  -33.9619   25.0335 H   0  0  0  0  0  0
  -22.7473  -31.2936   21.3849 H   0  0  0  0  0  0
  -23.3769  -35.9566   23.3273 H   0  0  0  0  0  0
  -24.3584  -36.8913   22.2062 H   0  0  0  0  0  0
  -23.7221  -37.6429   23.6694 H   0  0  0  0  0  0
  -26.1613  -31.4767   20.6217 H   0  0  0  0  0  0
  -26.8706  -30.7640   22.0350 H   0  0  0  0  0  0
  -28.1217  -28.7940   21.2459 H   0  0  0  0  0  0
  -25.8967  -25.8748   18.9609 H   0  0  0  0  0  0
  -23.9744  -27.3186   18.9652 H   0  0  0  0  0  0
  -23.8067  -30.5774   19.3999 H   0  0  0  0  0  0
  -22.7833  -29.2447   19.8421 H   0  0  0  0  0  0
  -25.1305  -36.1853   25.0807 H   0  0  0  0  0  0
  -21.0007  -28.3303   24.1361 H   0  0  0  0  0  0
  -20.5683  -26.2334   23.3620 H   0  0  0  0  0  0
  -21.6656  -26.7433   22.1199 H   0  0  0  0  0  0
  -19.6923  -25.6284   21.1259 H   0  0  0  0  0  0
  -19.6695  -27.3173   20.6726 H   0  0  0  0  0  0
  -17.4213  -26.6680   21.4028 H   0  0  0  0  0  0
  -18.0344  -26.0075   22.9020 H   0  0  0  0  0  0
  -19.7954  -30.7288   24.2239 H   0  0  0  0  0  0
  -17.5030  -31.6271   24.5158 H   0  0  0  0  0  0
  -15.5364  -30.2976   23.7671 H   0  0  0  0  0  0
  -15.8693  -28.0806   22.7094 H   0  0  0  0  0  0
  -24.5894  -30.7115   25.7737 H   0  0  0  0  0  0
  -24.8907  -32.2945   26.4797 H   0  0  0  0  0  0
  -25.7996  -30.8962   27.0226 H   0  0  0  0  0  0
  -26.3020  -29.6689   24.1308 H   0  0  0  0  0  0
  -27.3999  -29.7274   25.4892 H   0  0  0  0  0  0
  -27.8936  -30.4208   23.9645 H   0  0  0  0  0  0
  -27.2642  -33.3659   26.2037 H   0  0  0  0  0  0
  -28.3892  -32.6884   25.0359 H   0  0  0  0  0  0
  -28.0699  -31.8508   26.5469 H   0  0  0  0  0  0
  -28.2565  -38.0102   24.7551 H   0  0  0  0  0  0
  -28.1103  -36.2636   24.6228 H   0  0  0  0  0  0
  -27.2308  -37.1350   25.8865 H   0  0  0  0  0  0
  -20.9466  -29.8768   21.6800 H   0  0  0  0  0  0
  -26.0143  -38.2815   24.1447 H   0  0  0  0  0  0
  -28.6659  -19.6262   18.2484 H   0  0  0  0  0  0
  -29.0844  -17.2923   18.7181 H   0  0  0  0  0  0
  -30.2939  -18.3682   22.6726 H   0  0  0  0  0  0
  -29.5867  -23.8385   16.8990 H   0  0  0  0  0  0
  -30.3309  -24.3744   18.3839 H   0  0  0  0  0  0
  -27.3339  -23.9090   17.9930 H   0  0  0  0  0  0
  -28.0878  -25.4744   17.8732 H   0  0  0  0  0  0
  -28.1936  -22.9906   21.4282 H   0  0  0  0  0  0
  -29.7359  -23.6346   20.9776 H   0  0  0  0  0  0
  -26.9996  -24.4701   20.1371 H   0  0  0  0  0  0
  -30.5051  -20.5094   23.3753 H   0  0  0  0  0  0
  -29.1102  -21.4584   22.8838 H   0  0  0  0  0  0
  -30.7044  -21.7803   22.1800 H   0  0  0  0  0  0
  -29.0395  -16.2652   23.0442 H   0  0  0  0  0  0
  -30.8084  -16.2772   23.0691 H   0  0  0  0  0  0
  -29.9542  -14.7741   22.9358 H   0  0  0  0  0  0
  1 25  1  0  0  0
  1 30  2  0  0  0
  1 85  1  0  0  0
  2  3  1  0  0  0
  2 25  1  0  0  0
  2 87  1  0  0  0
  2 88  1  0  0  0
  3  4  1  0  0  0
  3 89  1  0  0  0
  3 90  1  0  0  0
  4  5  1  0  0  0
  4 91  1  0  0  0
  4 92  1  0  0  0
  5  6  1  0  0  0
  5 26  1  0  0  0
  5 93  1  0  0  0
  6 25  1  0  0  0
  6 94  1  0  0  0
  6 95  1  0  0  0
  7  8  2  0  0  0
  7 26  1  0  0  0
  7 29  1  0  0  0
  8  9  1  0  0  0
  8 22  1  0  0  0
  9 10  1  0  0  0
  9 27  2  0  0  0
 10 11  2  0  0  0
 10 15  1  0  0  0
 11 12  1  0  0  0
 11 96  1  0  0  0
 12 13  2  0  0  0
 12 97  1  0  0  0
 13 14  1  0  0  0
 13 31  1  0  0  0
 14 15  2  0  0  0
 14 98  1  0  0  0
 15 99  1  0  0  0
 16 17  2  0  0  0
 16 21  1  0  0  0
 16 31  1  0  0  0
 17 18  1  0  0  0
 17100  1  0  0  0
 18 19  2  0  0  0
 18101  1  0  0  0
 19 20  1  0  0  0
 19 24  1  0  0  0
 20 21  2  0  0  0
 20102  1  0  0  0
 21 23  1  0  0  0
 22 28  1  0  0  0
 22 32  2  0  0  0
 26 27  1  0  0  0
 28103  1  0  0  0
 28104  1  0  0  0
 29105  1  0  0  0
 29106  1  0  0  0
 33 34  1  0  0  0
 33 66  1  0  0  0
 33 70  2  0  0  0
 34 36  1  0  0  0
 34 59  1  0  0  0
 34107  1  0  0  0
 35 44  2  0  0  0
 35 45  1  0  0  0
 35 68  1  0  0  0
 36 56  1  0  0  0
 36108  1  0  0  0
 37 39  1  0  0  0
 37 47  1  0  0  0
 37 66  1  0  0  0
 37109  1  0  0  0
 38 43  2  0  0  0
 38 46  1  0  0  0
 38 47  1  0  0  0
 39 64  1  0  0  0
 39 67  2  0  0  0
 40 52  1  0  0  0
 40 53  2  0  0  0
 40 58  1  0  0  0
 41110  1  0  0  0
 41111  1  0  0  0
 41112  1  0  0  0
 41 48  1  0  0  0
 42 43  1  0  0  0
 42 66  1  0  0  0
 42113  1  0  0  0
 42114  1  0  0  0
 43 44  1  0  0  0
 44115  1  0  0  0
 45 46  2  0  0  0
 45116  1  0  0  0
 46117  1  0  0  0
 47118  1  0  0  0
 47119  1  0  0  0
 48 56  1  0  0  0
 48 65  1  0  0  0
 48120  1  0  0  0
 49 50  1  0  0  0
 49 53  1  0  0  0
 49 64  1  0  0  0
 49121  1  0  0  0
 50 51  1  0  0  0
 50122  1  0  0  0
 50123  1  0  0  0
 51 52  1  0  0  0
 51124  1  0  0  0
 51125  1  0  0  0
 52126  1  0  0  0
 52127  1  0  0  0
 53 54  1  0  0  0
 54 55  2  0  0  0
 54128  1  0  0  0
 55 57  1  0  0  0
 55129  1  0  0  0
 56 69  2  0  0  0
 57 58  2  0  0  0
 57130  1  0  0  0
 58131  1  0  0  0
 59 60  1  0  0  0
 59 61  1  0  0  0
 59 62  1  0  0  0
 60132  1  0  0  0
 60133  1  0  0  0
 60134  1  0  0  0
 61135  1  0  0  0
 61136  1  0  0  0
 61137  1  0  0  0
 62138  1  0  0  0
 62139  1  0  0  0
 62140  1  0  0  0
 63 65  1  0  0  0
 63141  1  0  0  0
 63142  1  0  0  0
 63143  1  0  0  0
 64144  1  0  0  0
 65145  1  0  0  0
 68 81  1  0  0  0
 71 72  2  0  0  0
 71 75  1  0  0  0
 71146  1  0  0  0
 72 76  1  0  0  0
 72147  1  0  0  0
 73 74  1  0  0  0
 73 76  2  0  0  0
 73148  1  0  0  0
 74 75  2  0  0  0
 74 82  1  0  0  0
 75 84  1  0  0  0
 76 85  1  0  0  0
 77 78  1  0  0  0
 77 84  1  0  0  0
 77 86  2  0  0  0
 78 79  1  0  0  0
 78149  1  0  0  0
 78150  1  0  0  0
 79 81  1  0  0  0
 79151  1  0  0  0
 79152  1  0  0  0
 80 81  1  0  0  0
 80 84  1  0  0  0
 80153  1  0  0  0
 80154  1  0  0  0
 81155  1  0  0  0
 82156  1  0  0  0
 82157  1  0  0  0
 82158  1  0  0  0
 83 85  1  0  0  0
 83159  1  0  0  0
 83160  1  0  0  0
 83161  1  0  0  0
M  ISO  4   1 100  68 101  81 101  85 100
M  END
> <chiral flag>
0

> <version>
0

> <s_m_source_file>
/data/baiqing/PycharmProjects/Reinvent-master-3.2/result/LINK_invent/BTK/process_docking_weight1_custom_product_contain_oxygen_bond_distance_aromatic_linkinvent_7_9_3/rearranged_h_0067.sdf

> <i_m_source_file_index>
52

> <r_mmod_Potential_Energy-OPLS-2005>
692.248046875

> <r_mmod_Stretch_Energy-OPLS-2005>
255.878387451172

> <r_mmod_Bend_Energy-OPLS-2005>
266.404388427734

> <r_mmod_Torsional_Energy-OPLS-2005>
339.849060058594

> <r_mmod_Improper_Torsional_Energy-OPLS-2005>
4.38447856903076

> <r_mmod_Van_der_Waal_Energy-OPLS-2005>
167.36686706543

> <r_mmod_Electrostatic_Energy-OPLS-2005>
-303.424713134766

> <r_mmod_Solvation_Energy-OPLS-2005>
-209.113845825195

> <b_mmod_Minimization_Converged-OPLS-2005>
0

> <r_mmod_RMS_Derivative-OPLS-2005>
0.768232583999634

$$$$
52
                    3D
 Structure written by MMmdl.
158166  0  0  1  0            999 V2000
  -30.6786  -14.5056   20.5677 C   0  0  0  0  0  0
  -30.4317  -12.3300   19.4199 C   0  0  0  0  0  0
  -29.4979  -12.5071   18.2044 C   0  0  0  0  0  0
  -28.0194  -12.3573   18.6189 C   0  0  0  0  0  0
  -27.6592  -13.2023   19.8700 C   0  0  2  0  0  0
  -28.7035  -12.9950   20.9897 C   0  0  0  0  0  0
  -25.2598  -13.8147   20.5682 C   0  0  0  0  0  0
  -24.1842  -13.0432   20.9170 C   0  0  0  0  0  0
  -24.6389  -11.6895   20.8724 C   0  0  0  0  0  0
  -23.9047  -10.4284   21.0397 C   0  0  0  0  0  0
  -24.3604   -9.4202   21.9174 C   0  0  0  0  0  0
  -23.6284   -8.2236   22.0744 C   0  0  0  0  0  0
  -22.4266   -8.0276   21.3538 C   0  0  0  0  0  0
  -21.9898   -9.0249   20.4644 C   0  0  0  0  0  0
  -22.7224  -10.2128   20.3050 C   0  0  0  0  0  0
  -21.6850   -6.0724   22.5276 C   0  0  0  0  0  0
  -21.4018   -6.5632   23.8209 C   0  0  0  0  0  0
  -21.3657   -5.6784   24.9172 C   0  0  0  0  0  0
  -21.6046   -4.3048   24.7228 C   0  0  0  0  0  0
  -21.8818   -3.8138   23.4350 C   0  0  0  0  0  0
  -21.9194   -4.6950   22.3403 C   0  0  0  0  0  0
  -22.7869  -13.5237   21.1832 C   0  0  0  0  0  0
  -22.1663   -4.2133   21.0978 F   0  0  0  0  0  0
  -21.5625   -3.4531   25.7740 F   0  0  0  0  0  0
  -30.0283  -13.3164   20.4329 N   0  0  0  0  0  0
  -26.3016  -12.9302   20.3337 N   0  0  0  0  0  0
  -25.9312  -11.6466   20.5744 N   0  0  0  0  0  0
  -22.0501  -12.8241   22.0393 N   0  0  0  0  0  0
  -25.4312  -15.1876   20.4114 N   0  0  0  0  0  0
  -31.8247  -14.6945   20.1486 O   0  0  0  0  0  0
  -21.6641   -6.8870   21.4237 O   0  0  0  0  0  0
  -22.3556  -14.5543   20.6679 O   0  0  0  0  0  0
  -24.6178  -31.8657   23.2089 C   0  0  0  0  0  0
  -25.9059  -32.4815   23.8387 C   0  0  1  0  0  0
  -27.2347  -27.4044   20.0855 C   0  0  0  0  0  0
  -25.5907  -33.8618   24.2319 N   0  0  0  0  0  0
  -23.4058  -30.4904   21.5498 C   0  0  2  0  0  0
  -24.8487  -28.9505   20.1150 C   0  0  0  0  0  0
  -22.7416  -29.4659   22.4982 C   0  0  0  0  0  0
  -18.0272  -28.1372   22.8493 C   0  0  0  0  0  0
  -24.1480  -36.7311   23.2644 C   0  0  0  0  0  0
  -25.9382  -30.8205   21.3658 C   0  0  0  0  0  0
  -26.0117  -29.4527   20.7103 C   0  0  0  0  0  0
  -27.2016  -28.6860   20.6934 C   0  0  0  0  0  0
  -26.0399  -26.9142   19.5069 C   0  0  0  0  0  0
  -24.8586  -27.6806   19.5155 C   0  0  0  0  0  0
  -23.6134  -29.8222   20.1650 C   0  0  0  0  0  0
  -25.4107  -36.3123   24.0343 C   0  0  1  0  0  0
  -20.5860  -28.3667   23.1310 C   0  0  2  0  0  0
  -20.6762  -26.9403   22.5412 C   0  0  0  0  0  0
  -19.5743  -26.6380   21.5209 C   0  0  0  0  0  0
  -18.1920  -26.7919   22.1622 C   0  0  0  0  0  0
  -19.1519  -28.8834   23.2896 C   0  0  0  0  0  0
  -18.9454  -30.1437   23.8909 C   0  0  0  0  0  0
  -17.6458  -30.6579   24.0562 C   0  0  0  0  0  0
  -25.9035  -34.9481   23.5129 C   0  0  0  0  0  0
  -16.5346  -29.9082   23.6327 C   0  0  0  0  0  0
  -16.7262  -28.6492   23.0360 C   0  0  0  0  0  0
  -26.4484  -31.6614   25.0727 C   0  0  0  0  0  0
  -25.3757  -31.3722   26.1486 C   0  0  0  0  0  0
  -27.0333  -30.3060   24.6127 C   0  0  0  0  0  0
  -27.6057  -32.4350   25.7474 C   0  0  0  0  0  0
  -27.5585  -37.1813   24.8468 C   0  0  0  0  0  0
  -21.4139  -29.3037   22.3714 N   0  0  0  0  0  0
  -26.4300  -37.3805   23.9407 N   0  0  0  0  0  0
  -24.6726  -31.0740   22.0996 N   0  0  0  0  0  0
  -23.4176  -28.8202   23.3036 O   0  0  0  0  0  0
  -28.4263  -26.6922   20.0994 O   0  0  0  0  0  0
  -26.5596  -34.8939   22.4689 O   0  0  0  0  0  0
  -23.5365  -32.1419   23.7471 O   0  0  0  0  0  0
  -30.9173  -19.6163   21.6100 C   0  0  0  0  0  0
  -31.1890  -17.2632   22.2022 C   0  0  0  0  0  0
  -30.0159  -19.2895   20.5724 C   0  0  0  0  0  0
  -30.2935  -16.8920   21.1784 C   0  0  0  0  0  0
  -29.6971  -17.8997   20.3654 C   0  0  0  0  0  0
  -31.4954  -18.6195   22.4156 C   0  0  0  0  0  0
  -29.5432  -20.4228   19.7242 C   0  0  0  0  0  0
  -28.6603  -24.1744   20.2593 C   0  0  0  0  0  0
  -28.8530  -22.8668   19.4335 C   0  0  0  0  0  0
  -28.5887  -25.4525   19.3708 C   0  0  0  0  0  0
  -28.8245  -17.4587   19.3616 N   0  0  0  0  0  0
  -29.4518  -20.2448   18.4075 N   0  0  0  0  0  0
  -29.9164  -15.5178   21.0302 N   0  0  0  0  0  0
  -29.2432  -21.6542   20.2175 N   0  3  0  0  0  0
  -32.3532  -18.9718   23.4029 F   0  0  0  0  0  0
  -31.4747  -12.4465   19.1191 H   0  0  0  0  0  0
  -30.3483  -11.3206   19.8252 H   0  0  0  0  0  0
  -29.7447  -11.7778   17.4322 H   0  0  0  0  0  0
  -29.6562  -13.4904   17.7578 H   0  0  0  0  0  0
  -27.8388  -11.3009   18.8214 H   0  0  0  0  0  0
  -27.3650  -12.6196   17.7865 H   0  0  0  0  0  0
  -27.6961  -14.2466   19.5616 H   0  0  0  0  0  0
  -28.6926  -11.9594   21.3327 H   0  0  0  0  0  0
  -28.4630  -13.5954   21.8683 H   0  0  0  0  0  0
  -25.2755   -9.5675   22.4741 H   0  0  0  0  0  0
  -23.9988   -7.4630   22.7468 H   0  0  0  0  0  0
  -21.0819   -8.8772   19.8969 H   0  0  0  0  0  0
  -22.3681  -10.9660   19.6154 H   0  0  0  0  0  0
  -21.2017   -7.6141   23.9712 H   0  0  0  0  0  0
  -21.1478   -6.0511   25.9071 H   0  0  0  0  0  0
  -22.0606   -2.7600   23.2855 H   0  0  0  0  0  0
  -22.4115  -11.9918   22.4811 H   0  0  0  0  0  0
  -21.1122  -13.1282   22.2589 H   0  0  0  0  0  0
  -24.6608  -15.8381   20.5182 H   0  0  0  0  0  0
  -26.2761  -15.6330   20.0787 H   0  0  0  0  0  0
  -26.7123  -32.5514   23.1140 H   0  0  0  0  0  0
  -25.0098  -33.9765   25.0496 H   0  0  0  0  0  0
  -22.6967  -31.3089   21.4116 H   0  0  0  0  0  0
  -23.3750  -35.9636   23.3323 H   0  0  0  0  0  0
  -24.3572  -36.8901   22.2054 H   0  0  0  0  0  0
  -23.7211  -37.6513   23.6644 H   0  0  0  0  0  0
  -26.0581  -31.5862   20.5981 H   0  0  0  0  0  0
  -26.8235  -30.8699   21.9889 H   0  0  0  0  0  0
  -28.1009  -29.0743   21.1512 H   0  0  0  0  0  0
  -25.9767  -25.9363   19.0574 H   0  0  0  0  0  0
  -23.9606  -27.2791   19.0667 H   0  0  0  0  0  0
  -23.7250  -30.5959   19.4046 H   0  0  0  0  0  0
  -22.7349  -29.2455   19.8707 H   0  0  0  0  0  0
  -25.1283  -36.1998   25.0838 H   0  0  0  0  0  0
  -20.9959  -28.3236   24.1430 H   0  0  0  0  0  0
  -20.5659  -26.2278   23.3601 H   0  0  0  0  0  0
  -21.6636  -26.7451   22.1208 H   0  0  0  0  0  0
  -19.6900  -25.6292   21.1234 H   0  0  0  0  0  0
  -19.6678  -27.3193   20.6743 H   0  0  0  0  0  0
  -17.4194  -26.6680   21.4016 H   0  0  0  0  0  0
  -18.0311  -26.0050   22.9009 H   0  0  0  0  0  0
  -19.7933  -30.7240   24.2289 H   0  0  0  0  0  0
  -17.5022  -31.6265   24.5158 H   0  0  0  0  0  0
  -15.5345  -30.2995   23.7643 H   0  0  0  0  0  0
  -15.8663  -28.0812   22.7086 H   0  0  0  0  0  0
  -24.5897  -30.7109   25.7820 H   0  0  0  0  0  0
  -24.8997  -32.2886   26.4991 H   0  0  0  0  0  0
  -25.8116  -30.8841   27.0213 H   0  0  0  0  0  0
  -26.2885  -29.6787   24.1218 H   0  0  0  0  0  0
  -27.4139  -29.7334   25.4593 H   0  0  0  0  0  0
  -27.8703  -30.4377   23.9264 H   0  0  0  0  0  0
  -27.2669  -33.3628   26.2098 H   0  0  0  0  0  0
  -28.3832  -32.6952   25.0278 H   0  0  0  0  0  0
  -28.0781  -31.8464   26.5348 H   0  0  0  0  0  0
  -28.2628  -38.0090   24.7517 H   0  0  0  0  0  0
  -28.1058  -36.2626   24.6302 H   0  0  0  0  0  0
  -27.2308  -37.1474   25.8874 H   0  0  0  0  0  0
  -20.9292  -29.8761   21.6942 H   0  0  0  0  0  0
  -26.0198  -38.2889   24.1399 H   0  0  0  0  0  0
  -31.2022  -20.6441   21.7843 H   0  0  0  0  0  0
  -31.6306  -16.5164   22.8447 H   0  0  0  0  0  0
  -29.4744  -24.2860   20.9756 H   0  0  0  0  0  0
  -27.7433  -24.0977   20.8430 H   0  0  0  0  0  0
  -29.6258  -23.0440   18.6836 H   0  0  0  0  0  0
  -27.9357  -22.6562   18.8797 H   0  0  0  0  0  0
  -27.8783  -25.3228   18.5568 H   0  0  0  0  0  0
  -29.5486  -25.5431   18.8613 H   0  0  0  0  0  0
  -28.0135  -18.0238   19.1329 H   0  0  0  0  0  0
  -28.6317  -16.4674   19.3173 H   0  0  0  0  0  0
  -29.5989  -19.3036   18.0621 H   0  0  0  0  0  0
  -29.1741  -20.9636   17.7623 H   0  0  0  0  0  0
  -28.9523  -15.2968   21.2213 H   0  0  0  0  0  0
  -29.2174  -21.7402   21.2264 H   0  0  0  0  0  0
  1 25  1  0  0  0
  1 30  2  0  0  0
  1 83  1  0  0  0
  2  3  1  0  0  0
  2 25  1  0  0  0
  2 86  1  0  0  0
  2 87  1  0  0  0
  3  4  1  0  0  0
  3 88  1  0  0  0
  3 89  1  0  0  0
  4  5  1  0  0  0
  4 90  1  0  0  0
  4 91  1  0  0  0
  5  6  1  0  0  0
  5 26  1  0  0  0
  5 92  1  0  0  0
  6 25  1  0  0  0
  6 93  1  0  0  0
  6 94  1  0  0  0
  7  8  2  0  0  0
  7 26  1  0  0  0
  7 29  1  0  0  0
  8  9  1  0  0  0
  8 22  1  0  0  0
  9 10  1  0  0  0
  9 27  2  0  0  0
 10 11  2  0  0  0
 10 15  1  0  0  0
 11 12  1  0  0  0
 11 95  1  0  0  0
 12 13  2  0  0  0
 12 96  1  0  0  0
 13 14  1  0  0  0
 13 31  1  0  0  0
 14 15  2  0  0  0
 14 97  1  0  0  0
 15 98  1  0  0  0
 16 17  2  0  0  0
 16 21  1  0  0  0
 16 31  1  0  0  0
 17 18  1  0  0  0
 17 99  1  0  0  0
 18 19  2  0  0  0
 18100  1  0  0  0
 19 20  1  0  0  0
 19 24  1  0  0  0
 20 21  2  0  0  0
 20101  1  0  0  0
 21 23  1  0  0  0
 22 28  1  0  0  0
 22 32  2  0  0  0
 26 27  1  0  0  0
 28102  1  0  0  0
 28103  1  0  0  0
 29104  1  0  0  0
 29105  1  0  0  0
 33 34  1  0  0  0
 33 66  1  0  0  0
 33 70  2  0  0  0
 34 36  1  0  0  0
 34 59  1  0  0  0
 34106  1  0  0  0
 35 44  2  0  0  0
 35 45  1  0  0  0
 35 68  1  0  0  0
 36 56  1  0  0  0
 36107  1  0  0  0
 37 39  1  0  0  0
 37 47  1  0  0  0
 37 66  1  0  0  0
 37108  1  0  0  0
 38 43  2  0  0  0
 38 46  1  0  0  0
 38 47  1  0  0  0
 39 64  1  0  0  0
 39 67  2  0  0  0
 40 52  1  0  0  0
 40 53  2  0  0  0
 40 58  1  0  0  0
 41109  1  0  0  0
 41110  1  0  0  0
 41111  1  0  0  0
 41 48  1  0  0  0
 42 43  1  0  0  0
 42 66  1  0  0  0
 42112  1  0  0  0
 42113  1  0  0  0
 43 44  1  0  0  0
 44114  1  0  0  0
 45 46  2  0  0  0
 45115  1  0  0  0
 46116  1  0  0  0
 47117  1  0  0  0
 47118  1  0  0  0
 48 56  1  0  0  0
 48 65  1  0  0  0
 48119  1  0  0  0
 49 50  1  0  0  0
 49 53  1  0  0  0
 49 64  1  0  0  0
 49120  1  0  0  0
 50 51  1  0  0  0
 50121  1  0  0  0
 50122  1  0  0  0
 51 52  1  0  0  0
 51123  1  0  0  0
 51124  1  0  0  0
 52125  1  0  0  0
 52126  1  0  0  0
 53 54  1  0  0  0
 54 55  2  0  0  0
 54127  1  0  0  0
 55 57  1  0  0  0
 55128  1  0  0  0
 56 69  2  0  0  0
 57 58  2  0  0  0
 57129  1  0  0  0
 58130  1  0  0  0
 59 60  1  0  0  0
 59 61  1  0  0  0
 59 62  1  0  0  0
 60131  1  0  0  0
 60132  1  0  0  0
 60133  1  0  0  0
 61134  1  0  0  0
 61135  1  0  0  0
 61136  1  0  0  0
 62137  1  0  0  0
 62138  1  0  0  0
 62139  1  0  0  0
 63 65  1  0  0  0
 63140  1  0  0  0
 63141  1  0  0  0
 63142  1  0  0  0
 64143  1  0  0  0
 65144  1  0  0  0
 68 80  1  0  0  0
 71 73  2  0  0  0
 71 76  1  0  0  0
 71145  1  0  0  0
 72 74  1  0  0  0
 72 76  2  0  0  0
 72146  1  0  0  0
 73 75  1  0  0  0
 73 77  1  0  0  0
 74 75  2  0  0  0
 74 83  1  0  0  0
 75 81  1  0  0  0
 76 85  1  0  0  0
 77 82  1  0  0  0
 77 84  2  0  0  0
 78 79  1  0  0  0
 78 80  1  0  0  0
 78147  1  0  0  0
 78148  1  0  0  0
 79 84  1  0  0  0
 79149  1  0  0  0
 79150  1  0  0  0
 80151  1  0  0  0
 80152  1  0  0  0
 81153  1  0  0  0
 81154  1  0  0  0
 82155  1  0  0  0
 82156  1  0  0  0
 83157  1  0  0  0
 84158  1  0  0  0
M  CHG  1  84   1
M  ISO  4   1 100  68 101  80 101  83 100
M  END
> <chiral flag>
0

> <version>
0

> <s_m_source_file>
/data/baiqing/PycharmProjects/Reinvent-master-3.2/result/LINK_invent/BTK/process_docking_weight1_custom_product_contain_oxygen_bond_distance_aromatic_linkinvent_7_9_3/rearranged_h_0067.sdf

> <i_m_source_file_index>
53

> <r_mmod_Potential_Energy-OPLS-2005>
-262.034881591797

> <r_mmod_Stretch_Energy-OPLS-2005>
46.8163566589355

> <r_mmod_Bend_Energy-OPLS-2005>
114.512641906738

> <r_mmod_Torsional_Energy-OPLS-2005>
230.030838012695

> <r_mmod_Improper_Torsional_Energy-OPLS-2005>
7.83596467971802

> <r_mmod_Van_der_Waal_Energy-OPLS-2005>
159.772247314453

> <r_mmod_Electrostatic_Energy-OPLS-2005>
-403.946380615234

> <r_mmod_Solvation_Energy-OPLS-2005>
-434.34326171875

> <b_mmod_Minimization_Converged-OPLS-2005>
0

> <r_mmod_RMS_Derivative-OPLS-2005>
1.492520570755

$$$$
53
                    3D
 Structure written by MMmdl.
168176  0  0  1  0            999 V2000
  -30.7215  -14.5063   20.5259 C   0  0  0  0  0  0
  -30.4056  -12.3131   19.4411 C   0  0  0  0  0  0
  -29.4899  -12.4941   18.2135 C   0  0  0  0  0  0
  -28.0125  -12.3573   18.6251 C   0  0  0  0  0  0
  -27.6540  -13.2176   19.8668 C   0  0  2  0  0  0
  -28.6979  -13.0559   20.9968 C   0  0  0  0  0  0
  -25.2555  -13.8183   20.5683 C   0  0  0  0  0  0
  -24.1821  -13.0446   20.9187 C   0  0  0  0  0  0
  -24.6393  -11.6915   20.8745 C   0  0  0  0  0  0
  -23.9063  -10.4294   21.0407 C   0  0  0  0  0  0
  -24.3625   -9.4211   21.9184 C   0  0  0  0  0  0
  -23.6303   -8.2243   22.0751 C   0  0  0  0  0  0
  -22.4283   -8.0280   21.3545 C   0  0  0  0  0  0
  -21.9911   -9.0250   20.4646 C   0  0  0  0  0  0
  -22.7235  -10.2134   20.3055 C   0  0  0  0  0  0
  -21.6855   -6.0739   22.5279 C   0  0  0  0  0  0
  -21.4011   -6.5640   23.8216 C   0  0  0  0  0  0
  -21.3661   -5.6792   24.9176 C   0  0  0  0  0  0
  -21.6046   -4.3053   24.7224 C   0  0  0  0  0  0
  -21.8819   -3.8147   23.4343 C   0  0  0  0  0  0
  -21.9193   -4.6966   22.3402 C   0  0  0  0  0  0
  -22.7846  -13.5238   21.1853 C   0  0  0  0  0  0
  -22.1664   -4.2153   21.0979 F   0  0  0  0  0  0
  -21.5629   -3.4538   25.7737 F   0  0  0  0  0  0
  -30.0246  -13.3378   20.4313 N   0  0  0  0  0  0
  -26.2992  -12.9377   20.3349 N   0  0  0  0  0  0
  -25.9325  -11.6527   20.5785 N   0  0  0  0  0  0
  -22.0498  -12.8222   22.0414 N   0  0  0  0  0  0
  -25.4267  -15.1902   20.4073 N   0  0  0  0  0  0
  -31.8675  -14.5903   20.0844 O   0  0  0  0  0  0
  -21.6647   -6.8878   21.4242 O   0  0  0  0  0  0
  -22.3531  -14.5551   20.6714 O   0  0  0  0  0  0
  -24.6169  -31.8664   23.2093 C   0  0  0  0  0  0
  -25.9058  -32.4812   23.8398 C   0  0  1  0  0  0
  -27.2278  -27.4196   20.1078 C   0  0  0  0  0  0
  -25.5914  -33.8613   24.2338 N   0  0  0  0  0  0
  -23.4054  -30.4907   21.5498 C   0  0  2  0  0  0
  -24.8519  -28.9559   20.1128 C   0  0  0  0  0  0
  -22.7416  -29.4659   22.4982 C   0  0  0  0  0  0
  -18.0270  -28.1374   22.8490 C   0  0  0  0  0  0
  -24.1484  -36.7302   23.2643 C   0  0  0  0  0  0
  -25.9360  -30.8299   21.3628 C   0  0  0  0  0  0
  -26.0146  -29.4648   20.7069 C   0  0  0  0  0  0
  -27.2106  -28.7073   20.6950 C   0  0  0  0  0  0
  -26.0530  -26.9303   19.5008 C   0  0  0  0  0  0
  -24.8673  -27.6891   19.5034 C   0  0  0  0  0  0
  -23.6137  -29.8230   20.1645 C   0  0  0  0  0  0
  -25.4106  -36.3109   24.0344 C   0  0  1  0  0  0
  -20.5865  -28.3658   23.1316 C   0  0  2  0  0  0
  -20.6758  -26.9388   22.5423 C   0  0  0  0  0  0
  -19.5745  -26.6374   21.5211 C   0  0  0  0  0  0
  -18.1918  -26.7928   22.1604 C   0  0  0  0  0  0
  -19.1525  -28.8833   23.2901 C   0  0  0  0  0  0
  -18.9451  -30.1443   23.8913 C   0  0  0  0  0  0
  -17.6451  -30.6581   24.0565 C   0  0  0  0  0  0
  -25.9036  -34.9472   23.5137 C   0  0  0  0  0  0
  -16.5347  -29.9076   23.6334 C   0  0  0  0  0  0
  -16.7259  -28.6494   23.0357 C   0  0  0  0  0  0
  -26.4482  -31.6599   25.0728 C   0  0  0  0  0  0
  -25.3746  -31.3717   26.1481 C   0  0  0  0  0  0
  -27.0318  -30.3039   24.6125 C   0  0  0  0  0  0
  -27.6072  -32.4322   25.7471 C   0  0  0  0  0  0
  -27.5585  -37.1804   24.8466 C   0  0  0  0  0  0
  -21.4144  -29.3027   22.3716 N   0  0  0  0  0  0
  -26.4293  -37.3796   23.9417 N   0  0  0  0  0  0
  -24.6713  -31.0760   22.0993 N   0  0  0  0  0  0
  -23.4181  -28.8210   23.3033 O   0  0  0  0  0  0
  -28.3536  -26.6240   20.1416 O   0  0  0  0  0  0
  -26.5586  -34.8932   22.4694 O   0  0  0  0  0  0
  -23.5357  -32.1418   23.7488 O   0  0  0  0  0  0
  -29.4476  -18.0186   21.0659 C   0  0  0  0  0  0
  -31.7733  -17.4142   20.7241 C   0  0  0  0  0  0
  -29.7807  -19.4064   20.9976 C   0  0  0  0  0  0
  -32.1181  -18.7774   20.6432 C   0  0  0  0  0  0
  -30.4302  -16.9972   20.9103 C   0  0  0  0  0  0
  -31.1286  -19.7686   20.7721 C   0  0  0  0  0  0
  -28.7394  -20.4717   21.2737 C   0  0  0  0  0  0
  -28.6900  -24.1396   20.3395 C   0  0  0  0  0  0
  -33.5660  -19.1816   20.4402 C   0  0  0  0  0  0
  -25.0149  -22.3342   21.9589 C   0  0  0  0  0  0
  -24.2909  -21.7010   19.6339 C   0  0  0  0  0  0
  -28.1895  -25.4574   20.9846 C   0  0  0  0  0  0
  -26.5938  -22.6993   19.9589 C   0  0  0  0  0  0
  -27.9429  -22.8262   20.7234 C   0  0  1  0  0  0
  -25.4899  -21.8160   20.5878 C   0  0  0  0  0  0
  -30.0428  -15.5998   20.9671 N   0  0  0  0  0  0
  -28.7887  -21.6181   20.5594 N   0  0  0  0  0  0
  -27.8793  -20.2638   22.1310 O   0  0  0  0  0  0
  -29.6422  -24.1519   19.5522 O   0  0  0  0  0  0
  -31.4997  -21.0720   20.7080 F   0  0  0  0  0  0
  -31.4535  -12.3742   19.1421 H   0  0  0  0  0  0
  -30.2819  -11.3159   19.8655 H   0  0  0  0  0  0
  -29.7334  -11.7571   17.4470 H   0  0  0  0  0  0
  -29.6590  -13.4729   17.7621 H   0  0  0  0  0  0
  -27.8281  -11.3038   18.8373 H   0  0  0  0  0  0
  -27.3608  -12.6142   17.7886 H   0  0  0  0  0  0
  -27.6814  -14.2572   19.5414 H   0  0  0  0  0  0
  -28.6744  -12.0417   21.3977 H   0  0  0  0  0  0
  -28.4647  -13.7125   21.8361 H   0  0  0  0  0  0
  -25.2776   -9.5689   22.4753 H   0  0  0  0  0  0
  -24.0020   -7.4632   22.7462 H   0  0  0  0  0  0
  -21.0846   -8.8757   19.8952 H   0  0  0  0  0  0
  -22.3690  -10.9669   19.6158 H   0  0  0  0  0  0
  -21.2000   -7.6148   23.9718 H   0  0  0  0  0  0
  -21.1484   -6.0523   25.9081 H   0  0  0  0  0  0
  -22.0598   -2.7607   23.2841 H   0  0  0  0  0  0
  -22.4121  -11.9868   22.4771 H   0  0  0  0  0  0
  -21.1120  -13.1238   22.2639 H   0  0  0  0  0  0
  -24.6586  -15.8441   20.5087 H   0  0  0  0  0  0
  -26.2741  -15.6256   20.0667 H   0  0  0  0  0  0
  -26.7133  -32.5520   23.1166 H   0  0  0  0  0  0
  -25.0108  -33.9769   25.0516 H   0  0  0  0  0  0
  -22.6958  -31.3089   21.4112 H   0  0  0  0  0  0
  -23.3756  -35.9623   23.3296 H   0  0  0  0  0  0
  -24.3593  -36.8917   22.2059 H   0  0  0  0  0  0
  -23.7217  -37.6499   23.6656 H   0  0  0  0  0  0
  -26.0537  -31.5977   20.5969 H   0  0  0  0  0  0
  -26.8221  -30.8797   21.9833 H   0  0  0  0  0  0
  -28.1092  -29.0946   21.1558 H   0  0  0  0  0  0
  -26.0482  -25.9544   19.0367 H   0  0  0  0  0  0
  -23.9742  -27.2909   19.0425 H   0  0  0  0  0  0
  -23.7207  -30.5982   19.4049 H   0  0  0  0  0  0
  -22.7373  -29.2428   19.8688 H   0  0  0  0  0  0
  -25.1287  -36.1970   25.0839 H   0  0  0  0  0  0
  -20.9968  -28.3214   24.1434 H   0  0  0  0  0  0
  -20.5631  -26.2264   23.3611 H   0  0  0  0  0  0
  -21.6632  -26.7410   22.1232 H   0  0  0  0  0  0
  -19.6896  -25.6285   21.1231 H   0  0  0  0  0  0
  -19.6699  -27.3192   20.6747 H   0  0  0  0  0  0
  -17.4203  -26.6709   21.3989 H   0  0  0  0  0  0
  -18.0288  -26.0053   22.8971 H   0  0  0  0  0  0
  -19.7930  -30.7252   24.2280 H   0  0  0  0  0  0
  -17.5012  -31.6269   24.5153 H   0  0  0  0  0  0
  -15.5347  -30.2986   23.7661 H   0  0  0  0  0  0
  -15.8650  -28.0814   22.7080 H   0  0  0  0  0  0
  -24.5969  -30.6987   25.7850 H   0  0  0  0  0  0
  -24.8867  -32.2860   26.4869 H   0  0  0  0  0  0
  -25.8103  -30.8969   27.0279 H   0  0  0  0  0  0
  -26.2864  -29.6785   24.1191 H   0  0  0  0  0  0
  -27.4099  -29.7297   25.4594 H   0  0  0  0  0  0
  -27.8699  -30.4356   23.9276 H   0  0  0  0  0  0
  -27.2717  -33.3636   26.2051 H   0  0  0  0  0  0
  -28.3867  -32.6856   25.0270 H   0  0  0  0  0  0
  -28.0761  -31.8444   26.5373 H   0  0  0  0  0  0
  -28.2612  -38.0094   24.7521 H   0  0  0  0  0  0
  -28.1076  -36.2635   24.6277 H   0  0  0  0  0  0
  -27.2317  -37.1429   25.8873 H   0  0  0  0  0  0
  -20.9297  -29.8748   21.6942 H   0  0  0  0  0  0
  -26.0181  -38.2871   24.1432 H   0  0  0  0  0  0
  -28.4175  -17.7442   21.2474 H   0  0  0  0  0  0
  -32.5837  -16.7080   20.6457 H   0  0  0  0  0  0
  -34.1916  -18.3242   20.1894 H   0  0  0  0  0  0
  -33.9602  -19.6329   21.3514 H   0  0  0  0  0  0
  -33.6524  -19.9103   19.6328 H   0  0  0  0  0  0
  -24.1874  -21.7337   22.3395 H   0  0  0  0  0  0
  -24.6704  -23.3676   21.9027 H   0  0  0  0  0  0
  -25.8027  -22.2850   22.7101 H   0  0  0  0  0  0
  -23.5273  -21.0350   20.0388 H   0  0  0  0  0  0
  -24.5934  -21.2949   18.6677 H   0  0  0  0  0  0
  -23.8242  -22.6714   19.4573 H   0  0  0  0  0  0
  -28.7599  -25.6191   21.8991 H   0  0  0  0  0  0
  -27.1514  -25.3245   21.2946 H   0  0  0  0  0  0
  -26.8067  -22.3441   18.9489 H   0  0  0  0  0  0
  -26.1660  -23.6933   19.8193 H   0  0  0  0  0  0
  -27.7304  -22.9195   21.7881 H   0  0  0  0  0  0
  -25.8743  -20.8054   20.7170 H   0  0  0  0  0  0
  -29.0944  -15.4122   21.2529 H   0  0  0  0  0  0
  -29.5672  -21.7175   19.9191 H   0  0  0  0  0  0
  1 25  1  0  0  0
  1 30  2  0  0  0
  1 86  1  0  0  0
  2  3  1  0  0  0
  2 25  1  0  0  0
  2 91  1  0  0  0
  2 92  1  0  0  0
  3  4  1  0  0  0
  3 93  1  0  0  0
  3 94  1  0  0  0
  4  5  1  0  0  0
  4 95  1  0  0  0
  4 96  1  0  0  0
  5  6  1  0  0  0
  5 26  1  0  0  0
  5 97  1  0  0  0
  6 25  1  0  0  0
  6 98  1  0  0  0
  6 99  1  0  0  0
  7  8  2  0  0  0
  7 26  1  0  0  0
  7 29  1  0  0  0
  8  9  1  0  0  0
  8 22  1  0  0  0
  9 10  1  0  0  0
  9 27  2  0  0  0
 10 11  2  0  0  0
 10 15  1  0  0  0
 11 12  1  0  0  0
 11100  1  0  0  0
 12 13  2  0  0  0
 12101  1  0  0  0
 13 14  1  0  0  0
 13 31  1  0  0  0
 14 15  2  0  0  0
 14102  1  0  0  0
 15103  1  0  0  0
 16 17  2  0  0  0
 16 21  1  0  0  0
 16 31  1  0  0  0
 17 18  1  0  0  0
 17104  1  0  0  0
 18 19  2  0  0  0
 18105  1  0  0  0
 19 20  1  0  0  0
 19 24  1  0  0  0
 20 21  2  0  0  0
 20106  1  0  0  0
 21 23  1  0  0  0
 22 28  1  0  0  0
 22 32  2  0  0  0
 26 27  1  0  0  0
 28107  1  0  0  0
 28108  1  0  0  0
 29109  1  0  0  0
 29110  1  0  0  0
 33 34  1  0  0  0
 33 66  1  0  0  0
 33 70  2  0  0  0
 34 36  1  0  0  0
 34 59  1  0  0  0
 34111  1  0  0  0
 35 44  2  0  0  0
 35 45  1  0  0  0
 35 68  1  0  0  0
 36 56  1  0  0  0
 36112  1  0  0  0
 37 39  1  0  0  0
 37 47  1  0  0  0
 37 66  1  0  0  0
 37113  1  0  0  0
 38 43  2  0  0  0
 38 46  1  0  0  0
 38 47  1  0  0  0
 39 64  1  0  0  0
 39 67  2  0  0  0
 40 52  1  0  0  0
 40 53  2  0  0  0
 40 58  1  0  0  0
 41114  1  0  0  0
 41115  1  0  0  0
 41116  1  0  0  0
 41 48  1  0  0  0
 42 43  1  0  0  0
 42 66  1  0  0  0
 42117  1  0  0  0
 42118  1  0  0  0
 43 44  1  0  0  0
 44119  1  0  0  0
 45 46  2  0  0  0
 45120  1  0  0  0
 46121  1  0  0  0
 47122  1  0  0  0
 47123  1  0  0  0
 48 56  1  0  0  0
 48 65  1  0  0  0
 48124  1  0  0  0
 49 50  1  0  0  0
 49 53  1  0  0  0
 49 64  1  0  0  0
 49125  1  0  0  0
 50 51  1  0  0  0
 50126  1  0  0  0
 50127  1  0  0  0
 51 52  1  0  0  0
 51128  1  0  0  0
 51129  1  0  0  0
 52130  1  0  0  0
 52131  1  0  0  0
 53 54  1  0  0  0
 54 55  2  0  0  0
 54132  1  0  0  0
 55 57  1  0  0  0
 55133  1  0  0  0
 56 69  2  0  0  0
 57 58  2  0  0  0
 57134  1  0  0  0
 58135  1  0  0  0
 59 60  1  0  0  0
 59 61  1  0  0  0
 59 62  1  0  0  0
 60136  1  0  0  0
 60137  1  0  0  0
 60138  1  0  0  0
 61139  1  0  0  0
 61140  1  0  0  0
 61141  1  0  0  0
 62142  1  0  0  0
 62143  1  0  0  0
 62144  1  0  0  0
 63 65  1  0  0  0
 63145  1  0  0  0
 63146  1  0  0  0
 63147  1  0  0  0
 64148  1  0  0  0
 65149  1  0  0  0
 68 82  1  0  0  0
 71 73  2  0  0  0
 71 75  1  0  0  0
 71150  1  0  0  0
 72 74  1  0  0  0
 72 75  2  0  0  0
 72151  1  0  0  0
 73 76  1  0  0  0
 73 77  1  0  0  0
 74 76  2  0  0  0
 74 79  1  0  0  0
 75 86  1  0  0  0
 76 90  1  0  0  0
 77 87  1  0  0  0
 77 88  2  0  0  0
 78 82  1  0  0  0
 78 84  1  0  0  0
 78 89  2  0  0  0
 79152  1  0  0  0
 79153  1  0  0  0
 79154  1  0  0  0
 80155  1  0  0  0
 80156  1  0  0  0
 80157  1  0  0  0
 80 85  1  0  0  0
 81 85  1  0  0  0
 81158  1  0  0  0
 81159  1  0  0  0
 81160  1  0  0  0
 82161  1  0  0  0
 82162  1  0  0  0
 83 85  1  0  0  0
 83163  1  0  0  0
 83164  1  0  0  0
 83 84  1  0  0  0
 84 87  1  0  0  0
 84165  1  0  0  0
 85166  1  0  0  0
 86167  1  0  0  0
 87168  1  0  0  0
M  ISO  4   1 100  68 101  82 101  86 100
M  END
> <chiral flag>
0

> <version>
0

> <s_m_source_file>
/data/baiqing/PycharmProjects/Reinvent-master-3.2/result/LINK_invent/BTK/process_docking_weight1_custom_product_contain_oxygen_bond_distance_aromatic_linkinvent_7_9_3/rearranged_h_0067.sdf

> <i_m_source_file_index>
54

> <r_mmod_Potential_Energy-OPLS-2005>
-58.3132095336914

> <r_mmod_Stretch_Energy-OPLS-2005>
48.7315826416016

> <r_mmod_Bend_Energy-OPLS-2005>
107.405822753906

> <r_mmod_Torsional_Energy-OPLS-2005>
261.025024414062

> <r_mmod_Improper_Torsional_Energy-OPLS-2005>
4.3870096206665

> <r_mmod_Van_der_Waal_Energy-OPLS-2005>
151.787857055664

> <r_mmod_Electrostatic_Energy-OPLS-2005>
-430.753448486328

> <r_mmod_Solvation_Energy-OPLS-2005>
-221.376358032227

> <b_mmod_Minimization_Converged-OPLS-2005>
0

> <r_mmod_RMS_Derivative-OPLS-2005>
1.35468137264252

$$$$
54
                    3D
 Structure written by MMmdl.
154162  0  0  1  0            999 V2000
  -30.5143  -14.9138   20.4432 C   0  0  0  0  0  0
  -30.4559  -12.5644   19.4911 C   0  0  0  0  0  0
  -29.5262  -12.5318   18.2533 C   0  0  0  0  0  0
  -28.0555  -12.3242   18.6666 C   0  0  0  0  0  0
  -27.6401  -13.2377   19.8492 C   0  0  2  0  0  0
  -28.6853  -13.2120   20.9865 C   0  0  0  0  0  0
  -25.2511  -13.8196   20.5706 C   0  0  0  0  0  0
  -24.1807  -13.0434   20.9216 C   0  0  0  0  0  0
  -24.6404  -11.6914   20.8745 C   0  0  0  0  0  0
  -23.9077  -10.4292   21.0402 C   0  0  0  0  0  0
  -24.3624   -9.4207   21.9184 C   0  0  0  0  0  0
  -23.6299   -8.2243   22.0754 C   0  0  0  0  0  0
  -22.4280   -8.0282   21.3543 C   0  0  0  0  0  0
  -21.9914   -9.0253   20.4646 C   0  0  0  0  0  0
  -22.7246  -10.2134   20.3055 C   0  0  0  0  0  0
  -21.6855   -6.0735   22.5276 C   0  0  0  0  0  0
  -21.4016   -6.5641   23.8211 C   0  0  0  0  0  0
  -21.3658   -5.6794   24.9175 C   0  0  0  0  0  0
  -21.6045   -4.3055   24.7224 C   0  0  0  0  0  0
  -21.8820   -3.8146   23.4347 C   0  0  0  0  0  0
  -21.9194   -4.6963   22.3402 C   0  0  0  0  0  0
  -22.7826  -13.5213   21.1871 C   0  0  0  0  0  0
  -22.1662   -4.2149   21.0980 F   0  0  0  0  0  0
  -21.5628   -3.4539   25.7738 F   0  0  0  0  0  0
  -29.9698  -13.6332   20.4065 N   0  0  0  0  0  0
  -26.2936  -12.9407   20.3270 N   0  0  0  0  0  0
  -25.9339  -11.6546   20.5740 N   0  0  0  0  0  0
  -22.0472  -12.8207   22.0428 N   0  0  0  0  0  0
  -25.4201  -15.1923   20.4132 N   0  0  0  0  0  0
  -31.6940  -15.0564   20.1005 O   0  0  0  0  0  0
  -21.6644   -6.8880   21.4239 O   0  0  0  0  0  0
  -22.3503  -14.5511   20.6710 O   0  0  0  0  0  0
  -24.6411  -31.8455   23.1905 C   0  0  0  0  0  0
  -25.9187  -32.4704   23.8286 C   0  0  1  0  0  0
  -27.2119  -27.1400   20.1616 C   0  0  0  0  0  0
  -25.5935  -33.8509   24.2191 N   0  0  0  0  0  0
  -23.4460  -30.4653   21.5353 C   0  0  2  0  0  0
  -24.8980  -28.8964   20.1100 C   0  0  0  0  0  0
  -22.7564  -29.4548   22.4860 C   0  0  0  0  0  0
  -18.0304  -28.1400   22.8494 C   0  0  0  0  0  0
  -24.1482  -36.7259   23.2648 C   0  0  0  0  0  0
  -26.0017  -30.7171   21.3954 C   0  0  0  0  0  0
  -26.0717  -29.3276   20.7427 C   0  0  0  0  0  0
  -27.2303  -28.4632   20.7589 C   0  0  0  0  0  0
  -26.0337  -26.8361   19.4465 C   0  0  0  0  0  0
  -24.8907  -27.6620   19.4454 C   0  0  0  0  0  0
  -23.6742  -29.7976   20.1535 C   0  0  0  0  0  0
  -25.4116  -36.3039   24.0319 C   0  0  1  0  0  0
  -20.5917  -28.3718   23.1240 C   0  0  2  0  0  0
  -20.6784  -26.9419   22.5406 C   0  0  0  0  0  0
  -19.5748  -26.6383   21.5218 C   0  0  0  0  0  0
  -18.1937  -26.7941   22.1636 C   0  0  0  0  0  0
  -19.1565  -28.8875   23.2862 C   0  0  0  0  0  0
  -18.9485  -30.1476   23.8878 C   0  0  0  0  0  0
  -17.6482  -30.6598   24.0565 C   0  0  0  0  0  0
  -25.9065  -34.9412   23.5065 C   0  0  0  0  0  0
  -16.5370  -29.9096   23.6340 C   0  0  0  0  0  0
  -16.7289  -28.6514   23.0362 C   0  0  0  0  0  0
  -26.4508  -31.6571   25.0726 C   0  0  0  0  0  0
  -25.3691  -31.3773   26.1419 C   0  0  0  0  0  0
  -27.0370  -30.2964   24.6314 C   0  0  0  0  0  0
  -27.6037  -32.4339   25.7509 C   0  0  0  0  0  0
  -27.5571  -37.1787   24.8471 C   0  0  0  0  0  0
  -21.4257  -29.3047   22.3615 N   0  0  0  0  0  0
  -26.4282  -37.3748   23.9415 N   0  0  0  0  0  0
  -24.7156  -31.0310   22.0948 N   0  0  0  0  0  0
  -23.4211  -28.8097   23.3009 O   0  0  0  0  0  0
  -28.2471  -26.1345   20.1913 O   0  0  0  0  0  0
  -26.5666  -34.8912   22.4653 O   0  0  0  0  0  0
  -23.5530  -32.1333   23.7119 O   0  0  0  0  0  0
  -30.2668  -18.5034   19.8967 C   0  0  0  0  0  0
  -29.9782  -19.9448   19.9077 C   0  0  0  0  0  0
  -28.6035  -18.1713   21.5213 C   0  0  0  0  0  0
  -29.5788  -17.5256   20.7049 C   0  0  0  0  0  0
  -28.9858  -20.5857   20.7431 C   0  0  0  0  0  0
  -28.3316  -19.5910   21.5697 C   0  0  0  0  0  0
  -28.7704  -23.3283   20.2201 C   0  0  0  0  0  0
  -26.5584  -24.3747   21.1089 C   0  0  0  0  0  0
  -28.0356  -24.7060   20.8016 C   0  0  2  0  0  0
  -28.6189  -22.0776   20.8709 N   0  0  0  0  0  0
  -29.6500  -15.9940   20.7399 N   0  0  0  0  0  0
  -25.7770  -19.7894   22.0702 O   0  5  0  0  0  0
  -29.4622  -23.4165   19.2030 O   0  0  0  0  0  0
  -27.2505  -19.1491   23.9246 O   0  0  0  0  0  0
  -27.2611  -21.4530   23.1001 O   0  0  0  0  0  0
  -27.0447  -20.0364   22.7697 S   0  0  0  0  0  0
  -31.4858  -12.7415   19.1766 H   0  0  0  0  0  0
  -30.4622  -11.5980   19.9977 H   0  0  0  0  0  0
  -29.8356  -11.7420   17.5672 H   0  0  0  0  0  0
  -29.6211  -13.4691   17.7029 H   0  0  0  0  0  0
  -27.9373  -11.2779   18.9511 H   0  0  0  0  0  0
  -27.3955  -12.4842   17.8134 H   0  0  0  0  0  0
  -27.6183  -14.2506   19.4463 H   0  0  0  0  0  0
  -28.7635  -12.2144   21.4214 H   0  0  0  0  0  0
  -28.3882  -13.8741   21.8016 H   0  0  0  0  0  0
  -25.2768   -9.5686   22.4759 H   0  0  0  0  0  0
  -24.0005   -7.4637   22.7477 H   0  0  0  0  0  0
  -21.0843   -8.8774   19.8954 H   0  0  0  0  0  0
  -22.3701  -10.9674   19.6165 H   0  0  0  0  0  0
  -21.2007   -7.6149   23.9714 H   0  0  0  0  0  0
  -21.1478   -6.0526   25.9078 H   0  0  0  0  0  0
  -22.0600   -2.7608   23.2847 H   0  0  0  0  0  0
  -22.4091  -11.9870   22.4820 H   0  0  0  0  0  0
  -21.1087  -13.1224   22.2631 H   0  0  0  0  0  0
  -24.6519  -15.8444   20.5308 H   0  0  0  0  0  0
  -26.2570  -15.6318   20.0520 H   0  0  0  0  0  0
  -26.7246  -32.5315   23.1013 H   0  0  0  0  0  0
  -25.0036  -33.9623   25.0307 H   0  0  0  0  0  0
  -22.7482  -31.2913   21.3817 H   0  0  0  0  0  0
  -23.3752  -35.9585   23.3304 H   0  0  0  0  0  0
  -24.3570  -36.8893   22.2065 H   0  0  0  0  0  0
  -23.7226  -37.6452   23.6682 H   0  0  0  0  0  0
  -26.1589  -31.4678   20.6195 H   0  0  0  0  0  0
  -26.8726  -30.7689   22.0370 H   0  0  0  0  0  0
  -28.1208  -28.7856   21.2795 H   0  0  0  0  0  0
  -25.9785  -25.9089   18.8964 H   0  0  0  0  0  0
  -24.0051  -27.3366   18.9169 H   0  0  0  0  0  0
  -23.8129  -30.5737   19.3998 H   0  0  0  0  0  0
  -22.7887  -29.2414   19.8404 H   0  0  0  0  0  0
  -25.1299  -36.1866   25.0811 H   0  0  0  0  0  0
  -21.0019  -28.3296   24.1358 H   0  0  0  0  0  0
  -20.5667  -26.2330   23.3625 H   0  0  0  0  0  0
  -21.6651  -26.7417   22.1209 H   0  0  0  0  0  0
  -19.6902  -25.6290   21.1255 H   0  0  0  0  0  0
  -19.6680  -27.3196   20.6748 H   0  0  0  0  0  0
  -17.4203  -26.6696   21.4042 H   0  0  0  0  0  0
  -18.0329  -26.0089   22.9036 H   0  0  0  0  0  0
  -19.7960  -30.7305   24.2235 H   0  0  0  0  0  0
  -17.5035  -31.6276   24.5174 H   0  0  0  0  0  0
  -15.5370  -30.2992   23.7671 H   0  0  0  0  0  0
  -15.8692  -28.0823   22.7085 H   0  0  0  0  0  0
  -24.5884  -30.7097   25.7750 H   0  0  0  0  0  0
  -24.8865  -32.2960   26.4763 H   0  0  0  0  0  0
  -25.7972  -30.9011   27.0247 H   0  0  0  0  0  0
  -26.2987  -29.6694   24.1302 H   0  0  0  0  0  0
  -27.3963  -29.7249   25.4883 H   0  0  0  0  0  0
  -27.8900  -30.4206   23.9643 H   0  0  0  0  0  0
  -27.2628  -33.3666   26.2016 H   0  0  0  0  0  0
  -28.3881  -32.6856   25.0356 H   0  0  0  0  0  0
  -28.0660  -31.8508   26.5483 H   0  0  0  0  0  0
  -28.2588  -38.0083   24.7510 H   0  0  0  0  0  0
  -28.1061  -36.2614   24.6294 H   0  0  0  0  0  0
  -27.2293  -37.1432   25.8875 H   0  0  0  0  0  0
  -20.9465  -29.8771   21.6807 H   0  0  0  0  0  0
  -26.0148  -38.2816   24.1422 H   0  0  0  0  0  0
  -31.0276  -18.1497   19.2146 H   0  0  0  0  0  0
  -30.5561  -20.5743   19.2458 H   0  0  0  0  0  0
  -28.0042  -17.5469   22.1680 H   0  0  0  0  0  0
  -26.4651  -23.4806   21.7221 H   0  0  0  0  0  0
  -25.9875  -24.1826   20.2021 H   0  0  0  0  0  0
  -26.0734  -25.1724   21.6704 H   0  0  0  0  0  0
  -28.4995  -24.8181   21.7821 H   0  0  0  0  0  0
  -28.0300  -22.2054   21.6976 H   0  0  0  0  0  0
  -28.7882  -15.6005   21.0865 H   0  0  0  0  0  0
  1 25  1  0  0  0
  1 30  2  0  0  0
  1 81  1  0  0  0
  2  3  1  0  0  0
  2 25  1  0  0  0
  2 87  1  0  0  0
  2 88  1  0  0  0
  3  4  1  0  0  0
  3 89  1  0  0  0
  3 90  1  0  0  0
  4  5  1  0  0  0
  4 91  1  0  0  0
  4 92  1  0  0  0
  5  6  1  0  0  0
  5 26  1  0  0  0
  5 93  1  0  0  0
  6 25  1  0  0  0
  6 94  1  0  0  0
  6 95  1  0  0  0
  7  8  2  0  0  0
  7 26  1  0  0  0
  7 29  1  0  0  0
  8  9  1  0  0  0
  8 22  1  0  0  0
  9 10  1  0  0  0
  9 27  2  0  0  0
 10 11  2  0  0  0
 10 15  1  0  0  0
 11 12  1  0  0  0
 11 96  1  0  0  0
 12 13  2  0  0  0
 12 97  1  0  0  0
 13 14  1  0  0  0
 13 31  1  0  0  0
 14 15  2  0  0  0
 14 98  1  0  0  0
 15 99  1  0  0  0
 16 17  2  0  0  0
 16 21  1  0  0  0
 16 31  1  0  0  0
 17 18  1  0  0  0
 17100  1  0  0  0
 18 19  2  0  0  0
 18101  1  0  0  0
 19 20  1  0  0  0
 19 24  1  0  0  0
 20 21  2  0  0  0
 20102  1  0  0  0
 21 23  1  0  0  0
 22 28  1  0  0  0
 22 32  2  0  0  0
 26 27  1  0  0  0
 28103  1  0  0  0
 28104  1  0  0  0
 29105  1  0  0  0
 29106  1  0  0  0
 33 34  1  0  0  0
 33 66  1  0  0  0
 33 70  2  0  0  0
 34 36  1  0  0  0
 34 59  1  0  0  0
 34107  1  0  0  0
 35 44  2  0  0  0
 35 45  1  0  0  0
 35 68  1  0  0  0
 36 56  1  0  0  0
 36108  1  0  0  0
 37 39  1  0  0  0
 37 47  1  0  0  0
 37 66  1  0  0  0
 37109  1  0  0  0
 38 43  2  0  0  0
 38 46  1  0  0  0
 38 47  1  0  0  0
 39 64  1  0  0  0
 39 67  2  0  0  0
 40 52  1  0  0  0
 40 53  2  0  0  0
 40 58  1  0  0  0
 41110  1  0  0  0
 41111  1  0  0  0
 41112  1  0  0  0
 41 48  1  0  0  0
 42 43  1  0  0  0
 42 66  1  0  0  0
 42113  1  0  0  0
 42114  1  0  0  0
 43 44  1  0  0  0
 44115  1  0  0  0
 45 46  2  0  0  0
 45116  1  0  0  0
 46117  1  0  0  0
 47118  1  0  0  0
 47119  1  0  0  0
 48 56  1  0  0  0
 48 65  1  0  0  0
 48120  1  0  0  0
 49 50  1  0  0  0
 49 53  1  0  0  0
 49 64  1  0  0  0
 49121  1  0  0  0
 50 51  1  0  0  0
 50122  1  0  0  0
 50123  1  0  0  0
 51 52  1  0  0  0
 51124  1  0  0  0
 51125  1  0  0  0
 52126  1  0  0  0
 52127  1  0  0  0
 53 54  1  0  0  0
 54 55  2  0  0  0
 54128  1  0  0  0
 55 57  1  0  0  0
 55129  1  0  0  0
 56 69  2  0  0  0
 57 58  2  0  0  0
 57130  1  0  0  0
 58131  1  0  0  0
 59 60  1  0  0  0
 59 61  1  0  0  0
 59 62  1  0  0  0
 60132  1  0  0  0
 60133  1  0  0  0
 60134  1  0  0  0
 61135  1  0  0  0
 61136  1  0  0  0
 61137  1  0  0  0
 62138  1  0  0  0
 62139  1  0  0  0
 62140  1  0  0  0
 63 65  1  0  0  0
 63141  1  0  0  0
 63142  1  0  0  0
 63143  1  0  0  0
 64144  1  0  0  0
 65145  1  0  0  0
 68 79  1  0  0  0
 71 72  2  0  0  0
 71 74  1  0  0  0
 71146  1  0  0  0
 72 75  1  0  0  0
 72147  1  0  0  0
 73 74  2  0  0  0
 73 76  1  0  0  0
 73148  1  0  0  0
 74 81  1  0  0  0
 75 76  2  0  0  0
 75 80  1  0  0  0
 76 86  1  0  0  0
 77 79  1  0  0  0
 77 80  1  0  0  0
 77 83  2  0  0  0
 78149  1  0  0  0
 78150  1  0  0  0
 78151  1  0  0  0
 78 79  1  0  0  0
 79152  1  0  0  0
 80153  1  0  0  0
 81154  1  0  0  0
 82 86  1  0  0  0
 84 86  2  0  0  0
 85 86  2  0  0  0
M  CHG  1  82  -1
M  ISO  4   1 100  68 101  79 101  81 100
M  END
> <chiral flag>
0

> <version>
0

> <s_m_source_file>
/data/baiqing/PycharmProjects/Reinvent-master-3.2/result/LINK_invent/BTK/process_docking_weight1_custom_product_contain_oxygen_bond_distance_aromatic_linkinvent_7_9_3/rearranged_h_0067.sdf

> <i_m_source_file_index>
55

> <r_mmod_Potential_Energy-OPLS-2005>
220.808410644531

> <r_mmod_Stretch_Energy-OPLS-2005>
232.140197753906

> <r_mmod_Bend_Energy-OPLS-2005>
317.044403076172

> <r_mmod_Torsional_Energy-OPLS-2005>
262.7177734375

> <r_mmod_Improper_Torsional_Energy-OPLS-2005>
3.51521420478821

> <r_mmod_Van_der_Waal_Energy-OPLS-2005>
135.8798828125

> <r_mmod_Electrostatic_Energy-OPLS-2005>
-409.841217041016

> <r_mmod_Solvation_Energy-OPLS-2005>
-501.661560058594

> <b_mmod_Minimization_Converged-OPLS-2005>
0

> <r_mmod_RMS_Derivative-OPLS-2005>
1.01617956161499

$$$$
55
                    3D
 Structure written by MMmdl.
166175  0  0  1  0            999 V2000
  -30.5985  -14.7589   20.5289 C   0  0  0  0  0  0
  -30.4462  -12.4752   19.4863 C   0  0  0  0  0  0
  -29.5191  -12.5414   18.2499 C   0  0  0  0  0  0
  -28.0452  -12.3542   18.6566 C   0  0  0  0  0  0
  -27.6528  -13.2334   19.8729 C   0  0  2  0  0  0
  -28.6961  -13.1269   21.0104 C   0  0  0  0  0  0
  -25.2420  -13.8087   20.5508 C   0  0  0  0  0  0
  -24.1773  -13.0356   20.9175 C   0  0  0  0  0  0
  -24.6422  -11.6865   20.8782 C   0  0  0  0  0  0
  -23.9096  -10.4253   21.0425 C   0  0  0  0  0  0
  -24.3633   -9.4169   21.9202 C   0  0  0  0  0  0
  -23.6293   -8.2216   22.0766 C   0  0  0  0  0  0
  -22.4277   -8.0268   21.3548 C   0  0  0  0  0  0
  -21.9923   -9.0247   20.4651 C   0  0  0  0  0  0
  -22.7269  -10.2114   20.3066 C   0  0  0  0  0  0
  -21.6847   -6.0730   22.5278 C   0  0  0  0  0  0
  -21.4008   -6.5635   23.8211 C   0  0  0  0  0  0
  -21.3656   -5.6789   24.9173 C   0  0  0  0  0  0
  -21.6045   -4.3052   24.7225 C   0  0  0  0  0  0
  -21.8822   -3.8143   23.4346 C   0  0  0  0  0  0
  -21.9192   -4.6958   22.3402 C   0  0  0  0  0  0
  -22.7798  -13.5155   21.1835 C   0  0  0  0  0  0
  -22.1663   -4.2144   21.0979 F   0  0  0  0  0  0
  -21.5631   -3.4538   25.7739 F   0  0  0  0  0  0
  -30.0096  -13.5078   20.4613 N   0  0  0  0  0  0
  -26.2983  -12.9384   20.3366 N   0  0  0  0  0  0
  -25.9381  -11.6523   20.5861 N   0  0  0  0  0  0
  -22.0450  -12.8177   22.0421 N   0  0  0  0  0  0
  -25.3789  -15.1741   20.3488 N   0  0  0  0  0  0
  -31.6912  -14.9529   19.9876 O   0  0  0  0  0  0
  -21.6632   -6.8873   21.4242 O   0  0  0  0  0  0
  -22.3489  -14.5461   20.6670 O   0  0  0  0  0  0
  -24.6328  -31.8534   23.1964 C   0  0  0  0  0  0
  -25.9144  -32.4746   23.8320 C   0  0  1  0  0  0
  -27.2295  -27.2489   20.1418 C   0  0  0  0  0  0
  -25.5932  -33.8548   24.2243 N   0  0  0  0  0  0
  -23.4317  -30.4738   21.5396 C   0  0  2  0  0  0
  -24.8829  -28.9157   20.1134 C   0  0  0  0  0  0
  -22.7513  -29.4591   22.4905 C   0  0  0  0  0  0
  -18.0293  -28.1390   22.8481 C   0  0  0  0  0  0
  -24.1490  -36.7279   23.2641 C   0  0  0  0  0  0
  -25.9783  -30.7631   21.3785 C   0  0  0  0  0  0
  -26.0545  -29.3828   20.7238 C   0  0  0  0  0  0
  -27.2320  -28.5640   20.7229 C   0  0  0  0  0  0
  -26.0380  -26.8560   19.4939 C   0  0  0  0  0  0
  -24.8805  -27.6604   19.4856 C   0  0  0  0  0  0
  -23.6529  -29.8036   20.1578 C   0  0  0  0  0  0
  -25.4117  -36.3064   24.0325 C   0  0  1  0  0  0
  -20.5898  -28.3703   23.1264 C   0  0  2  0  0  0
  -20.6781  -26.9418   22.5408 C   0  0  0  0  0  0
  -19.5757  -26.6384   21.5211 C   0  0  0  0  0  0
  -18.1937  -26.7931   22.1623 C   0  0  0  0  0  0
  -19.1547  -28.8864   23.2866 C   0  0  0  0  0  0
  -18.9468  -30.1462   23.8887 C   0  0  0  0  0  0
  -17.6467  -30.6589   24.0561 C   0  0  0  0  0  0
  -25.9058  -34.9435   23.5088 C   0  0  0  0  0  0
  -16.5357  -29.9086   23.6333 C   0  0  0  0  0  0
  -16.7279  -28.6504   23.0353 C   0  0  0  0  0  0
  -26.4506  -31.6578   25.0717 C   0  0  0  0  0  0
  -25.3722  -31.3734   26.1432 C   0  0  0  0  0  0
  -27.0360  -30.2991   24.6219 C   0  0  0  0  0  0
  -27.6053  -32.4326   25.7495 C   0  0  0  0  0  0
  -27.5578  -37.1796   24.8466 C   0  0  0  0  0  0
  -21.4217  -29.3044   22.3648 N   0  0  0  0  0  0
  -26.4290  -37.3765   23.9409 N   0  0  0  0  0  0
  -24.6999  -31.0485   22.0946 N   0  0  0  0  0  0
  -23.4201  -28.8136   23.3018 O   0  0  0  0  0  0
  -28.3197  -26.3417   20.1664 O   0  0  0  0  0  0
  -26.5634  -34.8914   22.4659 O   0  0  0  0  0  0
  -23.5473  -32.1360   23.7248 O   0  0  0  0  0  0
  -27.5364  -19.3371   21.0538 C   0  0  0  0  0  0
  -29.7708  -18.4014   20.7163 C   0  0  0  0  0  0
  -27.9229  -16.9481   21.3559 C   0  0  0  0  0  0
  -28.8908  -19.5904   20.7341 C   0  0  0  0  0  0
  -27.0642  -18.0580   21.3730 C   0  0  0  0  0  0
  -29.2874  -17.0437   21.0176 C   0  0  0  0  0  0
  -30.3956  -21.6705   20.4665 C   0  0  0  0  0  0
  -28.1734  -22.1630   20.5205 C   0  0  0  0  0  0
  -28.8014  -23.5613   20.1022 C   0  0  2  0  0  0
  -30.2982  -23.2400   20.4109 C   0  0  1  0  0  0
  -30.7035  -23.7749   21.8025 C   0  0  0  0  0  0
  -31.1615  -23.3271   17.9103 C   0  0  0  0  0  0
  -28.0804  -24.9292   20.6533 C   0  0  0  0  0  0
  -31.2623  -23.8568   19.3557 C   0  0  0  0  0  0
  -29.1974  -21.0505   20.5091 N   0  0  0  0  0  0
  -25.7327  -17.8926   21.7457 N   0  0  0  0  0  0
  -29.9776  -15.7431   21.2798 N   0  0  0  0  0  0
  -31.4865  -21.0909   20.4805 O   0  0  0  0  0  0
  -31.4852  -12.6138   19.1833 H   0  0  0  0  0  0
  -30.4046  -11.4850   19.9430 H   0  0  0  0  0  0
  -29.8054  -11.7820   17.5211 H   0  0  0  0  0  0
  -29.6415  -13.5047   17.7522 H   0  0  0  0  0  0
  -27.9012  -11.3012   18.9014 H   0  0  0  0  0  0
  -27.3889  -12.5624   17.8107 H   0  0  0  0  0  0
  -27.6587  -14.2659   19.5224 H   0  0  0  0  0  0
  -28.7315  -12.1094   21.4027 H   0  0  0  0  0  0
  -28.4089  -13.7552   21.8534 H   0  0  0  0  0  0
  -25.2775   -9.5637   22.4783 H   0  0  0  0  0  0
  -23.9990   -7.4606   22.7489 H   0  0  0  0  0  0
  -21.0854   -8.8779   19.8956 H   0  0  0  0  0  0
  -22.3741  -10.9660   19.6176 H   0  0  0  0  0  0
  -21.1999   -7.6144   23.9712 H   0  0  0  0  0  0
  -21.1475   -6.0518   25.9076 H   0  0  0  0  0  0
  -22.0605   -2.7606   23.2847 H   0  0  0  0  0  0
  -22.4070  -11.9849   22.4826 H   0  0  0  0  0  0
  -21.1078  -13.1223   22.2636 H   0  0  0  0  0  0
  -24.5376  -15.7302   20.2437 H   0  0  0  0  0  0
  -26.1762  -15.5770   19.8733 H   0  0  0  0  0  0
  -26.7212  -32.5398   23.1064 H   0  0  0  0  0  0
  -25.0070  -33.9682   25.0383 H   0  0  0  0  0  0
  -22.7289  -31.2960   21.3900 H   0  0  0  0  0  0
  -23.3753  -35.9610   23.3300 H   0  0  0  0  0  0
  -24.3578  -36.8907   22.2056 H   0  0  0  0  0  0
  -23.7243  -37.6478   23.6670 H   0  0  0  0  0  0
  -26.1176  -31.5219   20.6073 H   0  0  0  0  0  0
  -26.8551  -30.8150   22.0124 H   0  0  0  0  0  0
  -28.1295  -28.9188   21.2098 H   0  0  0  0  0  0
  -25.9899  -25.8980   18.9960 H   0  0  0  0  0  0
  -23.9868  -27.2993   18.9954 H   0  0  0  0  0  0
  -23.7784  -30.5778   19.4001 H   0  0  0  0  0  0
  -22.7719  -29.2361   19.8526 H   0  0  0  0  0  0
  -25.1301  -36.1906   25.0818 H   0  0  0  0  0  0
  -20.9990  -28.3285   24.1385 H   0  0  0  0  0  0
  -20.5679  -26.2314   23.3615 H   0  0  0  0  0  0
  -21.6649  -26.7440   22.1203 H   0  0  0  0  0  0
  -19.6919  -25.6292   21.1248 H   0  0  0  0  0  0
  -19.6695  -27.3188   20.6736 H   0  0  0  0  0  0
  -17.4206  -26.6673   21.4027 H   0  0  0  0  0  0
  -18.0341  -26.0076   22.9024 H   0  0  0  0  0  0
  -19.7944  -30.7279   24.2254 H   0  0  0  0  0  0
  -17.5022  -31.6269   24.5164 H   0  0  0  0  0  0
  -15.5357  -30.2985   23.7663 H   0  0  0  0  0  0
  -15.8679  -28.0820   22.7075 H   0  0  0  0  0  0
  -24.5902  -30.7079   25.7757 H   0  0  0  0  0  0
  -24.8910  -32.2905   26.4838 H   0  0  0  0  0  0
  -25.8033  -30.8923   27.0221 H   0  0  0  0  0  0
  -26.2951  -29.6729   24.1236 H   0  0  0  0  0  0
  -27.4025  -29.7266   25.4750 H   0  0  0  0  0  0
  -27.8834  -30.4257   23.9478 H   0  0  0  0  0  0
  -27.2656  -33.3635   26.2047 H   0  0  0  0  0  0
  -28.3878  -32.6872   25.0334 H   0  0  0  0  0  0
  -28.0705  -31.8467   26.5433 H   0  0  0  0  0  0
  -28.2595  -38.0093   24.7510 H   0  0  0  0  0  0
  -28.1074  -36.2623   24.6296 H   0  0  0  0  0  0
  -27.2295  -37.1448   25.8869 H   0  0  0  0  0  0
  -20.9410  -29.8758   21.6840 H   0  0  0  0  0  0
  -26.0166  -38.2838   24.1408 H   0  0  0  0  0  0
  -26.8212  -20.1433   21.1038 H   0  0  0  0  0  0
  -30.8246  -18.5372   20.5184 H   0  0  0  0  0  0
  -27.5216  -15.9914   21.6572 H   0  0  0  0  0  0
  -27.3414  -21.9256   19.8568 H   0  0  0  0  0  0
  -27.7700  -22.2407   21.5313 H   0  0  0  0  0  0
  -28.6781  -23.6056   19.0220 H   0  0  0  0  0  0
  -30.0446  -23.3995   22.5869 H   0  0  0  0  0  0
  -30.6713  -24.8642   21.8374 H   0  0  0  0  0  0
  -31.7197  -23.4769   22.0648 H   0  0  0  0  0  0
  -31.9135  -23.8047   17.2814 H   0  0  0  0  0  0
  -30.1945  -23.5343   17.4540 H   0  0  0  0  0  0
  -31.3372  -22.2527   17.8538 H   0  0  0  0  0  0
  -28.2348  -24.9700   21.7313 H   0  0  0  0  0  0
  -27.0144  -24.7231   20.5735 H   0  0  0  0  0  0
  -32.2907  -23.7106   19.6902 H   0  0  0  0  0  0
  -31.1161  -24.9377   19.3359 H   0  0  0  0  0  0
  -25.0651  -18.6033   21.4646 H   0  0  0  0  0  0
  -25.3603  -16.9491   21.6521 H   0  0  0  0  0  0
  -29.4283  -15.2273   21.9507 H   0  0  0  0  0  0
  1 25  1  0  0  0
  1 30  2  0  0  0
  1 87  1  0  0  0
  2  3  1  0  0  0
  2 25  1  0  0  0
  2 89  1  0  0  0
  2 90  1  0  0  0
  3  4  1  0  0  0
  3 91  1  0  0  0
  3 92  1  0  0  0
  4  5  1  0  0  0
  4 93  1  0  0  0
  4 94  1  0  0  0
  5  6  1  0  0  0
  5 26  1  0  0  0
  5 95  1  0  0  0
  6 25  1  0  0  0
  6 96  1  0  0  0
  6 97  1  0  0  0
  7  8  2  0  0  0
  7 26  1  0  0  0
  7 29  1  0  0  0
  8  9  1  0  0  0
  8 22  1  0  0  0
  9 10  1  0  0  0
  9 27  2  0  0  0
 10 11  2  0  0  0
 10 15  1  0  0  0
 11 12  1  0  0  0
 11 98  1  0  0  0
 12 13  2  0  0  0
 12 99  1  0  0  0
 13 14  1  0  0  0
 13 31  1  0  0  0
 14 15  2  0  0  0
 14100  1  0  0  0
 15101  1  0  0  0
 16 17  2  0  0  0
 16 21  1  0  0  0
 16 31  1  0  0  0
 17 18  1  0  0  0
 17102  1  0  0  0
 18 19  2  0  0  0
 18103  1  0  0  0
 19 20  1  0  0  0
 19 24  1  0  0  0
 20 21  2  0  0  0
 20104  1  0  0  0
 21 23  1  0  0  0
 22 28  1  0  0  0
 22 32  2  0  0  0
 26 27  1  0  0  0
 28105  1  0  0  0
 28106  1  0  0  0
 29107  1  0  0  0
 29108  1  0  0  0
 33 34  1  0  0  0
 33 66  1  0  0  0
 33 70  2  0  0  0
 34 36  1  0  0  0
 34 59  1  0  0  0
 34109  1  0  0  0
 35 44  2  0  0  0
 35 45  1  0  0  0
 35 68  1  0  0  0
 36 56  1  0  0  0
 36110  1  0  0  0
 37 39  1  0  0  0
 37 47  1  0  0  0
 37 66  1  0  0  0
 37111  1  0  0  0
 38 43  2  0  0  0
 38 46  1  0  0  0
 38 47  1  0  0  0
 39 64  1  0  0  0
 39 67  2  0  0  0
 40 52  1  0  0  0
 40 53  2  0  0  0
 40 58  1  0  0  0
 41112  1  0  0  0
 41113  1  0  0  0
 41114  1  0  0  0
 41 48  1  0  0  0
 42 43  1  0  0  0
 42 66  1  0  0  0
 42115  1  0  0  0
 42116  1  0  0  0
 43 44  1  0  0  0
 44117  1  0  0  0
 45 46  2  0  0  0
 45118  1  0  0  0
 46119  1  0  0  0
 47120  1  0  0  0
 47121  1  0  0  0
 48 56  1  0  0  0
 48 65  1  0  0  0
 48122  1  0  0  0
 49 50  1  0  0  0
 49 53  1  0  0  0
 49 64  1  0  0  0
 49123  1  0  0  0
 50 51  1  0  0  0
 50124  1  0  0  0
 50125  1  0  0  0
 51 52  1  0  0  0
 51126  1  0  0  0
 51127  1  0  0  0
 52128  1  0  0  0
 52129  1  0  0  0
 53 54  1  0  0  0
 54 55  2  0  0  0
 54130  1  0  0  0
 55 57  1  0  0  0
 55131  1  0  0  0
 56 69  2  0  0  0
 57 58  2  0  0  0
 57132  1  0  0  0
 58133  1  0  0  0
 59 60  1  0  0  0
 59 61  1  0  0  0
 59 62  1  0  0  0
 60134  1  0  0  0
 60135  1  0  0  0
 60136  1  0  0  0
 61137  1  0  0  0
 61138  1  0  0  0
 61139  1  0  0  0
 62140  1  0  0  0
 62141  1  0  0  0
 62142  1  0  0  0
 63 65  1  0  0  0
 63143  1  0  0  0
 63144  1  0  0  0
 63145  1  0  0  0
 64146  1  0  0  0
 65147  1  0  0  0
 68 83  1  0  0  0
 71 74  2  0  0  0
 71 75  1  0  0  0
 71148  1  0  0  0
 72 74  1  0  0  0
 72 76  2  0  0  0
 72149  1  0  0  0
 73 75  2  0  0  0
 73 76  1  0  0  0
 73150  1  0  0  0
 74 85  1  0  0  0
 75 86  1  0  0  0
 76 87  1  0  0  0
 77 80  1  0  0  0
 77 85  1  0  0  0
 77 88  2  0  0  0
 78 79  1  0  0  0
 78 85  1  0  0  0
 78151  1  0  0  0
 78152  1  0  0  0
 79 80  1  0  0  0
 79 83  1  0  0  0
 79153  1  0  0  0
 80 81  1  0  0  0
 80 84  1  0  0  0
 81154  1  0  0  0
 81155  1  0  0  0
 81156  1  0  0  0
 82 84  1  0  0  0
 82157  1  0  0  0
 82158  1  0  0  0
 82159  1  0  0  0
 83160  1  0  0  0
 83161  1  0  0  0
 84162  1  0  0  0
 84163  1  0  0  0
 86164  1  0  0  0
 86165  1  0  0  0
 87166  1  0  0  0
M  ISO  4   1 100  68 101  83 101  87 100
M  END
> <chiral flag>
0

> <version>
0

> <s_m_source_file>
/data/baiqing/PycharmProjects/Reinvent-master-3.2/result/LINK_invent/BTK/process_docking_weight1_custom_product_contain_oxygen_bond_distance_aromatic_linkinvent_7_9_3/rearranged_h_0067.sdf

> <i_m_source_file_index>
56

> <r_mmod_Potential_Energy-OPLS-2005>
437.32373046875

> <r_mmod_Stretch_Energy-OPLS-2005>
148.817825317383

> <r_mmod_Bend_Energy-OPLS-2005>
259.364715576172

> <r_mmod_Torsional_Energy-OPLS-2005>
321.756896972656

> <r_mmod_Improper_Torsional_Energy-OPLS-2005>
14.1520757675171

> <r_mmod_Van_der_Waal_Energy-OPLS-2005>
135.574630737305

> <r_mmod_Electrostatic_Energy-OPLS-2005>
-312.734588623047

> <r_mmod_Solvation_Energy-OPLS-2005>
-221.800827026367

> <b_mmod_Minimization_Converged-OPLS-2005>
0

> <r_mmod_RMS_Derivative-OPLS-2005>
0.200681731104851

$$$$
56
                    3D
 Structure written by MMmdl.
154162  0  0  1  0            999 V2000
  -30.6163  -14.7777   20.4334 C   0  0  0  0  0  0
  -30.4272  -12.4721   19.4843 C   0  0  0  0  0  0
  -29.5086  -12.5027   18.2421 C   0  0  0  0  0  0
  -28.0377  -12.3196   18.6591 C   0  0  0  0  0  0
  -27.6367  -13.2366   19.8451 C   0  0  2  0  0  0
  -28.6802  -13.2055   20.9844 C   0  0  0  0  0  0
  -25.2486  -13.8201   20.5701 C   0  0  0  0  0  0
  -24.1787  -13.0438   20.9207 C   0  0  0  0  0  0
  -24.6393  -11.6921   20.8761 C   0  0  0  0  0  0
  -23.9074  -10.4289   21.0409 C   0  0  0  0  0  0
  -24.3627   -9.4200   21.9188 C   0  0  0  0  0  0
  -23.6293   -8.2243   22.0761 C   0  0  0  0  0  0
  -22.4278   -8.0287   21.3547 C   0  0  0  0  0  0
  -21.9922   -9.0257   20.4651 C   0  0  0  0  0  0
  -22.7252  -10.2127   20.3058 C   0  0  0  0  0  0
  -21.6854   -6.0741   22.5269 C   0  0  0  0  0  0
  -21.4015   -6.5639   23.8202 C   0  0  0  0  0  0
  -21.3658   -5.6791   24.9164 C   0  0  0  0  0  0
  -21.6039   -4.3052   24.7214 C   0  0  0  0  0  0
  -21.8822   -3.8146   23.4333 C   0  0  0  0  0  0
  -21.9192   -4.6967   22.3392 C   0  0  0  0  0  0
  -22.7807  -13.5211   21.1863 C   0  0  0  0  0  0
  -22.1659   -4.2151   21.0972 F   0  0  0  0  0  0
  -21.5627   -3.4540   25.7726 F   0  0  0  0  0  0
  -29.9796  -13.5531   20.3975 N   0  0  0  0  0  0
  -26.2916  -12.9422   20.3279 N   0  0  0  0  0  0
  -25.9324  -11.6558   20.5762 N   0  0  0  0  0  0
  -22.0466  -12.8194   22.0426 N   0  0  0  0  0  0
  -25.4179  -15.1937   20.4122 N   0  0  0  0  0  0
  -31.8161  -14.8181   20.1508 O   0  0  0  0  0  0
  -21.6639   -6.8890   21.4237 O   0  0  0  0  0  0
  -22.3487  -14.5520   20.6717 O   0  0  0  0  0  0
  -24.6308  -31.8537   23.1963 C   0  0  0  0  0  0
  -25.9134  -32.4754   23.8303 C   0  0  1  0  0  0
  -27.2305  -27.2608   20.1254 C   0  0  0  0  0  0
  -25.5943  -33.8559   24.2238 N   0  0  0  0  0  0
  -23.4276  -30.4732   21.5380 C   0  0  2  0  0  0
  -24.8765  -28.9141   20.1086 C   0  0  0  0  0  0
  -22.7498  -29.4592   22.4903 C   0  0  0  0  0  0
  -18.0284  -28.1414   22.8485 C   0  0  0  0  0  0
  -24.1496  -36.7281   23.2643 C   0  0  0  0  0  0
  -25.9719  -30.7669   21.3726 C   0  0  0  0  0  0
  -26.0437  -29.3872   20.7184 C   0  0  0  0  0  0
  -27.2176  -28.5697   20.7176 C   0  0  0  0  0  0
  -26.0370  -26.8465   19.4957 C   0  0  0  0  0  0
  -24.8783  -27.6516   19.4901 C   0  0  0  0  0  0
  -23.6457  -29.8008   20.1556 C   0  0  0  0  0  0
  -25.4121  -36.3056   24.0315 C   0  0  1  0  0  0
  -20.5889  -28.3709   23.1294 C   0  0  2  0  0  0
  -20.6785  -26.9430   22.5431 C   0  0  0  0  0  0
  -19.5753  -26.6388   21.5249 C   0  0  0  0  0  0
  -18.1922  -26.7968   22.1625 C   0  0  0  0  0  0
  -19.1541  -28.8877   23.2891 C   0  0  0  0  0  0
  -18.9467  -30.1486   23.8900 C   0  0  0  0  0  0
  -17.6468  -30.6619   24.0568 C   0  0  0  0  0  0
  -25.9062  -34.9436   23.5072 C   0  0  0  0  0  0
  -16.5356  -29.9118   23.6344 C   0  0  0  0  0  0
  -16.7271  -28.6540   23.0351 C   0  0  0  0  0  0
  -26.4518  -31.6588   25.0695 C   0  0  0  0  0  0
  -25.3746  -31.3749   26.1422 C   0  0  0  0  0  0
  -27.0380  -30.3013   24.6173 C   0  0  0  0  0  0
  -27.6069  -32.4345   25.7469 C   0  0  0  0  0  0
  -27.5578  -37.1788   24.8458 C   0  0  0  0  0  0
  -21.4195  -29.3061   22.3688 N   0  0  0  0  0  0
  -26.4285  -37.3759   23.9412 N   0  0  0  0  0  0
  -24.6962  -31.0492   22.0931 N   0  0  0  0  0  0
  -23.4200  -28.8135   23.3001 O   0  0  0  0  0  0
  -28.3546  -26.4101   20.2187 O   0  0  0  0  0  0
  -26.5620  -34.8912   22.4634 O   0  0  0  0  0  0
  -23.5460  -32.1348   23.7252 O   0  0  0  0  0  0
  -31.3255  -17.7013   19.5192 C   0  0  0  0  0  0
  -31.6474  -19.0254   19.1645 C   0  0  0  0  0  0
  -29.3365  -18.5374   20.6112 C   0  0  0  0  0  0
  -29.6446  -19.9325   20.2698 C   0  0  0  0  0  0
  -30.1679  -17.3819   20.2668 C   0  0  0  0  0  0
  -30.8483  -20.1282   19.5257 C   0  0  0  0  0  0
  -28.7780  -21.1548   20.6803 C   0  0  0  0  0  0
  -28.1972  -23.7339   20.4587 C   0  0  0  0  0  0
  -28.4819  -25.0490   19.5858 C   0  0  0  0  0  0
  -31.2953  -21.3901   19.1045 N   0  0  0  0  0  0
  -29.8647  -15.9473   20.6032 N   0  0  0  0  0  0
  -28.9062  -22.4427   20.1499 N   0  0  0  0  0  0
  -27.8574  -20.9681   21.6362 N   0  3  0  0  0  0
  -27.3560  -23.7642   21.3654 O   0  0  0  0  0  0
  -31.4682  -12.5869   19.1793 H   0  0  0  0  0  0
  -30.3694  -11.5040   19.9839 H   0  0  0  0  0  0
  -29.7980  -11.7210   17.5388 H   0  0  0  0  0  0
  -29.6270  -13.4499   17.7136 H   0  0  0  0  0  0
  -27.9075  -11.2743   18.9424 H   0  0  0  0  0  0
  -27.3755  -12.4870   17.8086 H   0  0  0  0  0  0
  -27.6213  -14.2512   19.4452 H   0  0  0  0  0  0
  -28.7214  -12.2200   21.4512 H   0  0  0  0  0  0
  -28.4082  -13.9098   21.7729 H   0  0  0  0  0  0
  -25.2782   -9.5665   22.4752 H   0  0  0  0  0  0
  -23.9994   -7.4637   22.7488 H   0  0  0  0  0  0
  -21.0854   -8.8781   19.8956 H   0  0  0  0  0  0
  -22.3729  -10.9667   19.6155 H   0  0  0  0  0  0
  -21.2015   -7.6151   23.9704 H   0  0  0  0  0  0
  -21.1471   -6.0524   25.9065 H   0  0  0  0  0  0
  -22.0605   -2.7612   23.2827 H   0  0  0  0  0  0
  -22.4096  -11.9840   22.4773 H   0  0  0  0  0  0
  -21.1087  -13.1202   22.2658 H   0  0  0  0  0  0
  -24.6485  -15.8456   20.5212 H   0  0  0  0  0  0
  -26.2580  -15.6321   20.0575 H   0  0  0  0  0  0
  -26.7172  -32.5397   23.1015 H   0  0  0  0  0  0
  -25.0133  -33.9706   25.0414 H   0  0  0  0  0  0
  -22.7252  -31.2951   21.3859 H   0  0  0  0  0  0
  -23.3769  -35.9599   23.3269 H   0  0  0  0  0  0
  -24.3585  -36.8959   22.2069 H   0  0  0  0  0  0
  -23.7250  -37.6468   23.6694 H   0  0  0  0  0  0
  -26.1017  -31.5240   20.5982 H   0  0  0  0  0  0
  -26.8543  -30.8224   21.9983 H   0  0  0  0  0  0
  -28.1124  -28.9260   21.2073 H   0  0  0  0  0  0
  -25.9658  -25.8734   19.0353 H   0  0  0  0  0  0
  -23.9800  -27.2807   19.0183 H   0  0  0  0  0  0
  -23.7698  -30.5741   19.3978 H   0  0  0  0  0  0
  -22.7654  -29.2329   19.8502 H   0  0  0  0  0  0
  -25.1310  -36.1870   25.0804 H   0  0  0  0  0  0
  -20.9967  -28.3281   24.1417 H   0  0  0  0  0  0
  -20.5733  -26.2315   23.3631 H   0  0  0  0  0  0
  -21.6644  -26.7487   22.1190 H   0  0  0  0  0  0
  -19.6919  -25.6297   21.1289 H   0  0  0  0  0  0
  -19.6711  -27.3193   20.6781 H   0  0  0  0  0  0
  -17.4214  -26.6753   21.4000 H   0  0  0  0  0  0
  -18.0257  -26.0121   22.9016 H   0  0  0  0  0  0
  -19.7949  -30.7304   24.2254 H   0  0  0  0  0  0
  -17.5030  -31.6300   24.5169 H   0  0  0  0  0  0
  -15.5358  -30.3019   23.7695 H   0  0  0  0  0  0
  -15.8665  -28.0872   22.7050 H   0  0  0  0  0  0
  -24.5910  -30.7105   25.7764 H   0  0  0  0  0  0
  -24.8955  -32.2936   26.4822 H   0  0  0  0  0  0
  -25.8073  -30.8948   27.0209 H   0  0  0  0  0  0
  -26.2953  -29.6739   24.1238 H   0  0  0  0  0  0
  -27.4143  -29.7294   25.4669 H   0  0  0  0  0  0
  -27.8779  -30.4326   23.9348 H   0  0  0  0  0  0
  -27.2678  -33.3693   26.1945 H   0  0  0  0  0  0
  -28.3927  -32.6839   25.0325 H   0  0  0  0  0  0
  -28.0657  -31.8528   26.5475 H   0  0  0  0  0  0
  -28.2565  -38.0116   24.7522 H   0  0  0  0  0  0
  -28.1108  -36.2646   24.6248 H   0  0  0  0  0  0
  -27.2294  -37.1382   25.8861 H   0  0  0  0  0  0
  -20.9359  -29.8807   21.6930 H   0  0  0  0  0  0
  -26.0156  -38.2822   24.1444 H   0  0  0  0  0  0
  -32.0067  -16.9422   19.1727 H   0  0  0  0  0  0
  -32.5548  -19.1792   18.5982 H   0  0  0  0  0  0
  -28.4291  -18.3470   21.1640 H   0  0  0  0  0  0
  -27.9108  -24.9936   18.6605 H   0  0  0  0  0  0
  -29.5228  -24.9738   19.2720 H   0  0  0  0  0  0
  -31.8518  -21.3331   18.2541 H   0  0  0  0  0  0
  -31.9353  -21.8104   19.7785 H   0  0  0  0  0  0
  -28.9238  -15.7766   20.9231 H   0  0  0  0  0  0
  -29.6732  -22.3983   19.4749 H   0  0  0  0  0  0
  -27.7427  -20.0751   22.0873 H   0  0  0  0  0  0
  -27.3107  -21.7624   21.9448 H   0  0  0  0  0  0
  1 25  1  0  0  0
  1 30  2  0  0  0
  1 81  1  0  0  0
  2  3  1  0  0  0
  2 25  1  0  0  0
  2 85  1  0  0  0
  2 86  1  0  0  0
  3  4  1  0  0  0
  3 87  1  0  0  0
  3 88  1  0  0  0
  4  5  1  0  0  0
  4 89  1  0  0  0
  4 90  1  0  0  0
  5  6  1  0  0  0
  5 26  1  0  0  0
  5 91  1  0  0  0
  6 25  1  0  0  0
  6 92  1  0  0  0
  6 93  1  0  0  0
  7  8  2  0  0  0
  7 26  1  0  0  0
  7 29  1  0  0  0
  8  9  1  0  0  0
  8 22  1  0  0  0
  9 10  1  0  0  0
  9 27  2  0  0  0
 10 11  2  0  0  0
 10 15  1  0  0  0
 11 12  1  0  0  0
 11 94  1  0  0  0
 12 13  2  0  0  0
 12 95  1  0  0  0
 13 14  1  0  0  0
 13 31  1  0  0  0
 14 15  2  0  0  0
 14 96  1  0  0  0
 15 97  1  0  0  0
 16 17  2  0  0  0
 16 21  1  0  0  0
 16 31  1  0  0  0
 17 18  1  0  0  0
 17 98  1  0  0  0
 18 19  2  0  0  0
 18 99  1  0  0  0
 19 20  1  0  0  0
 19 24  1  0  0  0
 20 21  2  0  0  0
 20100  1  0  0  0
 21 23  1  0  0  0
 22 28  1  0  0  0
 22 32  2  0  0  0
 26 27  1  0  0  0
 28101  1  0  0  0
 28102  1  0  0  0
 29103  1  0  0  0
 29104  1  0  0  0
 33 34  1  0  0  0
 33 66  1  0  0  0
 33 70  2  0  0  0
 34 36  1  0  0  0
 34 59  1  0  0  0
 34105  1  0  0  0
 35 44  2  0  0  0
 35 45  1  0  0  0
 35 68  1  0  0  0
 36 56  1  0  0  0
 36106  1  0  0  0
 37 39  1  0  0  0
 37 47  1  0  0  0
 37 66  1  0  0  0
 37107  1  0  0  0
 38 43  2  0  0  0
 38 46  1  0  0  0
 38 47  1  0  0  0
 39 64  1  0  0  0
 39 67  2  0  0  0
 40 52  1  0  0  0
 40 53  2  0  0  0
 40 58  1  0  0  0
 41108  1  0  0  0
 41109  1  0  0  0
 41110  1  0  0  0
 41 48  1  0  0  0
 42 43  1  0  0  0
 42 66  1  0  0  0
 42111  1  0  0  0
 42112  1  0  0  0
 43 44  1  0  0  0
 44113  1  0  0  0
 45 46  2  0  0  0
 45114  1  0  0  0
 46115  1  0  0  0
 47116  1  0  0  0
 47117  1  0  0  0
 48 56  1  0  0  0
 48 65  1  0  0  0
 48118  1  0  0  0
 49 50  1  0  0  0
 49 53  1  0  0  0
 49 64  1  0  0  0
 49119  1  0  0  0
 50 51  1  0  0  0
 50120  1  0  0  0
 50121  1  0  0  0
 51 52  1  0  0  0
 51122  1  0  0  0
 51123  1  0  0  0
 52124  1  0  0  0
 52125  1  0  0  0
 53 54  1  0  0  0
 54 55  2  0  0  0
 54126  1  0  0  0
 55 57  1  0  0  0
 55127  1  0  0  0
 56 69  2  0  0  0
 57 58  2  0  0  0
 57128  1  0  0  0
 58129  1  0  0  0
 59 60  1  0  0  0
 59 61  1  0  0  0
 59 62  1  0  0  0
 60130  1  0  0  0
 60131  1  0  0  0
 60132  1  0  0  0
 61133  1  0  0  0
 61134  1  0  0  0
 61135  1  0  0  0
 62136  1  0  0  0
 62137  1  0  0  0
 62138  1  0  0  0
 63 65  1  0  0  0
 63139  1  0  0  0
 63140  1  0  0  0
 63141  1  0  0  0
 64142  1  0  0  0
 65143  1  0  0  0
 68 79  1  0  0  0
 71 72  2  0  0  0
 71 75  1  0  0  0
 71144  1  0  0  0
 72 76  1  0  0  0
 72145  1  0  0  0
 73 74  1  0  0  0
 73 75  2  0  0  0
 73146  1  0  0  0
 74 76  2  0  0  0
 74 77  1  0  0  0
 75 81  1  0  0  0
 76 80  1  0  0  0
 77 82  1  0  0  0
 77 83  2  0  0  0
 78 79  1  0  0  0
 78 82  1  0  0  0
 78 84  2  0  0  0
 79147  1  0  0  0
 79148  1  0  0  0
 80149  1  0  0  0
 80150  1  0  0  0
 81151  1  0  0  0
 82152  1  0  0  0
 83153  1  0  0  0
 83154  1  0  0  0
M  CHG  1  83   1
M  ISO  4   1 100  68 101  79 101  81 100
M  END
> <chiral flag>
0

> <version>
0

> <s_m_source_file>
/data/baiqing/PycharmProjects/Reinvent-master-3.2/result/LINK_invent/BTK/process_docking_weight1_custom_product_contain_oxygen_bond_distance_aromatic_linkinvent_7_9_3/rearranged_h_0067.sdf

> <i_m_source_file_index>
57

> <r_mmod_Potential_Energy-OPLS-2005>
-28.2225131988525

> <r_mmod_Stretch_Energy-OPLS-2005>
140.921249389648

> <r_mmod_Bend_Energy-OPLS-2005>
187.734420776367

> <r_mmod_Torsional_Energy-OPLS-2005>
226.12385559082

> <r_mmod_Improper_Torsional_Energy-OPLS-2005>
11.2931909561157

> <r_mmod_Van_der_Waal_Energy-OPLS-2005>
161.138549804688

> <r_mmod_Electrostatic_Energy-OPLS-2005>
-397.933227539062

> <r_mmod_Solvation_Energy-OPLS-2005>
-450.071594238281

> <b_mmod_Minimization_Converged-OPLS-2005>
0

> <r_mmod_RMS_Derivative-OPLS-2005>
2.1679368019104

$$$$
57
                    3D
 Structure written by MMmdl.
159167  0  0  1  0            999 V2000
  -30.7680  -14.4651   20.6362 C   0  0  0  0  0  0
  -30.4045  -12.3130   19.4675 C   0  0  0  0  0  0
  -29.4843  -12.5085   18.2411 C   0  0  0  0  0  0
  -28.0118  -12.3599   18.6558 C   0  0  0  0  0  0
  -27.6628  -13.2203   19.8970 C   0  0  2  0  0  0
  -28.7046  -13.0374   21.0273 C   0  0  0  0  0  0
  -25.2606  -13.8234   20.5895 C   0  0  0  0  0  0
  -24.1851  -13.0471   20.9282 C   0  0  0  0  0  0
  -24.6404  -11.6937   20.8805 C   0  0  0  0  0  0
  -23.9055  -10.4308   21.0374 C   0  0  0  0  0  0
  -24.3585   -9.4221   21.9170 C   0  0  0  0  0  0
  -23.6276   -8.2226   22.0752 C   0  0  0  0  0  0
  -22.4262   -8.0256   21.3511 C   0  0  0  0  0  0
  -21.9887   -9.0249   20.4628 C   0  0  0  0  0  0
  -22.7226  -10.2130   20.3047 C   0  0  0  0  0  0
  -21.6833   -6.0727   22.5287 C   0  0  0  0  0  0
  -21.3995   -6.5613   23.8237 C   0  0  0  0  0  0
  -21.3691   -5.6766   24.9210 C   0  0  0  0  0  0
  -21.6046   -4.3016   24.7223 C   0  0  0  0  0  0
  -21.8819   -3.8133   23.4337 C   0  0  0  0  0  0
  -21.9182   -4.6961   22.3408 C   0  0  0  0  0  0
  -22.7822  -13.5205   21.1880 C   0  0  0  0  0  0
  -22.1634   -4.2150   21.0969 F   0  0  0  0  0  0
  -21.5651   -3.4481   25.7709 F   0  0  0  0  0  0
  -30.0461  -13.3179   20.4827 N   0  0  0  0  0  0
  -26.3051  -12.9435   20.3558 N   0  0  0  0  0  0
  -25.9354  -11.6555   20.5893 N   0  0  0  0  0  0
  -22.0373  -12.8269   22.0410 N   0  0  0  0  0  0
  -25.4256  -15.1965   20.4428 N   0  0  0  0  0  0
  -31.8360  -14.6611   20.0419 O   0  0  0  0  0  0
  -21.6603   -6.8857   21.4237 O   0  0  0  0  0  0
  -22.3512  -14.5472   20.6658 O   0  0  0  0  0  0
  -24.6215  -31.8661   23.2126 C   0  0  0  0  0  0
  -25.9085  -32.4823   23.8420 C   0  0  1  0  0  0
  -27.2182  -27.3694   20.0486 C   0  0  0  0  0  0
  -25.5907  -33.8619   24.2328 N   0  0  0  0  0  0
  -23.4084  -30.4961   21.5578 C   0  0  2  0  0  0
  -24.8476  -28.9641   20.1052 C   0  0  0  0  0  0
  -22.7459  -29.4657   22.5000 C   0  0  0  0  0  0
  -18.0283  -28.1377   22.8500 C   0  0  0  0  0  0
  -24.1468  -36.7302   23.2630 C   0  0  0  0  0  0
  -25.9477  -30.8002   21.3839 C   0  0  0  0  0  0
  -26.0165  -29.4339   20.7151 C   0  0  0  0  0  0
  -27.1997  -28.6414   20.6916 C   0  0  0  0  0  0
  -26.0273  -26.9587   19.3992 C   0  0  0  0  0  0
  -24.8526  -27.7289   19.4435 C   0  0  0  0  0  0
  -23.6125  -29.8397   20.1692 C   0  0  0  0  0  0
  -25.4092  -36.3110   24.0340 C   0  0  1  0  0  0
  -20.5876  -28.3664   23.1313 C   0  0  2  0  0  0
  -20.6750  -26.9386   22.5421 C   0  0  0  0  0  0
  -19.5718  -26.6371   21.5215 C   0  0  0  0  0  0
  -18.1907  -26.7925   22.1640 C   0  0  0  0  0  0
  -19.1537  -28.8837   23.2907 C   0  0  0  0  0  0
  -18.9452  -30.1441   23.8917 C   0  0  0  0  0  0
  -17.6450  -30.6576   24.0557 C   0  0  0  0  0  0
  -25.9050  -34.9477   23.5140 C   0  0  0  0  0  0
  -16.5346  -29.9072   23.6320 C   0  0  0  0  0  0
  -16.7270  -28.6489   23.0354 C   0  0  0  0  0  0
  -26.4462  -31.6615   25.0773 C   0  0  0  0  0  0
  -25.3699  -31.3733   26.1505 C   0  0  0  0  0  0
  -27.0291  -30.3045   24.6209 C   0  0  0  0  0  0
  -27.6046  -32.4339   25.7510 C   0  0  0  0  0  0
  -27.5603  -37.1771   24.8430 C   0  0  0  0  0  0
  -21.4182  -29.3058   22.3753 N   0  0  0  0  0  0
  -26.4260  -37.3817   23.9454 N   0  0  0  0  0  0
  -24.6777  -31.0692   22.1075 N   0  0  0  0  0  0
  -23.4218  -28.8169   23.3025 O   0  0  0  0  0  0
  -28.3623  -26.5630   20.0615 O   0  0  0  0  0  0
  -26.5621  -34.8928   22.4711 O   0  0  0  0  0  0
  -23.5397  -32.1434   23.7483 O   0  0  0  0  0  0
  -31.4613  -19.5010   21.5095 C   0  0  0  0  0  0
  -31.8519  -17.1803   22.1715 C   0  0  0  0  0  0
  -30.2755  -19.1433   20.8291 C   0  0  0  0  0  0
  -30.6798  -16.7783   21.4877 C   0  0  0  0  0  0
  -32.2337  -18.5373   22.1788 C   0  0  0  0  0  0
  -29.8881  -17.7655   20.8417 C   0  0  0  0  0  0
  -29.5146  -20.2023   20.1020 C   0  0  0  0  0  0
  -30.7230  -24.5751   20.0422 C   0  0  0  0  0  0
  -29.0625  -22.6756   19.5346 C   0  0  0  0  0  0
  -28.2634  -25.1822   19.5651 C   0  0  0  0  0  0
  -29.2595  -24.1123   20.1529 C   0  0  2  0  0  0
  -28.6254  -19.8276   19.1858 N   0  0  0  0  0  0
  -30.2696  -15.4019   21.4684 N   0  0  0  0  0  0
  -29.6878  -21.5420   20.3028 N   0  3  0  0  0  0
  -33.3530  -18.9248   22.8382 F   0  0  0  0  0  0
  -28.7647  -17.3448   20.2034 F   0  0  0  0  0  0
  -28.9686  -23.9817   21.4476 F   0  0  0  0  0  0
  -31.4531  -12.3709   19.1844 H   0  0  0  0  0  0
  -30.2726  -11.3142   19.8851 H   0  0  0  0  0  0
  -29.7269  -11.7841   17.4656 H   0  0  0  0  0  0
  -29.6432  -13.4935   17.8018 H   0  0  0  0  0  0
  -27.8357  -11.3095   18.8814 H   0  0  0  0  0  0
  -27.3526  -12.6080   17.8268 H   0  0  0  0  0  0
  -27.7033  -14.2630   19.5805 H   0  0  0  0  0  0
  -28.6730  -12.0185   21.4139 H   0  0  0  0  0  0
  -28.4551  -13.6640   21.8841 H   0  0  0  0  0  0
  -25.2688   -9.5683   22.4810 H   0  0  0  0  0  0
  -23.9978   -7.4589   22.7458 H   0  0  0  0  0  0
  -21.0828   -8.8784   19.8888 H   0  0  0  0  0  0
  -22.3674  -10.9702   19.6184 H   0  0  0  0  0  0
  -21.1941   -7.6112   23.9762 H   0  0  0  0  0  0
  -21.1540   -6.0466   25.9126 H   0  0  0  0  0  0
  -22.0565   -2.7599   23.2826 H   0  0  0  0  0  0
  -22.3885  -11.9977   22.5008 H   0  0  0  0  0  0
  -21.0993  -13.1401   22.2408 H   0  0  0  0  0  0
  -24.6628  -15.8437   20.6198 H   0  0  0  0  0  0
  -26.2886  -15.6534   20.1866 H   0  0  0  0  0  0
  -26.7148  -32.5462   23.1170 H   0  0  0  0  0  0
  -25.0020  -33.9781   25.0443 H   0  0  0  0  0  0
  -22.6990  -31.3153   21.4284 H   0  0  0  0  0  0
  -23.3786  -35.9573   23.3188 H   0  0  0  0  0  0
  -24.3581  -36.9022   22.2066 H   0  0  0  0  0  0
  -23.7141  -37.6441   23.6709 H   0  0  0  0  0  0
  -26.0814  -31.5750   20.6273 H   0  0  0  0  0  0
  -26.8273  -30.8404   22.0131 H   0  0  0  0  0  0
  -28.0945  -28.9989   21.1781 H   0  0  0  0  0  0
  -25.9665  -26.0494   18.8214 H   0  0  0  0  0  0
  -23.9605  -27.3849   18.9367 H   0  0  0  0  0  0
  -23.7133  -30.6201   19.4140 H   0  0  0  0  0  0
  -22.7297  -29.2686   19.8763 H   0  0  0  0  0  0
  -25.1261  -36.1965   25.0830 H   0  0  0  0  0  0
  -20.9977  -28.3203   24.1431 H   0  0  0  0  0  0
  -20.5611  -26.2285   23.3625 H   0  0  0  0  0  0
  -21.6624  -26.7379   22.1230 H   0  0  0  0  0  0
  -19.6867  -25.6281   21.1245 H   0  0  0  0  0  0
  -19.6657  -27.3186   20.6746 H   0  0  0  0  0  0
  -17.4180  -26.6690   21.4032 H   0  0  0  0  0  0
  -18.0300  -26.0060   22.9028 H   0  0  0  0  0  0
  -19.7919  -30.7256   24.2317 H   0  0  0  0  0  0
  -17.4988  -31.6264   24.5158 H   0  0  0  0  0  0
  -15.5335  -30.2974   23.7641 H   0  0  0  0  0  0
  -15.8670  -28.0799   22.7078 H   0  0  0  0  0  0
  -24.5880  -30.7088   25.7793 H   0  0  0  0  0  0
  -24.8888  -32.2898   26.4930 H   0  0  0  0  0  0
  -25.8028  -30.8888   27.0270 H   0  0  0  0  0  0
  -26.2862  -29.6834   24.1201 H   0  0  0  0  0  0
  -27.3944  -29.7270   25.4704 H   0  0  0  0  0  0
  -27.8744  -30.4322   23.9451 H   0  0  0  0  0  0
  -27.2686  -33.3634   26.2102 H   0  0  0  0  0  0
  -28.3823  -32.6918   25.0314 H   0  0  0  0  0  0
  -28.0754  -31.8464   26.5398 H   0  0  0  0  0  0
  -28.2512  -38.0174   24.7689 H   0  0  0  0  0  0
  -28.1223  -36.2748   24.5994 H   0  0  0  0  0  0
  -27.2369  -37.1079   25.8824 H   0  0  0  0  0  0
  -20.9349  -29.8864   21.7041 H   0  0  0  0  0  0
  -26.0156  -38.2868   24.1579 H   0  0  0  0  0  0
  -31.7930  -20.5290   21.5279 H   0  0  0  0  0  0
  -32.4630  -16.4606   22.6930 H   0  0  0  0  0  0
  -31.0245  -24.7198   19.0003 H   0  0  0  0  0  0
  -31.4057  -23.8479   20.4852 H   0  0  0  0  0  0
  -30.8783  -25.5195   20.5629 H   0  0  0  0  0  0
  -29.4502  -22.6616   18.5116 H   0  0  0  0  0  0
  -27.9933  -22.4845   19.4444 H   0  0  0  0  0  0
  -27.2795  -24.7699   19.7887 H   0  0  0  0  0  0
  -28.3374  -25.1938   18.4747 H   0  0  0  0  0  0
  -28.4777  -18.8316   19.0807 H   0  0  0  0  0  0
  -27.9126  -20.4452   18.8350 H   0  0  0  0  0  0
  -29.4064  -15.1732   21.9362 H   0  0  0  0  0  0
  -30.2512  -21.8378   21.0894 H   0  0  0  0  0  0
  1 25  1  0  0  0
  1 30  2  0  0  0
  1 83  1  0  0  0
  2  3  1  0  0  0
  2 25  1  0  0  0
  2 88  1  0  0  0
  2 89  1  0  0  0
  3  4  1  0  0  0
  3 90  1  0  0  0
  3 91  1  0  0  0
  4  5  1  0  0  0
  4 92  1  0  0  0
  4 93  1  0  0  0
  5  6  1  0  0  0
  5 26  1  0  0  0
  5 94  1  0  0  0
  6 25  1  0  0  0
  6 95  1  0  0  0
  6 96  1  0  0  0
  7  8  2  0  0  0
  7 26  1  0  0  0
  7 29  1  0  0  0
  8  9  1  0  0  0
  8 22  1  0  0  0
  9 10  1  0  0  0
  9 27  2  0  0  0
 10 11  2  0  0  0
 10 15  1  0  0  0
 11 12  1  0  0  0
 11 97  1  0  0  0
 12 13  2  0  0  0
 12 98  1  0  0  0
 13 14  1  0  0  0
 13 31  1  0  0  0
 14 15  2  0  0  0
 14 99  1  0  0  0
 15100  1  0  0  0
 16 17  2  0  0  0
 16 21  1  0  0  0
 16 31  1  0  0  0
 17 18  1  0  0  0
 17101  1  0  0  0
 18 19  2  0  0  0
 18102  1  0  0  0
 19 20  1  0  0  0
 19 24  1  0  0  0
 20 21  2  0  0  0
 20103  1  0  0  0
 21 23  1  0  0  0
 22 28  1  0  0  0
 22 32  2  0  0  0
 26 27  1  0  0  0
 28104  1  0  0  0
 28105  1  0  0  0
 29106  1  0  0  0
 29107  1  0  0  0
 33 34  1  0  0  0
 33 66  1  0  0  0
 33 70  2  0  0  0
 34 36  1  0  0  0
 34 59  1  0  0  0
 34108  1  0  0  0
 35 44  2  0  0  0
 35 45  1  0  0  0
 35 68  1  0  0  0
 36 56  1  0  0  0
 36109  1  0  0  0
 37 39  1  0  0  0
 37 47  1  0  0  0
 37 66  1  0  0  0
 37110  1  0  0  0
 38 43  2  0  0  0
 38 46  1  0  0  0
 38 47  1  0  0  0
 39 64  1  0  0  0
 39 67  2  0  0  0
 40 52  1  0  0  0
 40 53  2  0  0  0
 40 58  1  0  0  0
 41111  1  0  0  0
 41112  1  0  0  0
 41113  1  0  0  0
 41 48  1  0  0  0
 42 43  1  0  0  0
 42 66  1  0  0  0
 42114  1  0  0  0
 42115  1  0  0  0
 43 44  1  0  0  0
 44116  1  0  0  0
 45 46  2  0  0  0
 45117  1  0  0  0
 46118  1  0  0  0
 47119  1  0  0  0
 47120  1  0  0  0
 48 56  1  0  0  0
 48 65  1  0  0  0
 48121  1  0  0  0
 49 50  1  0  0  0
 49 53  1  0  0  0
 49 64  1  0  0  0
 49122  1  0  0  0
 50 51  1  0  0  0
 50123  1  0  0  0
 50124  1  0  0  0
 51 52  1  0  0  0
 51125  1  0  0  0
 51126  1  0  0  0
 52127  1  0  0  0
 52128  1  0  0  0
 53 54  1  0  0  0
 54 55  2  0  0  0
 54129  1  0  0  0
 55 57  1  0  0  0
 55130  1  0  0  0
 56 69  2  0  0  0
 57 58  2  0  0  0
 57131  1  0  0  0
 58132  1  0  0  0
 59 60  1  0  0  0
 59 61  1  0  0  0
 59 62  1  0  0  0
 60133  1  0  0  0
 60134  1  0  0  0
 60135  1  0  0  0
 61136  1  0  0  0
 61137  1  0  0  0
 61138  1  0  0  0
 62139  1  0  0  0
 62140  1  0  0  0
 62141  1  0  0  0
 63 65  1  0  0  0
 63142  1  0  0  0
 63143  1  0  0  0
 63144  1  0  0  0
 64145  1  0  0  0
 65146  1  0  0  0
 68 80  1  0  0  0
 71 73  2  0  0  0
 71 75  1  0  0  0
 71147  1  0  0  0
 72 74  1  0  0  0
 72 75  2  0  0  0
 72148  1  0  0  0
 73 76  1  0  0  0
 73 77  1  0  0  0
 74 76  2  0  0  0
 74 83  1  0  0  0
 75 85  1  0  0  0
 76 86  1  0  0  0
 77 82  1  0  0  0
 77 84  2  0  0  0
 78149  1  0  0  0
 78150  1  0  0  0
 78151  1  0  0  0
 78 81  1  0  0  0
 79 81  1  0  0  0
 79 84  1  0  0  0
 79152  1  0  0  0
 79153  1  0  0  0
 80 81  1  0  0  0
 80154  1  0  0  0
 80155  1  0  0  0
 81 87  1  0  0  0
 82156  1  0  0  0
 82157  1  0  0  0
 83158  1  0  0  0
 84159  1  0  0  0
M  CHG  1  84   1
M  ISO  4   1 100  68 101  80 101  83 100
M  END
> <chiral flag>
0

> <version>
0

> <s_m_source_file>
/data/baiqing/PycharmProjects/Reinvent-master-3.2/result/LINK_invent/BTK/process_docking_weight1_custom_product_contain_oxygen_bond_distance_aromatic_linkinvent_7_9_3/rearranged_h_0067.sdf

> <i_m_source_file_index>
58

> <r_mmod_Potential_Energy-OPLS-2005>
-314.496459960938

> <r_mmod_Stretch_Energy-OPLS-2005>
57.0090103149414

> <r_mmod_Bend_Energy-OPLS-2005>
110.826156616211

> <r_mmod_Torsional_Energy-OPLS-2005>
237.283905029297

> <r_mmod_Improper_Torsional_Energy-OPLS-2005>
3.42078900337219

> <r_mmod_Van_der_Waal_Energy-OPLS-2005>
161.180465698242

> <r_mmod_Electrostatic_Energy-OPLS-2005>
-481.467590332031

> <r_mmod_Solvation_Energy-OPLS-2005>
-425.792633056641

> <b_mmod_Minimization_Converged-OPLS-2005>
0

> <r_mmod_RMS_Derivative-OPLS-2005>
7.26235723495483

$$$$
58
                    3D
 Structure written by MMmdl.
157166  0  0  1  0            999 V2000
  -30.6025  -14.7881   20.4047 C   0  0  0  0  0  0
  -30.4465  -12.4676   19.4872 C   0  0  0  0  0  0
  -29.5217  -12.4406   18.2494 C   0  0  0  0  0  0
  -28.0414  -12.3161   18.6592 C   0  0  0  0  0  0
  -27.6441  -13.2363   19.8440 C   0  0  2  0  0  0
  -28.6905  -13.1988   20.9796 C   0  0  0  0  0  0
  -25.2543  -13.8206   20.5707 C   0  0  0  0  0  0
  -24.1815  -13.0456   20.9197 C   0  0  0  0  0  0
  -24.6404  -11.6926   20.8745 C   0  0  0  0  0  0
  -23.9074  -10.4296   21.0407 C   0  0  0  0  0  0
  -24.3619   -9.4207   21.9179 C   0  0  0  0  0  0
  -23.6308   -8.2236   22.0737 C   0  0  0  0  0  0
  -22.4292   -8.0278   21.3527 C   0  0  0  0  0  0
  -21.9922   -9.0256   20.4637 C   0  0  0  0  0  0
  -22.7249  -10.2141   20.3055 C   0  0  0  0  0  0
  -21.6855   -6.0743   22.5264 C   0  0  0  0  0  0
  -21.4020   -6.5641   23.8200 C   0  0  0  0  0  0
  -21.3654   -5.6787   24.9156 C   0  0  0  0  0  0
  -21.6042   -4.3049   24.7206 C   0  0  0  0  0  0
  -21.8821   -3.8149   23.4322 C   0  0  0  0  0  0
  -21.9201   -4.6970   22.3384 C   0  0  0  0  0  0
  -22.7838  -13.5242   21.1866 C   0  0  0  0  0  0
  -22.1667   -4.2155   21.0963 F   0  0  0  0  0  0
  -21.5635   -3.4530   25.7715 F   0  0  0  0  0  0
  -29.9863  -13.5529   20.3892 N   0  0  0  0  0  0
  -26.2964  -12.9419   20.3272 N   0  0  0  0  0  0
  -25.9335  -11.6558   20.5750 N   0  0  0  0  0  0
  -22.0486  -12.8218   22.0416 N   0  0  0  0  0  0
  -25.4300  -15.1928   20.4158 N   0  0  0  0  0  0
  -31.8009  -14.8632   20.1224 O   0  0  0  0  0  0
  -21.6642   -6.8885   21.4230 O   0  0  0  0  0  0
  -22.3521  -14.5553   20.6727 O   0  0  0  0  0  0
  -24.6328  -31.8554   23.1999 C   0  0  0  0  0  0
  -25.9142  -32.4761   23.8354 C   0  0  1  0  0  0
  -27.2241  -27.2479   20.1238 C   0  0  0  0  0  0
  -25.5929  -33.8562   24.2272 N   0  0  0  0  0  0
  -23.4313  -30.4799   21.5438 C   0  0  2  0  0  0
  -24.8831  -28.9370   20.1048 C   0  0  0  0  0  0
  -22.7520  -29.4602   22.4899 C   0  0  0  0  0  0
  -18.0295  -28.1392   22.8492 C   0  0  0  0  0  0
  -24.1484  -36.7277   23.2645 C   0  0  0  0  0  0
  -25.9820  -30.7616   21.3889 C   0  0  0  0  0  0
  -26.0547  -29.3851   20.7275 C   0  0  0  0  0  0
  -27.2240  -28.5525   20.7342 C   0  0  0  0  0  0
  -26.0313  -26.8973   19.4405 C   0  0  0  0  0  0
  -24.8798  -27.7016   19.4475 C   0  0  0  0  0  0
  -23.6512  -29.8202   20.1582 C   0  0  0  0  0  0
  -25.4111  -36.3074   24.0337 C   0  0  1  0  0  0
  -20.5905  -28.3703   23.1265 C   0  0  2  0  0  0
  -20.6782  -26.9415   22.5411 C   0  0  0  0  0  0
  -19.5754  -26.6389   21.5218 C   0  0  0  0  0  0
  -18.1934  -26.7937   22.1633 C   0  0  0  0  0  0
  -19.1551  -28.8866   23.2878 C   0  0  0  0  0  0
  -18.9464  -30.1466   23.8893 C   0  0  0  0  0  0
  -17.6461  -30.6592   24.0559 C   0  0  0  0  0  0
  -25.9054  -34.9444   23.5111 C   0  0  0  0  0  0
  -16.5353  -29.9086   23.6336 C   0  0  0  0  0  0
  -16.7279  -28.6507   23.0361 C   0  0  0  0  0  0
  -26.4499  -31.6585   25.0745 C   0  0  0  0  0  0
  -25.3702  -31.3737   26.1447 C   0  0  0  0  0  0
  -27.0351  -30.2996   24.6252 C   0  0  0  0  0  0
  -27.6067  -32.4318   25.7503 C   0  0  0  0  0  0
  -27.5583  -37.1795   24.8464 C   0  0  0  0  0  0
  -21.4221  -29.3046   22.3647 N   0  0  0  0  0  0
  -26.4287  -37.3770   23.9413 N   0  0  0  0  0  0
  -24.7011  -31.0505   22.0994 N   0  0  0  0  0  0
  -23.4215  -28.8140   23.3000 O   0  0  0  0  0  0
  -28.2884  -26.3035   20.2155 O   0  0  0  0  0  0
  -26.5621  -34.8916   22.4676 O   0  0  0  0  0  0
  -23.5471  -32.1388   23.7268 O   0  0  0  0  0  0
  -30.1657  -18.5422   17.7522 C   0  0  0  0  0  0
  -29.9839  -19.7727   18.3981 C   0  0  0  0  0  0
  -29.7258  -23.2859   21.2918 C   0  0  0  0  0  0
  -29.6818  -18.5834   20.4965 C   0  0  0  0  0  0
  -30.0881  -17.3161   18.4440 C   0  0  0  0  0  0
  -28.7869  -23.5472   20.2413 C   0  0  0  0  0  0
  -29.6857  -19.8592   19.7713 C   0  0  0  0  0  0
  -29.9124  -17.2765   19.8609 C   0  0  0  0  0  0
  -30.0919  -21.9498   21.2755 C   0  0  0  0  0  0
  -28.6505  -22.2771   19.6618 C   0  0  0  0  0  0
  -30.1016  -16.0657   17.5817 C   0  0  0  0  0  0
  -27.9720  -24.8723   19.8492 C   0  0  0  0  0  0
  -29.4540  -21.2543   20.2506 N   0  0  0  0  0  0
  -29.8250  -15.9422   20.5450 N   0  0  0  0  0  0
  -30.9816  -21.3089   22.0843 O   0  0  0  0  0  0
  -27.8431  -21.9462   18.6133 O   0  0  0  0  0  0
  -31.4824  -12.6049   19.1725 H   0  0  0  0  0  0
  -30.4204  -11.5086   20.0051 H   0  0  0  0  0  0
  -29.7896  -11.5988   17.6083 H   0  0  0  0  0  0
  -29.6740  -13.3276   17.6407 H   0  0  0  0  0  0
  -27.8754  -11.2750   18.9384 H   0  0  0  0  0  0
  -27.3956  -12.5043   17.8011 H   0  0  0  0  0  0
  -27.6306  -14.2511   19.4426 H   0  0  0  0  0  0
  -28.7355  -12.2095   21.4384 H   0  0  0  0  0  0
  -28.4259  -13.8961   21.7758 H   0  0  0  0  0  0
  -25.2751   -9.5689   22.4772 H   0  0  0  0  0  0
  -24.0013   -7.4626   22.7462 H   0  0  0  0  0  0
  -21.0844   -8.8790   19.8953 H   0  0  0  0  0  0
  -22.3701  -10.9688   19.6183 H   0  0  0  0  0  0
  -21.2014   -7.6150   23.9699 H   0  0  0  0  0  0
  -21.1482   -6.0513   25.9059 H   0  0  0  0  0  0
  -22.0616   -2.7617   23.2796 H   0  0  0  0  0  0
  -22.4103  -11.9858   22.4752 H   0  0  0  0  0  0
  -21.1119  -13.1250   22.2666 H   0  0  0  0  0  0
  -24.6747  -15.8564   20.5433 H   0  0  0  0  0  0
  -26.2883  -15.6265   20.0998 H   0  0  0  0  0  0
  -26.7209  -32.5409   23.1098 H   0  0  0  0  0  0
  -25.0071  -33.9695   25.0414 H   0  0  0  0  0  0
  -22.7288  -31.3034   21.3991 H   0  0  0  0  0  0
  -23.3757  -35.9598   23.3294 H   0  0  0  0  0  0
  -24.3587  -36.8905   22.2066 H   0  0  0  0  0  0
  -23.7220  -37.6470   23.6666 H   0  0  0  0  0  0
  -26.1280  -31.5227   20.6206 H   0  0  0  0  0  0
  -26.8572  -30.8074   22.0260 H   0  0  0  0  0  0
  -28.1102  -28.8875   21.2558 H   0  0  0  0  0  0
  -25.9398  -25.9710   18.8949 H   0  0  0  0  0  0
  -23.9919  -27.3618   18.9320 H   0  0  0  0  0  0
  -23.7667  -30.5977   19.4022 H   0  0  0  0  0  0
  -22.7720  -29.2476   19.8571 H   0  0  0  0  0  0
  -25.1291  -36.1933   25.0830 H   0  0  0  0  0  0
  -21.0008  -28.3283   24.1384 H   0  0  0  0  0  0
  -20.5690  -26.2312   23.3621 H   0  0  0  0  0  0
  -21.6647  -26.7439   22.1201 H   0  0  0  0  0  0
  -19.6910  -25.6297   21.1259 H   0  0  0  0  0  0
  -19.6694  -27.3195   20.6746 H   0  0  0  0  0  0
  -17.4208  -26.6695   21.4030 H   0  0  0  0  0  0
  -18.0317  -26.0085   22.9034 H   0  0  0  0  0  0
  -19.7935  -30.7286   24.2266 H   0  0  0  0  0  0
  -17.5010  -31.6273   24.5160 H   0  0  0  0  0  0
  -15.5350  -30.2981   23.7657 H   0  0  0  0  0  0
  -15.8686  -28.0817   22.7079 H   0  0  0  0  0  0
  -24.5898  -30.7064   25.7761 H   0  0  0  0  0  0
  -24.8859  -32.2902   26.4831 H   0  0  0  0  0  0
  -25.8005  -30.8943   27.0248 H   0  0  0  0  0  0
  -26.2948  -29.6740   24.1251 H   0  0  0  0  0  0
  -27.3989  -29.7265   25.4792 H   0  0  0  0  0  0
  -27.8846  -30.4255   23.9534 H   0  0  0  0  0  0
  -27.2700  -33.3637   26.2052 H   0  0  0  0  0  0
  -28.3883  -32.6841   25.0324 H   0  0  0  0  0  0
  -28.0720  -31.8452   26.5434 H   0  0  0  0  0  0
  -28.2591  -38.0103   24.7521 H   0  0  0  0  0  0
  -28.1089  -36.2633   24.6269 H   0  0  0  0  0  0
  -27.2306  -37.1415   25.8869 H   0  0  0  0  0  0
  -20.9409  -29.8763   21.6842 H   0  0  0  0  0  0
  -26.0173  -38.2847   24.1407 H   0  0  0  0  0  0
  -30.3286  -18.5499   16.6840 H   0  0  0  0  0  0
  -30.0381  -20.6753   17.8070 H   0  0  0  0  0  0
  -30.0957  -24.0176   21.9975 H   0  0  0  0  0  0
  -29.4859  -18.6126   21.5584 H   0  0  0  0  0  0
  -30.0588  -16.3039   16.5183 H   0  0  0  0  0  0
  -29.2205  -15.4659   17.8035 H   0  0  0  0  0  0
  -31.0016  -15.4745   17.7389 H   0  0  0  0  0  0
  -26.9817  -24.6393   20.2423 H   0  0  0  0  0  0
  -27.8953  -24.8508   18.7618 H   0  0  0  0  0  0
  -28.9398  -15.7755   20.9984 H   0  0  0  0  0  0
  -31.3216  -21.9436   22.7088 H   0  0  0  0  0  0
  -27.4025  -22.7338   18.3134 H   0  0  0  0  0  0
  1 25  1  0  0  0
  1 30  2  0  0  0
  1 84  1  0  0  0
  2  3  1  0  0  0
  2 25  1  0  0  0
  2 87  1  0  0  0
  2 88  1  0  0  0
  3  4  1  0  0  0
  3 89  1  0  0  0
  3 90  1  0  0  0
  4  5  1  0  0  0
  4 91  1  0  0  0
  4 92  1  0  0  0
  5  6  1  0  0  0
  5 26  1  0  0  0
  5 93  1  0  0  0
  6 25  1  0  0  0
  6 94  1  0  0  0
  6 95  1  0  0  0
  7  8  2  0  0  0
  7 26  1  0  0  0
  7 29  1  0  0  0
  8  9  1  0  0  0
  8 22  1  0  0  0
  9 10  1  0  0  0
  9 27  2  0  0  0
 10 11  2  0  0  0
 10 15  1  0  0  0
 11 12  1  0  0  0
 11 96  1  0  0  0
 12 13  2  0  0  0
 12 97  1  0  0  0
 13 14  1  0  0  0
 13 31  1  0  0  0
 14 15  2  0  0  0
 14 98  1  0  0  0
 15 99  1  0  0  0
 16 17  2  0  0  0
 16 21  1  0  0  0
 16 31  1  0  0  0
 17 18  1  0  0  0
 17100  1  0  0  0
 18 19  2  0  0  0
 18101  1  0  0  0
 19 20  1  0  0  0
 19 24  1  0  0  0
 20 21  2  0  0  0
 20102  1  0  0  0
 21 23  1  0  0  0
 22 28  1  0  0  0
 22 32  2  0  0  0
 26 27  1  0  0  0
 28103  1  0  0  0
 28104  1  0  0  0
 29105  1  0  0  0
 29106  1  0  0  0
 33 34  1  0  0  0
 33 66  1  0  0  0
 33 70  2  0  0  0
 34 36  1  0  0  0
 34 59  1  0  0  0
 34107  1  0  0  0
 35 44  2  0  0  0
 35 45  1  0  0  0
 35 68  1  0  0  0
 36 56  1  0  0  0
 36108  1  0  0  0
 37 39  1  0  0  0
 37 47  1  0  0  0
 37 66  1  0  0  0
 37109  1  0  0  0
 38 43  2  0  0  0
 38 46  1  0  0  0
 38 47  1  0  0  0
 39 64  1  0  0  0
 39 67  2  0  0  0
 40 52  1  0  0  0
 40 53  2  0  0  0
 40 58  1  0  0  0
 41110  1  0  0  0
 41111  1  0  0  0
 41112  1  0  0  0
 41 48  1  0  0  0
 42 43  1  0  0  0
 42 66  1  0  0  0
 42113  1  0  0  0
 42114  1  0  0  0
 43 44  1  0  0  0
 44115  1  0  0  0
 45 46  2  0  0  0
 45116  1  0  0  0
 46117  1  0  0  0
 47118  1  0  0  0
 47119  1  0  0  0
 48 56  1  0  0  0
 48 65  1  0  0  0
 48120  1  0  0  0
 49 50  1  0  0  0
 49 53  1  0  0  0
 49 64  1  0  0  0
 49121  1  0  0  0
 50 51  1  0  0  0
 50122  1  0  0  0
 50123  1  0  0  0
 51 52  1  0  0  0
 51124  1  0  0  0
 51125  1  0  0  0
 52126  1  0  0  0
 52127  1  0  0  0
 53 54  1  0  0  0
 54 55  2  0  0  0
 54128  1  0  0  0
 55 57  1  0  0  0
 55129  1  0  0  0
 56 69  2  0  0  0
 57 58  2  0  0  0
 57130  1  0  0  0
 58131  1  0  0  0
 59 60  1  0  0  0
 59 61  1  0  0  0
 59 62  1  0  0  0
 60132  1  0  0  0
 60133  1  0  0  0
 60134  1  0  0  0
 61135  1  0  0  0
 61136  1  0  0  0
 61137  1  0  0  0
 62138  1  0  0  0
 62139  1  0  0  0
 62140  1  0  0  0
 63 65  1  0  0  0
 63141  1  0  0  0
 63142  1  0  0  0
 63143  1  0  0  0
 64144  1  0  0  0
 65145  1  0  0  0
 68 82  1  0  0  0
 71 72  2  0  0  0
 71 75  1  0  0  0
 71146  1  0  0  0
 72 77  1  0  0  0
 72147  1  0  0  0
 73 76  1  0  0  0
 73 79  2  0  0  0
 73148  1  0  0  0
 74 77  2  0  0  0
 74 78  1  0  0  0
 74149  1  0  0  0
 75 78  2  0  0  0
 75 81  1  0  0  0
 76 80  2  0  0  0
 76 82  1  0  0  0
 77 83  1  0  0  0
 78 84  1  0  0  0
 79 83  1  0  0  0
 79 85  1  0  0  0
 80 83  1  0  0  0
 80 86  1  0  0  0
 81150  1  0  0  0
 81151  1  0  0  0
 81152  1  0  0  0
 82153  1  0  0  0
 82154  1  0  0  0
 84155  1  0  0  0
 85156  1  0  0  0
 86157  1  0  0  0
M  ISO  4   1 100  68 101  82 101  84 100
M  END
> <chiral flag>
0

> <version>
0

> <s_m_source_file>
/data/baiqing/PycharmProjects/Reinvent-master-3.2/result/LINK_invent/BTK/process_docking_weight1_custom_product_contain_oxygen_bond_distance_aromatic_linkinvent_7_9_3/rearranged_h_0067.sdf

> <i_m_source_file_index>
59

> <r_mmod_Potential_Energy-OPLS-2005>
263.935150146484

> <r_mmod_Stretch_Energy-OPLS-2005>
138.593322753906

> <r_mmod_Bend_Energy-OPLS-2005>
184.003005981445

> <r_mmod_Torsional_Energy-OPLS-2005>
263.932739257812

> <r_mmod_Improper_Torsional_Energy-OPLS-2005>
6.57475519180298

> <r_mmod_Van_der_Waal_Energy-OPLS-2005>
145.012420654297

> <r_mmod_Electrostatic_Energy-OPLS-2005>
-340.925140380859

> <r_mmod_Solvation_Energy-OPLS-2005>
-240.818115234375

> <b_mmod_Minimization_Converged-OPLS-2005>
0

> <r_mmod_RMS_Derivative-OPLS-2005>
2.10915064811707

$$$$
59
                    3D
 Structure written by MMmdl.
158167  0  0  1  0            999 V2000
  -30.6115  -14.6485   20.5051 C   0  0  0  0  0  0
  -30.4384  -12.3996   19.4464 C   0  0  0  0  0  0
  -29.5067  -12.5139   18.2183 C   0  0  0  0  0  0
  -28.0273  -12.3521   18.6265 C   0  0  0  0  0  0
  -27.6509  -13.2146   19.8608 C   0  0  2  0  0  0
  -28.6979  -13.0635   20.9875 C   0  0  0  0  0  0
  -25.2547  -13.8155   20.5669 C   0  0  0  0  0  0
  -24.1822  -13.0425   20.9196 C   0  0  0  0  0  0
  -24.6387  -11.6897   20.8731 C   0  0  0  0  0  0
  -23.9051  -10.4285   21.0396 C   0  0  0  0  0  0
  -24.3609   -9.4199   21.9169 C   0  0  0  0  0  0
  -23.6291   -8.2232   22.0743 C   0  0  0  0  0  0
  -22.4270   -8.0272   21.3540 C   0  0  0  0  0  0
  -21.9900   -9.0242   20.4639 C   0  0  0  0  0  0
  -22.7224  -10.2123   20.3045 C   0  0  0  0  0  0
  -21.6852   -6.0723   22.5279 C   0  0  0  0  0  0
  -21.4017   -6.5631   23.8211 C   0  0  0  0  0  0
  -21.3658   -5.6787   24.9178 C   0  0  0  0  0  0
  -21.6045   -4.3050   24.7236 C   0  0  0  0  0  0
  -21.8815   -3.8135   23.4358 C   0  0  0  0  0  0
  -21.9197   -4.6949   22.3409 C   0  0  0  0  0  0
  -22.7848  -13.5217   21.1863 C   0  0  0  0  0  0
  -22.1661   -4.2131   21.0988 F   0  0  0  0  0  0
  -21.5628   -3.4540   25.7748 F   0  0  0  0  0  0
  -30.0097  -13.4182   20.4247 N   0  0  0  0  0  0
  -26.2968  -12.9332   20.3291 N   0  0  0  0  0  0
  -25.9313  -11.6491   20.5735 N   0  0  0  0  0  0
  -22.0499  -12.8207   22.0425 N   0  0  0  0  0  0
  -25.4252  -15.1873   20.4039 N   0  0  0  0  0  0
  -31.7855  -14.8118   20.1586 O   0  0  0  0  0  0
  -21.6638   -6.8867   21.4241 O   0  0  0  0  0  0
  -22.3523  -14.5516   20.6702 O   0  0  0  0  0  0
  -24.6231  -31.8603   23.2005 C   0  0  0  0  0  0
  -25.9076  -32.4785   23.8355 C   0  0  1  0  0  0
  -27.2280  -27.3193   20.1189 C   0  0  0  0  0  0
  -25.5898  -33.8587   24.2285 N   0  0  0  0  0  0
  -23.4185  -30.4875   21.5400 C   0  0  2  0  0  0
  -24.8679  -28.9405   20.1073 C   0  0  0  0  0  0
  -22.7467  -29.4659   22.4872 C   0  0  0  0  0  0
  -18.0300  -28.1384   22.8492 C   0  0  0  0  0  0
  -24.1481  -36.7300   23.2637 C   0  0  0  0  0  0
  -25.9599  -30.7920   21.3736 C   0  0  0  0  0  0
  -26.0356  -29.4190   20.7166 C   0  0  0  0  0  0
  -27.2190  -28.6200   20.7109 C   0  0  0  0  0  0
  -26.0353  -26.8955   19.4860 C   0  0  0  0  0  0
  -24.8705  -27.6847   19.4832 C   0  0  0  0  0  0
  -23.6379  -29.8240   20.1548 C   0  0  0  0  0  0
  -25.4107  -36.3095   24.0337 C   0  0  1  0  0  0
  -20.5903  -28.3706   23.1257 C   0  0  2  0  0  0
  -20.6792  -26.9428   22.5397 C   0  0  0  0  0  0
  -19.5780  -26.6391   21.5188 C   0  0  0  0  0  0
  -18.1952  -26.7939   22.1599 C   0  0  0  0  0  0
  -19.1554  -28.8860   23.2881 C   0  0  0  0  0  0
  -18.9482  -30.1454   23.8913 C   0  0  0  0  0  0
  -17.6484  -30.6598   24.0574 C   0  0  0  0  0  0
  -25.9047  -34.9466   23.5122 C   0  0  0  0  0  0
  -16.5377  -29.9105   23.6319 C   0  0  0  0  0  0
  -16.7291  -28.6514   23.0351 C   0  0  0  0  0  0
  -26.4470  -31.6583   25.0710 C   0  0  0  0  0  0
  -25.3720  -31.3740   26.1457 C   0  0  0  0  0  0
  -27.0286  -30.3006   24.6147 C   0  0  0  0  0  0
  -27.6049  -32.4276   25.7480 C   0  0  0  0  0  0
  -27.5590  -37.1801   24.8466 C   0  0  0  0  0  0
  -21.4172  -29.3068   22.3639 N   0  0  0  0  0  0
  -26.4287  -37.3784   23.9427 N   0  0  0  0  0  0
  -24.6856  -31.0632   22.0953 N   0  0  0  0  0  0
  -23.4195  -28.8199   23.2954 O   0  0  0  0  0  0
  -28.3484  -26.4708   20.1696 O   0  0  0  0  0  0
  -26.5608  -34.8933   22.4685 O   0  0  0  0  0  0
  -23.5399  -32.1392   23.7342 O   0  0  0  0  0  0
  -28.8777  -19.4001   20.3286 C   0  0  0  0  0  0
  -28.8170  -17.9710   20.3473 C   0  0  0  0  0  0
  -31.1071  -17.8508   21.0711 C   0  0  0  0  0  0
  -30.0532  -20.0981   20.7020 C   0  0  0  0  0  0
  -31.1613  -19.2799   21.0740 C   0  0  0  0  0  0
  -29.9270  -17.1530   20.7100 C   0  0  0  0  0  0
  -32.4323  -19.9736   21.5266 C   0  0  0  0  0  0
  -32.1046  -21.1409   22.4647 C   0  0  0  0  0  0
  -31.0966  -22.1558   21.8832 C   0  0  0  0  0  0
  -30.2328  -21.6729   20.6829 C   0  0  2  0  0  0
  -28.1279  -25.0048   20.0818 C   0  0  0  0  0  0
  -29.3270  -24.0210   20.4330 C   0  0  0  0  0  0
  -29.7701  -15.6974   20.7798 N   0  0  0  0  0  0
  -29.0650  -22.5613   20.5144 O   0  0  0  0  0  0
  -31.4793  -12.5315   19.1456 H   0  0  0  0  0  0
  -30.3774  -11.4025   19.8847 H   0  0  0  0  0  0
  -29.7729  -11.7661   17.4703 H   0  0  0  0  0  0
  -29.6479  -13.4850   17.7409 H   0  0  0  0  0  0
  -27.8561  -11.2973   18.8445 H   0  0  0  0  0  0
  -27.3753  -12.5957   17.7861 H   0  0  0  0  0  0
  -27.6682  -14.2503   19.5225 H   0  0  0  0  0  0
  -28.7142  -12.0351   21.3535 H   0  0  0  0  0  0
  -28.4432  -13.6825   21.8494 H   0  0  0  0  0  0
  -25.2766   -9.5675   22.4730 H   0  0  0  0  0  0
  -24.0008   -7.4620   22.7454 H   0  0  0  0  0  0
  -21.0832   -8.8751   19.8950 H   0  0  0  0  0  0
  -22.3679  -10.9653   19.6144 H   0  0  0  0  0  0
  -21.2007   -7.6139   23.9710 H   0  0  0  0  0  0
  -21.1484   -6.0521   25.9078 H   0  0  0  0  0  0
  -22.0597   -2.7597   23.2867 H   0  0  0  0  0  0
  -22.4145  -11.9885   22.4822 H   0  0  0  0  0  0
  -21.1099  -13.1194   22.2621 H   0  0  0  0  0  0
  -24.6527  -15.8380   20.5020 H   0  0  0  0  0  0
  -26.2568  -15.6197   20.0244 H   0  0  0  0  0  0
  -26.7146  -32.5480   23.1109 H   0  0  0  0  0  0
  -25.0038  -33.9740   25.0430 H   0  0  0  0  0  0
  -22.7119  -31.3075   21.3958 H   0  0  0  0  0  0
  -23.3744  -35.9628   23.3297 H   0  0  0  0  0  0
  -24.3565  -36.8902   22.2046 H   0  0  0  0  0  0
  -23.7233  -37.6507   23.6654 H   0  0  0  0  0  0
  -26.0907  -31.5536   20.6027 H   0  0  0  0  0  0
  -26.8401  -30.8427   22.0023 H   0  0  0  0  0  0
  -28.1130  -28.9881   21.1958 H   0  0  0  0  0  0
  -25.9769  -25.9394   18.9895 H   0  0  0  0  0  0
  -23.9775  -27.3158   18.9968 H   0  0  0  0  0  0
  -23.7668  -30.6019   19.4020 H   0  0  0  0  0  0
  -22.7588  -29.2585   19.8427 H   0  0  0  0  0  0
  -25.1285  -36.1935   25.0824 H   0  0  0  0  0  0
  -21.0029  -28.3292   24.1367 H   0  0  0  0  0  0
  -20.5617  -26.2343   23.3601 H   0  0  0  0  0  0
  -21.6672  -26.7412   22.1241 H   0  0  0  0  0  0
  -19.6920  -25.6283   21.1244 H   0  0  0  0  0  0
  -19.6715  -27.3183   20.6703 H   0  0  0  0  0  0
  -17.4213  -26.6674   21.4012 H   0  0  0  0  0  0
  -18.0384  -26.0079   22.9007 H   0  0  0  0  0  0
  -19.7958  -30.7276   24.2289 H   0  0  0  0  0  0
  -17.5044  -31.6275   24.5182 H   0  0  0  0  0  0
  -15.5379  -30.3025   23.7628 H   0  0  0  0  0  0
  -15.8688  -28.0834   22.7067 H   0  0  0  0  0  0
  -24.5925  -30.7019   25.7849 H   0  0  0  0  0  0
  -24.8870  -32.2913   26.4824 H   0  0  0  0  0  0
  -25.8078  -30.9013   27.0275 H   0  0  0  0  0  0
  -26.2855  -29.6771   24.1164 H   0  0  0  0  0  0
  -27.3986  -29.7236   25.4634 H   0  0  0  0  0  0
  -27.8737  -30.4290   23.9373 H   0  0  0  0  0  0
  -27.2699  -33.3581   26.2080 H   0  0  0  0  0  0
  -28.3884  -32.6791   25.0322 H   0  0  0  0  0  0
  -28.0695  -31.8362   26.5381 H   0  0  0  0  0  0
  -28.2611  -38.0092   24.7525 H   0  0  0  0  0  0
  -28.1067  -36.2636   24.6265 H   0  0  0  0  0  0
  -27.2319  -37.1431   25.8865 H   0  0  0  0  0  0
  -20.9313  -29.8826   21.6904 H   0  0  0  0  0  0
  -26.0162  -38.2849   24.1439 H   0  0  0  0  0  0
  -28.0068  -19.9628   20.0240 H   0  0  0  0  0  0
  -27.8841  -17.5009   20.0678 H   0  0  0  0  0  0
  -31.9768  -17.2887   21.3831 H   0  0  0  0  0  0
  -32.9772  -20.3268   20.6496 H   0  0  0  0  0  0
  -33.0876  -19.2677   22.0404 H   0  0  0  0  0  0
  -33.0217  -21.6539   22.7600 H   0  0  0  0  0  0
  -31.6892  -20.7295   23.3862 H   0  0  0  0  0  0
  -31.6368  -23.0607   21.6021 H   0  0  0  0  0  0
  -30.4370  -22.4490   22.6999 H   0  0  0  0  0  0
  -30.8332  -21.8353   19.7861 H   0  0  0  0  0  0
  -27.2953  -24.7547   20.7422 H   0  0  0  0  0  0
  -27.8077  -24.7596   19.0688 H   0  0  0  0  0  0
  -29.7227  -24.3525   21.3928 H   0  0  0  0  0  0
  -30.1208  -24.1863   19.7022 H   0  0  0  0  0  0
  -28.8238  -15.3881   20.9383 H   0  0  0  0  0  0
  1 25  1  0  0  0
  1 30  2  0  0  0
  1 83  1  0  0  0
  2  3  1  0  0  0
  2 25  1  0  0  0
  2 85  1  0  0  0
  2 86  1  0  0  0
  3  4  1  0  0  0
  3 87  1  0  0  0
  3 88  1  0  0  0
  4  5  1  0  0  0
  4 89  1  0  0  0
  4 90  1  0  0  0
  5  6  1  0  0  0
  5 26  1  0  0  0
  5 91  1  0  0  0
  6 25  1  0  0  0
  6 92  1  0  0  0
  6 93  1  0  0  0
  7  8  2  0  0  0
  7 26  1  0  0  0
  7 29  1  0  0  0
  8  9  1  0  0  0
  8 22  1  0  0  0
  9 10  1  0  0  0
  9 27  2  0  0  0
 10 11  2  0  0  0
 10 15  1  0  0  0
 11 12  1  0  0  0
 11 94  1  0  0  0
 12 13  2  0  0  0
 12 95  1  0  0  0
 13 14  1  0  0  0
 13 31  1  0  0  0
 14 15  2  0  0  0
 14 96  1  0  0  0
 15 97  1  0  0  0
 16 17  2  0  0  0
 16 21  1  0  0  0
 16 31  1  0  0  0
 17 18  1  0  0  0
 17 98  1  0  0  0
 18 19  2  0  0  0
 18 99  1  0  0  0
 19 20  1  0  0  0
 19 24  1  0  0  0
 20 21  2  0  0  0
 20100  1  0  0  0
 21 23  1  0  0  0
 22 28  1  0  0  0
 22 32  2  0  0  0
 26 27  1  0  0  0
 28101  1  0  0  0
 28102  1  0  0  0
 29103  1  0  0  0
 29104  1  0  0  0
 33 34  1  0  0  0
 33 66  1  0  0  0
 33 70  2  0  0  0
 34 36  1  0  0  0
 34 59  1  0  0  0
 34105  1  0  0  0
 35 44  2  0  0  0
 35 45  1  0  0  0
 35 68  1  0  0  0
 36 56  1  0  0  0
 36106  1  0  0  0
 37 39  1  0  0  0
 37 47  1  0  0  0
 37 66  1  0  0  0
 37107  1  0  0  0
 38 43  2  0  0  0
 38 46  1  0  0  0
 38 47  1  0  0  0
 39 64  1  0  0  0
 39 67  2  0  0  0
 40 52  1  0  0  0
 40 53  2  0  0  0
 40 58  1  0  0  0
 41108  1  0  0  0
 41109  1  0  0  0
 41110  1  0  0  0
 41 48  1  0  0  0
 42 43  1  0  0  0
 42 66  1  0  0  0
 42111  1  0  0  0
 42112  1  0  0  0
 43 44  1  0  0  0
 44113  1  0  0  0
 45 46  2  0  0  0
 45114  1  0  0  0
 46115  1  0  0  0
 47116  1  0  0  0
 47117  1  0  0  0
 48 56  1  0  0  0
 48 65  1  0  0  0
 48118  1  0  0  0
 49 50  1  0  0  0
 49 53  1  0  0  0
 49 64  1  0  0  0
 49119  1  0  0  0
 50 51  1  0  0  0
 50120  1  0  0  0
 50121  1  0  0  0
 51 52  1  0  0  0
 51122  1  0  0  0
 51123  1  0  0  0
 52124  1  0  0  0
 52125  1  0  0  0
 53 54  1  0  0  0
 54 55  2  0  0  0
 54126  1  0  0  0
 55 57  1  0  0  0
 55127  1  0  0  0
 56 69  2  0  0  0
 57 58  2  0  0  0
 57128  1  0  0  0
 58129  1  0  0  0
 59 60  1  0  0  0
 59 61  1  0  0  0
 59 62  1  0  0  0
 60130  1  0  0  0
 60131  1  0  0  0
 60132  1  0  0  0
 61133  1  0  0  0
 61134  1  0  0  0
 61135  1  0  0  0
 62136  1  0  0  0
 62137  1  0  0  0
 62138  1  0  0  0
 63 65  1  0  0  0
 63139  1  0  0  0
 63140  1  0  0  0
 63141  1  0  0  0
 64142  1  0  0  0
 65143  1  0  0  0
 68 81  1  0  0  0
 71 72  2  0  0  0
 71 74  1  0  0  0
 71144  1  0  0  0
 72 76  1  0  0  0
 72145  1  0  0  0
 73 75  1  0  0  0
 73 76  2  0  0  0
 73146  1  0  0  0
 74 75  2  0  0  0
 74 80  1  0  0  0
 75 77  1  0  0  0
 76 83  1  0  0  0
 77 78  1  0  0  0
 77147  1  0  0  0
 77148  1  0  0  0
 78 79  1  0  0  0
 78149  1  0  0  0
 78150  1  0  0  0
 79 80  1  0  0  0
 79151  1  0  0  0
 79152  1  0  0  0
 80 84  1  0  0  0
 80153  1  0  0  0
 81 82  1  0  0  0
 81154  1  0  0  0
 81155  1  0  0  0
 82 84  1  0  0  0
 82156  1  0  0  0
 82157  1  0  0  0
 83158  1  0  0  0
M  ISO  4   1 100  68 101  81 101  83 100
M  END
> <chiral flag>
0

> <version>
0

> <s_m_source_file>
/data/baiqing/PycharmProjects/Reinvent-master-3.2/result/LINK_invent/BTK/process_docking_weight1_custom_product_contain_oxygen_bond_distance_aromatic_linkinvent_7_9_3/rearranged_h_0067.sdf

> <i_m_source_file_index>
60

> <r_mmod_Potential_Energy-OPLS-2005>
115.737640380859

> <r_mmod_Stretch_Energy-OPLS-2005>
88.0367889404297

> <r_mmod_Bend_Energy-OPLS-2005>
145.265045166016

> <r_mmod_Torsional_Energy-OPLS-2005>
243.815948486328

> <r_mmod_Improper_Torsional_Energy-OPLS-2005>
5.53668594360352

> <r_mmod_Van_der_Waal_Energy-OPLS-2005>
150.719787597656

> <r_mmod_Electrostatic_Energy-OPLS-2005>
-358.762054443359

> <r_mmod_Solvation_Energy-OPLS-2005>
-209.198165893555

> <b_mmod_Minimization_Converged-OPLS-2005>
0

> <r_mmod_RMS_Derivative-OPLS-2005>
2.62097597122192

$$$$
60
                    3D
 Structure written by MMmdl.
158166  0  0  1  0            999 V2000
  -30.6344  -14.7643   20.4611 C   0  0  0  0  0  0
  -30.4325  -12.4767   19.4543 C   0  0  0  0  0  0
  -29.5051  -12.5075   18.2220 C   0  0  0  0  0  0
  -28.0311  -12.3355   18.6446 C   0  0  0  0  0  0
  -27.6399  -13.2383   19.8454 C   0  0  2  0  0  0
  -28.6956  -13.1930   20.9732 C   0  0  0  0  0  0
  -25.2524  -13.8204   20.5746 C   0  0  0  0  0  0
  -24.1827  -13.0425   20.9245 C   0  0  0  0  0  0
  -24.6431  -11.6909   20.8769 C   0  0  0  0  0  0
  -23.9086  -10.4283   21.0399 C   0  0  0  0  0  0
  -24.3612   -9.4201   21.9178 C   0  0  0  0  0  0
  -23.6293   -8.2232   22.0755 C   0  0  0  0  0  0
  -22.4279   -8.0279   21.3546 C   0  0  0  0  0  0
  -21.9911   -9.0246   20.4646 C   0  0  0  0  0  0
  -22.7246  -10.2132   20.3059 C   0  0  0  0  0  0
  -21.6852   -6.0736   22.5268 C   0  0  0  0  0  0
  -21.4012   -6.5639   23.8203 C   0  0  0  0  0  0
  -21.3669   -5.6797   24.9175 C   0  0  0  0  0  0
  -21.6049   -4.3058   24.7224 C   0  0  0  0  0  0
  -21.8819   -3.8142   23.4348 C   0  0  0  0  0  0
  -21.9189   -4.6959   22.3404 C   0  0  0  0  0  0
  -22.7855  -13.5215   21.1870 C   0  0  0  0  0  0
  -22.1665   -4.2143   21.0982 F   0  0  0  0  0  0
  -21.5628   -3.4553   25.7740 F   0  0  0  0  0  0
  -29.9849  -13.5521   20.3668 N   0  0  0  0  0  0
  -26.2953  -12.9431   20.3309 N   0  0  0  0  0  0
  -25.9367  -11.6556   20.5744 N   0  0  0  0  0  0
  -22.0480  -12.8210   22.0422 N   0  0  0  0  0  0
  -25.4153  -15.1924   20.4149 N   0  0  0  0  0  0
  -31.8408  -14.8348   20.2151 O   0  0  0  0  0  0
  -21.6652   -6.8875   21.4237 O   0  0  0  0  0  0
  -22.3531  -14.5503   20.6714 O   0  0  0  0  0  0
  -24.6311  -31.8549   23.1975 C   0  0  0  0  0  0
  -25.9149  -32.4733   23.8310 C   0  0  1  0  0  0
  -27.2208  -27.2548   20.1118 C   0  0  0  0  0  0
  -25.5970  -33.8544   24.2230 N   0  0  0  0  0  0
  -23.4301  -30.4796   21.5405 C   0  0  2  0  0  0
  -24.8768  -28.9311   20.1039 C   0  0  0  0  0  0
  -22.7477  -29.4625   22.4864 C   0  0  0  0  0  0
  -18.0292  -28.1342   22.8579 C   0  0  0  0  0  0
  -24.1499  -36.7278   23.2631 C   0  0  0  0  0  0
  -25.9783  -30.7620   21.3858 C   0  0  0  0  0  0
  -26.0487  -29.3863   20.7214 C   0  0  0  0  0  0
  -27.2194  -28.5574   20.7253 C   0  0  0  0  0  0
  -26.0273  -26.8823   19.4481 C   0  0  0  0  0  0
  -24.8725  -27.6875   19.4576 C   0  0  0  0  0  0
  -23.6489  -29.8194   20.1544 C   0  0  0  0  0  0
  -25.4124  -36.3041   24.0291 C   0  0  1  0  0  0
  -20.5887  -28.3747   23.1230 C   0  0  2  0  0  0
  -20.6821  -26.9481   22.5332 C   0  0  0  0  0  0
  -19.5704  -26.6354   21.5269 C   0  0  0  0  0  0
  -18.1936  -26.7846   22.1816 C   0  0  0  0  0  0
  -19.1536  -28.8881   23.2878 C   0  0  0  0  0  0
  -18.9454  -30.1520   23.8812 C   0  0  0  0  0  0
  -17.6439  -30.6612   24.0578 C   0  0  0  0  0  0
  -25.9061  -34.9417   23.5047 C   0  0  0  0  0  0
  -16.5341  -29.9044   23.6401 C   0  0  0  0  0  0
  -16.7272  -28.6451   23.0446 C   0  0  0  0  0  0
  -26.4530  -31.6575   25.0715 C   0  0  0  0  0  0
  -25.3723  -31.3761   26.1409 C   0  0  0  0  0  0
  -27.0379  -30.2983   24.6223 C   0  0  0  0  0  0
  -27.6070  -32.4327   25.7508 C   0  0  0  0  0  0
  -27.5571  -37.1798   24.8457 C   0  0  0  0  0  0
  -21.4174  -29.3095   22.3617 N   0  0  0  0  0  0
  -26.4290  -37.3745   23.9381 N   0  0  0  0  0  0
  -24.6992  -31.0500   22.0972 N   0  0  0  0  0  0
  -23.4173  -28.8150   23.2941 O   0  0  0  0  0  0
  -28.3052  -26.3426   20.1846 O   0  0  0  0  0  0
  -26.5631  -34.8904   22.4623 O   0  0  0  0  0  0
  -23.5473  -32.1383   23.7294 O   0  0  0  0  0  0
  -29.6171  -17.0306   23.4527 C   0  0  0  0  0  0
  -30.6090  -16.9837   22.4492 C   0  0  0  0  0  0
  -28.1936  -18.3051   21.9622 C   0  0  0  0  0  0
  -28.3577  -17.5960   23.1699 C   0  0  0  0  0  0
  -30.2121  -17.2564   21.1176 C   0  0  0  0  0  0
  -29.2648  -18.3760   21.0435 C   0  0  0  0  0  0
  -28.9759  -23.7469   20.4565 C   0  0  0  0  0  0
  -29.0594  -20.9592   20.7686 C   0  0  0  0  0  0
  -25.9817  -17.4271   23.6405 C   0  0  0  0  0  0
  -29.0473  -22.2606   19.8278 C   0  0  0  0  0  0
  -28.1086  -24.9042   19.7620 C   0  0  0  0  0  0
  -29.4278  -19.6783   20.3298 N   0  0  0  0  0  0
  -29.8719  -15.9258   20.5499 N   0  0  0  0  0  0
  -27.3477  -17.5342   24.1361 N   0  0  0  0  0  0
  -29.6344  -24.0246   21.4641 O   0  0  0  0  0  0
  -28.7134  -21.1281   21.9400 O   0  0  0  0  0  0
  -31.4711  -12.6047   19.1488 H   0  0  0  0  0  0
  -30.3790  -11.5098   19.9563 H   0  0  0  0  0  0
  -29.7845  -11.7234   17.5179 H   0  0  0  0  0  0
  -29.6296  -13.4514   17.6872 H   0  0  0  0  0  0
  -27.8858  -11.2857   18.9100 H   0  0  0  0  0  0
  -27.3711  -12.5284   17.7968 H   0  0  0  0  0  0
  -27.6212  -14.2554   19.4538 H   0  0  0  0  0  0
  -28.7510  -12.1979   21.4191 H   0  0  0  0  0  0
  -28.4375  -13.8834   21.7789 H   0  0  0  0  0  0
  -25.2747   -9.5709   22.4775 H   0  0  0  0  0  0
  -24.0000   -7.4628   22.7493 H   0  0  0  0  0  0
  -21.0833   -8.8768   19.8958 H   0  0  0  0  0  0
  -22.3660  -10.9683   19.6184 H   0  0  0  0  0  0
  -21.2005   -7.6147   23.9706 H   0  0  0  0  0  0
  -21.1496   -6.0534   25.9075 H   0  0  0  0  0  0
  -22.0585   -2.7608   23.2856 H   0  0  0  0  0  0
  -22.4087  -11.9882   22.4842 H   0  0  0  0  0  0
  -21.1095  -13.1252   22.2590 H   0  0  0  0  0  0
  -24.6375  -15.8350   20.5272 H   0  0  0  0  0  0
  -26.2538  -15.6424   20.0715 H   0  0  0  0  0  0
  -26.7222  -32.5381   23.1061 H   0  0  0  0  0  0
  -25.0120  -33.9693   25.0369 H   0  0  0  0  0  0
  -22.7255  -31.3004   21.3951 H   0  0  0  0  0  0
  -23.3748  -35.9632   23.3297 H   0  0  0  0  0  0
  -24.3585  -36.8920   22.2047 H   0  0  0  0  0  0
  -23.7280  -37.6479   23.6684 H   0  0  0  0  0  0
  -26.1113  -31.5277   20.6202 H   0  0  0  0  0  0
  -26.8593  -30.8137   22.0163 H   0  0  0  0  0  0
  -28.1113  -28.8927   21.2365 H   0  0  0  0  0  0
  -25.9437  -25.9472   18.9135 H   0  0  0  0  0  0
  -23.9820  -27.3375   18.9558 H   0  0  0  0  0  0
  -23.7638  -30.5985   19.4004 H   0  0  0  0  0  0
  -22.7681  -29.2483   19.8517 H   0  0  0  0  0  0
  -25.1319  -36.1857   25.0781 H   0  0  0  0  0  0
  -20.9997  -28.3307   24.1335 H   0  0  0  0  0  0
  -20.5983  -26.2347   23.3564 H   0  0  0  0  0  0
  -21.6645  -26.7610   22.0977 H   0  0  0  0  0  0
  -19.6909  -25.6272   21.1349 H   0  0  0  0  0  0
  -19.6501  -27.3106   20.6732 H   0  0  0  0  0  0
  -17.4124  -26.6507   21.4329 H   0  0  0  0  0  0
  -18.0496  -26.0023   22.9298 H   0  0  0  0  0  0
  -19.7965  -30.7352   24.2027 H   0  0  0  0  0  0
  -17.4910  -31.6283   24.5162 H   0  0  0  0  0  0
  -15.5325  -30.2865   23.7767 H   0  0  0  0  0  0
  -15.8659  -28.0723   22.7288 H   0  0  0  0  0  0
  -24.5917  -30.7104   25.7737 H   0  0  0  0  0  0
  -24.8903  -32.2941   26.4758 H   0  0  0  0  0  0
  -25.8012  -30.8988   27.0211 H   0  0  0  0  0  0
  -26.2968  -29.6731   24.1240 H   0  0  0  0  0  0
  -27.4035  -29.7258   25.4744 H   0  0  0  0  0  0
  -27.8850  -30.4244   23.9482 H   0  0  0  0  0  0
  -27.2656  -33.3629   26.2048 H   0  0  0  0  0  0
  -28.3910  -32.6872   25.0371 H   0  0  0  0  0  0
  -28.0684  -31.8464   26.5455 H   0  0  0  0  0  0
  -28.2578  -38.0107   24.7479 H   0  0  0  0  0  0
  -28.1082  -36.2619   24.6316 H   0  0  0  0  0  0
  -27.2278  -37.1469   25.8865 H   0  0  0  0  0  0
  -20.9344  -29.8807   21.6812 H   0  0  0  0  0  0
  -26.0152  -38.2809   24.1419 H   0  0  0  0  0  0
  -29.8088  -16.5632   24.4089 H   0  0  0  0  0  0
  -31.4772  -16.3741   22.6582 H   0  0  0  0  0  0
  -27.3394  -18.9547   21.8442 H   0  0  0  0  0  0
  -25.2896  -17.2831   24.4698 H   0  0  0  0  0  0
  -25.8800  -16.5726   22.9696 H   0  0  0  0  0  0
  -25.6654  -18.3231   23.1029 H   0  0  0  0  0  0
  -29.9338  -22.2204   19.1972 H   0  0  0  0  0  0
  -28.1953  -22.1593   19.1543 H   0  0  0  0  0  0
  -27.0781  -24.6119   19.9540 H   0  0  0  0  0  0
  -28.2589  -24.8393   18.6824 H   0  0  0  0  0  0
  -29.8630  -19.6335   19.4170 H   0  0  0  0  0  0
  -28.8848  -15.7778   20.4142 H   0  0  0  0  0  0
  -27.5666  -17.0017   24.9764 H   0  0  0  0  0  0
  1 25  1  0  0  0
  1 30  2  0  0  0
  1 83  1  0  0  0
  2  3  1  0  0  0
  2 25  1  0  0  0
  2 87  1  0  0  0
  2 88  1  0  0  0
  3  4  1  0  0  0
  3 89  1  0  0  0
  3 90  1  0  0  0
  4  5  1  0  0  0
  4 91  1  0  0  0
  4 92  1  0  0  0
  5  6  1  0  0  0
  5 26  1  0  0  0
  5 93  1  0  0  0
  6 25  1  0  0  0
  6 94  1  0  0  0
  6 95  1  0  0  0
  7  8  2  0  0  0
  7 26  1  0  0  0
  7 29  1  0  0  0
  8  9  1  0  0  0
  8 22  1  0  0  0
  9 10  1  0  0  0
  9 27  2  0  0  0
 10 11  2  0  0  0
 10 15  1  0  0  0
 11 12  1  0  0  0
 11 96  1  0  0  0
 12 13  2  0  0  0
 12 97  1  0  0  0
 13 14  1  0  0  0
 13 31  1  0  0  0
 14 15  2  0  0  0
 14 98  1  0  0  0
 15 99  1  0  0  0
 16 17  2  0  0  0
 16 21  1  0  0  0
 16 31  1  0  0  0
 17 18  1  0  0  0
 17100  1  0  0  0
 18 19  2  0  0  0
 18101  1  0  0  0
 19 20  1  0  0  0
 19 24  1  0  0  0
 20 21  2  0  0  0
 20102  1  0  0  0
 21 23  1  0  0  0
 22 28  1  0  0  0
 22 32  2  0  0  0
 26 27  1  0  0  0
 28103  1  0  0  0
 28104  1  0  0  0
 29105  1  0  0  0
 29106  1  0  0  0
 33 34  1  0  0  0
 33 66  1  0  0  0
 33 70  2  0  0  0
 34 36  1  0  0  0
 34 59  1  0  0  0
 34107  1  0  0  0
 35 44  2  0  0  0
 35 45  1  0  0  0
 35 68  1  0  0  0
 36 56  1  0  0  0
 36108  1  0  0  0
 37 39  1  0  0  0
 37 47  1  0  0  0
 37 66  1  0  0  0
 37109  1  0  0  0
 38 43  2  0  0  0
 38 46  1  0  0  0
 38 47  1  0  0  0
 39 64  1  0  0  0
 39 67  2  0  0  0
 40 52  1  0  0  0
 40 53  2  0  0  0
 40 58  1  0  0  0
 41110  1  0  0  0
 41111  1  0  0  0
 41112  1  0  0  0
 41 48  1  0  0  0
 42 43  1  0  0  0
 42 66  1  0  0  0
 42113  1  0  0  0
 42114  1  0  0  0
 43 44  1  0  0  0
 44115  1  0  0  0
 45 46  2  0  0  0
 45116  1  0  0  0
 46117  1  0  0  0
 47118  1  0  0  0
 47119  1  0  0  0
 48 56  1  0  0  0
 48 65  1  0  0  0
 48120  1  0  0  0
 49 50  1  0  0  0
 49 53  1  0  0  0
 49 64  1  0  0  0
 49121  1  0  0  0
 50 51  1  0  0  0
 50122  1  0  0  0
 50123  1  0  0  0
 51 52  1  0  0  0
 51124  1  0  0  0
 51125  1  0  0  0
 52126  1  0  0  0
 52127  1  0  0  0
 53 54  1  0  0  0
 54 55  2  0  0  0
 54128  1  0  0  0
 55 57  1  0  0  0
 55129  1  0  0  0
 56 69  2  0  0  0
 57 58  2  0  0  0
 57130  1  0  0  0
 58131  1  0  0  0
 59 60  1  0  0  0
 59 61  1  0  0  0
 59 62  1  0  0  0
 60132  1  0  0  0
 60133  1  0  0  0
 60134  1  0  0  0
 61135  1  0  0  0
 61136  1  0  0  0
 61137  1  0  0  0
 62138  1  0  0  0
 62139  1  0  0  0
 62140  1  0  0  0
 63 65  1  0  0  0
 63141  1  0  0  0
 63142  1  0  0  0
 63143  1  0  0  0
 64144  1  0  0  0
 65145  1  0  0  0
 68 81  1  0  0  0
 71 72  2  0  0  0
 71 74  1  0  0  0
 71146  1  0  0  0
 72 75  1  0  0  0
 72147  1  0  0  0
 73 74  2  0  0  0
 73 76  1  0  0  0
 73148  1  0  0  0
 74 84  1  0  0  0
 75 76  2  0  0  0
 75 83  1  0  0  0
 76 82  1  0  0  0
 77 80  1  0  0  0
 77 81  1  0  0  0
 77 85  2  0  0  0
 78 80  1  0  0  0
 78 82  1  0  0  0
 78 86  2  0  0  0
 79 84  1  0  0  0
 79149  1  0  0  0
 79150  1  0  0  0
 79151  1  0  0  0
 80152  1  0  0  0
 80153  1  0  0  0
 81154  1  0  0  0
 81155  1  0  0  0
 82156  1  0  0  0
 83157  1  0  0  0
 84158  1  0  0  0
M  ISO  4   1 100  68 101  81 101  83 100
M  END
> <chiral flag>
0

> <version>
0

> <s_m_source_file>
/data/baiqing/PycharmProjects/Reinvent-master-3.2/result/LINK_invent/BTK/process_docking_weight1_custom_product_contain_oxygen_bond_distance_aromatic_linkinvent_7_9_3/rearranged_h_0067.sdf

> <i_m_source_file_index>
61

> <r_mmod_Potential_Energy-OPLS-2005>
348.144439697266

> <r_mmod_Stretch_Energy-OPLS-2005>
138.025970458984

> <r_mmod_Bend_Energy-OPLS-2005>
191.370346069336

> <r_mmod_Torsional_Energy-OPLS-2005>
444.502044677734

> <r_mmod_Improper_Torsional_Energy-OPLS-2005>
35.7487907409668

> <r_mmod_Van_der_Waal_Energy-OPLS-2005>
152.817840576172

> <r_mmod_Electrostatic_Energy-OPLS-2005>
-418.782928466797

> <r_mmod_Solvation_Energy-OPLS-2005>
-291.779174804688

> <b_mmod_Minimization_Converged-OPLS-2005>
0

> <r_mmod_RMS_Derivative-OPLS-2005>
5.10703420639038

$$$$
61
                    3D
 Structure written by MMmdl.
152160  0  0  1  0            999 V2000
  -30.5874  -14.8537   20.4339 C   0  0  0  0  0  0
  -30.4331  -12.5252   19.4848 C   0  0  0  0  0  0
  -29.5128  -12.5141   18.2442 C   0  0  0  0  0  0
  -28.0432  -12.3192   18.6626 C   0  0  0  0  0  0
  -27.6331  -13.2417   19.8410 C   0  0  2  0  0  0
  -28.6786  -13.2373   20.9769 C   0  0  0  0  0  0
  -25.2476  -13.8211   20.5706 C   0  0  0  0  0  0
  -24.1786  -13.0440   20.9225 C   0  0  0  0  0  0
  -24.6395  -11.6923   20.8760 C   0  0  0  0  0  0
  -23.9078  -10.4294   21.0413 C   0  0  0  0  0  0
  -24.3626   -9.4207   21.9189 C   0  0  0  0  0  0
  -23.6297   -8.2243   22.0756 C   0  0  0  0  0  0
  -22.4280   -8.0284   21.3546 C   0  0  0  0  0  0
  -21.9919   -9.0258   20.4648 C   0  0  0  0  0  0
  -22.7250  -10.2136   20.3059 C   0  0  0  0  0  0
  -21.6855   -6.0739   22.5278 C   0  0  0  0  0  0
  -21.4015   -6.5642   23.8212 C   0  0  0  0  0  0
  -21.3658   -5.6794   24.9174 C   0  0  0  0  0  0
  -21.6043   -4.3056   24.7224 C   0  0  0  0  0  0
  -21.8819   -3.8149   23.4345 C   0  0  0  0  0  0
  -21.9192   -4.6966   22.3401 C   0  0  0  0  0  0
  -22.7805  -13.5214   21.1878 C   0  0  0  0  0  0
  -22.1661   -4.2151   21.0979 F   0  0  0  0  0  0
  -21.5627   -3.4539   25.7737 F   0  0  0  0  0  0
  -29.9644  -13.6164   20.3794 N   0  0  0  0  0  0
  -26.2901  -12.9433   20.3259 N   0  0  0  0  0  0
  -25.9326  -11.6568   20.5755 N   0  0  0  0  0  0
  -22.0455  -12.8201   22.0433 N   0  0  0  0  0  0
  -25.4139  -15.1939   20.4110 N   0  0  0  0  0  0
  -31.7903  -14.8975   20.1588 O   0  0  0  0  0  0
  -21.6642   -6.8882   21.4241 O   0  0  0  0  0  0
  -22.3488  -14.5519   20.6723 O   0  0  0  0  0  0
  -24.6388  -31.8487   23.1926 C   0  0  0  0  0  0
  -25.9181  -32.4720   23.8295 C   0  0  1  0  0  0
  -27.2152  -27.1873   20.1369 C   0  0  0  0  0  0
  -25.5950  -33.8524   24.2213 N   0  0  0  0  0  0
  -23.4390  -30.4703   21.5377 C   0  0  2  0  0  0
  -24.8864  -28.9076   20.1087 C   0  0  0  0  0  0
  -22.7544  -29.4571   22.4883 C   0  0  0  0  0  0
  -18.0300  -28.1390   22.8480 C   0  0  0  0  0  0
  -24.1493  -36.7265   23.2641 C   0  0  0  0  0  0
  -25.9916  -30.7386   21.3837 C   0  0  0  0  0  0
  -26.0628  -29.3554   20.7231 C   0  0  0  0  0  0
  -27.2295  -28.5105   20.7216 C   0  0  0  0  0  0
  -26.0127  -26.8301   19.4865 C   0  0  0  0  0  0
  -24.8714  -27.6566   19.4763 C   0  0  0  0  0  0
  -23.6609  -29.8032   20.1553 C   0  0  0  0  0  0
  -25.4122  -36.3045   24.0319 C   0  0  1  0  0  0
  -20.5910  -28.3709   23.1248 C   0  0  2  0  0  0
  -20.6787  -26.9419   22.5402 C   0  0  0  0  0  0
  -19.5760  -26.6378   21.5211 C   0  0  0  0  0  0
  -18.1941  -26.7930   22.1623 C   0  0  0  0  0  0
  -19.1555  -28.8867   23.2857 C   0  0  0  0  0  0
  -18.9474  -30.1466   23.8878 C   0  0  0  0  0  0
  -17.6471  -30.6590   24.0557 C   0  0  0  0  0  0
  -25.9069  -34.9421   23.5070 C   0  0  0  0  0  0
  -16.5362  -29.9081   23.6336 C   0  0  0  0  0  0
  -16.7284  -28.6500   23.0357 C   0  0  0  0  0  0
  -26.4517  -31.6575   25.0719 C   0  0  0  0  0  0
  -25.3713  -31.3751   26.1421 C   0  0  0  0  0  0
  -27.0378  -30.2979   24.6267 C   0  0  0  0  0  0
  -27.6057  -32.4333   25.7500 C   0  0  0  0  0  0
  -27.5577  -37.1790   24.8465 C   0  0  0  0  0  0
  -21.4242  -29.3046   22.3631 N   0  0  0  0  0  0
  -26.4288  -37.3755   23.9409 N   0  0  0  0  0  0
  -24.7094  -31.0391   22.0935 N   0  0  0  0  0  0
  -23.4214  -28.8117   23.3010 O   0  0  0  0  0  0
  -28.2800  -26.2314   20.2050 O   0  0  0  0  0  0
  -26.5649  -34.8910   22.4645 O   0  0  0  0  0  0
  -23.5519  -32.1337   23.7181 O   0  0  0  0  0  0
  -31.5201  -17.8799   20.8146 C   0  0  0  0  0  0
  -31.9348  -19.2269   20.8722 C   0  0  0  0  0  0
  -29.2715  -18.6643   20.4070 C   0  0  0  0  0  0
  -30.1782  -17.5105   20.5763 C   0  0  0  0  0  0
  -31.0510  -20.3187   20.7083 C   0  0  0  0  0  0
  -29.6667  -20.0883   20.4602 C   0  0  0  0  0  0
  -27.9936  -24.7271   20.0445 C   0  0  0  0  0  0
  -29.0253  -23.4728   20.3733 C   0  0  0  0  0  0
  -31.6282  -21.5890   20.8116 N   0  0  0  0  0  0
  -29.8175  -16.0334   20.5570 N   0  0  0  0  0  0
  -28.0142  -21.4563   18.7441 O   0  0  0  0  0  0
  -27.3502  -21.3920   21.1460 O   0  0  0  0  0  0
  -28.4284  -21.5719   20.1554 S   0  0  0  0  0  0
  -31.4706  -12.6603   19.1750 H   0  0  0  0  0  0
  -30.4003  -11.5652   20.0022 H   0  0  0  0  0  0
  -29.8143  -11.7237   17.5555 H   0  0  0  0  0  0
  -29.6182  -13.4533   17.6988 H   0  0  0  0  0  0
  -27.9223  -11.2752   18.9538 H   0  0  0  0  0  0
  -27.3812  -12.4752   17.8099 H   0  0  0  0  0  0
  -27.6071  -14.2503   19.4281 H   0  0  0  0  0  0
  -28.7430  -12.2560   21.4492 H   0  0  0  0  0  0
  -28.3972  -13.9409   21.7620 H   0  0  0  0  0  0
  -25.2770   -9.5681   22.4766 H   0  0  0  0  0  0
  -24.0002   -7.4636   22.7477 H   0  0  0  0  0  0
  -21.0850   -8.8781   19.8953 H   0  0  0  0  0  0
  -22.3711  -10.9678   19.6169 H   0  0  0  0  0  0
  -21.2010   -7.6150   23.9717 H   0  0  0  0  0  0
  -21.1478   -6.0524   25.9077 H   0  0  0  0  0  0
  -22.0599   -2.7610   23.2844 H   0  0  0  0  0  0
  -22.4075  -11.9860   22.4815 H   0  0  0  0  0  0
  -21.1073  -13.1221   22.2645 H   0  0  0  0  0  0
  -24.6409  -15.8421   20.5171 H   0  0  0  0  0  0
  -26.2493  -15.6340   20.0484 H   0  0  0  0  0  0
  -26.7245  -32.5341   23.1027 H   0  0  0  0  0  0
  -25.0093  -33.9650   25.0356 H   0  0  0  0  0  0
  -22.7388  -31.2949   21.3879 H   0  0  0  0  0  0
  -23.3762  -35.9591   23.3291 H   0  0  0  0  0  0
  -24.3578  -36.8906   22.2058 H   0  0  0  0  0  0
  -23.7241  -37.6457   23.6681 H   0  0  0  0  0  0
  -26.1424  -31.4975   20.6146 H   0  0  0  0  0  0
  -26.8642  -30.7855   22.0235 H   0  0  0  0  0  0
  -28.1265  -28.8479   21.2213 H   0  0  0  0  0  0
  -25.9170  -25.8754   18.9926 H   0  0  0  0  0  0
  -23.9731  -27.3091   18.9844 H   0  0  0  0  0  0
  -23.7903  -30.5786   19.3994 H   0  0  0  0  0  0
  -22.7770  -29.2411   19.8482 H   0  0  0  0  0  0
  -25.1310  -36.1877   25.0811 H   0  0  0  0  0  0
  -20.9998  -28.3288   24.1370 H   0  0  0  0  0  0
  -20.5685  -26.2322   23.3616 H   0  0  0  0  0  0
  -21.6652  -26.7431   22.1195 H   0  0  0  0  0  0
  -19.6924  -25.6284   21.1251 H   0  0  0  0  0  0
  -19.6696  -27.3178   20.6735 H   0  0  0  0  0  0
  -17.4210  -26.6675   21.4027 H   0  0  0  0  0  0
  -18.0339  -26.0074   22.9021 H   0  0  0  0  0  0
  -19.7950  -30.7288   24.2239 H   0  0  0  0  0  0
  -17.5025  -31.6270   24.5158 H   0  0  0  0  0  0
  -15.5362  -30.2978   23.7673 H   0  0  0  0  0  0
  -15.8684  -28.0811   22.7084 H   0  0  0  0  0  0
  -24.5897  -30.7094   25.7740 H   0  0  0  0  0  0
  -24.8896  -32.2928   26.4804 H   0  0  0  0  0  0
  -25.8003  -30.8950   27.0225 H   0  0  0  0  0  0
  -26.2983  -29.6710   24.1271 H   0  0  0  0  0  0
  -27.4007  -29.7267   25.4822 H   0  0  0  0  0  0
  -27.8883  -30.4231   23.9564 H   0  0  0  0  0  0
  -27.2658  -33.3657   26.2021 H   0  0  0  0  0  0
  -28.3897  -32.6855   25.0348 H   0  0  0  0  0  0
  -28.0689  -31.8493   26.5462 H   0  0  0  0  0  0
  -28.2585  -38.0096   24.7515 H   0  0  0  0  0  0
  -28.1083  -36.2625   24.6287 H   0  0  0  0  0  0
  -27.2295  -37.1428   25.8869 H   0  0  0  0  0  0
  -20.9444  -29.8766   21.6823 H   0  0  0  0  0  0
  -26.0157  -38.2825   24.1412 H   0  0  0  0  0  0
  -32.2789  -17.1299   20.9767 H   0  0  0  0  0  0
  -32.9825  -19.4142   21.0617 H   0  0  0  0  0  0
  -28.2266  -18.4683   20.2188 H   0  0  0  0  0  0
  -27.0935  -24.5268   20.6272 H   0  0  0  0  0  0
  -27.7000  -24.5875   19.0038 H   0  0  0  0  0  0
  -29.3647  -23.5611   21.4023 H   0  0  0  0  0  0
  -29.9114  -23.5762   19.7497 H   0  0  0  0  0  0
  -32.5953  -21.6212   21.1193 H   0  0  0  0  0  0
  -31.0910  -22.3208   21.2597 H   0  0  0  0  0  0
  -28.8298  -15.8441   20.6303 H   0  0  0  0  0  0
  1 25  1  0  0  0
  1 30  2  0  0  0
  1 80  1  0  0  0
  2  3  1  0  0  0
  2 25  1  0  0  0
  2 84  1  0  0  0
  2 85  1  0  0  0
  3  4  1  0  0  0
  3 86  1  0  0  0
  3 87  1  0  0  0
  4  5  1  0  0  0
  4 88  1  0  0  0
  4 89  1  0  0  0
  5  6  1  0  0  0
  5 26  1  0  0  0
  5 90  1  0  0  0
  6 25  1  0  0  0
  6 91  1  0  0  0
  6 92  1  0  0  0
  7  8  2  0  0  0
  7 26  1  0  0  0
  7 29  1  0  0  0
  8  9  1  0  0  0
  8 22  1  0  0  0
  9 10  1  0  0  0
  9 27  2  0  0  0
 10 11  2  0  0  0
 10 15  1  0  0  0
 11 12  1  0  0  0
 11 93  1  0  0  0
 12 13  2  0  0  0
 12 94  1  0  0  0
 13 14  1  0  0  0
 13 31  1  0  0  0
 14 15  2  0  0  0
 14 95  1  0  0  0
 15 96  1  0  0  0
 16 17  2  0  0  0
 16 21  1  0  0  0
 16 31  1  0  0  0
 17 18  1  0  0  0
 17 97  1  0  0  0
 18 19  2  0  0  0
 18 98  1  0  0  0
 19 20  1  0  0  0
 19 24  1  0  0  0
 20 21  2  0  0  0
 20 99  1  0  0  0
 21 23  1  0  0  0
 22 28  1  0  0  0
 22 32  2  0  0  0
 26 27  1  0  0  0
 28100  1  0  0  0
 28101  1  0  0  0
 29102  1  0  0  0
 29103  1  0  0  0
 33 34  1  0  0  0
 33 66  1  0  0  0
 33 70  2  0  0  0
 34 36  1  0  0  0
 34 59  1  0  0  0
 34104  1  0  0  0
 35 44  2  0  0  0
 35 45  1  0  0  0
 35 68  1  0  0  0
 36 56  1  0  0  0
 36105  1  0  0  0
 37 39  1  0  0  0
 37 47  1  0  0  0
 37 66  1  0  0  0
 37106  1  0  0  0
 38 43  2  0  0  0
 38 46  1  0  0  0
 38 47  1  0  0  0
 39 64  1  0  0  0
 39 67  2  0  0  0
 40 52  1  0  0  0
 40 53  2  0  0  0
 40 58  1  0  0  0
 41107  1  0  0  0
 41108  1  0  0  0
 41109  1  0  0  0
 41 48  1  0  0  0
 42 43  1  0  0  0
 42 66  1  0  0  0
 42110  1  0  0  0
 42111  1  0  0  0
 43 44  1  0  0  0
 44112  1  0  0  0
 45 46  2  0  0  0
 45113  1  0  0  0
 46114  1  0  0  0
 47115  1  0  0  0
 47116  1  0  0  0
 48 56  1  0  0  0
 48 65  1  0  0  0
 48117  1  0  0  0
 49 50  1  0  0  0
 49 53  1  0  0  0
 49 64  1  0  0  0
 49118  1  0  0  0
 50 51  1  0  0  0
 50119  1  0  0  0
 50120  1  0  0  0
 51 52  1  0  0  0
 51121  1  0  0  0
 51122  1  0  0  0
 52123  1  0  0  0
 52124  1  0  0  0
 53 54  1  0  0  0
 54 55  2  0  0  0
 54125  1  0  0  0
 55 57  1  0  0  0
 55126  1  0  0  0
 56 69  2  0  0  0
 57 58  2  0  0  0
 57127  1  0  0  0
 58128  1  0  0  0
 59 60  1  0  0  0
 59 61  1  0  0  0
 59 62  1  0  0  0
 60129  1  0  0  0
 60130  1  0  0  0
 60131  1  0  0  0
 61132  1  0  0  0
 61133  1  0  0  0
 61134  1  0  0  0
 62135  1  0  0  0
 62136  1  0  0  0
 62137  1  0  0  0
 63 65  1  0  0  0
 63138  1  0  0  0
 63139  1  0  0  0
 63140  1  0  0  0
 64141  1  0  0  0
 65142  1  0  0  0
 68 77  1  0  0  0
 71 72  2  0  0  0
 71 74  1  0  0  0
 71143  1  0  0  0
 72 75  1  0  0  0
 72144  1  0  0  0
 73 74  2  0  0  0
 73 76  1  0  0  0
 73145  1  0  0  0
 74 80  1  0  0  0
 75 76  2  0  0  0
 75 79  1  0  0  0
 76 83  1  0  0  0
 77 78  1  0  0  0
 77146  1  0  0  0
 77147  1  0  0  0
 78148  1  0  0  0
 78149  1  0  0  0
 78 83  1  0  0  0
 79150  1  0  0  0
 79151  1  0  0  0
 80152  1  0  0  0
 81 83  2  0  0  0
 82 83  2  0  0  0
M  ISO  4   1 100  68 101  77 101  80 100
M  END
> <chiral flag>
0

> <version>
0

> <s_m_source_file>
/data/baiqing/PycharmProjects/Reinvent-master-3.2/result/LINK_invent/BTK/process_docking_weight1_custom_product_contain_oxygen_bond_distance_aromatic_linkinvent_7_9_3/rearranged_h_0067.sdf

> <i_m_source_file_index>
62

> <r_mmod_Potential_Energy-OPLS-2005>
345.178588867188

> <r_mmod_Stretch_Energy-OPLS-2005>
206.200088500977

> <r_mmod_Bend_Energy-OPLS-2005>
218.627746582031

> <r_mmod_Torsional_Energy-OPLS-2005>
227.51643371582

> <r_mmod_Improper_Torsional_Energy-OPLS-2005>
9.66261196136475

> <r_mmod_Van_der_Waal_Energy-OPLS-2005>
133.832107543945

> <r_mmod_Electrostatic_Energy-OPLS-2005>
-315.418334960938

> <r_mmod_Solvation_Energy-OPLS-2005>
-275.082946777344

> <b_mmod_Minimization_Converged-OPLS-2005>
0

> <r_mmod_RMS_Derivative-OPLS-2005>
0.357425957918167

$$$$
62
                    3D
 Structure written by MMmdl.
158166  0  0  1  0            999 V2000
  -30.7150  -14.5604   20.3927 C   0  0  0  0  0  0
  -30.4125  -12.3269   19.4377 C   0  0  0  0  0  0
  -29.4915  -12.4792   18.2115 C   0  0  0  0  0  0
  -28.0161  -12.3382   18.6308 C   0  0  0  0  0  0
  -27.6486  -13.2259   19.8509 C   0  0  2  0  0  0
  -28.7051  -13.1275   20.9743 C   0  0  0  0  0  0
  -25.2536  -13.8196   20.5714 C   0  0  0  0  0  0
  -24.1811  -13.0439   20.9211 C   0  0  0  0  0  0
  -24.6401  -11.6921   20.8759 C   0  0  0  0  0  0
  -23.9080  -10.4298   21.0425 C   0  0  0  0  0  0
  -24.3620   -9.4211   21.9190 C   0  0  0  0  0  0
  -23.6300   -8.2250   22.0764 C   0  0  0  0  0  0
  -22.4279   -8.0300   21.3572 C   0  0  0  0  0  0
  -21.9935   -9.0263   20.4650 C   0  0  0  0  0  0
  -22.7269  -10.2138   20.3068 C   0  0  0  0  0  0
  -21.6852   -6.0740   22.5294 C   0  0  0  0  0  0
  -21.4015   -6.5642   23.8220 C   0  0  0  0  0  0
  -21.3646   -5.6798   24.9183 C   0  0  0  0  0  0
  -21.6050   -4.3064   24.7233 C   0  0  0  0  0  0
  -21.8813   -3.8151   23.4352 C   0  0  0  0  0  0
  -21.9194   -4.6968   22.3405 C   0  0  0  0  0  0
  -22.7835  -13.5223   21.1877 C   0  0  0  0  0  0
  -22.1667   -4.2138   21.0986 F   0  0  0  0  0  0
  -21.5619   -3.4552   25.7747 F   0  0  0  0  0  0
  -30.0284  -13.3836   20.3845 N   0  0  0  0  0  0
  -26.2984  -12.9403   20.3358 N   0  0  0  0  0  0
  -25.9339  -11.6553   20.5819 N   0  0  0  0  0  0
  -22.0490  -12.8210   22.0412 N   0  0  0  0  0  0
  -25.4215  -15.1924   20.4097 N   0  0  0  0  0  0
  -31.9373  -14.5950   20.2511 O   0  0  0  0  0  0
  -21.6654   -6.8905   21.4260 O   0  0  0  0  0  0
  -22.3534  -14.5540   20.6741 O   0  0  0  0  0  0
  -24.6192  -31.8623   23.2013 C   0  0  0  0  0  0
  -25.9072  -32.4787   23.8316 C   0  0  1  0  0  0
  -27.2432  -27.3868   20.0878 C   0  0  0  0  0  0
  -25.5884  -33.8588   24.2277 N   0  0  0  0  0  0
  -23.4090  -30.4834   21.5439 C   0  0  2  0  0  0
  -24.8577  -28.9391   20.1098 C   0  0  0  0  0  0
  -22.7407  -29.4660   22.4964 C   0  0  0  0  0  0
  -18.0266  -28.1396   22.8513 C   0  0  0  0  0  0
  -24.1485  -36.7275   23.2641 C   0  0  0  0  0  0
  -25.9419  -30.8086   21.3627 C   0  0  0  0  0  0
  -26.0181  -29.4376   20.7133 C   0  0  0  0  0  0
  -27.2088  -28.6686   20.6979 C   0  0  0  0  0  0
  -26.0589  -26.9121   19.4787 C   0  0  0  0  0  0
  -24.8774  -27.6797   19.4859 C   0  0  0  0  0  0
  -23.6165  -29.8047   20.1626 C   0  0  0  0  0  0
  -25.4111  -36.3084   24.0342 C   0  0  1  0  0  0
  -20.5853  -28.3696   23.1318 C   0  0  2  0  0  0
  -20.6747  -26.9421   22.5430 C   0  0  0  0  0  0
  -19.5728  -26.6403   21.5227 C   0  0  0  0  0  0
  -18.1908  -26.7945   22.1637 C   0  0  0  0  0  0
  -19.1516  -28.8859   23.2916 C   0  0  0  0  0  0
  -18.9452  -30.1468   23.8929 C   0  0  0  0  0  0
  -17.6455  -30.6615   24.0570 C   0  0  0  0  0  0
  -25.9058  -34.9463   23.5117 C   0  0  0  0  0  0
  -16.5347  -29.9118   23.6335 C   0  0  0  0  0  0
  -16.7254  -28.6525   23.0371 C   0  0  0  0  0  0
  -26.4484  -31.6570   25.0662 C   0  0  0  0  0  0
  -25.3728  -31.3631   26.1382 C   0  0  0  0  0  0
  -27.0339  -30.3020   24.6053 C   0  0  0  0  0  0
  -27.6068  -32.4268   25.7413 C   0  0  0  0  0  0
  -27.5591  -37.1762   24.8463 C   0  0  0  0  0  0
  -21.4124  -29.3048   22.3695 N   0  0  0  0  0  0
  -26.4278  -37.3791   23.9441 N   0  0  0  0  0  0
  -24.6754  -31.0667   22.0944 N   0  0  0  0  0  0
  -23.4163  -28.8202   23.3020 O   0  0  0  0  0  0
  -28.4296  -26.6607   20.1042 O   0  0  0  0  0  0
  -26.5642  -34.8943   22.4701 O   0  0  0  0  0  0
  -23.5380  -32.1400   23.7388 O   0  0  0  0  0  0
  -30.8725  -19.5636   18.6521 C   0  0  0  0  0  0
  -29.6803  -18.1600   20.2431 C   0  0  0  0  0  0
  -31.4870  -18.4141   18.1107 C   0  0  0  0  0  0
  -29.9210  -19.4571   19.6950 C   0  0  0  0  0  0
  -30.3077  -16.9818   19.7428 C   0  0  0  0  0  0
  -31.1602  -17.1289   18.6058 C   0  0  0  0  0  0
  -29.1287  -21.8931   19.7968 C   0  0  0  0  0  0
  -32.4898  -18.5757   16.9729 C   0  0  0  0  0  0
  -27.8963  -22.7320   20.2321 C   0  0  0  0  0  0
  -28.0895  -24.2211   20.6894 C   0  0  0  0  0  0
  -28.5001  -25.2881   19.6295 C   0  0  0  0  0  0
  -29.1504  -20.5850   20.1761 N   0  0  0  0  0  0
  -29.9708  -15.6944   20.3337 N   0  0  0  0  0  0
  -30.0164  -22.4335   19.1344 O   0  0  0  0  0  0
  -31.6381  -16.0519   17.9153 O   0  0  0  0  0  0
  -31.4599  -12.3960   19.1358 H   0  0  0  0  0  0
  -30.2849  -11.3434   19.8939 H   0  0  0  0  0  0
  -29.7394  -11.7303   17.4585 H   0  0  0  0  0  0
  -29.6486  -13.4524   17.7427 H   0  0  0  0  0  0
  -27.8493  -11.2877   18.8715 H   0  0  0  0  0  0
  -27.3574  -12.5639   17.7902 H   0  0  0  0  0  0
  -27.6520  -14.2541   19.4901 H   0  0  0  0  0  0
  -28.6856  -12.1423   21.4394 H   0  0  0  0  0  0
  -28.4897  -13.8452   21.7686 H   0  0  0  0  0  0
  -25.2755   -9.5679   22.4762 H   0  0  0  0  0  0
  -23.9992   -7.4651   22.7490 H   0  0  0  0  0  0
  -21.0871   -8.8801   19.8939 H   0  0  0  0  0  0
  -22.3746  -10.9683   19.6179 H   0  0  0  0  0  0
  -21.2001   -7.6142   23.9715 H   0  0  0  0  0  0
  -21.1488   -6.0537   25.9085 H   0  0  0  0  0  0
  -22.0589   -2.7603   23.2883 H   0  0  0  0  0  0
  -22.4127  -11.9855   22.4764 H   0  0  0  0  0  0
  -21.1127  -13.1246   22.2643 H   0  0  0  0  0  0
  -24.6474  -15.8432   20.4914 H   0  0  0  0  0  0
  -26.2729  -15.6326   20.0823 H   0  0  0  0  0  0
  -26.7122  -32.5501   23.1050 H   0  0  0  0  0  0
  -24.9925  -33.9717   25.0341 H   0  0  0  0  0  0
  -22.7014  -31.3005   21.3954 H   0  0  0  0  0  0
  -23.3787  -35.9560   23.3256 H   0  0  0  0  0  0
  -24.3552  -36.8957   22.2062 H   0  0  0  0  0  0
  -23.7219  -37.6450   23.6696 H   0  0  0  0  0  0
  -26.0554  -31.5675   20.5868 H   0  0  0  0  0  0
  -26.8313  -30.8654   21.9796 H   0  0  0  0  0  0
  -28.1064  -29.0478   21.1677 H   0  0  0  0  0  0
  -26.0220  -25.9516   18.9891 H   0  0  0  0  0  0
  -23.9907  -27.2929   19.0060 H   0  0  0  0  0  0
  -23.7086  -30.5701   19.3911 H   0  0  0  0  0  0
  -22.7430  -29.2128   19.8817 H   0  0  0  0  0  0
  -25.1290  -36.1907   25.0830 H   0  0  0  0  0  0
  -20.9965  -28.3287   24.1432 H   0  0  0  0  0  0
  -20.5664  -26.2295   23.3619 H   0  0  0  0  0  0
  -21.6621  -26.7447   22.1234 H   0  0  0  0  0  0
  -19.6888  -25.6325   21.1236 H   0  0  0  0  0  0
  -19.6679  -27.3226   20.6771 H   0  0  0  0  0  0
  -17.4174  -26.6742   21.4031 H   0  0  0  0  0  0
  -18.0272  -26.0076   22.9014 H   0  0  0  0  0  0
  -19.7928  -30.7278   24.2323 H   0  0  0  0  0  0
  -17.5017  -31.6301   24.5142 H   0  0  0  0  0  0
  -15.5361  -30.3045   23.7637 H   0  0  0  0  0  0
  -15.8645  -28.0863   22.7083 H   0  0  0  0  0  0
  -24.5926  -30.6978   25.7651 H   0  0  0  0  0  0
  -24.8880  -32.2767   26.4838 H   0  0  0  0  0  0
  -25.8072  -30.8760   27.0129 H   0  0  0  0  0  0
  -26.2891  -29.6723   24.1184 H   0  0  0  0  0  0
  -27.4201  -29.7303   25.4502 H   0  0  0  0  0  0
  -27.8659  -30.4333   23.9132 H   0  0  0  0  0  0
  -27.2735  -33.3590   26.1978 H   0  0  0  0  0  0
  -28.3875  -32.6802   25.0223 H   0  0  0  0  0  0
  -28.0731  -31.8385   26.5330 H   0  0  0  0  0  0
  -28.2563  -38.0099   24.7596 H   0  0  0  0  0  0
  -28.1141  -36.2647   24.6194 H   0  0  0  0  0  0
  -27.2298  -37.1297   25.8852 H   0  0  0  0  0  0
  -20.9275  -29.8751   21.6905 H   0  0  0  0  0  0
  -26.0165  -38.2852   24.1498 H   0  0  0  0  0  0
  -31.1250  -20.5200   18.2196 H   0  0  0  0  0  0
  -28.9778  -18.0627   21.0572 H   0  0  0  0  0  0
  -32.7147  -19.6265   16.7863 H   0  0  0  0  0  0
  -32.1112  -18.1458   16.0451 H   0  0  0  0  0  0
  -33.4348  -18.0862   17.2165 H   0  0  0  0  0  0
  -27.4109  -22.1962   21.0497 H   0  0  0  0  0  0
  -27.1735  -22.7068   19.4167 H   0  0  0  0  0  0
  -28.7871  -24.2474   21.5248 H   0  0  0  0  0  0
  -27.1342  -24.5433   21.1073 H   0  0  0  0  0  0
  -27.9625  -25.1577   18.6920 H   0  0  0  0  0  0
  -29.5437  -25.1132   19.3634 H   0  0  0  0  0  0
  -28.4275  -20.3455   20.8413 H   0  0  0  0  0  0
  -29.0167  -15.5968   20.6420 H   0  0  0  0  0  0
  -32.1705  -16.3133   17.1731 H   0  0  0  0  0  0
  1 25  1  0  0  0
  1 30  2  0  0  0
  1 83  1  0  0  0
  2  3  1  0  0  0
  2 25  1  0  0  0
  2 86  1  0  0  0
  2 87  1  0  0  0
  3  4  1  0  0  0
  3 88  1  0  0  0
  3 89  1  0  0  0
  4  5  1  0  0  0
  4 90  1  0  0  0
  4 91  1  0  0  0
  5  6  1  0  0  0
  5 26  1  0  0  0
  5 92  1  0  0  0
  6 25  1  0  0  0
  6 93  1  0  0  0
  6 94  1  0  0  0
  7  8  2  0  0  0
  7 26  1  0  0  0
  7 29  1  0  0  0
  8  9  1  0  0  0
  8 22  1  0  0  0
  9 10  1  0  0  0
  9 27  2  0  0  0
 10 11  2  0  0  0
 10 15  1  0  0  0
 11 12  1  0  0  0
 11 95  1  0  0  0
 12 13  2  0  0  0
 12 96  1  0  0  0
 13 14  1  0  0  0
 13 31  1  0  0  0
 14 15  2  0  0  0
 14 97  1  0  0  0
 15 98  1  0  0  0
 16 17  2  0  0  0
 16 21  1  0  0  0
 16 31  1  0  0  0
 17 18  1  0  0  0
 17 99  1  0  0  0
 18 19  2  0  0  0
 18100  1  0  0  0
 19 20  1  0  0  0
 19 24  1  0  0  0
 20 21  2  0  0  0
 20101  1  0  0  0
 21 23  1  0  0  0
 22 28  1  0  0  0
 22 32  2  0  0  0
 26 27  1  0  0  0
 28102  1  0  0  0
 28103  1  0  0  0
 29104  1  0  0  0
 29105  1  0  0  0
 33 34  1  0  0  0
 33 66  1  0  0  0
 33 70  2  0  0  0
 34 36  1  0  0  0
 34 59  1  0  0  0
 34106  1  0  0  0
 35 44  2  0  0  0
 35 45  1  0  0  0
 35 68  1  0  0  0
 36 56  1  0  0  0
 36107  1  0  0  0
 37 39  1  0  0  0
 37 47  1  0  0  0
 37 66  1  0  0  0
 37108  1  0  0  0
 38 43  2  0  0  0
 38 46  1  0  0  0
 38 47  1  0  0  0
 39 64  1  0  0  0
 39 67  2  0  0  0
 40 52  1  0  0  0
 40 53  2  0  0  0
 40 58  1  0  0  0
 41109  1  0  0  0
 41110  1  0  0  0
 41111  1  0  0  0
 41 48  1  0  0  0
 42 43  1  0  0  0
 42 66  1  0  0  0
 42112  1  0  0  0
 42113  1  0  0  0
 43 44  1  0  0  0
 44114  1  0  0  0
 45 46  2  0  0  0
 45115  1  0  0  0
 46116  1  0  0  0
 47117  1  0  0  0
 47118  1  0  0  0
 48 56  1  0  0  0
 48 65  1  0  0  0
 48119  1  0  0  0
 49 50  1  0  0  0
 49 53  1  0  0  0
 49 64  1  0  0  0
 49120  1  0  0  0
 50 51  1  0  0  0
 50121  1  0  0  0
 50122  1  0  0  0
 51 52  1  0  0  0
 51123  1  0  0  0
 51124  1  0  0  0
 52125  1  0  0  0
 52126  1  0  0  0
 53 54  1  0  0  0
 54 55  2  0  0  0
 54127  1  0  0  0
 55 57  1  0  0  0
 55128  1  0  0  0
 56 69  2  0  0  0
 57 58  2  0  0  0
 57129  1  0  0  0
 58130  1  0  0  0
 59 60  1  0  0  0
 59 61  1  0  0  0
 59 62  1  0  0  0
 60131  1  0  0  0
 60132  1  0  0  0
 60133  1  0  0  0
 61134  1  0  0  0
 61135  1  0  0  0
 61136  1  0  0  0
 62137  1  0  0  0
 62138  1  0  0  0
 62139  1  0  0  0
 63 65  1  0  0  0
 63140  1  0  0  0
 63141  1  0  0  0
 63142  1  0  0  0
 64143  1  0  0  0
 65144  1  0  0  0
 68 81  1  0  0  0
 71 73  2  0  0  0
 71 74  1  0  0  0
 71145  1  0  0  0
 72 74  2  0  0  0
 72 75  1  0  0  0
 72146  1  0  0  0
 73 76  1  0  0  0
 73 78  1  0  0  0
 74 82  1  0  0  0
 75 76  2  0  0  0
 75 83  1  0  0  0
 76 85  1  0  0  0
 77 79  1  0  0  0
 77 82  1  0  0  0
 77 84  2  0  0  0
 78147  1  0  0  0
 78148  1  0  0  0
 78149  1  0  0  0
 79 80  1  0  0  0
 79150  1  0  0  0
 79151  1  0  0  0
 80 81  1  0  0  0
 80152  1  0  0  0
 80153  1  0  0  0
 81154  1  0  0  0
 81155  1  0  0  0
 82156  1  0  0  0
 83157  1  0  0  0
 85158  1  0  0  0
M  ISO  4   1 100  68 101  81 101  83 100
M  END
> <chiral flag>
0

> <version>
0

> <s_m_source_file>
/data/baiqing/PycharmProjects/Reinvent-master-3.2/result/LINK_invent/BTK/process_docking_weight1_custom_product_contain_oxygen_bond_distance_aromatic_linkinvent_7_9_3/rearranged_h_0067.sdf

> <i_m_source_file_index>
63

> <r_mmod_Potential_Energy-OPLS-2005>
-128.443725585938

> <r_mmod_Stretch_Energy-OPLS-2005>
54.2885398864746

> <r_mmod_Bend_Energy-OPLS-2005>
129.993057250977

> <r_mmod_Torsional_Energy-OPLS-2005>
238.447830200195

> <r_mmod_Improper_Torsional_Energy-OPLS-2005>
5.99668550491333

> <r_mmod_Van_der_Waal_Energy-OPLS-2005>
153.927627563477

> <r_mmod_Electrostatic_Energy-OPLS-2005>
-490.102355957031

> <r_mmod_Solvation_Energy-OPLS-2005>
-259.452087402344

> <b_mmod_Minimization_Converged-OPLS-2005>
0

> <r_mmod_RMS_Derivative-OPLS-2005>
3.95992302894592

$$$$
63
                    3D
 Structure written by MMmdl.
150158  0  0  1  0            999 V2000
  -30.6254  -14.7781   20.4323 C   0  0  0  0  0  0
  -30.4246  -12.4798   19.4679 C   0  0  0  0  0  0
  -29.4961  -12.5104   18.2336 C   0  0  0  0  0  0
  -28.0323  -12.3103   18.6619 C   0  0  0  0  0  0
  -27.6367  -13.2342   19.8436 C   0  0  2  0  0  0
  -28.6833  -13.2032   20.9805 C   0  0  0  0  0  0
  -25.2515  -13.8226   20.5733 C   0  0  0  0  0  0
  -24.1797  -13.0473   20.9203 C   0  0  0  0  0  0
  -24.6373  -11.6938   20.8744 C   0  0  0  0  0  0
  -23.9055  -10.4320   21.0399 C   0  0  0  0  0  0
  -24.3610   -9.4240   21.9180 C   0  0  0  0  0  0
  -23.6306   -8.2258   22.0749 C   0  0  0  0  0  0
  -22.4293   -8.0284   21.3531 C   0  0  0  0  0  0
  -21.9910   -9.0255   20.4639 C   0  0  0  0  0  0
  -22.7222  -10.2141   20.3055 C   0  0  0  0  0  0
  -21.6867   -6.0743   22.5277 C   0  0  0  0  0  0
  -21.4010   -6.5643   23.8208 C   0  0  0  0  0  0
  -21.3660   -5.6796   24.9171 C   0  0  0  0  0  0
  -21.6051   -4.3061   24.7221 C   0  0  0  0  0  0
  -21.8827   -3.8148   23.4341 C   0  0  0  0  0  0
  -21.9205   -4.6969   22.3403 C   0  0  0  0  0  0
  -22.7825  -13.5238   21.1860 C   0  0  0  0  0  0
  -22.1677   -4.2144   21.0987 F   0  0  0  0  0  0
  -21.5632   -3.4557   25.7740 F   0  0  0  0  0  0
  -29.9823  -13.5551   20.3945 N   0  0  0  0  0  0
  -26.2918  -12.9425   20.3268 N   0  0  0  0  0  0
  -25.9301  -11.6565   20.5734 N   0  0  0  0  0  0
  -22.0469  -12.8223   22.0409 N   0  0  0  0  0  0
  -25.4333  -15.1953   20.4239 N   0  0  0  0  0  0
  -31.8184  -14.8040   20.1154 O   0  0  0  0  0  0
  -21.6661   -6.8873   21.4226 O   0  0  0  0  0  0
  -22.3515  -14.5562   20.6722 O   0  0  0  0  0  0
  -24.6325  -31.8516   23.1957 C   0  0  0  0  0  0
  -25.9146  -32.4724   23.8311 C   0  0  1  0  0  0
  -27.2285  -27.2368   20.1346 C   0  0  0  0  0  0
  -25.5936  -33.8529   24.2224 N   0  0  0  0  0  0
  -23.4311  -30.4686   21.5425 C   0  0  2  0  0  0
  -24.8814  -28.9145   20.1095 C   0  0  0  0  0  0
  -22.7527  -29.4534   22.4931 C   0  0  0  0  0  0
  -18.0320  -28.1332   22.8498 C   0  0  0  0  0  0
  -24.1496  -36.7279   23.2640 C   0  0  0  0  0  0
  -25.9788  -30.7558   21.3816 C   0  0  0  0  0  0
  -26.0506  -29.3779   20.7220 C   0  0  0  0  0  0
  -27.2220  -28.5512   20.7230 C   0  0  0  0  0  0
  -26.0314  -26.8473   19.4911 C   0  0  0  0  0  0
  -24.8779  -27.6581   19.4845 C   0  0  0  0  0  0
  -23.6527  -29.8028   20.1576 C   0  0  0  0  0  0
  -25.4124  -36.3048   24.0315 C   0  0  1  0  0  0
  -20.5922  -28.3634   23.1324 C   0  0  2  0  0  0
  -20.6824  -26.9368   22.5420 C   0  0  0  0  0  0
  -19.5794  -26.6368   21.5193 C   0  0  0  0  0  0
  -18.1987  -26.7867   22.1651 C   0  0  0  0  0  0
  -19.1573  -28.8805   23.2893 C   0  0  0  0  0  0
  -18.9500  -30.1420   23.8887 C   0  0  0  0  0  0
  -17.6502  -30.6540   24.0544 C   0  0  0  0  0  0
  -25.9059  -34.9415   23.5070 C   0  0  0  0  0  0
  -16.5390  -29.9028   23.6338 C   0  0  0  0  0  0
  -16.7308  -28.6446   23.0362 C   0  0  0  0  0  0
  -26.4500  -31.6574   25.0722 C   0  0  0  0  0  0
  -25.3709  -31.3746   26.1438 C   0  0  0  0  0  0
  -27.0370  -30.2984   24.6255 C   0  0  0  0  0  0
  -27.6031  -32.4350   25.7497 C   0  0  0  0  0  0
  -27.5575  -37.1798   24.8460 C   0  0  0  0  0  0
  -21.4225  -29.3014   22.3729 N   0  0  0  0  0  0
  -26.4290  -37.3753   23.9398 N   0  0  0  0  0  0
  -24.7001  -31.0446   22.0961 N   0  0  0  0  0  0
  -23.4228  -28.8062   23.3013 O   0  0  0  0  0  0
  -28.3419  -26.3599   20.2389 O   0  0  0  0  0  0
  -26.5638  -34.8894   22.4639 O   0  0  0  0  0  0
  -23.5471  -32.1350   23.7241 O   0  0  0  0  0  0
  -28.2510  -19.6127   22.7186 C   0  0  0  0  0  0
  -28.8219  -18.4631   22.1315 C   0  0  0  0  0  0
  -28.3049  -20.8794   22.0962 C   0  0  0  0  0  0
  -29.5100  -19.8545   20.2591 C   0  0  0  0  0  0
  -29.4809  -18.5296   20.8861 C   0  0  0  0  0  0
  -28.9298  -21.0655   20.8408 C   0  0  0  0  0  0
  -30.2515  -17.2712   20.3551 C   0  0  0  0  0  0
  -28.6195  -23.6995   20.6710 C   0  0  0  0  0  0
  -28.4069  -24.9510   19.6777 C   0  0  0  0  0  0
  -28.9011  -22.4135   20.1870 N   0  0  0  0  0  0
  -29.8957  -15.9510   20.6574 N   0  0  0  0  0  0
  -31.2116  -17.5221   19.6176 O   0  0  0  0  0  0
  -28.5571  -23.9252   21.8827 O   0  0  0  0  0  0
  -31.4610  -12.5963   19.1431 H   0  0  0  0  0  0
  -30.3751  -11.5067   19.9599 H   0  0  0  0  0  0
  -29.7839  -11.7380   17.5200 H   0  0  0  0  0  0
  -29.5957  -13.4628   17.7093 H   0  0  0  0  0  0
  -27.9116  -11.2643   18.9512 H   0  0  0  0  0  0
  -27.3593  -12.4658   17.8185 H   0  0  0  0  0  0
  -27.6219  -14.2466   19.4377 H   0  0  0  0  0  0
  -28.7264  -12.2115   21.4338 H   0  0  0  0  0  0
  -28.4119  -13.8958   21.7793 H   0  0  0  0  0  0
  -25.2746   -9.5735   22.4754 H   0  0  0  0  0  0
  -24.0037   -7.4662   22.7483 H   0  0  0  0  0  0
  -21.0828   -8.8754   19.8955 H   0  0  0  0  0  0
  -22.3666  -10.9674   19.6168 H   0  0  0  0  0  0
  -21.1983   -7.6148   23.9705 H   0  0  0  0  0  0
  -21.1481   -6.0524   25.9070 H   0  0  0  0  0  0
  -22.0603   -2.7609   23.2845 H   0  0  0  0  0  0
  -22.4074  -11.9848   22.4745 H   0  0  0  0  0  0
  -21.1102  -13.1267   22.2678 H   0  0  0  0  0  0
  -24.6853  -15.8678   20.5532 H   0  0  0  0  0  0
  -26.3012  -15.6264   20.1359 H   0  0  0  0  0  0
  -26.7203  -32.5353   23.1043 H   0  0  0  0  0  0
  -25.0084  -33.9656   25.0370 H   0  0  0  0  0  0
  -22.7255  -31.2896   21.3962 H   0  0  0  0  0  0
  -23.3742  -35.9622   23.3296 H   0  0  0  0  0  0
  -24.3584  -36.8913   22.2051 H   0  0  0  0  0  0
  -23.7261  -37.6482   23.6679 H   0  0  0  0  0  0
  -26.1248  -31.5158   20.6134 H   0  0  0  0  0  0
  -26.8533  -30.8001   22.0186 H   0  0  0  0  0  0
  -28.1166  -28.9015   21.2192 H   0  0  0  0  0  0
  -25.9340  -25.8904   19.0072 H   0  0  0  0  0  0
  -23.9818  -27.2917   19.0025 H   0  0  0  0  0  0
  -23.7809  -30.5823   19.4060 H   0  0  0  0  0  0
  -22.7699  -29.2391   19.8494 H   0  0  0  0  0  0
  -25.1308  -36.1884   25.0807 H   0  0  0  0  0  0
  -20.9994  -28.3160   24.1446 H   0  0  0  0  0  0
  -21.6707  -26.7418   22.1232 H   0  0  0  0  0  0
  -20.5726  -26.2212   23.3596 H   0  0  0  0  0  0
  -19.6962  -25.6301   21.1161 H   0  0  0  0  0  0
  -19.6724  -27.3217   20.6747 H   0  0  0  0  0  0
  -17.4240  -26.6566   21.4083 H   0  0  0  0  0  0
  -18.0448  -26.0001   22.9056 H   0  0  0  0  0  0
  -19.7989  -30.7241   24.2228 H   0  0  0  0  0  0
  -17.5064  -31.6219   24.5132 H   0  0  0  0  0  0
  -15.5389  -30.2932   23.7652 H   0  0  0  0  0  0
  -15.8722  -28.0736   22.7090 H   0  0  0  0  0  0
  -24.5872  -30.7109   25.7773 H   0  0  0  0  0  0
  -24.8913  -32.2924   26.4850 H   0  0  0  0  0  0
  -25.8008  -30.8929   27.0228 H   0  0  0  0  0  0
  -26.2974  -29.6706   24.1271 H   0  0  0  0  0  0
  -27.4023  -29.7281   25.4808 H   0  0  0  0  0  0
  -27.8859  -30.4249   23.9531 H   0  0  0  0  0  0
  -27.2608  -33.3651   26.2052 H   0  0  0  0  0  0
  -28.3842  -32.6923   25.0330 H   0  0  0  0  0  0
  -28.0704  -31.8504   26.5432 H   0  0  0  0  0  0
  -28.2592  -38.0099   24.7492 H   0  0  0  0  0  0
  -28.1073  -36.2618   24.6306 H   0  0  0  0  0  0
  -27.2286  -37.1472   25.8865 H   0  0  0  0  0  0
  -20.9375  -29.8840   21.7058 H   0  0  0  0  0  0
  -26.0155  -38.2820   24.1401 H   0  0  0  0  0  0
  -27.7689  -19.5275   23.6822 H   0  0  0  0  0  0
  -28.7811  -17.5281   22.6720 H   0  0  0  0  0  0
  -27.8383  -21.7051   22.6121 H   0  0  0  0  0  0
  -30.0145  -19.9370   19.3072 H   0  0  0  0  0  0
  -27.5759  -24.7067   19.0243 H   0  0  0  0  0  0
  -29.2733  -24.9505   19.0161 H   0  0  0  0  0  0
  -29.0641  -22.3942   19.1889 H   0  0  0  0  0  0
  -28.9846  -15.8281   21.0645 H   0  0  0  0  0  0
  1 25  1  0  0  0
  1 30  2  0  0  0
  1 81  1  0  0  0
  2  3  1  0  0  0
  2 25  1  0  0  0
  2 84  1  0  0  0
  2 85  1  0  0  0
  3  4  1  0  0  0
  3 86  1  0  0  0
  3 87  1  0  0  0
  4  5  1  0  0  0
  4 88  1  0  0  0
  4 89  1  0  0  0
  5  6  1  0  0  0
  5 26  1  0  0  0
  5 90  1  0  0  0
  6 25  1  0  0  0
  6 91  1  0  0  0
  6 92  1  0  0  0
  7  8  2  0  0  0
  7 26  1  0  0  0
  7 29  1  0  0  0
  8  9  1  0  0  0
  8 22  1  0  0  0
  9 10  1  0  0  0
  9 27  2  0  0  0
 10 11  2  0  0  0
 10 15  1  0  0  0
 11 12  1  0  0  0
 11 93  1  0  0  0
 12 13  2  0  0  0
 12 94  1  0  0  0
 13 14  1  0  0  0
 13 31  1  0  0  0
 14 15  2  0  0  0
 14 95  1  0  0  0
 15 96  1  0  0  0
 16 17  2  0  0  0
 16 21  1  0  0  0
 16 31  1  0  0  0
 17 18  1  0  0  0
 17 97  1  0  0  0
 18 19  2  0  0  0
 18 98  1  0  0  0
 19 20  1  0  0  0
 19 24  1  0  0  0
 20 21  2  0  0  0
 20 99  1  0  0  0
 21 23  1  0  0  0
 22 28  1  0  0  0
 22 32  2  0  0  0
 26 27  1  0  0  0
 28100  1  0  0  0
 28101  1  0  0  0
 29102  1  0  0  0
 29103  1  0  0  0
 33 34  1  0  0  0
 33 66  1  0  0  0
 33 70  2  0  0  0
 34 36  1  0  0  0
 34 59  1  0  0  0
 34104  1  0  0  0
 35 44  2  0  0  0
 35 45  1  0  0  0
 35 68  1  0  0  0
 36 56  1  0  0  0
 36105  1  0  0  0
 37 39  1  0  0  0
 37 47  1  0  0  0
 37 66  1  0  0  0
 37106  1  0  0  0
 38 43  2  0  0  0
 38 46  1  0  0  0
 38 47  1  0  0  0
 39 64  1  0  0  0
 39 67  2  0  0  0
 40 52  1  0  0  0
 40 53  2  0  0  0
 40 58  1  0  0  0
 41107  1  0  0  0
 41108  1  0  0  0
 41109  1  0  0  0
 41 48  1  0  0  0
 42 43  1  0  0  0
 42 66  1  0  0  0
 42110  1  0  0  0
 42111  1  0  0  0
 43 44  1  0  0  0
 44112  1  0  0  0
 45 46  2  0  0  0
 45113  1  0  0  0
 46114  1  0  0  0
 47115  1  0  0  0
 47116  1  0  0  0
 48 56  1  0  0  0
 48 65  1  0  0  0
 48117  1  0  0  0
 49 50  1  0  0  0
 49 53  1  0  0  0
 49 64  1  0  0  0
 49118  1  0  0  0
 50 51  1  0  0  0
 50119  1  0  0  0
 50120  1  0  0  0
 51 52  1  0  0  0
 51121  1  0  0  0
 51122  1  0  0  0
 52123  1  0  0  0
 52124  1  0  0  0
 53 54  1  0  0  0
 54 55  2  0  0  0
 54125  1  0  0  0
 55 57  1  0  0  0
 55126  1  0  0  0
 56 69  2  0  0  0
 57 58  2  0  0  0
 57127  1  0  0  0
 58128  1  0  0  0
 59 60  1  0  0  0
 59 61  1  0  0  0
 59 62  1  0  0  0
 60129  1  0  0  0
 60130  1  0  0  0
 60131  1  0  0  0
 61132  1  0  0  0
 61133  1  0  0  0
 61134  1  0  0  0
 62135  1  0  0  0
 62136  1  0  0  0
 62137  1  0  0  0
 63 65  1  0  0  0
 63138  1  0  0  0
 63139  1  0  0  0
 63140  1  0  0  0
 64141  1  0  0  0
 65142  1  0  0  0
 68 79  1  0  0  0
 71 72  2  0  0  0
 71 73  1  0  0  0
 71143  1  0  0  0
 72 75  1  0  0  0
 72144  1  0  0  0
 73 76  2  0  0  0
 73145  1  0  0  0
 74 75  2  0  0  0
 74 76  1  0  0  0
 74146  1  0  0  0
 75 77  1  0  0  0
 76 80  1  0  0  0
 77 81  1  0  0  0
 77 82  2  0  0  0
 78 79  1  0  0  0
 78 80  1  0  0  0
 78 83  2  0  0  0
 79147  1  0  0  0
 79148  1  0  0  0
 80149  1  0  0  0
 81150  1  0  0  0
M  ISO  4   1 100  68 101  79 101  81 100
M  END
> <chiral flag>
0

> <version>
0

> <s_m_source_file>
/data/baiqing/PycharmProjects/Reinvent-master-3.2/result/LINK_invent/BTK/process_docking_weight1_custom_product_contain_oxygen_bond_distance_aromatic_linkinvent_7_9_3/rearranged_h_0067.sdf

> <i_m_source_file_index>
64

> <r_mmod_Potential_Energy-OPLS-2005>
95.8810882568359

> <r_mmod_Stretch_Energy-OPLS-2005>
141.240432739258

> <r_mmod_Bend_Energy-OPLS-2005>
179.76286315918

> <r_mmod_Torsional_Energy-OPLS-2005>
228.920227050781

> <r_mmod_Improper_Torsional_Energy-OPLS-2005>
4.31855773925781

> <r_mmod_Van_der_Waal_Energy-OPLS-2005>
145.365158081055

> <r_mmod_Electrostatic_Energy-OPLS-2005>
-439.885101318359

> <r_mmod_Solvation_Energy-OPLS-2005>
-263.1708984375

> <b_mmod_Minimization_Converged-OPLS-2005>
0

> <r_mmod_RMS_Derivative-OPLS-2005>
2.73876738548279

$$$$
64
                    3D
 Structure written by MMmdl.
154162  0  0  1  0            999 V2000
  -30.6960  -14.4837   20.5331 C   0  0  0  0  0  0
  -30.4265  -12.2943   19.4453 C   0  0  0  0  0  0
  -29.5106  -12.4807   18.2150 C   0  0  0  0  0  0
  -28.0247  -12.3531   18.6176 C   0  0  0  0  0  0
  -27.6628  -13.2030   19.8643 C   0  0  2  0  0  0
  -28.7001  -13.0163   20.9974 C   0  0  0  0  0  0
  -25.2615  -13.8149   20.5659 C   0  0  0  0  0  0
  -24.1843  -13.0461   20.9179 C   0  0  0  0  0  0
  -24.6394  -11.6921   20.8721 C   0  0  0  0  0  0
  -23.9063  -10.4290   21.0410 C   0  0  0  0  0  0
  -24.3620   -9.4210   21.9206 C   0  0  0  0  0  0
  -23.6285   -8.2253   22.0786 C   0  0  0  0  0  0
  -22.4272   -8.0288   21.3562 C   0  0  0  0  0  0
  -21.9901   -9.0263   20.4674 C   0  0  0  0  0  0
  -22.7228  -10.2141   20.3071 C   0  0  0  0  0  0
  -21.6870   -6.0740   22.5275 C   0  0  0  0  0  0
  -21.4012   -6.5639   23.8202 C   0  0  0  0  0  0
  -21.3663   -5.6807   24.9167 C   0  0  0  0  0  0
  -21.6044   -4.3071   24.7228 C   0  0  0  0  0  0
  -21.8821   -3.8153   23.4352 C   0  0  0  0  0  0
  -21.9187   -4.6964   22.3405 C   0  0  0  0  0  0
  -22.7864  -13.5275   21.1824 C   0  0  0  0  0  0
  -22.1670   -4.2151   21.0982 F   0  0  0  0  0  0
  -21.5619   -3.4556   25.7742 F   0  0  0  0  0  0
  -30.0359  -13.2977   20.4452 N   0  0  0  0  0  0
  -26.3027  -12.9326   20.3274 N   0  0  0  0  0  0
  -25.9316  -11.6501   20.5735 N   0  0  0  0  0  0
  -22.0473  -12.8285   22.0372 N   0  0  0  0  0  0
  -25.4328  -15.1862   20.4075 N   0  0  0  0  0  0
  -31.8548  -14.6450   20.1472 O   0  0  0  0  0  0
  -21.6639   -6.8889   21.4242 O   0  0  0  0  0  0
  -22.3549  -14.5579   20.6652 O   0  0  0  0  0  0
  -24.6198  -31.8668   23.2097 C   0  0  0  0  0  0
  -25.9080  -32.4805   23.8379 C   0  0  1  0  0  0
  -27.2275  -27.4034   20.0843 C   0  0  0  0  0  0
  -25.5952  -33.8618   24.2310 N   0  0  0  0  0  0
  -23.4062  -30.4896   21.5531 C   0  0  2  0  0  0
  -24.8511  -28.9560   20.1144 C   0  0  0  0  0  0
  -22.7422  -29.4634   22.5021 C   0  0  0  0  0  0
  -18.0272  -28.1358   22.8487 C   0  0  0  0  0  0
  -24.1487  -36.7297   23.2627 C   0  0  0  0  0  0
  -25.9393  -30.8170   21.3714 C   0  0  0  0  0  0
  -26.0150  -29.4504   20.7152 C   0  0  0  0  0  0
  -27.2070  -28.6811   20.6976 C   0  0  0  0  0  0
  -26.0373  -26.9376   19.4728 C   0  0  0  0  0  0
  -24.8587  -27.6993   19.4899 C   0  0  0  0  0  0
  -23.6146  -29.8260   20.1657 C   0  0  0  0  0  0
  -25.4114  -36.3112   24.0328 C   0  0  1  0  0  0
  -20.5844  -28.3622   23.1323 C   0  0  2  0  0  0
  -20.6769  -26.9378   22.5385 C   0  0  0  0  0  0
  -19.5731  -26.6337   21.5219 C   0  0  0  0  0  0
  -18.1911  -26.7902   22.1626 C   0  0  0  0  0  0
  -19.1511  -28.8820   23.2904 C   0  0  0  0  0  0
  -18.9440  -30.1412   23.8938 C   0  0  0  0  0  0
  -17.6449  -30.6544   24.0598 C   0  0  0  0  0  0
  -25.9063  -34.9473   23.5102 C   0  0  0  0  0  0
  -16.5332  -29.9060   23.6322 C   0  0  0  0  0  0
  -16.7249  -28.6478   23.0324 C   0  0  0  0  0  0
  -26.4509  -31.6614   25.0722 C   0  0  0  0  0  0
  -25.3718  -31.3774   26.1420 C   0  0  0  0  0  0
  -27.0352  -30.3055   24.6131 C   0  0  0  0  0  0
  -27.6083  -32.4321   25.7483 C   0  0  0  0  0  0
  -27.5587  -37.1802   24.8470 C   0  0  0  0  0  0
  -21.4138  -29.3001   22.3752 N   0  0  0  0  0  0
  -26.4306  -37.3790   23.9404 N   0  0  0  0  0  0
  -24.6724  -31.0729   22.1009 N   0  0  0  0  0  0
  -23.4212  -28.8177   23.3047 O   0  0  0  0  0  0
  -28.3808  -26.6320   20.1011 O   0  0  0  0  0  0
  -26.5583  -34.8929   22.4645 O   0  0  0  0  0  0
  -23.5373  -32.1471   23.7447 O   0  0  0  0  0  0
  -29.6719  -16.6427   18.7179 C   0  0  0  0  0  0
  -29.4109  -17.7838   17.9492 C   0  0  0  0  0  0
  -29.7587  -18.0276   20.7251 C   0  0  0  0  0  0
  -29.8267  -16.7405   20.1181 C   0  0  0  0  0  0
  -29.5202  -19.1995   19.9492 C   0  0  0  0  0  0
  -29.3073  -19.0446   18.5550 C   0  0  0  0  0  0
  -29.6252  -21.7246   20.1089 C   0  0  0  0  0  0
  -29.1026  -22.9084   20.9559 C   0  0  0  0  0  0
  -29.4310  -24.3715   20.4934 C   0  0  0  0  0  0
  -28.1914  -25.1957   20.0558 C   0  0  0  0  0  0
  -29.3916  -20.4794   20.5964 N   0  0  0  0  0  0
  -29.9290  -15.5374   20.8861 N   0  0  0  0  0  0
  -30.2736  -21.9441   19.0817 O   0  0  0  0  0  0
  -28.9267  -20.0830   17.7775 F   0  0  0  0  0  0
  -31.4769  -12.3839   19.1595 H   0  0  0  0  0  0
  -30.3123  -11.2903   19.8571 H   0  0  0  0  0  0
  -29.7515  -11.7372   17.4527 H   0  0  0  0  0  0
  -29.6972  -13.4507   17.7526 H   0  0  0  0  0  0
  -27.8286  -11.2970   18.8165 H   0  0  0  0  0  0
  -27.3850  -12.6233   17.7753 H   0  0  0  0  0  0
  -27.6969  -14.2434   19.5428 H   0  0  0  0  0  0
  -28.6659  -11.9999   21.3875 H   0  0  0  0  0  0
  -28.4611  -13.6576   21.8467 H   0  0  0  0  0  0
  -25.2783   -9.5686   22.4751 H   0  0  0  0  0  0
  -23.9998   -7.4666   22.7531 H   0  0  0  0  0  0
  -21.0822   -8.8782   19.8991 H   0  0  0  0  0  0
  -22.3703  -10.9671   19.6153 H   0  0  0  0  0  0
  -21.2001   -7.6153   23.9696 H   0  0  0  0  0  0
  -21.1486   -6.0544   25.9066 H   0  0  0  0  0  0
  -22.0584   -2.7608   23.2856 H   0  0  0  0  0  0
  -22.4082  -11.9976   22.4816 H   0  0  0  0  0  0
  -21.1066  -13.1313   22.2482 H   0  0  0  0  0  0
  -24.6667  -15.8414   20.5151 H   0  0  0  0  0  0
  -26.2849  -15.6234   20.0820 H   0  0  0  0  0  0
  -26.7145  -32.5524   23.1122 H   0  0  0  0  0  0
  -25.0228  -33.9798   25.0547 H   0  0  0  0  0  0
  -22.6939  -31.3066   21.4169 H   0  0  0  0  0  0
  -23.3761  -35.9628   23.3312 H   0  0  0  0  0  0
  -24.3594  -36.8901   22.2051 H   0  0  0  0  0  0
  -23.7244  -37.6503   23.6620 H   0  0  0  0  0  0
  -26.0617  -31.5788   20.6008 H   0  0  0  0  0  0
  -26.8254  -30.8678   21.9920 H   0  0  0  0  0  0
  -28.1040  -29.0522   21.1746 H   0  0  0  0  0  0
  -26.0008  -25.9870   18.9655 H   0  0  0  0  0  0
  -23.9663  -27.3193   19.0121 H   0  0  0  0  0  0
  -23.7224  -30.6052   19.4094 H   0  0  0  0  0  0
  -22.7346  -29.2493   19.8700 H   0  0  0  0  0  0
  -25.1284  -36.1969   25.0823 H   0  0  0  0  0  0
  -20.9945  -28.3137   24.1444 H   0  0  0  0  0  0
  -20.5708  -26.2260   23.3600 H   0  0  0  0  0  0
  -21.6640  -26.7459   22.1110 H   0  0  0  0  0  0
  -19.6915  -25.6233   21.1286 H   0  0  0  0  0  0
  -19.6693  -27.3131   20.6733 H   0  0  0  0  0  0
  -17.4196  -26.6692   21.3998 H   0  0  0  0  0  0
  -18.0240  -26.0039   22.9006 H   0  0  0  0  0  0
  -19.7918  -30.7188   24.2372 H   0  0  0  0  0  0
  -17.4991  -31.6212   24.5218 H   0  0  0  0  0  0
  -15.5326  -30.2961   23.7627 H   0  0  0  0  0  0
  -15.8646  -28.0795   22.7025 H   0  0  0  0  0  0
  -24.5847  -30.7201   25.7717 H   0  0  0  0  0  0
  -24.8944  -32.2957   26.4829 H   0  0  0  0  0  0
  -25.7977  -30.8915   27.0197 H   0  0  0  0  0  0
  -26.2928  -29.6798   24.1146 H   0  0  0  0  0  0
  -27.4113  -29.7311   25.4616 H   0  0  0  0  0  0
  -27.8760  -30.4404   23.9317 H   0  0  0  0  0  0
  -27.2722  -33.3597   26.2105 H   0  0  0  0  0  0
  -28.3853  -32.6915   25.0289 H   0  0  0  0  0  0
  -28.0770  -31.8411   26.5352 H   0  0  0  0  0  0
  -28.2592  -38.0096   24.7506 H   0  0  0  0  0  0
  -28.1077  -36.2637   24.6284 H   0  0  0  0  0  0
  -27.2303  -37.1450   25.8866 H   0  0  0  0  0  0
  -20.9293  -29.8752   21.7012 H   0  0  0  0  0  0
  -26.0193  -38.2868   24.1391 H   0  0  0  0  0  0
  -29.7016  -15.6842   18.2204 H   0  0  0  0  0  0
  -29.2503  -17.6925   16.8858 H   0  0  0  0  0  0
  -29.8723  -18.1112   21.7970 H   0  0  0  0  0  0
  -29.4908  -22.7742   21.9632 H   0  0  0  0  0  0
  -28.0242  -22.7853   21.0470 H   0  0  0  0  0  0
  -30.1839  -24.3891   19.7028 H   0  0  0  0  0  0
  -29.8893  -24.8891   21.3348 H   0  0  0  0  0  0
  -27.3704  -24.9441   20.7305 H   0  0  0  0  0  0
  -27.8961  -24.8798   19.0532 H   0  0  0  0  0  0
  -29.0491  -20.4404   21.5420 H   0  0  0  0  0  0
  -29.0655  -15.2494   21.3226 H   0  0  0  0  0  0
  1 25  1  0  0  0
  1 30  2  0  0  0
  1 82  1  0  0  0
  2  3  1  0  0  0
  2 25  1  0  0  0
  2 85  1  0  0  0
  2 86  1  0  0  0
  3  4  1  0  0  0
  3 87  1  0  0  0
  3 88  1  0  0  0
  4  5  1  0  0  0
  4 89  1  0  0  0
  4 90  1  0  0  0
  5  6  1  0  0  0
  5 26  1  0  0  0
  5 91  1  0  0  0
  6 25  1  0  0  0
  6 92  1  0  0  0
  6 93  1  0  0  0
  7  8  2  0  0  0
  7 26  1  0  0  0
  7 29  1  0  0  0
  8  9  1  0  0  0
  8 22  1  0  0  0
  9 10  1  0  0  0
  9 27  2  0  0  0
 10 11  2  0  0  0
 10 15  1  0  0  0
 11 12  1  0  0  0
 11 94  1  0  0  0
 12 13  2  0  0  0
 12 95  1  0  0  0
 13 14  1  0  0  0
 13 31  1  0  0  0
 14 15  2  0  0  0
 14 96  1  0  0  0
 15 97  1  0  0  0
 16 17  2  0  0  0
 16 21  1  0  0  0
 16 31  1  0  0  0
 17 18  1  0  0  0
 17 98  1  0  0  0
 18 19  2  0  0  0
 18 99  1  0  0  0
 19 20  1  0  0  0
 19 24  1  0  0  0
 20 21  2  0  0  0
 20100  1  0  0  0
 21 23  1  0  0  0
 22 28  1  0  0  0
 22 32  2  0  0  0
 26 27  1  0  0  0
 28101  1  0  0  0
 28102  1  0  0  0
 29103  1  0  0  0
 29104  1  0  0  0
 33 34  1  0  0  0
 33 66  1  0  0  0
 33 70  2  0  0  0
 34 36  1  0  0  0
 34 59  1  0  0  0
 34105  1  0  0  0
 35 44  2  0  0  0
 35 45  1  0  0  0
 35 68  1  0  0  0
 36 56  1  0  0  0
 36106  1  0  0  0
 37 39  1  0  0  0
 37 47  1  0  0  0
 37 66  1  0  0  0
 37107  1  0  0  0
 38 43  2  0  0  0
 38 46  1  0  0  0
 38 47  1  0  0  0
 39 64  1  0  0  0
 39 67  2  0  0  0
 40 52  1  0  0  0
 40 53  2  0  0  0
 40 58  1  0  0  0
 41108  1  0  0  0
 41109  1  0  0  0
 41110  1  0  0  0
 41 48  1  0  0  0
 42 43  1  0  0  0
 42 66  1  0  0  0
 42111  1  0  0  0
 42112  1  0  0  0
 43 44  1  0  0  0
 44113  1  0  0  0
 45 46  2  0  0  0
 45114  1  0  0  0
 46115  1  0  0  0
 47116  1  0  0  0
 47117  1  0  0  0
 48 56  1  0  0  0
 48 65  1  0  0  0
 48118  1  0  0  0
 49 50  1  0  0  0
 49 53  1  0  0  0
 49 64  1  0  0  0
 49119  1  0  0  0
 50 51  1  0  0  0
 50120  1  0  0  0
 50121  1  0  0  0
 51 52  1  0  0  0
 51122  1  0  0  0
 51123  1  0  0  0
 52124  1  0  0  0
 52125  1  0  0  0
 53 54  1  0  0  0
 54 55  2  0  0  0
 54126  1  0  0  0
 55 57  1  0  0  0
 55127  1  0  0  0
 56 69  2  0  0  0
 57 58  2  0  0  0
 57128  1  0  0  0
 58129  1  0  0  0
 59 60  1  0  0  0
 59 61  1  0  0  0
 59 62  1  0  0  0
 60130  1  0  0  0
 60131  1  0  0  0
 60132  1  0  0  0
 61133  1  0  0  0
 61134  1  0  0  0
 61135  1  0  0  0
 62136  1  0  0  0
 62137  1  0  0  0
 62138  1  0  0  0
 63 65  1  0  0  0
 63139  1  0  0  0
 63140  1  0  0  0
 63141  1  0  0  0
 64142  1  0  0  0
 65143  1  0  0  0
 68 80  1  0  0  0
 71 72  2  0  0  0
 71 74  1  0  0  0
 71144  1  0  0  0
 72 76  1  0  0  0
 72145  1  0  0  0
 73 74  2  0  0  0
 73 75  1  0  0  0
 73146  1  0  0  0
 74 82  1  0  0  0
 75 76  2  0  0  0
 75 81  1  0  0  0
 76 84  1  0  0  0
 77 78  1  0  0  0
 77 81  1  0  0  0
 77 83  2  0  0  0
 78 79  1  0  0  0
 78147  1  0  0  0
 78148  1  0  0  0
 79 80  1  0  0  0
 79149  1  0  0  0
 79150  1  0  0  0
 80151  1  0  0  0
 80152  1  0  0  0
 81153  1  0  0  0
 82154  1  0  0  0
M  ISO  4   1 100  68 101  80 101  82 100
M  END
> <chiral flag>
0

> <version>
0

> <s_m_source_file>
/data/baiqing/PycharmProjects/Reinvent-master-3.2/result/LINK_invent/BTK/process_docking_weight1_custom_product_contain_oxygen_bond_distance_aromatic_linkinvent_7_9_3/rearranged_h_0067.sdf

> <i_m_source_file_index>
65

> <r_mmod_Potential_Energy-OPLS-2005>
-66.9000549316406

> <r_mmod_Stretch_Energy-OPLS-2005>
44.5951385498047

> <r_mmod_Bend_Energy-OPLS-2005>
102.115333557129

> <r_mmod_Torsional_Energy-OPLS-2005>
270.050994873047

> <r_mmod_Improper_Torsional_Energy-OPLS-2005>
8.49621772766113

> <r_mmod_Van_der_Waal_Energy-OPLS-2005>
159.895477294922

> <r_mmod_Electrostatic_Energy-OPLS-2005>
-426.204162597656

> <r_mmod_Solvation_Energy-OPLS-2005>
-244.664138793945

> <b_mmod_Minimization_Converged-OPLS-2005>
0

> <r_mmod_RMS_Derivative-OPLS-2005>
6.34159278869629

$$$$
65
                    3D
 Structure written by MMmdl.
158166  0  0  1  0            999 V2000
  -30.7474  -14.3968   20.7098 C   0  0  0  0  0  0
  -30.4308  -12.3121   19.4246 C   0  0  0  0  0  0
  -29.4954  -12.5318   18.2176 C   0  0  0  0  0  0
  -28.0264  -12.3710   18.6347 C   0  0  0  0  0  0
  -27.6714  -13.2045   19.8908 C   0  0  2  0  0  0
  -28.7063  -12.9681   21.0154 C   0  0  0  0  0  0
  -25.2632  -13.8165   20.5634 C   0  0  0  0  0  0
  -24.1884  -13.0448   20.9162 C   0  0  0  0  0  0
  -24.6446  -11.6918   20.8757 C   0  0  0  0  0  0
  -23.9111  -10.4297   21.0406 C   0  0  0  0  0  0
  -24.3642   -9.4193   21.9176 C   0  0  0  0  0  0
  -23.6303   -8.2244   22.0745 C   0  0  0  0  0  0
  -22.4269   -8.0297   21.3556 C   0  0  0  0  0  0
  -21.9922   -9.0273   20.4644 C   0  0  0  0  0  0
  -22.7268  -10.2151   20.3052 C   0  0  0  0  0  0
  -21.6864   -6.0744   22.5279 C   0  0  0  0  0  0
  -21.4014   -6.5644   23.8217 C   0  0  0  0  0  0
  -21.3660   -5.6790   24.9177 C   0  0  0  0  0  0
  -21.6036   -4.3055   24.7229 C   0  0  0  0  0  0
  -21.8821   -3.8151   23.4345 C   0  0  0  0  0  0
  -21.9181   -4.6971   22.3403 C   0  0  0  0  0  0
  -22.7906  -13.5232   21.1860 C   0  0  0  0  0  0
  -22.1656   -4.2152   21.0982 F   0  0  0  0  0  0
  -21.5634   -3.4541   25.7745 F   0  0  0  0  0  0
  -30.0604  -13.2432   20.4964 N   0  0  0  0  0  0
  -26.3095  -12.9331   20.3430 N   0  0  0  0  0  0
  -25.9372  -11.6489   20.5816 N   0  0  0  0  0  0
  -22.0562  -12.8212   22.0412 N   0  0  0  0  0  0
  -25.4317  -15.1871   20.3901 N   0  0  0  0  0  0
  -31.7514  -14.7186   20.0599 O   0  0  0  0  0  0
  -21.6638   -6.8891   21.4246 O   0  0  0  0  0  0
  -22.3584  -14.5539   20.6707 O   0  0  0  0  0  0
  -24.6166  -31.8656   23.2088 C   0  0  0  0  0  0
  -25.9047  -32.4805   23.8400 C   0  0  1  0  0  0
  -27.2413  -27.4099   20.1249 C   0  0  0  0  0  0
  -25.5917  -33.8611   24.2334 N   0  0  0  0  0  0
  -23.4106  -30.4853   21.5472 C   0  0  2  0  0  0
  -24.8645  -28.9513   20.1106 C   0  0  0  0  0  0
  -22.7426  -29.4651   22.4978 C   0  0  0  0  0  0
  -18.0301  -28.1350   22.8456 C   0  0  0  0  0  0
  -24.1486  -36.7296   23.2634 C   0  0  0  0  0  0
  -25.9411  -30.8262   21.3662 C   0  0  0  0  0  0
  -26.0235  -29.4590   20.7134 C   0  0  0  0  0  0
  -27.2188  -28.7000   20.7101 C   0  0  0  0  0  0
  -26.0716  -26.9266   19.5028 C   0  0  0  0  0  0
  -24.8866  -27.6880   19.4904 C   0  0  0  0  0  0
  -23.6224  -29.8148   20.1623 C   0  0  0  0  0  0
  -25.4103  -36.3103   24.0339 C   0  0  1  0  0  0
  -20.5866  -28.3682   23.1340 C   0  0  2  0  0  0
  -20.6792  -26.9424   22.5482 C   0  0  0  0  0  0
  -19.5831  -26.6431   21.5201 C   0  0  0  0  0  0
  -18.1987  -26.7913   22.1570 C   0  0  0  0  0  0
  -19.1517  -28.8847   23.2888 C   0  0  0  0  0  0
  -18.9424  -30.1452   23.8859 C   0  0  0  0  0  0
  -17.6409  -30.6569   24.0512 C   0  0  0  0  0  0
  -25.9043  -34.9469   23.5135 C   0  0  0  0  0  0
  -16.5321  -29.9028   23.6291 C   0  0  0  0  0  0
  -16.7255  -28.6443   23.0314 C   0  0  0  0  0  0
  -26.4479  -31.6580   25.0731 C   0  0  0  0  0  0
  -25.3763  -31.3705   26.1499 C   0  0  0  0  0  0
  -27.0326  -30.3035   24.6121 C   0  0  0  0  0  0
  -27.6066  -32.4311   25.7477 C   0  0  0  0  0  0
  -27.5578  -37.1798   24.8470 C   0  0  0  0  0  0
  -21.4138  -29.3058   22.3743 N   0  0  0  0  0  0
  -26.4294  -37.3786   23.9407 N   0  0  0  0  0  0
  -24.6741  -31.0732   22.0996 N   0  0  0  0  0  0
  -23.4170  -28.8201   23.3048 O   0  0  0  0  0  0
  -28.3560  -26.5960   20.1840 O   0  0  0  0  0  0
  -26.5602  -34.8913   22.4698 O   0  0  0  0  0  0
  -23.5360  -32.1414   23.7473 O   0  0  0  0  0  0
  -28.3925  -18.1958   22.4397 C   0  0  0  0  0  0
  -30.6658  -17.4857   20.9646 C   0  0  0  0  0  0
  -28.9879  -19.1732   21.6012 C   0  0  0  0  0  0
  -30.1645  -18.8054   20.8858 C   0  0  0  0  0  0
  -29.9991  -16.5003   21.7338 C   0  0  0  0  0  0
  -28.9087  -16.8927   22.5297 C   0  0  0  0  0  0
  -28.3315  -20.5077   21.5483 C   0  0  0  0  0  0
  -28.9135  -24.1677   20.8457 C   0  0  0  0  0  0
  -28.5330  -23.0556   21.8760 C   0  0  0  0  0  0
  -28.2282  -25.5352   21.1644 C   0  0  0  0  0  0
  -30.8626  -19.6953   20.0679 N   0  0  0  0  0  0
  -26.9980  -20.5626   21.4707 N   0  0  0  0  0  0
  -30.3310  -15.1184   21.7586 N   0  0  0  0  0  0
  -29.0198  -21.6707   21.5922 N   0  3  0  0  0  0
  -28.3389  -15.9871   23.3544 F   0  0  0  0  0  0
  -31.4730  -12.4287   19.1184 H   0  0  0  0  0  0
  -30.3459  -11.2886   19.7935 H   0  0  0  0  0  0
  -29.7410  -11.8270   17.4219 H   0  0  0  0  0  0
  -29.6576  -13.5295   17.8063 H   0  0  0  0  0  0
  -27.8508  -11.3141   18.8337 H   0  0  0  0  0  0
  -27.3714  -12.6404   17.8088 H   0  0  0  0  0  0
  -27.7288  -14.2554   19.6083 H   0  0  0  0  0  0
  -28.6664  -11.9365   21.3723 H   0  0  0  0  0  0
  -28.4346  -13.5720   21.8801 H   0  0  0  0  0  0
  -25.2801   -9.5659   22.4754 H   0  0  0  0  0  0
  -24.0007   -7.4627   22.7462 H   0  0  0  0  0  0
  -21.0855   -8.8805   19.8966 H   0  0  0  0  0  0
  -22.3728  -10.9691   19.6170 H   0  0  0  0  0  0
  -21.2006   -7.6152   23.9719 H   0  0  0  0  0  0
  -21.1486   -6.0530   25.9084 H   0  0  0  0  0  0
  -22.0591   -2.7612   23.2852 H   0  0  0  0  0  0
  -22.4202  -11.9869   22.4789 H   0  0  0  0  0  0
  -21.1193  -13.1279   22.2678 H   0  0  0  0  0  0
  -24.6548  -15.8340   20.4553 H   0  0  0  0  0  0
  -26.2650  -15.6085   20.0005 H   0  0  0  0  0  0
  -26.7104  -32.5507   23.1151 H   0  0  0  0  0  0
  -25.0105  -33.9777   25.0498 H   0  0  0  0  0  0
  -22.6992  -31.3007   21.4041 H   0  0  0  0  0  0
  -23.3745  -35.9639   23.3324 H   0  0  0  0  0  0
  -24.3579  -36.8885   22.2052 H   0  0  0  0  0  0
  -23.7251  -37.6511   23.6622 H   0  0  0  0  0  0
  -26.0591  -31.5873   20.5946 H   0  0  0  0  0  0
  -26.8252  -30.8791   21.9890 H   0  0  0  0  0  0
  -28.1107  -29.0803   21.1857 H   0  0  0  0  0  0
  -26.0749  -25.9460   19.0465 H   0  0  0  0  0  0
  -23.9973  -27.2894   19.0190 H   0  0  0  0  0  0
  -23.7234  -30.5881   19.4008 H   0  0  0  0  0  0
  -22.7482  -29.2286   19.8724 H   0  0  0  0  0  0
  -25.1269  -36.1972   25.0835 H   0  0  0  0  0  0
  -20.9941  -28.3313   24.1467 H   0  0  0  0  0  0
  -20.5640  -26.2316   23.3681 H   0  0  0  0  0  0
  -21.6695  -26.7468   22.1358 H   0  0  0  0  0  0
  -19.7056  -25.6378   21.1158 H   0  0  0  0  0  0
  -19.6811  -27.3315   20.6802 H   0  0  0  0  0  0
  -17.4294  -26.6661   21.3936 H   0  0  0  0  0  0
  -18.0414  -26.0014   22.8934 H   0  0  0  0  0  0
  -19.7883  -30.7310   24.2226 H   0  0  0  0  0  0
  -17.4918  -31.6247   24.5060 H   0  0  0  0  0  0
  -15.5298  -30.2875   23.7585 H   0  0  0  0  0  0
  -15.8696  -28.0715   22.7031 H   0  0  0  0  0  0
  -24.5897  -30.7097   25.7829 H   0  0  0  0  0  0
  -24.8992  -32.2872   26.4983 H   0  0  0  0  0  0
  -25.8126  -30.8835   27.0232 H   0  0  0  0  0  0
  -26.2893  -29.6791   24.1177 H   0  0  0  0  0  0
  -27.4096  -29.7289   25.4576 H   0  0  0  0  0  0
  -27.8704  -30.4347   23.9287 H   0  0  0  0  0  0
  -27.2685  -33.3577   26.2143 H   0  0  0  0  0  0
  -28.3829  -32.6957   25.0273 H   0  0  0  0  0  0
  -28.0807  -31.8399   26.5331 H   0  0  0  0  0  0
  -28.2609  -38.0080   24.7502 H   0  0  0  0  0  0
  -28.1067  -36.2618   24.6302 H   0  0  0  0  0  0
  -27.2313  -37.1471   25.8881 H   0  0  0  0  0  0
  -20.9338  -29.8771   21.6941 H   0  0  0  0  0  0
  -26.0187  -38.2868   24.1401 H   0  0  0  0  0  0
  -27.5161  -18.4275   23.0303 H   0  0  0  0  0  0
  -31.5456  -17.2121   20.4037 H   0  0  0  0  0  0
  -28.6587  -23.8503   19.8357 H   0  0  0  0  0  0
  -29.9932  -24.3013   20.8616 H   0  0  0  0  0  0
  -27.4541  -23.0533   22.0127 H   0  0  0  0  0  0
  -28.9307  -23.3366   22.8533 H   0  0  0  0  0  0
  -28.6362  -25.9206   22.0987 H   0  0  0  0  0  0
  -27.1735  -25.3347   21.3672 H   0  0  0  0  0  0
  -30.3681  -19.9654   19.2178 H   0  0  0  0  0  0
  -31.7986  -19.3953   19.8070 H   0  0  0  0  0  0
  -26.4883  -19.7319   21.2058 H   0  0  0  0  0  0
  -26.4984  -21.4286   21.4156 H   0  0  0  0  0  0
  -29.7341  -14.5919   22.3746 H   0  0  0  0  0  0
  -30.0244  -21.5461   21.4901 H   0  0  0  0  0  0
  1 25  1  0  0  0
  1 30  2  0  0  0
  1 83  1  0  0  0
  2  3  1  0  0  0
  2 25  1  0  0  0
  2 86  1  0  0  0
  2 87  1  0  0  0
  3  4  1  0  0  0
  3 88  1  0  0  0
  3 89  1  0  0  0
  4  5  1  0  0  0
  4 90  1  0  0  0
  4 91  1  0  0  0
  5  6  1  0  0  0
  5 26  1  0  0  0
  5 92  1  0  0  0
  6 25  1  0  0  0
  6 93  1  0  0  0
  6 94  1  0  0  0
  7  8  2  0  0  0
  7 26  1  0  0  0
  7 29  1  0  0  0
  8  9  1  0  0  0
  8 22  1  0  0  0
  9 10  1  0  0  0
  9 27  2  0  0  0
 10 11  2  0  0  0
 10 15  1  0  0  0
 11 12  1  0  0  0
 11 95  1  0  0  0
 12 13  2  0  0  0
 12 96  1  0  0  0
 13 14  1  0  0  0
 13 31  1  0  0  0
 14 15  2  0  0  0
 14 97  1  0  0  0
 15 98  1  0  0  0
 16 17  2  0  0  0
 16 21  1  0  0  0
 16 31  1  0  0  0
 17 18  1  0  0  0
 17 99  1  0  0  0
 18 19  2  0  0  0
 18100  1  0  0  0
 19 20  1  0  0  0
 19 24  1  0  0  0
 20 21  2  0  0  0
 20101  1  0  0  0
 21 23  1  0  0  0
 22 28  1  0  0  0
 22 32  2  0  0  0
 26 27  1  0  0  0
 28102  1  0  0  0
 28103  1  0  0  0
 29104  1  0  0  0
 29105  1  0  0  0
 33 34  1  0  0  0
 33 66  1  0  0  0
 33 70  2  0  0  0
 34 36  1  0  0  0
 34 59  1  0  0  0
 34106  1  0  0  0
 35 44  2  0  0  0
 35 45  1  0  0  0
 35 68  1  0  0  0
 36 56  1  0  0  0
 36107  1  0  0  0
 37 39  1  0  0  0
 37 47  1  0  0  0
 37 66  1  0  0  0
 37108  1  0  0  0
 38 43  2  0  0  0
 38 46  1  0  0  0
 38 47  1  0  0  0
 39 64  1  0  0  0
 39 67  2  0  0  0
 40 52  1  0  0  0
 40 53  2  0  0  0
 40 58  1  0  0  0
 41109  1  0  0  0
 41110  1  0  0  0
 41111  1  0  0  0
 41 48  1  0  0  0
 42 43  1  0  0  0
 42 66  1  0  0  0
 42112  1  0  0  0
 42113  1  0  0  0
 43 44  1  0  0  0
 44114  1  0  0  0
 45 46  2  0  0  0
 45115  1  0  0  0
 46116  1  0  0  0
 47117  1  0  0  0
 47118  1  0  0  0
 48 56  1  0  0  0
 48 65  1  0  0  0
 48119  1  0  0  0
 49 50  1  0  0  0
 49 53  1  0  0  0
 49 64  1  0  0  0
 49120  1  0  0  0
 50 51  1  0  0  0
 50121  1  0  0  0
 50122  1  0  0  0
 51 52  1  0  0  0
 51123  1  0  0  0
 51124  1  0  0  0
 52125  1  0  0  0
 52126  1  0  0  0
 53 54  1  0  0  0
 54 55  2  0  0  0
 54127  1  0  0  0
 55 57  1  0  0  0
 55128  1  0  0  0
 56 69  2  0  0  0
 57 58  2  0  0  0
 57129  1  0  0  0
 58130  1  0  0  0
 59 60  1  0  0  0
 59 61  1  0  0  0
 59 62  1  0  0  0
 60131  1  0  0  0
 60132  1  0  0  0
 60133  1  0  0  0
 61134  1  0  0  0
 61135  1  0  0  0
 61136  1  0  0  0
 62137  1  0  0  0
 62138  1  0  0  0
 62139  1  0  0  0
 63 65  1  0  0  0
 63140  1  0  0  0
 63141  1  0  0  0
 63142  1  0  0  0
 64143  1  0  0  0
 65144  1  0  0  0
 68 80  1  0  0  0
 71 73  2  0  0  0
 71 76  1  0  0  0
 71145  1  0  0  0
 72 74  2  0  0  0
 72 75  1  0  0  0
 72146  1  0  0  0
 73 74  1  0  0  0
 73 77  1  0  0  0
 74 81  1  0  0  0
 75 76  2  0  0  0
 75 83  1  0  0  0
 76 85  1  0  0  0
 77 82  1  0  0  0
 77 84  2  0  0  0
 78 79  1  0  0  0
 78 80  1  0  0  0
 78147  1  0  0  0
 78148  1  0  0  0
 79 84  1  0  0  0
 79149  1  0  0  0
 79150  1  0  0  0
 80151  1  0  0  0
 80152  1  0  0  0
 81153  1  0  0  0
 81154  1  0  0  0
 82155  1  0  0  0
 82156  1  0  0  0
 83157  1  0  0  0
 84158  1  0  0  0
M  CHG  1  84   1
M  ISO  4   1 100  68 101  80 101  83 100
M  END
> <chiral flag>
0

> <version>
0

> <s_m_source_file>
/data/baiqing/PycharmProjects/Reinvent-master-3.2/result/LINK_invent/BTK/process_docking_weight1_custom_product_contain_oxygen_bond_distance_aromatic_linkinvent_7_9_3/rearranged_h_0067.sdf

> <i_m_source_file_index>
66

> <r_mmod_Potential_Energy-OPLS-2005>
-149.454360961914

> <r_mmod_Stretch_Energy-OPLS-2005>
42.7941703796387

> <r_mmod_Bend_Energy-OPLS-2005>
107.739456176758

> <r_mmod_Torsional_Energy-OPLS-2005>
273.087310791016

> <r_mmod_Improper_Torsional_Energy-OPLS-2005>
12.4714307785034

> <r_mmod_Van_der_Waal_Energy-OPLS-2005>
155.104064941406

> <r_mmod_Electrostatic_Energy-OPLS-2005>
-335.09326171875

> <r_mmod_Solvation_Energy-OPLS-2005>
-420.363586425781

> <b_mmod_Minimization_Converged-OPLS-2005>
0

> <r_mmod_RMS_Derivative-OPLS-2005>
8.31277084350586

$$$$
66
                    3D
 Structure written by MMmdl.
142149  0  0  1  0            999 V2000
  -30.3670  -15.4320   20.3364 C   0  0  0  0  0  0
  -30.4365  -12.9181   19.5533 C   0  0  0  0  0  0
  -29.5504  -12.6130   18.3142 C   0  0  0  0  0  0
  -28.1048  -12.3024   18.7360 C   0  0  0  0  0  0
  -27.6035  -13.2929   19.8134 C   0  0  2  0  0  0
  -28.6226  -13.5368   20.9460 C   0  0  0  0  0  0
  -25.2358  -13.8270   20.5751 C   0  0  0  0  0  0
  -24.1729  -13.0438   20.9258 C   0  0  0  0  0  0
  -24.6408  -11.6942   20.8746 C   0  0  0  0  0  0
  -23.9108  -10.4294   21.0395 C   0  0  0  0  0  0
  -24.3647   -9.4209   21.9178 C   0  0  0  0  0  0
  -23.6311   -8.2249   22.0753 C   0  0  0  0  0  0
  -22.4291   -8.0287   21.3545 C   0  0  0  0  0  0
  -21.9934   -9.0261   20.4644 C   0  0  0  0  0  0
  -22.7274  -10.2134   20.3049 C   0  0  0  0  0  0
  -21.6859   -6.0741   22.5279 C   0  0  0  0  0  0
  -21.4019   -6.5643   23.8213 C   0  0  0  0  0  0
  -21.3661   -5.6794   24.9174 C   0  0  0  0  0  0
  -21.6044   -4.3057   24.7224 C   0  0  0  0  0  0
  -21.8818   -3.8149   23.4345 C   0  0  0  0  0  0
  -21.9194   -4.6967   22.3401 C   0  0  0  0  0  0
  -22.7745  -13.5178   21.1912 C   0  0  0  0  0  0
  -22.1662   -4.2153   21.0979 F   0  0  0  0  0  0
  -21.5627   -3.4540   25.7736 F   0  0  0  0  0  0
  -29.8458  -14.0852   20.3297 N   0  0  0  0  0  0
  -26.2786  -12.9574   20.3172 N   0  0  0  0  0  0
  -25.9346  -11.6662   20.5675 N   0  0  0  0  0  0
  -22.0413  -12.8153   22.0467 N   0  0  0  0  0  0
  -25.3986  -15.2009   20.4220 N   0  0  0  0  0  0
  -31.5924  -15.3947   20.1313 O   0  0  0  0  0  0
  -21.6649   -6.8887   21.4243 O   0  0  0  0  0  0
  -22.3417  -14.5478   20.6755 O   0  0  0  0  0  0
  -24.6727  -31.8124   23.1609 C   0  0  0  0  0  0
  -25.9361  -32.4530   23.8114 C   0  0  1  0  0  0
  -27.2218  -26.8213   20.2027 C   0  0  0  0  0  0
  -25.5985  -33.8349   24.2011 N   0  0  0  0  0  0
  -23.4928  -30.4190   21.5125 C   0  0  2  0  0  0
  -24.9478  -28.7826   20.1163 C   0  0  0  0  0  0
  -22.7713  -29.4382   22.4749 C   0  0  0  0  0  0
  -18.0330  -28.1415   22.8461 C   0  0  0  0  0  0
  -24.1494  -36.7181   23.2650 C   0  0  0  0  0  0
  -26.0674  -30.5849   21.4065 C   0  0  0  0  0  0
  -26.1346  -29.1625   20.7547 C   0  0  0  0  0  0
  -27.2627  -28.2069   20.7664 C   0  0  0  0  0  0
  -26.0029  -26.6181   19.5140 C   0  0  0  0  0  0
  -24.9136  -27.5336   19.4735 C   0  0  0  0  0  0
  -23.7392  -29.7243   20.1437 C   0  0  0  0  0  0
  -25.4140  -36.2933   24.0290 C   0  0  1  0  0  0
  -20.5960  -28.3767   23.1167 C   0  0  2  0  0  0
  -20.6802  -26.9438   22.5403 C   0  0  0  0  0  0
  -19.5776  -26.6375   21.5215 C   0  0  0  0  0  0
  -18.1959  -26.7946   22.1621 C   0  0  0  0  0  0
  -19.1594  -28.8914   23.2798 C   0  0  0  0  0  0
  -18.9501  -30.1500   23.8839 C   0  0  0  0  0  0
  -17.6493  -30.6601   24.0553 C   0  0  0  0  0  0
  -25.9113  -34.9319   23.4980 C   0  0  0  0  0  0
  -16.5383  -29.9085   23.6347 C   0  0  0  0  0  0
  -16.7311  -28.6507   23.0365 C   0  0  0  0  0  0
  -26.4576  -31.6519   25.0689 C   0  0  0  0  0  0
  -25.3672  -31.3801   26.1324 C   0  0  0  0  0  0
  -27.0492  -30.2873   24.6502 C   0  0  0  0  0  0
  -27.6044  -32.4355   25.7502 C   0  0  0  0  0  0
  -27.5568  -37.1746   24.8465 C   0  0  0  0  0  0
  -21.4373  -29.3037   22.3501 N   0  0  0  0  0  0
  -26.4275  -37.3682   23.9409 N   0  0  0  0  0  0
  -24.7667  -30.9687   22.0798 N   0  0  0  0  0  0
  -23.4212  -28.7969   23.3042 O   0  0  0  0  0  0
  -28.2137  -25.6696   20.2697 O   0  0  0  0  0  0
  -26.5739  -34.8876   22.4588 O   0  0  0  0  0  0
  -23.5773  -32.1142   23.6639 O   0  0  0  0  0  0
  -29.5053  -16.8569   20.4186 C   0  0  0  0  0  0
  -29.7531  -18.3375   20.2894 C   0  0  0  0  0  0
  -27.9895  -23.9784   20.2048 C   0  0  0  0  0  0
  -29.0112  -22.4118   20.3040 C   0  0  0  0  0  0
  -27.7552  -20.0398   19.0709 O   0  0  0  0  0  0
  -27.7484  -20.0247   21.5537 O   0  0  0  0  0  0
  -28.5325  -20.1948   20.3154 S   0  0  0  0  0  0
  -31.4506  -13.1360   19.2169 H   0  0  0  0  0  0
  -30.5297  -12.0354   20.1881 H   0  0  0  0  0  0
  -29.9641  -11.7801   17.7443 H   0  0  0  0  0  0
  -29.5572  -13.4761   17.6469 H   0  0  0  0  0  0
  -28.0874  -11.2879   19.1362 H   0  0  0  0  0  0
  -27.4416  -12.3034   17.8702 H   0  0  0  0  0  0
  -27.4973  -14.2414   19.2853 H   0  0  0  0  0  0
  -28.8192  -12.6250   21.5119 H   0  0  0  0  0  0
  -28.2261  -14.2615   21.6586 H   0  0  0  0  0  0
  -25.2789   -9.5685   22.4758 H   0  0  0  0  0  0
  -24.0014   -7.4642   22.7477 H   0  0  0  0  0  0
  -21.0864   -8.8786   19.8952 H   0  0  0  0  0  0
  -22.3731  -10.9674   19.6159 H   0  0  0  0  0  0
  -21.2013   -7.6151   23.9718 H   0  0  0  0  0  0
  -21.1483   -6.0524   25.9077 H   0  0  0  0  0  0
  -22.0596   -2.7611   23.2844 H   0  0  0  0  0  0
  -22.4054  -11.9826   22.4856 H   0  0  0  0  0  0
  -21.1022  -13.1151   22.2675 H   0  0  0  0  0  0
  -24.6296  -15.8513   20.5422 H   0  0  0  0  0  0
  -26.2437  -15.6452   20.0877 H   0  0  0  0  0  0
  -26.7436  -32.5037   23.0827 H   0  0  0  0  0  0
  -25.0060  -33.9408   25.0114 H   0  0  0  0  0  0
  -22.8117  -31.2533   21.3320 H   0  0  0  0  0  0
  -23.3773  -35.9493   23.3266 H   0  0  0  0  0  0
  -24.3568  -36.8883   22.2073 H   0  0  0  0  0  0
  -23.7235  -37.6345   23.6747 H   0  0  0  0  0  0
  -26.2580  -31.3183   20.6218 H   0  0  0  0  0  0
  -26.9232  -30.6475   22.0666 H   0  0  0  0  0  0
  -28.1604  -28.5010   21.2918 H   0  0  0  0  0  0
  -25.8575  -25.6670   19.0223 H   0  0  0  0  0  0
  -24.0142  -27.2354   18.9523 H   0  0  0  0  0  0
  -23.9048  -30.4879   19.3828 H   0  0  0  0  0  0
  -22.8463  -29.1846   19.8232 H   0  0  0  0  0  0
  -25.1344  -36.1711   25.0780 H   0  0  0  0  0  0
  -21.0045  -28.3383   24.1292 H   0  0  0  0  0  0
  -20.5674  -26.2389   23.3654 H   0  0  0  0  0  0
  -21.6664  -26.7398   22.1215 H   0  0  0  0  0  0
  -19.6934  -25.6270   21.1284 H   0  0  0  0  0  0
  -19.6717  -27.3152   20.6719 H   0  0  0  0  0  0
  -17.4228  -26.6688   21.4025 H   0  0  0  0  0  0
  -18.0351  -26.0102   22.9031 H   0  0  0  0  0  0
  -19.7977  -30.7332   24.2182 H   0  0  0  0  0  0
  -17.5043  -31.6275   24.5167 H   0  0  0  0  0  0
  -15.5381  -30.2968   23.7705 H   0  0  0  0  0  0
  -15.8712  -28.0805   22.7114 H   0  0  0  0  0  0
  -24.5876  -30.7130   25.7628 H   0  0  0  0  0  0
  -24.8839  -32.3012   26.4591 H   0  0  0  0  0  0
  -25.7877  -30.9070   27.0208 H   0  0  0  0  0  0
  -26.3185  -29.6517   24.1491 H   0  0  0  0  0  0
  -27.3964  -29.7280   25.5200 H   0  0  0  0  0  0
  -27.9148  -30.4028   23.9976 H   0  0  0  0  0  0
  -27.2595  -33.3712   26.1915 H   0  0  0  0  0  0
  -28.3941  -32.6828   25.0395 H   0  0  0  0  0  0
  -28.0618  -31.8594   26.5556 H   0  0  0  0  0  0
  -28.2554  -38.0071   24.7521 H   0  0  0  0  0  0
  -28.1094  -36.2595   24.6282 H   0  0  0  0  0  0
  -27.2284  -37.1373   25.8867 H   0  0  0  0  0  0
  -20.9652  -29.8707   21.6597 H   0  0  0  0  0  0
  -26.0112  -38.2733   24.1425 H   0  0  0  0  0  0
  -28.4585  -16.6611   20.5934 H   0  0  0  0  0  0
  -30.7801  -18.6199   20.1152 H   0  0  0  0  0  0
  -27.2307  -23.8283   20.9730 H   0  0  0  0  0  0
  -27.4360  -23.8547   19.2739 H   0  0  0  0  0  0
  -29.6184  -22.5209   21.1999 H   0  0  0  0  0  0
  -29.7319  -22.4900   19.4928 H   0  0  0  0  0  0
  1 25  1  0  0  0
  1 30  2  0  0  0
  1 71  1  0  0  0
  2  3  1  0  0  0
  2 25  1  0  0  0
  2 78  1  0  0  0
  2 79  1  0  0  0
  3  4  1  0  0  0
  3 80  1  0  0  0
  3 81  1  0  0  0
  4  5  1  0  0  0
  4 82  1  0  0  0
  4 83  1  0  0  0
  5  6  1  0  0  0
  5 26  1  0  0  0
  5 84  1  0  0  0
  6 25  1  0  0  0
  6 85  1  0  0  0
  6 86  1  0  0  0
  7  8  2  0  0  0
  7 26  1  0  0  0
  7 29  1  0  0  0
  8  9  1  0  0  0
  8 22  1  0  0  0
  9 10  1  0  0  0
  9 27  2  0  0  0
 10 11  2  0  0  0
 10 15  1  0  0  0
 11 12  1  0  0  0
 11 87  1  0  0  0
 12 13  2  0  0  0
 12 88  1  0  0  0
 13 14  1  0  0  0
 13 31  1  0  0  0
 14 15  2  0  0  0
 14 89  1  0  0  0
 15 90  1  0  0  0
 16 17  2  0  0  0
 16 21  1  0  0  0
 16 31  1  0  0  0
 17 18  1  0  0  0
 17 91  1  0  0  0
 18 19  2  0  0  0
 18 92  1  0  0  0
 19 20  1  0  0  0
 19 24  1  0  0  0
 20 21  2  0  0  0
 20 93  1  0  0  0
 21 23  1  0  0  0
 22 28  1  0  0  0
 22 32  2  0  0  0
 26 27  1  0  0  0
 28 94  1  0  0  0
 28 95  1  0  0  0
 29 96  1  0  0  0
 29 97  1  0  0  0
 33 34  1  0  0  0
 33 66  1  0  0  0
 33 70  2  0  0  0
 34 36  1  0  0  0
 34 59  1  0  0  0
 34 98  1  0  0  0
 35 44  2  0  0  0
 35 45  1  0  0  0
 35 68  1  0  0  0
 36 56  1  0  0  0
 36 99  1  0  0  0
 37 39  1  0  0  0
 37 47  1  0  0  0
 37 66  1  0  0  0
 37100  1  0  0  0
 38 43  2  0  0  0
 38 46  1  0  0  0
 38 47  1  0  0  0
 39 64  1  0  0  0
 39 67  2  0  0  0
 40 52  1  0  0  0
 40 53  2  0  0  0
 40 58  1  0  0  0
 41101  1  0  0  0
 41102  1  0  0  0
 41103  1  0  0  0
 41 48  1  0  0  0
 42 43  1  0  0  0
 42 66  1  0  0  0
 42104  1  0  0  0
 42105  1  0  0  0
 43 44  1  0  0  0
 44106  1  0  0  0
 45 46  2  0  0  0
 45107  1  0  0  0
 46108  1  0  0  0
 47109  1  0  0  0
 47110  1  0  0  0
 48 56  1  0  0  0
 48 65  1  0  0  0
 48111  1  0  0  0
 49 50  1  0  0  0
 49 53  1  0  0  0
 49 64  1  0  0  0
 49112  1  0  0  0
 50 51  1  0  0  0
 50113  1  0  0  0
 50114  1  0  0  0
 51 52  1  0  0  0
 51115  1  0  0  0
 51116  1  0  0  0
 52117  1  0  0  0
 52118  1  0  0  0
 53 54  1  0  0  0
 54 55  2  0  0  0
 54119  1  0  0  0
 55 57  1  0  0  0
 55120  1  0  0  0
 56 69  2  0  0  0
 57 58  2  0  0  0
 57121  1  0  0  0
 58122  1  0  0  0
 59 60  1  0  0  0
 59 61  1  0  0  0
 59 62  1  0  0  0
 60123  1  0  0  0
 60124  1  0  0  0
 60125  1  0  0  0
 61126  1  0  0  0
 61127  1  0  0  0
 61128  1  0  0  0
 62129  1  0  0  0
 62130  1  0  0  0
 62131  1  0  0  0
 63 65  1  0  0  0
 63132  1  0  0  0
 63133  1  0  0  0
 63134  1  0  0  0
 64135  1  0  0  0
 65136  1  0  0  0
 68 73  1  0  0  0
 71 72  2  0  0  0
 71137  1  0  0  0
 72 77  1  0  0  0
 72138  1  0  0  0
 73 74  1  0  0  0
 73139  1  0  0  0
 73140  1  0  0  0
 74141  1  0  0  0
 74142  1  0  0  0
 74 77  1  0  0  0
 75 77  2  0  0  0
 76 77  2  0  0  0
M  ISO  4   1 100  68 101  71 100  73 101
M  END
> <chiral flag>
0

> <version>
0

> <s_m_source_file>
/data/baiqing/PycharmProjects/Reinvent-master-3.2/result/LINK_invent/BTK/process_docking_weight1_custom_product_contain_oxygen_bond_distance_aromatic_linkinvent_7_9_3/rearranged_h_0067.sdf

> <i_m_source_file_index>
67

> <r_mmod_Potential_Energy-OPLS-2005>
1598.34094238281

> <r_mmod_Stretch_Energy-OPLS-2005>
866.230224609375

> <r_mmod_Bend_Energy-OPLS-2005>
549.258544921875

> <r_mmod_Torsional_Energy-OPLS-2005>
183.092575073242

> <r_mmod_Improper_Torsional_Energy-OPLS-2005>
3.09022045135498

> <r_mmod_Van_der_Waal_Energy-OPLS-2005>
107.636695861816

> <r_mmod_Electrostatic_Energy-OPLS-2005>
-493.089813232422

> <r_mmod_Solvation_Energy-OPLS-2005>
-255.224075317383

> <b_mmod_Minimization_Converged-OPLS-2005>
1

> <r_mmod_RMS_Derivative-OPLS-2005>
0.0388340316712856

$$$$
67
                    3D
 Structure written by MMmdl.
166175  0  0  1  0            999 V2000
  -30.6075  -14.7285   20.4698 C   0  0  0  0  0  0
  -30.4346  -12.4419   19.4860 C   0  0  0  0  0  0
  -29.5175  -12.5130   18.2431 C   0  0  0  0  0  0
  -28.0401  -12.3434   18.6473 C   0  0  0  0  0  0
  -27.6452  -13.2334   19.8568 C   0  0  2  0  0  0
  -28.6846  -13.1423   20.9978 C   0  0  0  0  0  0
  -25.2514  -13.8207   20.5684 C   0  0  0  0  0  0
  -24.1803  -13.0450   20.9211 C   0  0  0  0  0  0
  -24.6392  -11.6930   20.8747 C   0  0  0  0  0  0
  -23.9064  -10.4302   21.0405 C   0  0  0  0  0  0
  -24.3614   -9.4221   21.9181 C   0  0  0  0  0  0
  -23.6280   -8.2261   22.0763 C   0  0  0  0  0  0
  -22.4260   -8.0285   21.3559 C   0  0  0  0  0  0
  -21.9892   -9.0263   20.4665 C   0  0  0  0  0  0
  -22.7230  -10.2137   20.3068 C   0  0  0  0  0  0
  -21.6860   -6.0737   22.5275 C   0  0  0  0  0  0
  -21.4021   -6.5636   23.8213 C   0  0  0  0  0  0
  -21.3661   -5.6788   24.9173 C   0  0  0  0  0  0
  -21.6038   -4.3049   24.7225 C   0  0  0  0  0  0
  -21.8812   -3.8148   23.4345 C   0  0  0  0  0  0
  -21.9195   -4.6963   22.3407 C   0  0  0  0  0  0
  -22.7820  -13.5247   21.1860 C   0  0  0  0  0  0
  -22.1656   -4.2159   21.0984 F   0  0  0  0  0  0
  -21.5628   -3.4532   25.7740 F   0  0  0  0  0  0
  -29.9985  -13.4930   20.4367 N   0  0  0  0  0  0
  -26.2931  -12.9422   20.3253 N   0  0  0  0  0  0
  -25.9317  -11.6556   20.5708 N   0  0  0  0  0  0
  -22.0455  -12.8251   22.0412 N   0  0  0  0  0  0
  -25.4176  -15.1929   20.4118 N   0  0  0  0  0  0
  -31.7586  -14.8593   20.0403 O   0  0  0  0  0  0
  -21.6634   -6.8874   21.4242 O   0  0  0  0  0  0
  -22.3501  -14.5543   20.6668 O   0  0  0  0  0  0
  -24.6323  -31.8551   23.1990 C   0  0  0  0  0  0
  -25.9148  -32.4758   23.8329 C   0  0  1  0  0  0
  -27.2186  -27.2608   20.1258 C   0  0  0  0  0  0
  -25.5937  -33.8559   24.2253 N   0  0  0  0  0  0
  -23.4284  -30.4786   21.5426 C   0  0  2  0  0  0
  -24.8754  -28.9275   20.1087 C   0  0  0  0  0  0
  -22.7506  -29.4600   22.4908 C   0  0  0  0  0  0
  -18.0295  -28.1388   22.8484 C   0  0  0  0  0  0
  -24.1488  -36.7277   23.2640 C   0  0  0  0  0  0
  -25.9746  -30.7681   21.3802 C   0  0  0  0  0  0
  -26.0476  -29.3919   20.7190 C   0  0  0  0  0  0
  -27.2218  -28.5715   20.7165 C   0  0  0  0  0  0
  -26.0234  -26.8679   19.4821 C   0  0  0  0  0  0
  -24.8691  -27.6738   19.4805 C   0  0  0  0  0  0
  -23.6469  -29.8158   20.1571 C   0  0  0  0  0  0
  -25.4115  -36.3070   24.0327 C   0  0  1  0  0  0
  -20.5897  -28.3701   23.1271 C   0  0  2  0  0  0
  -20.6784  -26.9414   22.5410 C   0  0  0  0  0  0
  -19.5755  -26.6387   21.5215 C   0  0  0  0  0  0
  -18.1938  -26.7935   22.1625 C   0  0  0  0  0  0
  -19.1547  -28.8863   23.2875 C   0  0  0  0  0  0
  -18.9467  -30.1463   23.8899 C   0  0  0  0  0  0
  -17.6464  -30.6585   24.0571 C   0  0  0  0  0  0
  -25.9058  -34.9443   23.5092 C   0  0  0  0  0  0
  -16.5360  -29.9084   23.6327 C   0  0  0  0  0  0
  -16.7281  -28.6505   23.0351 C   0  0  0  0  0  0
  -26.4500  -31.6588   25.0737 C   0  0  0  0  0  0
  -25.3711  -31.3764   26.1448 C   0  0  0  0  0  0
  -27.0361  -30.3011   24.6238 C   0  0  0  0  0  0
  -27.6060  -32.4334   25.7495 C   0  0  0  0  0  0
  -27.5578  -37.1793   24.8462 C   0  0  0  0  0  0
  -21.4211  -29.3050   22.3659 N   0  0  0  0  0  0
  -26.4285  -37.3775   23.9412 N   0  0  0  0  0  0
  -24.6973  -31.0518   22.0969 N   0  0  0  0  0  0
  -23.4205  -28.8149   23.3019 O   0  0  0  0  0  0
  -28.3114  -26.3622   20.1933 O   0  0  0  0  0  0
  -26.5634  -34.8923   22.4663 O   0  0  0  0  0  0
  -23.5474  -32.1383   23.7280 O   0  0  0  0  0  0
  -27.7603  -18.1237   14.6993 C   0  0  0  0  0  0
  -26.7017  -17.4069   15.3290 C   0  0  0  0  0  0
  -28.8895  -19.5099   18.7563 C   0  0  0  0  0  0
  -29.7241  -18.4520   20.7910 C   0  0  0  0  0  0
  -29.1827  -17.0634   18.8717 C   0  0  0  0  0  0
  -29.3663  -19.6781   20.0767 C   0  0  0  0  0  0
  -28.7740  -18.2234   18.1790 C   0  0  0  0  0  0
  -29.6619  -17.1226   20.1967 C   0  0  0  0  0  0
  -28.6298  -18.5055   15.6831 C   0  0  0  0  0  0
  -26.9793  -17.3851   16.6667 C   0  0  0  0  0  0
  -29.5125  -21.1094   20.6218 C   0  0  0  0  0  0
  -30.5463  -24.2052   19.8950 C   0  0  0  0  0  0
  -28.0806  -24.8860   19.9821 C   0  0  0  0  0  0
  -29.1723  -23.7768   20.4388 C   0  0  1  0  0  0
  -28.1677  -18.0589   16.9123 N   0  0  0  0  0  0
  -30.3315  -21.2730   21.6581 N   0  0  0  0  0  0
  -29.8795  -15.8290   20.8894 N   0  0  0  0  0  0
  -28.9266  -22.2738   20.1225 N   0  3  0  0  0  0
  -29.7966  -19.1985   15.5784 O   0  0  0  0  0  0
  -26.2692  -16.8228   17.6847 O   0  0  0  0  0  0
  -31.4789  -12.5564   19.1892 H   0  0  0  0  0  0
  -30.3684  -11.4597   19.9555 H   0  0  0  0  0  0
  -29.7982  -11.7428   17.5225 H   0  0  0  0  0  0
  -29.6533  -13.4690   17.7344 H   0  0  0  0  0  0
  -27.8862  -11.2925   18.8951 H   0  0  0  0  0  0
  -27.3887  -12.5523   17.7978 H   0  0  0  0  0  0
  -27.6473  -14.2597   19.4905 H   0  0  0  0  0  0
  -28.7073  -12.1349   21.4165 H   0  0  0  0  0  0
  -28.4122  -13.8070   21.8191 H   0  0  0  0  0  0
  -25.2775   -9.5689   22.4727 H   0  0  0  0  0  0
  -24.0013   -7.4647   22.7452 H   0  0  0  0  0  0
  -21.0840   -8.8760   19.8951 H   0  0  0  0  0  0
  -22.3692  -10.9661   19.6153 H   0  0  0  0  0  0
  -21.2010   -7.6142   23.9717 H   0  0  0  0  0  0
  -21.1488   -6.0521   25.9077 H   0  0  0  0  0  0
  -22.0592   -2.7612   23.2844 H   0  0  0  0  0  0
  -22.4079  -11.9947   22.4867 H   0  0  0  0  0  0
  -21.1057  -13.1250   22.2585 H   0  0  0  0  0  0
  -24.6271  -15.8238   20.4904 H   0  0  0  0  0  0
  -26.2128  -15.6205   19.9539 H   0  0  0  0  0  0
  -26.7225  -32.5411   23.1081 H   0  0  0  0  0  0
  -25.0059  -33.9687   25.0390 H   0  0  0  0  0  0
  -22.7259  -31.3016   21.3977 H   0  0  0  0  0  0
  -23.3749  -35.9603   23.3290 H   0  0  0  0  0  0
  -24.3584  -36.8916   22.2059 H   0  0  0  0  0  0
  -23.7236  -37.6474   23.6674 H   0  0  0  0  0  0
  -26.1164  -31.5310   20.6137 H   0  0  0  0  0  0
  -26.8516  -30.8148   22.0142 H   0  0  0  0  0  0
  -28.1178  -28.9207   21.2119 H   0  0  0  0  0  0
  -25.9470  -25.9114   18.9869 H   0  0  0  0  0  0
  -23.9726  -27.3140   18.9950 H   0  0  0  0  0  0
  -23.7754  -30.5956   19.4051 H   0  0  0  0  0  0
  -22.7648  -29.2514   19.8483 H   0  0  0  0  0  0
  -25.1291  -36.1909   25.0813 H   0  0  0  0  0  0
  -20.9984  -28.3285   24.1399 H   0  0  0  0  0  0
  -20.5685  -26.2306   23.3619 H   0  0  0  0  0  0
  -21.6656  -26.7447   22.1208 H   0  0  0  0  0  0
  -19.6916  -25.6301   21.1246 H   0  0  0  0  0  0
  -19.6692  -27.3197   20.6750 H   0  0  0  0  0  0
  -17.4207  -26.6686   21.4029 H   0  0  0  0  0  0
  -18.0331  -26.0076   22.9017 H   0  0  0  0  0  0
  -19.7945  -30.7278   24.2267 H   0  0  0  0  0  0
  -17.5023  -31.6271   24.5162 H   0  0  0  0  0  0
  -15.5358  -30.2989   23.7652 H   0  0  0  0  0  0
  -15.8687  -28.0825   22.7061 H   0  0  0  0  0  0
  -24.5869  -30.7131   25.7776 H   0  0  0  0  0  0
  -24.8919  -32.2946   26.4856 H   0  0  0  0  0  0
  -25.8008  -30.8944   27.0242 H   0  0  0  0  0  0
  -26.2969  -29.6750   24.1230 H   0  0  0  0  0  0
  -27.4007  -29.7285   25.4778 H   0  0  0  0  0  0
  -27.8852  -30.4293   23.9527 H   0  0  0  0  0  0
  -27.2670  -33.3629   26.2079 H   0  0  0  0  0  0
  -28.3854  -32.6898   25.0312 H   0  0  0  0  0  0
  -28.0742  -31.8457   26.5406 H   0  0  0  0  0  0
  -28.2590  -38.0097   24.7515 H   0  0  0  0  0  0
  -28.1074  -36.2628   24.6260 H   0  0  0  0  0  0
  -27.2303  -37.1424   25.8868 H   0  0  0  0  0  0
  -20.9388  -29.8770   21.6866 H   0  0  0  0  0  0
  -26.0153  -38.2839   24.1418 H   0  0  0  0  0  0
  -27.8636  -18.3260   13.6425 H   0  0  0  0  0  0
  -25.8412  -16.9577   14.8522 H   0  0  0  0  0  0
  -28.5860  -20.3673   18.1717 H   0  0  0  0  0  0
  -30.0576  -18.5332   21.8148 H   0  0  0  0  0  0
  -29.0560  -16.1077   18.3855 H   0  0  0  0  0  0
  -30.9223  -25.0700   20.4419 H   0  0  0  0  0  0
  -30.4844  -24.4912   18.8456 H   0  0  0  0  0  0
  -31.2960  -23.4198   19.9777 H   0  0  0  0  0  0
  -27.1507  -24.6182   20.4846 H   0  0  0  0  0  0
  -27.8987  -24.7414   18.9162 H   0  0  0  0  0  0
  -29.2238  -23.8400   21.5265 H   0  0  0  0  0  0
  -30.8243  -20.4767   22.0317 H   0  0  0  0  0  0
  -30.4690  -22.1637   22.1035 H   0  0  0  0  0  0
  -29.1103  -15.5699   21.4901 H   0  0  0  0  0  0
  -28.2730  -22.1205   19.3646 H   0  0  0  0  0  0
  -29.9614  -19.3537   14.6521 H   0  0  0  0  0  0
  -25.4485  -16.4969   17.3272 H   0  0  0  0  0  0
  1 25  1  0  0  0
  1 30  2  0  0  0
  1 87  1  0  0  0
  2  3  1  0  0  0
  2 25  1  0  0  0
  2 91  1  0  0  0
  2 92  1  0  0  0
  3  4  1  0  0  0
  3 93  1  0  0  0
  3 94  1  0  0  0
  4  5  1  0  0  0
  4 95  1  0  0  0
  4 96  1  0  0  0
  5  6  1  0  0  0
  5 26  1  0  0  0
  5 97  1  0  0  0
  6 25  1  0  0  0
  6 98  1  0  0  0
  6 99  1  0  0  0
  7  8  2  0  0  0
  7 26  1  0  0  0
  7 29  1  0  0  0
  8  9  1  0  0  0
  8 22  1  0  0  0
  9 10  1  0  0  0
  9 27  2  0  0  0
 10 11  2  0  0  0
 10 15  1  0  0  0
 11 12  1  0  0  0
 11100  1  0  0  0
 12 13  2  0  0  0
 12101  1  0  0  0
 13 14  1  0  0  0
 13 31  1  0  0  0
 14 15  2  0  0  0
 14102  1  0  0  0
 15103  1  0  0  0
 16 17  2  0  0  0
 16 21  1  0  0  0
 16 31  1  0  0  0
 17 18  1  0  0  0
 17104  1  0  0  0
 18 19  2  0  0  0
 18105  1  0  0  0
 19 20  1  0  0  0
 19 24  1  0  0  0
 20 21  2  0  0  0
 20106  1  0  0  0
 21 23  1  0  0  0
 22 28  1  0  0  0
 22 32  2  0  0  0
 26 27  1  0  0  0
 28107  1  0  0  0
 28108  1  0  0  0
 29109  1  0  0  0
 29110  1  0  0  0
 33 34  1  0  0  0
 33 66  1  0  0  0
 33 70  2  0  0  0
 34 36  1  0  0  0
 34 59  1  0  0  0
 34111  1  0  0  0
 35 44  2  0  0  0
 35 45  1  0  0  0
 35 68  1  0  0  0
 36 56  1  0  0  0
 36112  1  0  0  0
 37 39  1  0  0  0
 37 47  1  0  0  0
 37 66  1  0  0  0
 37113  1  0  0  0
 38 43  2  0  0  0
 38 46  1  0  0  0
 38 47  1  0  0  0
 39 64  1  0  0  0
 39 67  2  0  0  0
 40 52  1  0  0  0
 40 53  2  0  0  0
 40 58  1  0  0  0
 41114  1  0  0  0
 41115  1  0  0  0
 41116  1  0  0  0
 41 48  1  0  0  0
 42 43  1  0  0  0
 42 66  1  0  0  0
 42117  1  0  0  0
 42118  1  0  0  0
 43 44  1  0  0  0
 44119  1  0  0  0
 45 46  2  0  0  0
 45120  1  0  0  0
 46121  1  0  0  0
 47122  1  0  0  0
 47123  1  0  0  0
 48 56  1  0  0  0
 48 65  1  0  0  0
 48124  1  0  0  0
 49 50  1  0  0  0
 49 53  1  0  0  0
 49 64  1  0  0  0
 49125  1  0  0  0
 50 51  1  0  0  0
 50126  1  0  0  0
 50127  1  0  0  0
 51 52  1  0  0  0
 51128  1  0  0  0
 51129  1  0  0  0
 52130  1  0  0  0
 52131  1  0  0  0
 53 54  1  0  0  0
 54 55  2  0  0  0
 54132  1  0  0  0
 55 57  1  0  0  0
 55133  1  0  0  0
 56 69  2  0  0  0
 57 58  2  0  0  0
 57134  1  0  0  0
 58135  1  0  0  0
 59 60  1  0  0  0
 59 61  1  0  0  0
 59 62  1  0  0  0
 60136  1  0  0  0
 60137  1  0  0  0
 60138  1  0  0  0
 61139  1  0  0  0
 61140  1  0  0  0
 61141  1  0  0  0
 62142  1  0  0  0
 62143  1  0  0  0
 62144  1  0  0  0
 63 65  1  0  0  0
 63145  1  0  0  0
 63146  1  0  0  0
 63147  1  0  0  0
 64148  1  0  0  0
 65149  1  0  0  0
 68 83  1  0  0  0
 71 72  1  0  0  0
 71 79  2  0  0  0
 71150  1  0  0  0
 72 80  2  0  0  0
 72151  1  0  0  0
 73 76  2  0  0  0
 73 77  1  0  0  0
 73152  1  0  0  0
 74 76  1  0  0  0
 74 78  2  0  0  0
 74153  1  0  0  0
 75 77  2  0  0  0
 75 78  1  0  0  0
 75154  1  0  0  0
 76 81  1  0  0  0
 77 85  1  0  0  0
 78 87  1  0  0  0
 79 85  1  0  0  0
 79 89  1  0  0  0
 80 85  1  0  0  0
 80 90  1  0  0  0
 81 86  1  0  0  0
 81 88  2  0  0  0
 82155  1  0  0  0
 82156  1  0  0  0
 82157  1  0  0  0
 82 84  1  0  0  0
 83 84  1  0  0  0
 83158  1  0  0  0
 83159  1  0  0  0
 84 88  1  0  0  0
 84160  1  0  0  0
 86161  1  0  0  0
 86162  1  0  0  0
 87163  1  0  0  0
 88164  1  0  0  0
 89165  1  0  0  0
 90166  1  0  0  0
M  CHG  1  88   1
M  ISO  4   1 100  68 101  83 101  87 100
M  END
> <chiral flag>
0

> <version>
0

> <s_m_source_file>
/data/baiqing/PycharmProjects/Reinvent-master-3.2/result/LINK_invent/BTK/process_docking_weight1_custom_product_contain_oxygen_bond_distance_aromatic_linkinvent_7_9_3/rearranged_h_0067.sdf

> <i_m_source_file_index>
68

> <r_mmod_Potential_Energy-OPLS-2005>
-123.141815185547

> <r_mmod_Stretch_Energy-OPLS-2005>
126.75651550293

> <r_mmod_Bend_Energy-OPLS-2005>
160.845123291016

> <r_mmod_Torsional_Energy-OPLS-2005>
266.067962646484

> <r_mmod_Improper_Torsional_Energy-OPLS-2005>
6.82475328445435

> <r_mmod_Van_der_Waal_Energy-OPLS-2005>
128.003219604492

> <r_mmod_Electrostatic_Energy-OPLS-2005>
-464.294342041016

> <r_mmod_Solvation_Energy-OPLS-2005>
-428.897735595703

> <b_mmod_Minimization_Converged-OPLS-2005>
0

> <r_mmod_RMS_Derivative-OPLS-2005>
2.50870490074158

$$$$
68
                    3D
 Structure written by MMmdl.
151159  0  0  1  0            999 V2000
  -30.6242  -14.6242   20.5043 C   0  0  0  0  0  0
  -30.4414  -12.3827   19.4496 C   0  0  0  0  0  0
  -29.5085  -12.5046   18.2235 C   0  0  0  0  0  0
  -28.0316  -12.3430   18.6369 C   0  0  0  0  0  0
  -27.6557  -13.2132   19.8659 C   0  0  2  0  0  0
  -28.7005  -13.0548   20.9944 C   0  0  0  0  0  0
  -25.2557  -13.8153   20.5672 C   0  0  0  0  0  0
  -24.1818  -13.0419   20.9156 C   0  0  0  0  0  0
  -24.6392  -11.6893   20.8720 C   0  0  0  0  0  0
  -23.9060  -10.4281   21.0400 C   0  0  0  0  0  0
  -24.3610   -9.4202   21.9185 C   0  0  0  0  0  0
  -23.6289   -8.2238   22.0752 C   0  0  0  0  0  0
  -22.4271   -8.0275   21.3543 C   0  0  0  0  0  0
  -21.9902   -9.0248   20.4650 C   0  0  0  0  0  0
  -22.7228  -10.2129   20.3057 C   0  0  0  0  0  0
  -21.6849   -6.0735   22.5285 C   0  0  0  0  0  0
  -21.4010   -6.5636   23.8218 C   0  0  0  0  0  0
  -21.3659   -5.6788   24.9178 C   0  0  0  0  0  0
  -21.6044   -4.3052   24.7226 C   0  0  0  0  0  0
  -21.8819   -3.8145   23.4347 C   0  0  0  0  0  0
  -21.9191   -4.6964   22.3406 C   0  0  0  0  0  0
  -22.7845  -13.5223   21.1836 C   0  0  0  0  0  0
  -22.1663   -4.2154   21.0984 F   0  0  0  0  0  0
  -21.5629   -3.4533   25.7735 F   0  0  0  0  0  0
  -30.0191  -13.3972   20.4346 N   0  0  0  0  0  0
  -26.2998  -12.9342   20.3337 N   0  0  0  0  0  0
  -25.9325  -11.6496   20.5753 N   0  0  0  0  0  0
  -22.0489  -12.8228   22.0407 N   0  0  0  0  0  0
  -25.4236  -15.1880   20.4147 N   0  0  0  0  0  0
  -31.7818  -14.7950   20.1108 O   0  0  0  0  0  0
  -21.6634   -6.8875   21.4245 O   0  0  0  0  0  0
  -22.3527  -14.5531   20.6691 O   0  0  0  0  0  0
  -24.6258  -31.8616   23.2045 C   0  0  0  0  0  0
  -25.9110  -32.4787   23.8372 C   0  0  1  0  0  0
  -27.2156  -27.3263   20.1061 C   0  0  0  0  0  0
  -25.5927  -33.8585   24.2301 N   0  0  0  0  0  0
  -23.4179  -30.4892   21.5482 C   0  0  2  0  0  0
  -24.8613  -28.9495   20.1095 C   0  0  0  0  0  0
  -22.7471  -29.4639   22.4937 C   0  0  0  0  0  0
  -18.0290  -28.1387   22.8492 C   0  0  0  0  0  0
  -24.1490  -36.7295   23.2636 C   0  0  0  0  0  0
  -25.9603  -30.7947   21.3749 C   0  0  0  0  0  0
  -26.0319  -29.4239   20.7148 C   0  0  0  0  0  0
  -27.2131  -28.6236   20.7041 C   0  0  0  0  0  0
  -26.0199  -26.9088   19.4741 C   0  0  0  0  0  0
  -24.8570  -27.6975   19.4807 C   0  0  0  0  0  0
  -23.6308  -29.8309   20.1608 C   0  0  0  0  0  0
  -25.4109  -36.3088   24.0338 C   0  0  1  0  0  0
  -20.5890  -28.3686   23.1290 C   0  0  2  0  0  0
  -20.6778  -26.9412   22.5410 C   0  0  0  0  0  0
  -19.5747  -26.6393   21.5216 C   0  0  0  0  0  0
  -18.1933  -26.7927   22.1636 C   0  0  0  0  0  0
  -19.1540  -28.8854   23.2891 C   0  0  0  0  0  0
  -18.9459  -30.1457   23.8906 C   0  0  0  0  0  0
  -17.6458  -30.6590   24.0566 C   0  0  0  0  0  0
  -25.9049  -34.9453   23.5120 C   0  0  0  0  0  0
  -16.5351  -29.9091   23.6329 C   0  0  0  0  0  0
  -16.7277  -28.6508   23.0355 C   0  0  0  0  0  0
  -26.4489  -31.6583   25.0731 C   0  0  0  0  0  0
  -25.3726  -31.3736   26.1467 C   0  0  0  0  0  0
  -27.0308  -30.3002   24.6171 C   0  0  0  0  0  0
  -27.6078  -32.4292   25.7483 C   0  0  0  0  0  0
  -27.5583  -37.1799   24.8466 C   0  0  0  0  0  0
  -21.4185  -29.3044   22.3683 N   0  0  0  0  0  0
  -26.4288  -37.3782   23.9418 N   0  0  0  0  0  0
  -24.6871  -31.0641   22.0995 N   0  0  0  0  0  0
  -23.4199  -28.8165   23.3002 O   0  0  0  0  0  0
  -28.3291  -26.4718   20.1556 O   0  0  0  0  0  0
  -26.5612  -34.8914   22.4684 O   0  0  0  0  0  0
  -23.5422  -32.1412   23.7376 O   0  0  0  0  0  0
  -30.9508  -19.2796   20.2034 C   0  0  0  0  0  0
  -31.0074  -17.8569   20.3112 C   0  0  0  0  0  0
  -28.6365  -19.2631   20.8627 C   0  0  0  0  0  0
  -29.7693  -20.0258   20.4730 C   0  0  0  0  0  0
  -29.8732  -17.1028   20.7108 C   0  0  0  0  0  0
  -28.6933  -17.8441   20.9799 C   0  0  0  0  0  0
  -28.8231  -22.4332   20.2980 C   0  0  0  0  0  0
  -29.2033  -23.9663   20.3720 C   0  0  0  0  0  0
  -28.0817  -25.0208   19.9848 C   0  0  0  0  0  0
  -29.8107  -21.4899   20.4054 N   0  0  0  0  0  0
  -29.8119  -15.6549   20.8827 N   0  0  0  0  0  0
  -27.6429  -22.1184   20.1318 O   0  0  0  0  0  0
  -27.5831  -17.1702   21.3664 F   0  0  0  0  0  0
  -31.4823  -12.5091   19.1470 H   0  0  0  0  0  0
  -30.3766  -11.3843   19.8850 H   0  0  0  0  0  0
  -29.7710  -11.7553   17.4755 H   0  0  0  0  0  0
  -29.6516  -13.4754   17.7460 H   0  0  0  0  0  0
  -27.8699  -11.2895   18.8698 H   0  0  0  0  0  0
  -27.3754  -12.5707   17.7956 H   0  0  0  0  0  0
  -27.6764  -14.2502   19.5294 H   0  0  0  0  0  0
  -28.7076  -12.0292   21.3666 H   0  0  0  0  0  0
  -28.4459  -13.6770   21.8535 H   0  0  0  0  0  0
  -25.2759   -9.5681   22.4754 H   0  0  0  0  0  0
  -24.0004   -7.4628   22.7466 H   0  0  0  0  0  0
  -21.0835   -8.8765   19.8958 H   0  0  0  0  0  0
  -22.3687  -10.9665   19.6163 H   0  0  0  0  0  0
  -21.1999   -7.6145   23.9721 H   0  0  0  0  0  0
  -21.1483   -6.0519   25.9082 H   0  0  0  0  0  0
  -22.0598   -2.7608   23.2842 H   0  0  0  0  0  0
  -22.4097  -11.9892   22.4808 H   0  0  0  0  0  0
  -21.1116  -13.1277   22.2623 H   0  0  0  0  0  0
  -24.6617  -15.8381   20.5686 H   0  0  0  0  0  0
  -26.3009  -15.6534   20.2175 H   0  0  0  0  0  0
  -26.7175  -32.5454   23.1119 H   0  0  0  0  0  0
  -25.0062  -33.9728   25.0435 H   0  0  0  0  0  0
  -22.7128  -31.3115   21.4102 H   0  0  0  0  0  0
  -23.3756  -35.9622   23.3283 H   0  0  0  0  0  0
  -24.3592  -36.8923   22.2054 H   0  0  0  0  0  0
  -23.7229  -37.6492   23.6657 H   0  0  0  0  0  0
  -26.0934  -31.5601   20.6086 H   0  0  0  0  0  0
  -26.8407  -30.8409   22.0041 H   0  0  0  0  0  0
  -28.1112  -28.9812   21.1875 H   0  0  0  0  0  0
  -25.9469  -25.9564   18.9714 H   0  0  0  0  0  0
  -23.9603  -27.3326   18.9986 H   0  0  0  0  0  0
  -23.7504  -30.6114   19.4084 H   0  0  0  0  0  0
  -22.7487  -29.2650   19.8566 H   0  0  0  0  0  0
  -25.1281  -36.1946   25.0830 H   0  0  0  0  0  0
  -20.9998  -28.3255   24.1406 H   0  0  0  0  0  0
  -20.5695  -26.2287   23.3604 H   0  0  0  0  0  0
  -21.6643  -26.7452   22.1193 H   0  0  0  0  0  0
  -19.6905  -25.6308   21.1244 H   0  0  0  0  0  0
  -19.6682  -27.3207   20.6747 H   0  0  0  0  0  0
  -17.4198  -26.6678   21.4043 H   0  0  0  0  0  0
  -18.0335  -26.0073   22.9038 H   0  0  0  0  0  0
  -19.7932  -30.7273   24.2283 H   0  0  0  0  0  0
  -17.5012  -31.6271   24.5164 H   0  0  0  0  0  0
  -15.5352  -30.2997   23.7643 H   0  0  0  0  0  0
  -15.8678  -28.0831   22.7065 H   0  0  0  0  0  0
  -24.5858  -30.7139   25.7788 H   0  0  0  0  0  0
  -24.8965  -32.2911   26.4934 H   0  0  0  0  0  0
  -25.8039  -30.8861   27.0217 H   0  0  0  0  0  0
  -26.2866  -29.6765   24.1203 H   0  0  0  0  0  0
  -27.4014  -29.7248   25.4663 H   0  0  0  0  0  0
  -27.8742  -30.4284   23.9381 H   0  0  0  0  0  0
  -27.2739  -33.3614   26.2046 H   0  0  0  0  0  0
  -28.3891  -32.6802   25.0297 H   0  0  0  0  0  0
  -28.0734  -31.8404   26.5396 H   0  0  0  0  0  0
  -28.2598  -38.0099   24.7522 H   0  0  0  0  0  0
  -28.1081  -36.2632   24.6278 H   0  0  0  0  0  0
  -27.2305  -37.1431   25.8869 H   0  0  0  0  0  0
  -20.9354  -29.8774   21.6905 H   0  0  0  0  0  0
  -26.0173  -38.2859   24.1417 H   0  0  0  0  0  0
  -31.8498  -19.8028   19.9079 H   0  0  0  0  0  0
  -31.9406  -17.3593   20.0917 H   0  0  0  0  0  0
  -27.7071  -19.7570   21.1029 H   0  0  0  0  0  0
  -30.0784  -24.1343   19.7452 H   0  0  0  0  0  0
  -29.5213  -24.1642   21.3957 H   0  0  0  0  0  0
  -27.1924  -24.7612   20.5624 H   0  0  0  0  0  0
  -27.8302  -24.8451   18.9378 H   0  0  0  0  0  0
  -30.7409  -21.8850   20.4370 H   0  0  0  0  0  0
  -28.9117  -15.3405   21.2131 H   0  0  0  0  0  0
  1 25  1  0  0  0
  1 30  2  0  0  0
  1 81  1  0  0  0
  2  3  1  0  0  0
  2 25  1  0  0  0
  2 84  1  0  0  0
  2 85  1  0  0  0
  3  4  1  0  0  0
  3 86  1  0  0  0
  3 87  1  0  0  0
  4  5  1  0  0  0
  4 88  1  0  0  0
  4 89  1  0  0  0
  5  6  1  0  0  0
  5 26  1  0  0  0
  5 90  1  0  0  0
  6 25  1  0  0  0
  6 91  1  0  0  0
  6 92  1  0  0  0
  7  8  2  0  0  0
  7 26  1  0  0  0
  7 29  1  0  0  0
  8  9  1  0  0  0
  8 22  1  0  0  0
  9 10  1  0  0  0
  9 27  2  0  0  0
 10 11  2  0  0  0
 10 15  1  0  0  0
 11 12  1  0  0  0
 11 93  1  0  0  0
 12 13  2  0  0  0
 12 94  1  0  0  0
 13 14  1  0  0  0
 13 31  1  0  0  0
 14 15  2  0  0  0
 14 95  1  0  0  0
 15 96  1  0  0  0
 16 17  2  0  0  0
 16 21  1  0  0  0
 16 31  1  0  0  0
 17 18  1  0  0  0
 17 97  1  0  0  0
 18 19  2  0  0  0
 18 98  1  0  0  0
 19 20  1  0  0  0
 19 24  1  0  0  0
 20 21  2  0  0  0
 20 99  1  0  0  0
 21 23  1  0  0  0
 22 28  1  0  0  0
 22 32  2  0  0  0
 26 27  1  0  0  0
 28100  1  0  0  0
 28101  1  0  0  0
 29102  1  0  0  0
 29103  1  0  0  0
 33 34  1  0  0  0
 33 66  1  0  0  0
 33 70  2  0  0  0
 34 36  1  0  0  0
 34 59  1  0  0  0
 34104  1  0  0  0
 35 44  2  0  0  0
 35 45  1  0  0  0
 35 68  1  0  0  0
 36 56  1  0  0  0
 36105  1  0  0  0
 37 39  1  0  0  0
 37 47  1  0  0  0
 37 66  1  0  0  0
 37106  1  0  0  0
 38 43  2  0  0  0
 38 46  1  0  0  0
 38 47  1  0  0  0
 39 64  1  0  0  0
 39 67  2  0  0  0
 40 52  1  0  0  0
 40 53  2  0  0  0
 40 58  1  0  0  0
 41107  1  0  0  0
 41108  1  0  0  0
 41109  1  0  0  0
 41 48  1  0  0  0
 42 43  1  0  0  0
 42 66  1  0  0  0
 42110  1  0  0  0
 42111  1  0  0  0
 43 44  1  0  0  0
 44112  1  0  0  0
 45 46  2  0  0  0
 45113  1  0  0  0
 46114  1  0  0  0
 47115  1  0  0  0
 47116  1  0  0  0
 48 56  1  0  0  0
 48 65  1  0  0  0
 48117  1  0  0  0
 49 50  1  0  0  0
 49 53  1  0  0  0
 49 64  1  0  0  0
 49118  1  0  0  0
 50 51  1  0  0  0
 50119  1  0  0  0
 50120  1  0  0  0
 51 52  1  0  0  0
 51121  1  0  0  0
 51122  1  0  0  0
 52123  1  0  0  0
 52124  1  0  0  0
 53 54  1  0  0  0
 54 55  2  0  0  0
 54125  1  0  0  0
 55 57  1  0  0  0
 55126  1  0  0  0
 56 69  2  0  0  0
 57 58  2  0  0  0
 57127  1  0  0  0
 58128  1  0  0  0
 59 60  1  0  0  0
 59 61  1  0  0  0
 59 62  1  0  0  0
 60129  1  0  0  0
 60130  1  0  0  0
 60131  1  0  0  0
 61132  1  0  0  0
 61133  1  0  0  0
 61134  1  0  0  0
 62135  1  0  0  0
 62136  1  0  0  0
 62137  1  0  0  0
 63 65  1  0  0  0
 63138  1  0  0  0
 63139  1  0  0  0
 63140  1  0  0  0
 64141  1  0  0  0
 65142  1  0  0  0
 68 79  1  0  0  0
 71 72  2  0  0  0
 71 74  1  0  0  0
 71143  1  0  0  0
 72 75  1  0  0  0
 72144  1  0  0  0
 73 74  2  0  0  0
 73 76  1  0  0  0
 73145  1  0  0  0
 74 80  1  0  0  0
 75 76  2  0  0  0
 75 81  1  0  0  0
 76 83  1  0  0  0
 77 78  1  0  0  0
 77 80  1  0  0  0
 77 82  2  0  0  0
 78 79  1  0  0  0
 78146  1  0  0  0
 78147  1  0  0  0
 79148  1  0  0  0
 79149  1  0  0  0
 80150  1  0  0  0
 81151  1  0  0  0
M  ISO  4   1 100  68 101  79 101  81 100
M  END
> <chiral flag>
0

> <version>
0

> <s_m_source_file>
/data/baiqing/PycharmProjects/Reinvent-master-3.2/result/LINK_invent/BTK/process_docking_weight1_custom_product_contain_oxygen_bond_distance_aromatic_linkinvent_7_9_3/rearranged_h_0067.sdf

> <i_m_source_file_index>
69

> <r_mmod_Potential_Energy-OPLS-2005>
-42.3102340698242

> <r_mmod_Stretch_Energy-OPLS-2005>
73.474479675293

> <r_mmod_Bend_Energy-OPLS-2005>
137.113388061523

> <r_mmod_Torsional_Energy-OPLS-2005>
218.337249755859

> <r_mmod_Improper_Torsional_Energy-OPLS-2005>
4.02269601821899

> <r_mmod_Van_der_Waal_Energy-OPLS-2005>
148.6728515625

> <r_mmod_Electrostatic_Energy-OPLS-2005>
-448.560668945312

> <r_mmod_Solvation_Energy-OPLS-2005>
-220.761657714844

> <b_mmod_Minimization_Converged-OPLS-2005>
0

> <r_mmod_RMS_Derivative-OPLS-2005>
1.14069616794586

$$$$
69
                    3D
 Structure written by MMmdl.
155164  0  0  1  0            999 V2000
  -30.4740  -15.0809   20.3478 C   0  0  0  0  0  0
  -30.4230  -12.6677   19.5111 C   0  0  0  0  0  0
  -29.5187  -12.5511   18.2616 C   0  0  0  0  0  0
  -28.0534  -12.3246   18.6759 C   0  0  0  0  0  0
  -27.6143  -13.2627   19.8299 C   0  0  2  0  0  0
  -28.6512  -13.3466   20.9674 C   0  0  0  0  0  0
  -25.2400  -13.8237   20.5733 C   0  0  0  0  0  0
  -24.1740  -13.0440   20.9252 C   0  0  0  0  0  0
  -24.6369  -11.6927   20.8756 C   0  0  0  0  0  0
  -23.9057  -10.4296   21.0406 C   0  0  0  0  0  0
  -24.3614   -9.4217   21.9183 C   0  0  0  0  0  0
  -23.6296   -8.2245   22.0756 C   0  0  0  0  0  0
  -22.4276   -8.0278   21.3553 C   0  0  0  0  0  0
  -21.9914   -9.0247   20.4650 C   0  0  0  0  0  0
  -22.7232  -10.2130   20.3057 C   0  0  0  0  0  0
  -21.6851   -6.0732   22.5282 C   0  0  0  0  0  0
  -21.4022   -6.5640   23.8218 C   0  0  0  0  0  0
  -21.3676   -5.6793   24.9181 C   0  0  0  0  0  0
  -21.6039   -4.3056   24.7228 C   0  0  0  0  0  0
  -21.8820   -3.8148   23.4351 C   0  0  0  0  0  0
  -21.9193   -4.6959   22.3405 C   0  0  0  0  0  0
  -22.7765  -13.5200   21.1933 C   0  0  0  0  0  0
  -22.1659   -4.2135   21.0986 F   0  0  0  0  0  0
  -21.5629   -3.4554   25.7749 F   0  0  0  0  0  0
  -29.9045  -13.7953   20.3511 N   0  0  0  0  0  0
  -26.2804  -12.9485   20.3214 N   0  0  0  0  0  0
  -25.9299  -11.6599   20.5711 N   0  0  0  0  0  0
  -22.0415  -12.8171   22.0476 N   0  0  0  0  0  0
  -25.4054  -15.1971   20.4223 N   0  0  0  0  0  0
  -31.6963  -15.0909   20.1567 O   0  0  0  0  0  0
  -21.6649   -6.8868   21.4238 O   0  0  0  0  0  0
  -22.3460  -14.5499   20.6764 O   0  0  0  0  0  0
  -24.6494  -31.8376   23.1819 C   0  0  0  0  0  0
  -25.9235  -32.4666   23.8232 C   0  0  1  0  0  0
  -27.2166  -27.0551   20.1833 C   0  0  0  0  0  0
  -25.5986  -33.8486   24.2169 N   0  0  0  0  0  0
  -23.4554  -30.4482   21.5309 C   0  0  2  0  0  0
  -24.9037  -28.8479   20.1304 C   0  0  0  0  0  0
  -22.7596  -29.4479   22.4884 C   0  0  0  0  0  0
  -18.0335  -28.1286   22.8552 C   0  0  0  0  0  0
  -24.1493  -36.7226   23.2641 C   0  0  0  0  0  0
  -26.0141  -30.6849   21.3919 C   0  0  0  0  0  0
  -26.0859  -29.2813   20.7455 C   0  0  0  0  0  0
  -27.2446  -28.4078   20.7427 C   0  0  0  0  0  0
  -26.0019  -26.7293   19.5456 C   0  0  0  0  0  0
  -24.8754  -27.5871   19.5142 C   0  0  0  0  0  0
  -23.6850  -29.7625   20.1586 C   0  0  0  0  0  0
  -25.4127  -36.2995   24.0310 C   0  0  1  0  0  0
  -20.5965  -28.3627   23.1236 C   0  0  2  0  0  0
  -20.6878  -26.9385   22.5268 C   0  0  0  0  0  0
  -19.5749  -26.6351   21.5160 C   0  0  0  0  0  0
  -18.1980  -26.7814   22.1702 C   0  0  0  0  0  0
  -19.1615  -28.8761   23.2908 C   0  0  0  0  0  0
  -18.9577  -30.1358   23.8934 C   0  0  0  0  0  0
  -17.6588  -30.6562   24.0543 C   0  0  0  0  0  0
  -25.9105  -34.9382   23.5046 C   0  0  0  0  0  0
  -16.5467  -29.9098   23.6308 C   0  0  0  0  0  0
  -16.7338  -28.6447   23.0418 C   0  0  0  0  0  0
  -26.4536  -31.6563   25.0722 C   0  0  0  0  0  0
  -25.3699  -31.3776   26.1379 C   0  0  0  0  0  0
  -27.0422  -30.2958   24.6368 C   0  0  0  0  0  0
  -27.6053  -32.4346   25.7531 C   0  0  0  0  0  0
  -27.5581  -37.1750   24.8456 C   0  0  0  0  0  0
  -21.4275  -29.3043   22.3662 N   0  0  0  0  0  0
  -26.4280  -37.3725   23.9411 N   0  0  0  0  0  0
  -24.7271  -31.0108   22.0918 N   0  0  0  0  0  0
  -23.4196  -28.8030   23.3052 O   0  0  0  0  0  0
  -28.2982  -26.0857   20.0830 O   0  0  0  0  0  0
  -26.5671  -34.8886   22.4623 O   0  0  0  0  0  0
  -23.5604  -32.1300   23.7024 O   0  0  0  0  0  0
  -27.9337  -19.0214   18.7300 C   0  0  0  0  0  0
  -29.4957  -17.8333   17.3271 C   0  0  0  0  0  0
  -28.8418  -18.9508   19.8136 C   0  0  0  0  0  0
  -29.7935  -17.7410   19.7680 C   0  0  0  0  0  0
  -28.2585  -18.4678   17.4851 C   0  0  0  0  0  0
  -30.2838  -17.5170   18.4494 C   0  0  0  0  0  0
  -28.9807  -21.6837   19.8593 C   0  0  0  0  0  0
  -27.8051  -22.2274   21.7682 C   0  0  0  0  0  0
  -27.9049  -20.6763   21.5498 C   0  0  0  0  0  0
  -28.1005  -22.9646   20.4406 C   0  0  1  0  0  0
  -28.4679  -24.6433   20.7353 C   0  0  0  0  0  0
  -28.8382  -20.3845   20.4558 N   0  0  0  0  0  0
  -29.6934  -16.3121   20.4309 N   0  0  0  0  0  0
  -29.7393  -21.8753   18.9053 O   0  0  0  0  0  0
  -27.4509  -18.6748   16.4158 F   0  0  0  0  0  0
  -31.4102  -16.8065   18.2216 F   0  0  0  0  0  0
  -31.4560  -12.8299   19.2026 H   0  0  0  0  0  0
  -30.4255  -11.7361   20.0754 H   0  0  0  0  0  0
  -29.8573  -11.7353   17.6217 H   0  0  0  0  0  0
  -29.5969  -13.4610   17.6653 H   0  0  0  0  0  0
  -27.9590  -11.2848   18.9907 H   0  0  0  0  0  0
  -27.3933  -12.4476   17.8158 H   0  0  0  0  0  0
  -27.5603  -14.2551   19.3797 H   0  0  0  0  0  0
  -28.7690  -12.3876   21.4753 H   0  0  0  0  0  0
  -28.3302  -14.0626   21.7243 H   0  0  0  0  0  0
  -25.2749   -9.5705   22.4780 H   0  0  0  0  0  0
  -24.0007   -7.4634   22.7484 H   0  0  0  0  0  0
  -21.0845   -8.8763   19.8956 H   0  0  0  0  0  0
  -22.3676  -10.9671   19.6186 H   0  0  0  0  0  0
  -21.2025   -7.6153   23.9716 H   0  0  0  0  0  0
  -21.1497   -6.0533   25.9080 H   0  0  0  0  0  0
  -22.0578   -2.7607   23.2863 H   0  0  0  0  0  0
  -22.4063  -11.9815   22.4802 H   0  0  0  0  0  0
  -21.1039  -13.1212   22.2712 H   0  0  0  0  0  0
  -24.6333  -15.8431   20.5453 H   0  0  0  0  0  0
  -26.2387  -15.6420   20.0633 H   0  0  0  0  0  0
  -26.7317  -32.5256   23.0958 H   0  0  0  0  0  0
  -25.0078  -33.9591   25.0278 H   0  0  0  0  0  0
  -22.7558  -31.2721   21.3661 H   0  0  0  0  0  0
  -23.3786  -35.9533   23.3272 H   0  0  0  0  0  0
  -24.3568  -36.8903   22.2064 H   0  0  0  0  0  0
  -23.7209  -37.6390   23.6712 H   0  0  0  0  0  0
  -26.1747  -31.4309   20.6110 H   0  0  0  0  0  0
  -26.8828  -30.7438   22.0372 H   0  0  0  0  0  0
  -28.1554  -28.7474   21.2101 H   0  0  0  0  0  0
  -25.9168  -25.7658   19.0632 H   0  0  0  0  0  0
  -23.9756  -27.2525   19.0192 H   0  0  0  0  0  0
  -23.8211  -30.5244   19.3940 H   0  0  0  0  0  0
  -22.8005  -29.2000   19.8542 H   0  0  0  0  0  0
  -25.1316  -36.1822   25.0805 H   0  0  0  0  0  0
  -21.0132  -28.3104   24.1334 H   0  0  0  0  0  0
  -21.6691  -26.7531   22.0852 H   0  0  0  0  0  0
  -20.5941  -26.2205   23.3423 H   0  0  0  0  0  0
  -19.6872  -25.6255   21.1192 H   0  0  0  0  0  0
  -19.6613  -27.3161   20.6672 H   0  0  0  0  0  0
  -17.4183  -26.6436   21.4209 H   0  0  0  0  0  0
  -18.0504  -25.9915   22.9064 H   0  0  0  0  0  0
  -19.8054  -30.7124   24.2356 H   0  0  0  0  0  0
  -17.5196  -31.6257   24.5123 H   0  0  0  0  0  0
  -15.5479  -30.3067   23.7599 H   0  0  0  0  0  0
  -15.8736  -28.0691   22.7217 H   0  0  0  0  0  0
  -24.5901  -30.7098   25.7673 H   0  0  0  0  0  0
  -24.8857  -32.2964   26.4700 H   0  0  0  0  0  0
  -25.7960  -30.9000   27.0218 H   0  0  0  0  0  0
  -26.3066  -29.6662   24.1349 H   0  0  0  0  0  0
  -27.3950  -29.7270   25.4986 H   0  0  0  0  0  0
  -27.9001  -30.4147   23.9762 H   0  0  0  0  0  0
  -27.2623  -33.3671   26.2020 H   0  0  0  0  0  0
  -28.3921  -32.6868   25.0418 H   0  0  0  0  0  0
  -28.0641  -31.8526   26.5526 H   0  0  0  0  0  0
  -28.2547  -38.0095   24.7545 H   0  0  0  0  0  0
  -28.1118  -36.2617   24.6234 H   0  0  0  0  0  0
  -27.2285  -37.1327   25.8851 H   0  0  0  0  0  0
  -20.9528  -29.8819   21.6856 H   0  0  0  0  0  0
  -26.0149  -38.2791   24.1453 H   0  0  0  0  0  0
  -27.1105  -19.7239   18.7466 H   0  0  0  0  0  0
  -29.8144  -17.5223   16.3425 H   0  0  0  0  0  0
  -28.5558  -22.5195   22.5038 H   0  0  0  0  0  0
  -26.8396  -22.5133   22.1901 H   0  0  0  0  0  0
  -26.9248  -20.2889   21.2739 H   0  0  0  0  0  0
  -28.2044  -20.1579   22.4609 H   0  0  0  0  0  0
  -27.1753  -22.9524   19.8616 H   0  0  0  0  0  0
  -29.5515  -24.6095   20.8622 H   0  0  0  0  0  0
  -28.1147  -24.8211   21.7520 H   0  0  0  0  0  0
  -28.7851  -16.1355   20.8292 H   0  0  0  0  0  0
  1 25  1  0  0  0
  1 30  2  0  0  0
  1 83  1  0  0  0
  2  3  1  0  0  0
  2 25  1  0  0  0
  2 87  1  0  0  0
  2 88  1  0  0  0
  3  4  1  0  0  0
  3 89  1  0  0  0
  3 90  1  0  0  0
  4  5  1  0  0  0
  4 91  1  0  0  0
  4 92  1  0  0  0
  5  6  1  0  0  0
  5 26  1  0  0  0
  5 93  1  0  0  0
  6 25  1  0  0  0
  6 94  1  0  0  0
  6 95  1  0  0  0
  7  8  2  0  0  0
  7 26  1  0  0  0
  7 29  1  0  0  0
  8  9  1  0  0  0
  8 22  1  0  0  0
  9 10  1  0  0  0
  9 27  2  0  0  0
 10 11  2  0  0  0
 10 15  1  0  0  0
 11 12  1  0  0  0
 11 96  1  0  0  0
 12 13  2  0  0  0
 12 97  1  0  0  0
 13 14  1  0  0  0
 13 31  1  0  0  0
 14 15  2  0  0  0
 14 98  1  0  0  0
 15 99  1  0  0  0
 16 17  2  0  0  0
 16 21  1  0  0  0
 16 31  1  0  0  0
 17 18  1  0  0  0
 17100  1  0  0  0
 18 19  2  0  0  0
 18101  1  0  0  0
 19 20  1  0  0  0
 19 24  1  0  0  0
 20 21  2  0  0  0
 20102  1  0  0  0
 21 23  1  0  0  0
 22 28  1  0  0  0
 22 32  2  0  0  0
 26 27  1  0  0  0
 28103  1  0  0  0
 28104  1  0  0  0
 29105  1  0  0  0
 29106  1  0  0  0
 33 34  1  0  0  0
 33 66  1  0  0  0
 33 70  2  0  0  0
 34 36  1  0  0  0
 34 59  1  0  0  0
 34107  1  0  0  0
 35 44  2  0  0  0
 35 45  1  0  0  0
 35 68  1  0  0  0
 36 56  1  0  0  0
 36108  1  0  0  0
 37 39  1  0  0  0
 37 47  1  0  0  0
 37 66  1  0  0  0
 37109  1  0  0  0
 38 43  2  0  0  0
 38 46  1  0  0  0
 38 47  1  0  0  0
 39 64  1  0  0  0
 39 67  2  0  0  0
 40 52  1  0  0  0
 40 53  2  0  0  0
 40 58  1  0  0  0
 41110  1  0  0  0
 41111  1  0  0  0
 41112  1  0  0  0
 41 48  1  0  0  0
 42 43  1  0  0  0
 42 66  1  0  0  0
 42113  1  0  0  0
 42114  1  0  0  0
 43 44  1  0  0  0
 44115  1  0  0  0
 45 46  2  0  0  0
 45116  1  0  0  0
 46117  1  0  0  0
 47118  1  0  0  0
 47119  1  0  0  0
 48 56  1  0  0  0
 48 65  1  0  0  0
 48120  1  0  0  0
 49 50  1  0  0  0
 49 53  1  0  0  0
 49 64  1  0  0  0
 49121  1  0  0  0
 50 51  1  0  0  0
 50122  1  0  0  0
 50123  1  0  0  0
 51 52  1  0  0  0
 51124  1  0  0  0
 51125  1  0  0  0
 52126  1  0  0  0
 52127  1  0  0  0
 53 54  1  0  0  0
 54 55  2  0  0  0
 54128  1  0  0  0
 55 57  1  0  0  0
 55129  1  0  0  0
 56 69  2  0  0  0
 57 58  2  0  0  0
 57130  1  0  0  0
 58131  1  0  0  0
 59 60  1  0  0  0
 59 61  1  0  0  0
 59 62  1  0  0  0
 60132  1  0  0  0
 60133  1  0  0  0
 60134  1  0  0  0
 61135  1  0  0  0
 61136  1  0  0  0
 61137  1  0  0  0
 62138  1  0  0  0
 62139  1  0  0  0
 62140  1  0  0  0
 63 65  1  0  0  0
 63141  1  0  0  0
 63142  1  0  0  0
 63143  1  0  0  0
 64144  1  0  0  0
 65145  1  0  0  0
 68 81  1  0  0  0
 71 73  2  0  0  0
 71 75  1  0  0  0
 71146  1  0  0  0
 72 75  2  0  0  0
 72 76  1  0  0  0
 72147  1  0  0  0
 73 74  1  0  0  0
 73 82  1  0  0  0
 74 76  2  0  0  0
 74 83  1  0  0  0
 75 85  1  0  0  0
 76 86  1  0  0  0
 77 80  1  0  0  0
 77 82  1  0  0  0
 77 84  2  0  0  0
 78 79  1  0  0  0
 78 80  1  0  0  0
 78148  1  0  0  0
 78149  1  0  0  0
 79 82  1  0  0  0
 79150  1  0  0  0
 79151  1  0  0  0
 80 81  1  0  0  0
 80152  1  0  0  0
 81153  1  0  0  0
 81154  1  0  0  0
 83155  1  0  0  0
M  ISO  4   1 100  68 101  81 101  83 100
M  END
> <chiral flag>
0

> <version>
0

> <s_m_source_file>
/data/baiqing/PycharmProjects/Reinvent-master-3.2/result/LINK_invent/BTK/process_docking_weight1_custom_product_contain_oxygen_bond_distance_aromatic_linkinvent_7_9_3/rearranged_h_0067.sdf

> <i_m_source_file_index>
70

> <r_mmod_Potential_Energy-OPLS-2005>
1150.36071777344

> <r_mmod_Stretch_Energy-OPLS-2005>
380.425109863281

> <r_mmod_Bend_Energy-OPLS-2005>
453.625518798828

> <r_mmod_Torsional_Energy-OPLS-2005>
521.284790039062

> <r_mmod_Improper_Torsional_Energy-OPLS-2005>
28.6001281738281

> <r_mmod_Van_der_Waal_Energy-OPLS-2005>
129.484283447266

> <r_mmod_Electrostatic_Energy-OPLS-2005>
-399.042938232422

> <r_mmod_Solvation_Energy-OPLS-2005>
-237.667388916016

> <b_mmod_Minimization_Converged-OPLS-2005>
0

> <r_mmod_RMS_Derivative-OPLS-2005>
5.68311786651611

$$$$
70
                    3D
 Structure written by MMmdl.
154162  0  0  1  0            999 V2000
  -30.5582  -14.8220   20.4414 C   0  0  0  0  0  0
  -30.4493  -12.5004   19.4825 C   0  0  0  0  0  0
  -29.5283  -12.5211   18.2413 C   0  0  0  0  0  0
  -28.0513  -12.3377   18.6447 C   0  0  0  0  0  0
  -27.6431  -13.2321   19.8453 C   0  0  2  0  0  0
  -28.6878  -13.1785   20.9809 C   0  0  0  0  0  0
  -25.2528  -13.8179   20.5669 C   0  0  0  0  0  0
  -24.1816  -13.0438   20.9195 C   0  0  0  0  0  0
  -24.6403  -11.6914   20.8727 C   0  0  0  0  0  0
  -23.9072  -10.4288   21.0381 C   0  0  0  0  0  0
  -24.3619   -9.4207   21.9158 C   0  0  0  0  0  0
  -23.6295   -8.2248   22.0745 C   0  0  0  0  0  0
  -22.4274   -8.0279   21.3547 C   0  0  0  0  0  0
  -21.9906   -9.0244   20.4647 C   0  0  0  0  0  0
  -22.7237  -10.2126   20.3043 C   0  0  0  0  0  0
  -21.6860   -6.0728   22.5268 C   0  0  0  0  0  0
  -21.4024   -6.5630   23.8202 C   0  0  0  0  0  0
  -21.3665   -5.6781   24.9163 C   0  0  0  0  0  0
  -21.6045   -4.3044   24.7212 C   0  0  0  0  0  0
  -21.8821   -3.8139   23.4334 C   0  0  0  0  0  0
  -21.9196   -4.6958   22.3393 C   0  0  0  0  0  0
  -22.7829  -13.5225   21.1828 C   0  0  0  0  0  0
  -22.1659   -4.2145   21.0975 F   0  0  0  0  0  0
  -21.5635   -3.4535   25.7728 F   0  0  0  0  0  0
  -29.9803  -13.5657   20.4006 N   0  0  0  0  0  0
  -26.2949  -12.9377   20.3225 N   0  0  0  0  0  0
  -25.9334  -11.6528   20.5705 N   0  0  0  0  0  0
  -22.0453  -12.8253   22.0394 N   0  0  0  0  0  0
  -25.4192  -15.1911   20.4088 N   0  0  0  0  0  0
  -31.7553  -14.9426   20.1582 O   0  0  0  0  0  0
  -21.6657   -6.8867   21.4230 O   0  0  0  0  0  0
  -22.3506  -14.5505   20.6628 O   0  0  0  0  0  0
  -24.6351  -31.8498   23.1936 C   0  0  0  0  0  0
  -25.9160  -32.4718   23.8303 C   0  0  1  0  0  0
  -27.2319  -27.2232   20.1496 C   0  0  0  0  0  0
  -25.5937  -33.8531   24.2232 N   0  0  0  0  0  0
  -23.4355  -30.4670   21.5373 C   0  0  2  0  0  0
  -24.8860  -28.8969   20.1194 C   0  0  0  0  0  0
  -22.7525  -29.4574   22.4912 C   0  0  0  0  0  0
  -18.0300  -28.1409   22.8473 C   0  0  0  0  0  0
  -24.1494  -36.7282   23.2640 C   0  0  0  0  0  0
  -25.9831  -30.7503   21.3781 C   0  0  0  0  0  0
  -26.0573  -29.3656   20.7280 C   0  0  0  0  0  0
  -27.2342  -28.5444   20.7242 C   0  0  0  0  0  0
  -26.0369  -26.8223   19.5183 C   0  0  0  0  0  0
  -24.8826  -27.6337   19.5021 C   0  0  0  0  0  0
  -23.6578  -29.7887   20.1583 C   0  0  0  0  0  0
  -25.4119  -36.3064   24.0325 C   0  0  1  0  0  0
  -20.5907  -28.3732   23.1271 C   0  0  2  0  0  0
  -20.6803  -26.9448   22.5420 C   0  0  0  0  0  0
  -19.5772  -26.6401   21.5231 C   0  0  0  0  0  0
  -18.1947  -26.7948   22.1629 C   0  0  0  0  0  0
  -19.1550  -28.8883   23.2864 C   0  0  0  0  0  0
  -18.9464  -30.1488   23.8882 C   0  0  0  0  0  0
  -17.6461  -30.6606   24.0569 C   0  0  0  0  0  0
  -25.9064  -34.9428   23.5090 C   0  0  0  0  0  0
  -16.5356  -29.9102   23.6336 C   0  0  0  0  0  0
  -16.7280  -28.6526   23.0335 C   0  0  0  0  0  0
  -26.4509  -31.6548   25.0716 C   0  0  0  0  0  0
  -25.3718  -31.3721   26.1427 C   0  0  0  0  0  0
  -27.0328  -30.2934   24.6246 C   0  0  0  0  0  0
  -27.6060  -32.4273   25.7489 C   0  0  0  0  0  0
  -27.5584  -37.1789   24.8457 C   0  0  0  0  0  0
  -21.4229  -29.3044   22.3638 N   0  0  0  0  0  0
  -26.4292  -37.3765   23.9410 N   0  0  0  0  0  0
  -24.7039  -31.0416   22.0935 N   0  0  0  0  0  0
  -23.4186  -28.8135   23.3060 O   0  0  0  0  0  0
  -28.3466  -26.3434   20.1212 O   0  0  0  0  0  0
  -26.5647  -34.8912   22.4671 O   0  0  0  0  0  0
  -23.5493  -32.1336   23.7217 O   0  0  0  0  0  0
  -28.7875  -18.4021   20.2708 C   0  0  0  0  0  0
  -30.9781  -18.1887   20.6050 C   0  0  0  0  0  0
  -29.8464  -17.4197   20.4838 C   0  0  0  0  0  0
  -29.2690  -19.7229   20.2460 C   0  0  0  0  0  0
  -28.5515  -21.0796   19.8585 C   0  0  0  0  0  0
  -28.3165  -23.6133   19.9072 C   0  0  0  0  0  0
  -27.3800  -24.8944   21.9544 C   0  0  0  0  0  0
  -31.6330  -20.6309   20.5098 C   0  0  0  0  0  0
  -28.3856  -24.9696   20.7920 C   0  0  2  0  0  0
  -30.6478  -19.5604   20.4681 N   0  0  0  0  0  0
  -29.7032  -15.9249   20.5788 N   0  0  0  0  0  0
  -28.8229  -22.3683   20.3420 N   0  0  0  0  0  0
  -27.6137  -20.9160   19.0721 O   0  0  0  0  0  0
  -27.7669  -23.7342   18.8063 O   0  0  0  0  0  0
  -31.4888  -12.6486   19.1857 H   0  0  0  0  0  0
  -30.4136  -11.5277   19.9761 H   0  0  0  0  0  0
  -29.8261  -11.7426   17.5388 H   0  0  0  0  0  0
  -29.6531  -13.4698   17.7158 H   0  0  0  0  0  0
  -27.9094  -11.2874   18.9015 H   0  0  0  0  0  0
  -27.4021  -12.5328   17.7897 H   0  0  0  0  0  0
  -27.6301  -14.2518   19.4617 H   0  0  0  0  0  0
  -28.7448  -12.1781   21.4123 H   0  0  0  0  0  0
  -28.4097  -13.8468   21.7965 H   0  0  0  0  0  0
  -25.2755   -9.5707   22.4730 H   0  0  0  0  0  0
  -24.0011   -7.4651   22.7475 H   0  0  0  0  0  0
  -21.0824   -8.8748   19.8963 H   0  0  0  0  0  0
  -22.3656  -10.9657   19.6160 H   0  0  0  0  0  0
  -21.2016   -7.6138   23.9701 H   0  0  0  0  0  0
  -21.1489   -6.0516   25.9066 H   0  0  0  0  0  0
  -22.0598   -2.7605   23.2836 H   0  0  0  0  0  0
  -22.4071  -11.9986   22.4904 H   0  0  0  0  0  0
  -21.1043  -13.1269   22.2496 H   0  0  0  0  0  0
  -24.6443  -15.8376   20.5132 H   0  0  0  0  0  0
  -26.2509  -15.6340   20.0424 H   0  0  0  0  0  0
  -26.7242  -32.5342   23.1051 H   0  0  0  0  0  0
  -25.0013  -33.9649   25.0330 H   0  0  0  0  0  0
  -22.7351  -31.2898   21.3804 H   0  0  0  0  0  0
  -23.3763  -35.9606   23.3285 H   0  0  0  0  0  0
  -24.3583  -36.8929   22.2058 H   0  0  0  0  0  0
  -23.7240  -37.6478   23.6674 H   0  0  0  0  0  0
  -26.1229  -31.5055   20.6031 H   0  0  0  0  0  0
  -26.8618  -30.8052   22.0100 H   0  0  0  0  0  0
  -28.1375  -28.9027   21.1987 H   0  0  0  0  0  0
  -25.9937  -25.8522   19.0436 H   0  0  0  0  0  0
  -23.9876  -27.2693   19.0179 H   0  0  0  0  0  0
  -23.7863  -30.5569   19.3945 H   0  0  0  0  0  0
  -22.7767  -29.2189   19.8567 H   0  0  0  0  0  0
  -25.1305  -36.1910   25.0814 H   0  0  0  0  0  0
  -20.9981  -28.3332   24.1400 H   0  0  0  0  0  0
  -20.5763  -26.2332   23.3625 H   0  0  0  0  0  0
  -21.6664  -26.7501   22.1172 H   0  0  0  0  0  0
  -19.6957  -25.6313   21.1262 H   0  0  0  0  0  0
  -19.6732  -27.3215   20.6767 H   0  0  0  0  0  0
  -17.4231  -26.6703   21.4025 H   0  0  0  0  0  0
  -18.0337  -26.0103   22.9033 H   0  0  0  0  0  0
  -19.7933  -30.7321   24.2237 H   0  0  0  0  0  0
  -17.5007  -31.6275   24.5193 H   0  0  0  0  0  0
  -15.5356  -30.3002   23.7673 H   0  0  0  0  0  0
  -15.8673  -28.0861   22.7032 H   0  0  0  0  0  0
  -24.5893  -30.7074   25.7756 H   0  0  0  0  0  0
  -24.8916  -32.2899   26.4818 H   0  0  0  0  0  0
  -25.8011  -30.8908   27.0225 H   0  0  0  0  0  0
  -26.2913  -29.6688   24.1247 H   0  0  0  0  0  0
  -27.3943  -29.7187   25.4792 H   0  0  0  0  0  0
  -27.8833  -30.4161   23.9530 H   0  0  0  0  0  0
  -27.2661  -33.3558   26.2075 H   0  0  0  0  0  0
  -28.3861  -32.6850   25.0318 H   0  0  0  0  0  0
  -28.0735  -31.8390   26.5392 H   0  0  0  0  0  0
  -28.2579  -38.0105   24.7507 H   0  0  0  0  0  0
  -28.1100  -36.2631   24.6271 H   0  0  0  0  0  0
  -27.2297  -37.1422   25.8858 H   0  0  0  0  0  0
  -20.9461  -29.8678   21.6740 H   0  0  0  0  0  0
  -26.0175  -38.2843   24.1412 H   0  0  0  0  0  0
  -27.7442  -18.1684   20.1068 H   0  0  0  0  0  0
  -32.0070  -17.8927   20.7690 H   0  0  0  0  0  0
  -27.5119  -25.7278   22.6437 H   0  0  0  0  0  0
  -27.5089  -23.9753   22.5269 H   0  0  0  0  0  0
  -26.3517  -24.9090   21.5945 H   0  0  0  0  0  0
  -32.6434  -20.2212   20.5313 H   0  0  0  0  0  0
  -31.4912  -21.2345   21.4067 H   0  0  0  0  0  0
  -31.5415  -21.2657   19.6274 H   0  0  0  0  0  0
  -29.3769  -24.9367   21.2453 H   0  0  0  0  0  0
  -28.7498  -15.6237   20.7075 H   0  0  0  0  0  0
  -29.4192  -22.4013   21.1532 H   0  0  0  0  0  0
  1 25  1  0  0  0
  1 30  2  0  0  0
  1 81  1  0  0  0
  2  3  1  0  0  0
  2 25  1  0  0  0
  2 85  1  0  0  0
  2 86  1  0  0  0
  3  4  1  0  0  0
  3 87  1  0  0  0
  3 88  1  0  0  0
  4  5  1  0  0  0
  4 89  1  0  0  0
  4 90  1  0  0  0
  5  6  1  0  0  0
  5 26  1  0  0  0
  5 91  1  0  0  0
  6 25  1  0  0  0
  6 92  1  0  0  0
  6 93  1  0  0  0
  7  8  2  0  0  0
  7 26  1  0  0  0
  7 29  1  0  0  0
  8  9  1  0  0  0
  8 22  1  0  0  0
  9 10  1  0  0  0
  9 27  2  0  0  0
 10 11  2  0  0  0
 10 15  1  0  0  0
 11 12  1  0  0  0
 11 94  1  0  0  0
 12 13  2  0  0  0
 12 95  1  0  0  0
 13 14  1  0  0  0
 13 31  1  0  0  0
 14 15  2  0  0  0
 14 96  1  0  0  0
 15 97  1  0  0  0
 16 17  2  0  0  0
 16 21  1  0  0  0
 16 31  1  0  0  0
 17 18  1  0  0  0
 17 98  1  0  0  0
 18 19  2  0  0  0
 18 99  1  0  0  0
 19 20  1  0  0  0
 19 24  1  0  0  0
 20 21  2  0  0  0
 20100  1  0  0  0
 21 23  1  0  0  0
 22 28  1  0  0  0
 22 32  2  0  0  0
 26 27  1  0  0  0
 28101  1  0  0  0
 28102  1  0  0  0
 29103  1  0  0  0
 29104  1  0  0  0
 33 34  1  0  0  0
 33 66  1  0  0  0
 33 70  2  0  0  0
 34 36  1  0  0  0
 34 59  1  0  0  0
 34105  1  0  0  0
 35 44  2  0  0  0
 35 45  1  0  0  0
 35 68  1  0  0  0
 36 56  1  0  0  0
 36106  1  0  0  0
 37 39  1  0  0  0
 37 47  1  0  0  0
 37 66  1  0  0  0
 37107  1  0  0  0
 38 43  2  0  0  0
 38 46  1  0  0  0
 38 47  1  0  0  0
 39 64  1  0  0  0
 39 67  2  0  0  0
 40 52  1  0  0  0
 40 53  2  0  0  0
 40 58  1  0  0  0
 41108  1  0  0  0
 41109  1  0  0  0
 41110  1  0  0  0
 41 48  1  0  0  0
 42 43  1  0  0  0
 42 66  1  0  0  0
 42111  1  0  0  0
 42112  1  0  0  0
 43 44  1  0  0  0
 44113  1  0  0  0
 45 46  2  0  0  0
 45114  1  0  0  0
 46115  1  0  0  0
 47116  1  0  0  0
 47117  1  0  0  0
 48 56  1  0  0  0
 48 65  1  0  0  0
 48118  1  0  0  0
 49 50  1  0  0  0
 49 53  1  0  0  0
 49 64  1  0  0  0
 49119  1  0  0  0
 50 51  1  0  0  0
 50120  1  0  0  0
 50121  1  0  0  0
 51 52  1  0  0  0
 51122  1  0  0  0
 51123  1  0  0  0
 52124  1  0  0  0
 52125  1  0  0  0
 53 54  1  0  0  0
 54 55  2  0  0  0
 54126  1  0  0  0
 55 57  1  0  0  0
 55127  1  0  0  0
 56 69  2  0  0  0
 57 58  2  0  0  0
 57128  1  0  0  0
 58129  1  0  0  0
 59 60  1  0  0  0
 59 61  1  0  0  0
 59 62  1  0  0  0
 60130  1  0  0  0
 60131  1  0  0  0
 60132  1  0  0  0
 61133  1  0  0  0
 61134  1  0  0  0
 61135  1  0  0  0
 62136  1  0  0  0
 62137  1  0  0  0
 62138  1  0  0  0
 63 65  1  0  0  0
 63139  1  0  0  0
 63140  1  0  0  0
 63141  1  0  0  0
 64142  1  0  0  0
 65143  1  0  0  0
 68 79  1  0  0  0
 71 73  1  0  0  0
 71 74  2  0  0  0
 71144  1  0  0  0
 72 73  2  0  0  0
 72 80  1  0  0  0
 72145  1  0  0  0
 73 81  1  0  0  0
 74 75  1  0  0  0
 74 80  1  0  0  0
 75 82  1  0  0  0
 75 83  2  0  0  0
 76 79  1  0  0  0
 76 82  1  0  0  0
 76 84  2  0  0  0
 77146  1  0  0  0
 77147  1  0  0  0
 77148  1  0  0  0
 77 79  1  0  0  0
 78 80  1  0  0  0
 78149  1  0  0  0
 78150  1  0  0  0
 78151  1  0  0  0
 79152  1  0  0  0
 81153  1  0  0  0
 82154  1  0  0  0
M  ISO  4   1 100  68 101  79 101  81 100
M  END
> <chiral flag>
0

> <version>
0

> <s_m_source_file>
/data/baiqing/PycharmProjects/Reinvent-master-3.2/result/LINK_invent/BTK/process_docking_weight1_custom_product_contain_oxygen_bond_distance_aromatic_linkinvent_7_9_3/rearranged_h_0067.sdf

> <i_m_source_file_index>
71

> <r_mmod_Potential_Energy-OPLS-2005>
133.003677368164

> <r_mmod_Stretch_Energy-OPLS-2005>
154.43132019043

> <r_mmod_Bend_Energy-OPLS-2005>
214.829742431641

> <r_mmod_Torsional_Energy-OPLS-2005>
268.393798828125

> <r_mmod_Improper_Torsional_Energy-OPLS-2005>
6.46349716186523

> <r_mmod_Van_der_Waal_Energy-OPLS-2005>
110.909278869629

> <r_mmod_Electrostatic_Energy-OPLS-2005>
-449.294128417969

> <r_mmod_Solvation_Energy-OPLS-2005>
-284.78125

> <b_mmod_Minimization_Converged-OPLS-2005>
0

> <r_mmod_RMS_Derivative-OPLS-2005>
2.25663352012634

$$$$
71
                    3D
 Structure written by MMmdl.
158166  0  0  1  0            999 V2000
  -30.6241  -14.8414   20.3277 C   0  0  0  0  0  0
  -30.4352  -12.4973   19.4712 C   0  0  0  0  0  0
  -29.5067  -12.3695   18.2443 C   0  0  0  0  0  0
  -28.0386  -12.2190   18.6847 C   0  0  0  0  0  0
  -27.6221  -13.2073   19.8070 C   0  0  2  0  0  0
  -28.6783  -13.2978   20.9284 C   0  0  0  0  0  0
  -25.2402  -13.7968   20.5814 C   0  0  0  0  0  0
  -24.1688  -13.0237   20.9231 C   0  0  0  0  0  0
  -24.6338  -11.6760   20.8767 C   0  0  0  0  0  0
  -23.9037  -10.4167   21.0423 C   0  0  0  0  0  0
  -24.3594   -9.4089   21.9193 C   0  0  0  0  0  0
  -23.6270   -8.2135   22.0734 C   0  0  0  0  0  0
  -22.4261   -8.0191   21.3516 C   0  0  0  0  0  0
  -21.9904   -9.0165   20.4623 C   0  0  0  0  0  0
  -22.7225  -10.2035   20.3056 C   0  0  0  0  0  0
  -21.6808   -6.0702   22.5289 C   0  0  0  0  0  0
  -21.3992   -6.5620   23.8221 C   0  0  0  0  0  0
  -21.3671   -5.6778   24.9183 C   0  0  0  0  0  0
  -21.6062   -4.3039   24.7242 C   0  0  0  0  0  0
  -21.8815   -3.8121   23.4356 C   0  0  0  0  0  0
  -21.9173   -4.6936   22.3410 C   0  0  0  0  0  0
  -22.7729  -13.5075   21.1861 C   0  0  0  0  0  0
  -22.1636   -4.2114   21.0993 F   0  0  0  0  0  0
  -21.5645   -3.4534   25.7765 F   0  0  0  0  0  0
  -29.9525  -13.6350   20.2835 N   0  0  0  0  0  0
  -26.2852  -12.9230   20.3217 N   0  0  0  0  0  0
  -25.9260  -11.6388   20.5770 N   0  0  0  0  0  0
  -22.0382  -12.8114   22.0456 N   0  0  0  0  0  0
  -25.3866  -15.1668   20.4514 N   0  0  0  0  0  0
  -31.8584  -14.8150   20.3590 O   0  0  0  0  0  0
  -21.6576   -6.8824   21.4247 O   0  0  0  0  0  0
  -22.3424  -14.5377   20.6667 O   0  0  0  0  0  0
  -24.6280  -31.8557   23.2004 C   0  0  0  0  0  0
  -25.9151  -32.4744   23.8318 C   0  0  1  0  0  0
  -27.2188  -27.2842   20.1058 C   0  0  0  0  0  0
  -25.5945  -33.8539   24.2242 N   0  0  0  0  0  0
  -23.4206  -30.4822   21.5435 C   0  0  2  0  0  0
  -24.8671  -28.9352   20.1026 C   0  0  0  0  0  0
  -22.7478  -29.4607   22.4929 C   0  0  0  0  0  0
  -18.0310  -28.1387   22.8508 C   0  0  0  0  0  0
  -24.1488  -36.7277   23.2632 C   0  0  0  0  0  0
  -25.9657  -30.7721   21.3790 C   0  0  0  0  0  0
  -26.0369  -29.3993   20.7162 C   0  0  0  0  0  0
  -27.2122  -28.5833   20.7120 C   0  0  0  0  0  0
  -26.0225  -26.8882   19.4596 C   0  0  0  0  0  0
  -24.8636  -27.6908   19.4608 C   0  0  0  0  0  0
  -23.6350  -29.8175   20.1565 C   0  0  0  0  0  0
  -25.4112  -36.3050   24.0320 C   0  0  1  0  0  0
  -20.5894  -28.3695   23.1287 C   0  0  2  0  0  0
  -20.6791  -26.9425   22.5407 C   0  0  0  0  0  0
  -19.5758  -26.6399   21.5211 C   0  0  0  0  0  0
  -18.1947  -26.7945   22.1630 C   0  0  0  0  0  0
  -19.1558  -28.8852   23.2897 C   0  0  0  0  0  0
  -18.9469  -30.1466   23.8896 C   0  0  0  0  0  0
  -17.6463  -30.6588   24.0577 C   0  0  0  0  0  0
  -25.9058  -34.9421   23.5070 C   0  0  0  0  0  0
  -16.5355  -29.9087   23.6340 C   0  0  0  0  0  0
  -16.7294  -28.6497   23.0372 C   0  0  0  0  0  0
  -26.4527  -31.6571   25.0709 C   0  0  0  0  0  0
  -25.3753  -31.3743   26.1438 C   0  0  0  0  0  0
  -27.0355  -30.2970   24.6192 C   0  0  0  0  0  0
  -27.6075  -32.4322   25.7479 C   0  0  0  0  0  0
  -27.5579  -37.1784   24.8459 C   0  0  0  0  0  0
  -21.4199  -29.3031   22.3658 N   0  0  0  0  0  0
  -26.4276  -37.3767   23.9419 N   0  0  0  0  0  0
  -24.6903  -31.0516   22.0991 N   0  0  0  0  0  0
  -23.4189  -28.8169   23.3036 O   0  0  0  0  0  0
  -28.3265  -26.4046   20.1629 O   0  0  0  0  0  0
  -26.5615  -34.8884   22.4645 O   0  0  0  0  0  0
  -23.5438  -32.1381   23.7306 O   0  0  0  0  0  0
  -27.5761  -19.4788   20.1512 C   0  0  0  0  0  0
  -27.9452  -17.0853   19.9217 C   0  0  0  0  0  0
  -29.8411  -18.5534   20.2886 C   0  0  0  0  0  0
  -28.9618  -19.7294   20.2714 C   0  0  0  0  0  0
  -29.3386  -17.1866   20.0928 C   0  0  0  0  0  0
  -27.0770  -18.1848   19.9735 C   0  0  0  0  0  0
  -31.0349  -16.9118   17.6020 C   0  0  0  0  0  0
  -30.3492  -15.9750   18.2826 C   0  0  0  0  0  0
  -28.7798  -22.2874   19.8645 C   0  0  0  0  0  0
  -31.3242  -18.7911   20.4865 C   0  0  0  0  0  0
  -29.1294  -23.7835   20.3051 C   0  0  0  0  0  0
  -28.1229  -24.9564   19.8354 C   0  0  0  0  0  0
  -29.3698  -21.1536   20.4120 N   0  0  0  0  0  0
  -30.0588  -15.9450   19.6586 N   0  0  0  0  0  0
  -27.9655  -22.1668   18.9453 O   0  0  0  0  0  0
  -25.7454  -18.0028   19.7944 F   0  0  0  0  0  0
  -31.4704  -12.6308   19.1506 H   0  0  0  0  0  0
  -30.4194  -11.5786   20.0616 H   0  0  0  0  0  0
  -29.8050  -11.5002   17.6571 H   0  0  0  0  0  0
  -29.6083  -13.2036   17.5621 H   0  0  0  0  0  0
  -27.9385  -11.1986   19.0546 H   0  0  0  0  0  0
  -27.3688  -12.2914   17.8273 H   0  0  0  0  0  0
  -27.5632  -14.1651   19.3034 H   0  0  0  0  0  0
  -28.7538  -12.3638   21.4892 H   0  0  0  0  0  0
  -28.4036  -14.0782   21.6394 H   0  0  0  0  0  0
  -25.2735   -9.5546   22.4752 H   0  0  0  0  0  0
  -23.9936   -7.4552   22.7485 H   0  0  0  0  0  0
  -21.0797   -8.8715   19.8973 H   0  0  0  0  0  0
  -22.3697  -10.9579   19.6157 H   0  0  0  0  0  0
  -21.1975   -7.6131   23.9714 H   0  0  0  0  0  0
  -21.1509   -6.0506   25.9089 H   0  0  0  0  0  0
  -22.0594   -2.7583   23.2867 H   0  0  0  0  0  0
  -22.4002  -11.9807   22.4916 H   0  0  0  0  0  0
  -21.1007  -13.1141   22.2701 H   0  0  0  0  0  0
  -24.6134  -15.8018   20.6071 H   0  0  0  0  0  0
  -26.2479  -15.6505   20.2568 H   0  0  0  0  0  0
  -26.7228  -32.5382   23.1058 H   0  0  0  0  0  0
  -25.0116  -33.9697   25.0387 H   0  0  0  0  0  0
  -22.7152  -31.3033   21.4025 H   0  0  0  0  0  0
  -23.3732  -35.9629   23.3258 H   0  0  0  0  0  0
  -24.3560  -36.8919   22.2048 H   0  0  0  0  0  0
  -23.7258  -37.6475   23.6673 H   0  0  0  0  0  0
  -26.1043  -31.5349   20.6120 H   0  0  0  0  0  0
  -26.8419  -30.8127   22.0148 H   0  0  0  0  0  0
  -28.1049  -28.9353   21.2094 H   0  0  0  0  0  0
  -25.9410  -25.9424   18.9465 H   0  0  0  0  0  0
  -23.9719  -27.3417   18.9607 H   0  0  0  0  0  0
  -23.7505  -30.5909   19.3973 H   0  0  0  0  0  0
  -22.7531  -29.2475   19.8613 H   0  0  0  0  0  0
  -25.1294  -36.1882   25.0814 H   0  0  0  0  0  0
  -21.0016  -28.3271   24.1391 H   0  0  0  0  0  0
  -20.5674  -26.2309   23.3612 H   0  0  0  0  0  0
  -21.6672  -26.7445   22.1209 H   0  0  0  0  0  0
  -19.6912  -25.6299   21.1263 H   0  0  0  0  0  0
  -19.6708  -27.3182   20.6720 H   0  0  0  0  0  0
  -17.4235  -26.6722   21.4025 H   0  0  0  0  0  0
  -18.0343  -26.0071   22.8998 H   0  0  0  0  0  0
  -19.7932  -30.7328   24.2232 H   0  0  0  0  0  0
  -17.5004  -31.6271   24.5190 H   0  0  0  0  0  0
  -15.5346  -30.2991   23.7651 H   0  0  0  0  0  0
  -15.8705  -28.0816   22.7081 H   0  0  0  0  0  0
  -24.5893  -30.7142   25.7757 H   0  0  0  0  0  0
  -24.9001  -32.2936   26.4858 H   0  0  0  0  0  0
  -25.8058  -30.8902   27.0210 H   0  0  0  0  0  0
  -26.2920  -29.6735   24.1212 H   0  0  0  0  0  0
  -27.4009  -29.7236   25.4717 H   0  0  0  0  0  0
  -27.8824  -30.4191   23.9437 H   0  0  0  0  0  0
  -27.2654  -33.3602   26.2048 H   0  0  0  0  0  0
  -28.3879  -32.6899   25.0324 H   0  0  0  0  0  0
  -28.0763  -31.8476   26.5395 H   0  0  0  0  0  0
  -28.2585  -38.0091   24.7509 H   0  0  0  0  0  0
  -28.1089  -36.2618   24.6277 H   0  0  0  0  0  0
  -27.2297  -37.1415   25.8861 H   0  0  0  0  0  0
  -20.9363  -29.8731   21.6855 H   0  0  0  0  0  0
  -26.0131  -38.2830   24.1440 H   0  0  0  0  0  0
  -26.8611  -20.2884   20.1691 H   0  0  0  0  0  0
  -27.5324  -16.1455   19.6326 H   0  0  0  0  0  0
  -31.1514  -16.8165   16.5323 H   0  0  0  0  0  0
  -31.5000  -17.7680   18.0623 H   0  0  0  0  0  0
  -29.9024  -15.1589   17.7509 H   0  0  0  0  0  0
  -31.5035  -19.2502   21.4600 H   0  0  0  0  0  0
  -31.7067  -19.4563   19.7121 H   0  0  0  0  0  0
  -31.8938  -17.8644   20.4422 H   0  0  0  0  0  0
  -30.1284  -24.0140   19.9387 H   0  0  0  0  0  0
  -29.1948  -23.8030   21.3913 H   0  0  0  0  0  0
  -27.1495  -24.6565   20.2274 H   0  0  0  0  0  0
  -28.0299  -24.8992   18.7491 H   0  0  0  0  0  0
  -30.1491  -21.3286   21.0331 H   0  0  0  0  0  0
  1 25  1  0  0  0
  1 30  2  0  0  0
  1 84  1  0  0  0
  2  3  1  0  0  0
  2 25  1  0  0  0
  2 87  1  0  0  0
  2 88  1  0  0  0
  3  4  1  0  0  0
  3 89  1  0  0  0
  3 90  1  0  0  0
  4  5  1  0  0  0
  4 91  1  0  0  0
  4 92  1  0  0  0
  5  6  1  0  0  0
  5 26  1  0  0  0
  5 93  1  0  0  0
  6 25  1  0  0  0
  6 94  1  0  0  0
  6 95  1  0  0  0
  7  8  2  0  0  0
  7 26  1  0  0  0
  7 29  1  0  0  0
  8  9  1  0  0  0
  8 22  1  0  0  0
  9 10  1  0  0  0
  9 27  2  0  0  0
 10 11  2  0  0  0
 10 15  1  0  0  0
 11 12  1  0  0  0
 11 96  1  0  0  0
 12 13  2  0  0  0
 12 97  1  0  0  0
 13 14  1  0  0  0
 13 31  1  0  0  0
 14 15  2  0  0  0
 14 98  1  0  0  0
 15 99  1  0  0  0
 16 17  2  0  0  0
 16 21  1  0  0  0
 16 31  1  0  0  0
 17 18  1  0  0  0
 17100  1  0  0  0
 18 19  2  0  0  0
 18101  1  0  0  0
 19 20  1  0  0  0
 19 24  1  0  0  0
 20 21  2  0  0  0
 20102  1  0  0  0
 21 23  1  0  0  0
 22 28  1  0  0  0
 22 32  2  0  0  0
 26 27  1  0  0  0
 28103  1  0  0  0
 28104  1  0  0  0
 29105  1  0  0  0
 29106  1  0  0  0
 33 34  1  0  0  0
 33 66  1  0  0  0
 33 70  2  0  0  0
 34 36  1  0  0  0
 34 59  1  0  0  0
 34107  1  0  0  0
 35 44  2  0  0  0
 35 45  1  0  0  0
 35 68  1  0  0  0
 36 56  1  0  0  0
 36108  1  0  0  0
 37 39  1  0  0  0
 37 47  1  0  0  0
 37 66  1  0  0  0
 37109  1  0  0  0
 38 43  2  0  0  0
 38 46  1  0  0  0
 38 47  1  0  0  0
 39 64  1  0  0  0
 39 67  2  0  0  0
 40 52  1  0  0  0
 40 53  2  0  0  0
 40 58  1  0  0  0
 41110  1  0  0  0
 41111  1  0  0  0
 41112  1  0  0  0
 41 48  1  0  0  0
 42 43  1  0  0  0
 42 66  1  0  0  0
 42113  1  0  0  0
 42114  1  0  0  0
 43 44  1  0  0  0
 44115  1  0  0  0
 45 46  2  0  0  0
 45116  1  0  0  0
 46117  1  0  0  0
 47118  1  0  0  0
 47119  1  0  0  0
 48 56  1  0  0  0
 48 65  1  0  0  0
 48120  1  0  0  0
 49 50  1  0  0  0
 49 53  1  0  0  0
 49 64  1  0  0  0
 49121  1  0  0  0
 50 51  1  0  0  0
 50122  1  0  0  0
 50123  1  0  0  0
 51 52  1  0  0  0
 51124  1  0  0  0
 51125  1  0  0  0
 52126  1  0  0  0
 52127  1  0  0  0
 53 54  1  0  0  0
 54 55  2  0  0  0
 54128  1  0  0  0
 55 57  1  0  0  0
 55129  1  0  0  0
 56 69  2  0  0  0
 57 58  2  0  0  0
 57130  1  0  0  0
 58131  1  0  0  0
 59 60  1  0  0  0
 59 61  1  0  0  0
 59 62  1  0  0  0
 60132  1  0  0  0
 60133  1  0  0  0
 60134  1  0  0  0
 61135  1  0  0  0
 61136  1  0  0  0
 61137  1  0  0  0
 62138  1  0  0  0
 62139  1  0  0  0
 62140  1  0  0  0
 63 65  1  0  0  0
 63141  1  0  0  0
 63142  1  0  0  0
 63143  1  0  0  0
 64144  1  0  0  0
 65145  1  0  0  0
 68 82  1  0  0  0
 71 74  2  0  0  0
 71 76  1  0  0  0
 71146  1  0  0  0
 72 75  1  0  0  0
 72 76  2  0  0  0
 72147  1  0  0  0
 73 74  1  0  0  0
 73 75  2  0  0  0
 73 80  1  0  0  0
 74 83  1  0  0  0
 75 84  1  0  0  0
 76 86  1  0  0  0
 77 78  2  0  0  0
 77148  1  0  0  0
 77149  1  0  0  0
 78 84  1  0  0  0
 78150  1  0  0  0
 79 81  1  0  0  0
 79 83  1  0  0  0
 79 85  2  0  0  0
 80151  1  0  0  0
 80152  1  0  0  0
 80153  1  0  0  0
 81 82  1  0  0  0
 81154  1  0  0  0
 81155  1  0  0  0
 82156  1  0  0  0
 82157  1  0  0  0
 83158  1  0  0  0
M  ISO  4   1 100  68 101  82 101  84 100
M  END
> <chiral flag>
0

> <version>
0

> <s_m_source_file>
/data/baiqing/PycharmProjects/Reinvent-master-3.2/result/LINK_invent/BTK/process_docking_weight1_custom_product_contain_oxygen_bond_distance_aromatic_linkinvent_7_9_3/rearranged_h_0067.sdf

> <i_m_source_file_index>
72

> <r_mmod_Potential_Energy-OPLS-2005>
497.731384277344

> <r_mmod_Stretch_Energy-OPLS-2005>
131.621505737305

> <r_mmod_Bend_Energy-OPLS-2005>
192.50456237793

> <r_mmod_Torsional_Energy-OPLS-2005>
393.950469970703

> <r_mmod_Improper_Torsional_Energy-OPLS-2005>
31.1144981384277

> <r_mmod_Van_der_Waal_Energy-OPLS-2005>
150.32878112793

> <r_mmod_Electrostatic_Energy-OPLS-2005>
-322.338562011719

> <r_mmod_Solvation_Energy-OPLS-2005>
-211.511108398438

> <b_mmod_Minimization_Converged-OPLS-2005>
0

> <r_mmod_RMS_Derivative-OPLS-2005>
4.36943197250366

$$$$
72
                    3D
 Structure written by MMmdl.
152160  0  0  1  0            999 V2000
  -30.5962  -14.6778   20.4934 C   0  0  0  0  0  0
  -30.4437  -12.4142   19.4560 C   0  0  0  0  0  0
  -29.5118  -12.5107   18.2268 C   0  0  0  0  0  0
  -28.0338  -12.3441   18.6366 C   0  0  0  0  0  0
  -27.6516  -13.2169   19.8606 C   0  0  2  0  0  0
  -28.6963  -13.0812   20.9908 C   0  0  0  0  0  0
  -25.2545  -13.8171   20.5661 C   0  0  0  0  0  0
  -24.1823  -13.0437   20.9194 C   0  0  0  0  0  0
  -24.6390  -11.6905   20.8741 C   0  0  0  0  0  0
  -23.9059  -10.4292   21.0406 C   0  0  0  0  0  0
  -24.3613   -9.4206   21.9182 C   0  0  0  0  0  0
  -23.6292   -8.2239   22.0749 C   0  0  0  0  0  0
  -22.4275   -8.0275   21.3540 C   0  0  0  0  0  0
  -21.9905   -9.0250   20.4643 C   0  0  0  0  0  0
  -22.7229  -10.2131   20.3057 C   0  0  0  0  0  0
  -21.6850   -6.0727   22.5279 C   0  0  0  0  0  0
  -21.4009   -6.5636   23.8209 C   0  0  0  0  0  0
  -21.3661   -5.6790   24.9174 C   0  0  0  0  0  0
  -21.6052   -4.3054   24.7225 C   0  0  0  0  0  0
  -21.8821   -3.8140   23.4348 C   0  0  0  0  0  0
  -21.9187   -4.6955   22.3403 C   0  0  0  0  0  0
  -22.7844  -13.5221   21.1866 C   0  0  0  0  0  0
  -22.1656   -4.2141   21.0983 F   0  0  0  0  0  0
  -21.5636   -3.4539   25.7738 F   0  0  0  0  0  0
  -30.0070  -13.4391   20.4275 N   0  0  0  0  0  0
  -26.2972  -12.9348   20.3288 N   0  0  0  0  0  0
  -25.9317  -11.6506   20.5749 N   0  0  0  0  0  0
  -22.0481  -12.8217   22.0426 N   0  0  0  0  0  0
  -25.4252  -15.1891   20.4047 N   0  0  0  0  0  0
  -31.7654  -14.8418   20.1300 O   0  0  0  0  0  0
  -21.6637   -6.8873   21.4241 O   0  0  0  0  0  0
  -22.3525  -14.5525   20.6708 O   0  0  0  0  0  0
  -24.6277  -31.8583   23.2015 C   0  0  0  0  0  0
  -25.9118  -32.4771   23.8350 C   0  0  1  0  0  0
  -27.2255  -27.3025   20.1250 C   0  0  0  0  0  0
  -25.5925  -33.8569   24.2275 N   0  0  0  0  0  0
  -23.4221  -30.4821   21.5438 C   0  0  2  0  0  0
  -24.8692  -28.9327   20.1120 C   0  0  0  0  0  0
  -22.7485  -29.4625   22.4932 C   0  0  0  0  0  0
  -18.0286  -28.1387   22.8483 C   0  0  0  0  0  0
  -24.1487  -36.7290   23.2641 C   0  0  0  0  0  0
  -25.9648  -30.7844   21.3745 C   0  0  0  0  0  0
  -26.0389  -29.4103   20.7166 C   0  0  0  0  0  0
  -27.2200  -28.6082   20.7110 C   0  0  0  0  0  0
  -26.0322  -26.8812   19.4948 C   0  0  0  0  0  0
  -24.8692  -27.6744   19.4913 C   0  0  0  0  0  0
  -23.6379  -29.8152   20.1597 C   0  0  0  0  0  0
  -25.4111  -36.3084   24.0335 C   0  0  1  0  0  0
  -20.5888  -28.3696   23.1274 C   0  0  2  0  0  0
  -20.6777  -26.9417   22.5407 C   0  0  0  0  0  0
  -19.5754  -26.6384   21.5211 C   0  0  0  0  0  0
  -18.1932  -26.7928   22.1623 C   0  0  0  0  0  0
  -19.1538  -28.8858   23.2872 C   0  0  0  0  0  0
  -18.9463  -30.1459   23.8891 C   0  0  0  0  0  0
  -17.6465  -30.6589   24.0561 C   0  0  0  0  0  0
  -25.9051  -34.9451   23.5109 C   0  0  0  0  0  0
  -16.5354  -29.9087   23.6331 C   0  0  0  0  0  0
  -16.7274  -28.6503   23.0351 C   0  0  0  0  0  0
  -26.4493  -31.6588   25.0730 C   0  0  0  0  0  0
  -25.3720  -31.3724   26.1453 C   0  0  0  0  0  0
  -27.0343  -30.3013   24.6195 C   0  0  0  0  0  0
  -27.6053  -32.4327   25.7494 C   0  0  0  0  0  0
  -27.5585  -37.1796   24.8462 C   0  0  0  0  0  0
  -21.4201  -29.3048   22.3671 N   0  0  0  0  0  0
  -26.4289  -37.3784   23.9417 N   0  0  0  0  0  0
  -24.6903  -31.0593   22.0961 N   0  0  0  0  0  0
  -23.4203  -28.8171   23.3022 O   0  0  0  0  0  0
  -28.3387  -26.4436   20.1830 O   0  0  0  0  0  0
  -26.5623  -34.8922   22.4676 O   0  0  0  0  0  0
  -23.5437  -32.1378   23.7340 O   0  0  0  0  0  0
  -31.0182  -19.3601   20.4147 C   0  0  0  0  0  0
  -31.0079  -17.9303   20.3920 C   0  0  0  0  0  0
  -28.7027  -17.9919   21.0236 C   0  0  0  0  0  0
  -29.9033  -20.1801   20.7929 C   0  0  0  0  0  0
  -29.8481  -17.1923   20.7309 C   0  0  0  0  0  0
  -28.7126  -19.4292   21.0607 C   0  0  0  0  0  0
  -30.1170  -21.7003   21.0573 C   0  0  0  0  0  0
  -29.3340  -24.0619   20.5186 C   0  0  0  0  0  0
  -28.1196  -24.9692   20.0638 C   0  0  0  0  0  0
  -27.5199  -20.0703   21.4165 N   0  0  0  0  0  0
  -29.7539  -15.7214   20.8072 N   0  0  0  0  0  0
  -29.2494  -22.6664   20.5342 N   0  0  0  0  0  0
  -30.3523  -24.6882   20.8380 O   0  0  0  0  0  0
  -31.4285  -22.0310   22.0736 S   0  0  0  0  0  0
  -31.4825  -12.5536   19.1518 H   0  0  0  0  0  0
  -30.3947  -11.4196   19.9018 H   0  0  0  0  0  0
  -29.7814  -11.7568   17.4857 H   0  0  0  0  0  0
  -29.6490  -13.4774   17.7410 H   0  0  0  0  0  0
  -27.8727  -11.2916   18.8709 H   0  0  0  0  0  0
  -27.3805  -12.5704   17.7930 H   0  0  0  0  0  0
  -27.6661  -14.2498   19.5134 H   0  0  0  0  0  0
  -28.7161  -12.0598   21.3738 H   0  0  0  0  0  0
  -28.4367  -13.7113   21.8424 H   0  0  0  0  0  0
  -25.2758   -9.5690   22.4751 H   0  0  0  0  0  0
  -24.0002   -7.4631   22.7468 H   0  0  0  0  0  0
  -21.0831   -8.8773   19.8951 H   0  0  0  0  0  0
  -22.3686  -10.9671   19.6168 H   0  0  0  0  0  0
  -21.1999   -7.6142   23.9713 H   0  0  0  0  0  0
  -21.1484   -6.0518   25.9077 H   0  0  0  0  0  0
  -22.0597   -2.7601   23.2850 H   0  0  0  0  0  0
  -22.4078  -11.9880   22.4834 H   0  0  0  0  0  0
  -21.1098  -13.1253   22.2616 H   0  0  0  0  0  0
  -24.6537  -15.8403   20.5051 H   0  0  0  0  0  0
  -26.2589  -15.6217   20.0287 H   0  0  0  0  0  0
  -26.7188  -32.5430   23.1100 H   0  0  0  0  0  0
  -25.0074  -33.9705   25.0421 H   0  0  0  0  0  0
  -22.7169  -31.3034   21.4002 H   0  0  0  0  0  0
  -23.3756  -35.9615   23.3296 H   0  0  0  0  0  0
  -24.3585  -36.8913   22.2058 H   0  0  0  0  0  0
  -23.7227  -37.6487   23.6658 H   0  0  0  0  0  0
  -26.1011  -31.5481   20.6077 H   0  0  0  0  0  0
  -26.8428  -30.8303   22.0071 H   0  0  0  0  0  0
  -28.1165  -28.9712   21.1944 H   0  0  0  0  0  0
  -25.9702  -25.9201   19.0069 H   0  0  0  0  0  0
  -23.9738  -27.3027   19.0124 H   0  0  0  0  0  0
  -23.7606  -30.5905   19.4028 H   0  0  0  0  0  0
  -22.7566  -29.2478   19.8567 H   0  0  0  0  0  0
  -25.1287  -36.1939   25.0828 H   0  0  0  0  0  0
  -20.9974  -28.3271   24.1398 H   0  0  0  0  0  0
  -20.5678  -26.2310   23.3610 H   0  0  0  0  0  0
  -21.6647  -26.7448   22.1203 H   0  0  0  0  0  0
  -19.6918  -25.6293   21.1245 H   0  0  0  0  0  0
  -19.6688  -27.3189   20.6735 H   0  0  0  0  0  0
  -17.4201  -26.6666   21.4026 H   0  0  0  0  0  0
  -18.0338  -26.0071   22.9023 H   0  0  0  0  0  0
  -19.7941  -30.7270   24.2261 H   0  0  0  0  0  0
  -17.5022  -31.6269   24.5164 H   0  0  0  0  0  0
  -15.5353  -30.2990   23.7661 H   0  0  0  0  0  0
  -15.8672  -28.0823   22.7071 H   0  0  0  0  0  0
  -24.5905  -30.7062   25.7781 H   0  0  0  0  0  0
  -24.8897  -32.2884   26.4875 H   0  0  0  0  0  0
  -25.8046  -30.8908   27.0232 H   0  0  0  0  0  0
  -26.2925  -29.6760   24.1214 H   0  0  0  0  0  0
  -27.4032  -29.7280   25.4711 H   0  0  0  0  0  0
  -27.8798  -30.4305   23.9434 H   0  0  0  0  0  0
  -27.2664  -33.3627   26.2072 H   0  0  0  0  0  0
  -28.3858  -32.6885   25.0314 H   0  0  0  0  0  0
  -28.0726  -31.8449   26.5407 H   0  0  0  0  0  0
  -28.2587  -38.0111   24.7545 H   0  0  0  0  0  0
  -28.1096  -36.2646   24.6238 H   0  0  0  0  0  0
  -27.2310  -37.1388   25.8866 H   0  0  0  0  0  0
  -20.9386  -29.8767   21.6873 H   0  0  0  0  0  0
  -26.0171  -38.2856   24.1429 H   0  0  0  0  0  0
  -31.9560  -19.8445   20.1835 H   0  0  0  0  0  0
  -31.9217  -17.4116   20.1397 H   0  0  0  0  0  0
  -27.7817  -17.4792   21.2642 H   0  0  0  0  0  0
  -27.2604  -24.6795   20.6709 H   0  0  0  0  0  0
  -27.8906  -24.7227   19.0261 H   0  0  0  0  0  0
  -26.7631  -19.4793   21.7465 H   0  0  0  0  0  0
  -27.5869  -20.9117   21.9795 H   0  0  0  0  0  0
  -28.8448  -15.3836   21.0844 H   0  0  0  0  0  0
  -28.4161  -22.2917   20.1052 H   0  0  0  0  0  0
  1 25  1  0  0  0
  1 30  2  0  0  0
  1 81  1  0  0  0
  2  3  1  0  0  0
  2 25  1  0  0  0
  2 85  1  0  0  0
  2 86  1  0  0  0
  3  4  1  0  0  0
  3 87  1  0  0  0
  3 88  1  0  0  0
  4  5  1  0  0  0
  4 89  1  0  0  0
  4 90  1  0  0  0
  5  6  1  0  0  0
  5 26  1  0  0  0
  5 91  1  0  0  0
  6 25  1  0  0  0
  6 92  1  0  0  0
  6 93  1  0  0  0
  7  8  2  0  0  0
  7 26  1  0  0  0
  7 29  1  0  0  0
  8  9  1  0  0  0
  8 22  1  0  0  0
  9 10  1  0  0  0
  9 27  2  0  0  0
 10 11  2  0  0  0
 10 15  1  0  0  0
 11 12  1  0  0  0
 11 94  1  0  0  0
 12 13  2  0  0  0
 12 95  1  0  0  0
 13 14  1  0  0  0
 13 31  1  0  0  0
 14 15  2  0  0  0
 14 96  1  0  0  0
 15 97  1  0  0  0
 16 17  2  0  0  0
 16 21  1  0  0  0
 16 31  1  0  0  0
 17 18  1  0  0  0
 17 98  1  0  0  0
 18 19  2  0  0  0
 18 99  1  0  0  0
 19 20  1  0  0  0
 19 24  1  0  0  0
 20 21  2  0  0  0
 20100  1  0  0  0
 21 23  1  0  0  0
 22 28  1  0  0  0
 22 32  2  0  0  0
 26 27  1  0  0  0
 28101  1  0  0  0
 28102  1  0  0  0
 29103  1  0  0  0
 29104  1  0  0  0
 33 34  1  0  0  0
 33 66  1  0  0  0
 33 70  2  0  0  0
 34 36  1  0  0  0
 34 59  1  0  0  0
 34105  1  0  0  0
 35 44  2  0  0  0
 35 45  1  0  0  0
 35 68  1  0  0  0
 36 56  1  0  0  0
 36106  1  0  0  0
 37 39  1  0  0  0
 37 47  1  0  0  0
 37 66  1  0  0  0
 37107  1  0  0  0
 38 43  2  0  0  0
 38 46  1  0  0  0
 38 47  1  0  0  0
 39 64  1  0  0  0
 39 67  2  0  0  0
 40 52  1  0  0  0
 40 53  2  0  0  0
 40 58  1  0  0  0
 41108  1  0  0  0
 41109  1  0  0  0
 41110  1  0  0  0
 41 48  1  0  0  0
 42 43  1  0  0  0
 42 66  1  0  0  0
 42111  1  0  0  0
 42112  1  0  0  0
 43 44  1  0  0  0
 44113  1  0  0  0
 45 46  2  0  0  0
 45114  1  0  0  0
 46115  1  0  0  0
 47116  1  0  0  0
 47117  1  0  0  0
 48 56  1  0  0  0
 48 65  1  0  0  0
 48118  1  0  0  0
 49 50  1  0  0  0
 49 53  1  0  0  0
 49 64  1  0  0  0
 49119  1  0  0  0
 50 51  1  0  0  0
 50120  1  0  0  0
 50121  1  0  0  0
 51 52  1  0  0  0
 51122  1  0  0  0
 51123  1  0  0  0
 52124  1  0  0  0
 52125  1  0  0  0
 53 54  1  0  0  0
 54 55  2  0  0  0
 54126  1  0  0  0
 55 57  1  0  0  0
 55127  1  0  0  0
 56 69  2  0  0  0
 57 58  2  0  0  0
 57128  1  0  0  0
 58129  1  0  0  0
 59 60  1  0  0  0
 59 61  1  0  0  0
 59 62  1  0  0  0
 60130  1  0  0  0
 60131  1  0  0  0
 60132  1  0  0  0
 61133  1  0  0  0
 61134  1  0  0  0
 61135  1  0  0  0
 62136  1  0  0  0
 62137  1  0  0  0
 62138  1  0  0  0
 63 65  1  0  0  0
 63139  1  0  0  0
 63140  1  0  0  0
 63141  1  0  0  0
 64142  1  0  0  0
 65143  1  0  0  0
 68 79  1  0  0  0
 71 72  2  0  0  0
 71 74  1  0  0  0
 71144  1  0  0  0
 72 75  1  0  0  0
 72145  1  0  0  0
 73 75  2  0  0  0
 73 76  1  0  0  0
 73146  1  0  0  0
 74 76  2  0  0  0
 74 77  1  0  0  0
 75 81  1  0  0  0
 76 80  1  0  0  0
 77 82  1  0  0  0
 77 84  2  0  0  0
 78 79  1  0  0  0
 78 82  1  0  0  0
 78 83  2  0  0  0
 79147  1  0  0  0
 79148  1  0  0  0
 80149  1  0  0  0
 80150  1  0  0  0
 81151  1  0  0  0
 82152  1  0  0  0
M  ISO  4   1 100  68 101  79 101  81 100
M  END
> <chiral flag>
0

> <version>
0

> <s_m_source_file>
/data/baiqing/PycharmProjects/Reinvent-master-3.2/result/LINK_invent/BTK/process_docking_weight1_custom_product_contain_oxygen_bond_distance_aromatic_linkinvent_7_9_3/rearranged_h_0067.sdf

> <i_m_source_file_index>
73

> <r_mmod_Potential_Energy-OPLS-2005>
132.286926269531

> <r_mmod_Stretch_Energy-OPLS-2005>
104.840713500977

> <r_mmod_Bend_Energy-OPLS-2005>
156.197631835938

> <r_mmod_Torsional_Energy-OPLS-2005>
239.45475769043

> <r_mmod_Improper_Torsional_Energy-OPLS-2005>
9.67012214660645

> <r_mmod_Van_der_Waal_Energy-OPLS-2005>
166.385269165039

> <r_mmod_Electrostatic_Energy-OPLS-2005>
-314.263702392578

> <r_mmod_Solvation_Energy-OPLS-2005>
-289.391021728516

> <b_mmod_Minimization_Converged-OPLS-2005>
0

> <r_mmod_RMS_Derivative-OPLS-2005>
1.09447705745697

$$$$
73
                    3D
 Structure written by MMmdl.
169178  0  0  1  0            999 V2000
  -30.5798  -15.0695   20.4145 C   0  0  0  0  0  0
  -30.4220  -12.6961   19.4989 C   0  0  0  0  0  0
  -29.5129  -12.5513   18.2566 C   0  0  0  0  0  0
  -28.0523  -12.3097   18.6781 C   0  0  0  0  0  0
  -27.6136  -13.2598   19.8192 C   0  0  2  0  0  0
  -28.6552  -13.3273   20.9481 C   0  0  0  0  0  0
  -25.2418  -13.8262   20.5708 C   0  0  0  0  0  0
  -24.1737  -13.0478   20.9219 C   0  0  0  0  0  0
  -24.6372  -11.6960   20.8752 C   0  0  0  0  0  0
  -23.9079  -10.4322   21.0406 C   0  0  0  0  0  0
  -24.3613   -9.4257   21.9224 C   0  0  0  0  0  0
  -23.6295   -8.2295   22.0792 C   0  0  0  0  0  0
  -22.4292   -8.0309   21.3565 C   0  0  0  0  0  0
  -21.9942   -9.0262   20.4636 C   0  0  0  0  0  0
  -22.7273  -10.2142   20.3035 C   0  0  0  0  0  0
  -21.6862   -6.0766   22.5300 C   0  0  0  0  0  0
  -21.4004   -6.5674   23.8230 C   0  0  0  0  0  0
  -21.3654   -5.6822   24.9193 C   0  0  0  0  0  0
  -21.6037   -4.3085   24.7239 C   0  0  0  0  0  0
  -21.8818   -3.8181   23.4361 C   0  0  0  0  0  0
  -21.9193   -4.6990   22.3422 C   0  0  0  0  0  0
  -22.7762  -13.5249   21.1870 C   0  0  0  0  0  0
  -22.1648   -4.2166   21.0996 F   0  0  0  0  0  0
  -21.5625   -3.4570   25.7754 F   0  0  0  0  0  0
  -29.8993  -13.8323   20.3362 N   0  0  0  0  0  0
  -26.2810  -12.9498   20.3184 N   0  0  0  0  0  0
  -25.9299  -11.6629   20.5718 N   0  0  0  0  0  0
  -22.0373  -12.8213   22.0348 N   0  0  0  0  0  0
  -25.4170  -15.1983   20.4158 N   0  0  0  0  0  0
  -31.7986  -14.9777   20.2336 O   0  0  0  0  0  0
  -21.6657   -6.8908   21.4267 O   0  0  0  0  0  0
  -22.3480  -14.5585   20.6744 O   0  0  0  0  0  0
  -24.6513  -31.8350   23.1823 C   0  0  0  0  0  0
  -25.9241  -32.4649   23.8251 C   0  0  1  0  0  0
  -27.2198  -27.0544   20.1604 C   0  0  0  0  0  0
  -25.5950  -33.8457   24.2161 N   0  0  0  0  0  0
  -23.4605  -30.4513   21.5305 C   0  0  2  0  0  0
  -24.9126  -28.8646   20.1156 C   0  0  0  0  0  0
  -22.7617  -29.4477   22.4838 C   0  0  0  0  0  0
  -18.0308  -28.1395   22.8457 C   0  0  0  0  0  0
  -24.1509  -36.7235   23.2648 C   0  0  0  0  0  0
  -26.0238  -30.6830   21.3944 C   0  0  0  0  0  0
  -26.0947  -29.2866   20.7355 C   0  0  0  0  0  0
  -27.2491  -28.4004   20.7363 C   0  0  0  0  0  0
  -26.0046  -26.7537   19.5050 C   0  0  0  0  0  0
  -24.8836  -27.6138   19.4850 C   0  0  0  0  0  0
  -23.6940  -29.7779   20.1523 C   0  0  0  0  0  0
  -25.4141  -36.3002   24.0315 C   0  0  1  0  0  0
  -20.5926  -28.3716   23.1232 C   0  0  2  0  0  0
  -20.6794  -26.9412   22.5417 C   0  0  0  0  0  0
  -19.5771  -26.6375   21.5220 C   0  0  0  0  0  0
  -18.1952  -26.7923   22.1630 C   0  0  0  0  0  0
  -19.1565  -28.8877   23.2829 C   0  0  0  0  0  0
  -18.9480  -30.1472   23.8856 C   0  0  0  0  0  0
  -17.6473  -30.6583   24.0553 C   0  0  0  0  0  0
  -25.9088  -34.9371   23.5057 C   0  0  0  0  0  0
  -16.5362  -29.9072   23.6331 C   0  0  0  0  0  0
  -16.7292  -28.6498   23.0342 C   0  0  0  0  0  0
  -26.4541  -31.6527   25.0711 C   0  0  0  0  0  0
  -25.3708  -31.3728   26.1394 C   0  0  0  0  0  0
  -27.0423  -30.2917   24.6333 C   0  0  0  0  0  0
  -27.6074  -32.4293   25.7485 C   0  0  0  0  0  0
  -27.5582  -37.1782   24.8465 C   0  0  0  0  0  0
  -21.4300  -29.3019   22.3596 N   0  0  0  0  0  0
  -26.4292  -37.3727   23.9398 N   0  0  0  0  0  0
  -24.7323  -31.0128   22.0900 N   0  0  0  0  0  0
  -23.4216  -28.8032   23.3026 O   0  0  0  0  0  0
  -28.2546  -26.0205   20.2130 O   0  0  0  0  0  0
  -26.5705  -34.8876   22.4656 O   0  0  0  0  0  0
  -23.5608  -32.1253   23.6997 O   0  0  0  0  0  0
  -27.3371  -17.0729   22.7697 C   0  0  0  0  0  0
  -28.4627  -16.6575   22.0569 C   0  0  0  0  0  0
  -27.4653  -19.1920   21.6531 C   0  0  0  0  0  0
  -28.6594  -18.8886   20.9356 C   0  0  0  0  0  0
  -26.7882  -18.3276   22.5206 C   0  0  0  0  0  0
  -29.1003  -17.3995   21.0348 C   0  0  0  0  0  0
  -30.0090  -20.9913   21.2336 C   0  0  0  0  0  0
  -28.3502  -21.4669   19.8114 C   0  0  0  0  0  0
  -28.9004  -23.0035   20.1202 C   0  0  2  0  0  0
  -29.7602  -22.5597   21.3388 C   0  0  0  0  0  0
  -29.0004  -22.8240   22.6545 C   0  0  0  0  0  0
  -31.1011  -23.3235   21.3654 C   0  0  0  0  0  0
  -23.9345  -16.5865   23.5064 C   0  0  0  0  0  0
  -27.9428  -24.4580   20.1288 C   0  0  0  0  0  0
  -29.1726  -20.2766   20.4301 N   0  0  0  0  0  0
  -30.0542  -16.4301   20.3099 N   0  0  0  0  0  0
  -25.6267  -18.7801   23.1583 N   0  0  0  0  0  0
  -30.9245  -20.4647   21.8753 O   0  0  0  0  0  0
  -25.5732  -17.5801   25.4138 O   0  0  0  0  0  0
  -23.5850  -18.9918   24.6594 O   0  0  0  0  0  0
  -24.6507  -18.0255   24.3575 S   0  0  0  0  0  0
  -31.4480  -12.8602   19.1664 H   0  0  0  0  0  0
  -30.4524  -11.7666   20.0717 H   0  0  0  0  0  0
  -29.8602  -11.7339   17.6247 H   0  0  0  0  0  0
  -29.5746  -13.4573   17.6518 H   0  0  0  0  0  0
  -27.9753  -11.2731   19.0118 H   0  0  0  0  0  0
  -27.3810  -12.4069   17.8239 H   0  0  0  0  0  0
  -27.5645  -14.2522   19.3710 H   0  0  0  0  0  0
  -28.7991  -12.3422   21.3949 H   0  0  0  0  0  0
  -28.2757  -13.9353   21.7553 H   0  0  0  0  0  0
  -25.2732   -9.5760   22.4838 H   0  0  0  0  0  0
  -23.9967   -7.4702   22.7556 H   0  0  0  0  0  0
  -21.0878   -8.8771   19.8928 H   0  0  0  0  0  0
  -22.3756  -10.9660   19.6109 H   0  0  0  0  0  0
  -21.1987   -7.6179   23.9735 H   0  0  0  0  0  0
  -21.1463   -6.0554   25.9086 H   0  0  0  0  0  0
  -22.0589   -2.7646   23.2872 H   0  0  0  0  0  0
  -22.3902  -11.9779   22.4625 H   0  0  0  0  0  0
  -21.0969  -13.1240   22.2470 H   0  0  0  0  0  0
  -24.6586  -15.8646   20.5047 H   0  0  0  0  0  0
  -26.2860  -15.6213   20.1199 H   0  0  0  0  0  0
  -26.7293  -32.5226   23.0963 H   0  0  0  0  0  0
  -25.0001  -33.9567   25.0241 H   0  0  0  0  0  0
  -22.7667  -31.2796   21.3705 H   0  0  0  0  0  0
  -23.3773  -35.9562   23.3284 H   0  0  0  0  0  0
  -24.3600  -36.8897   22.2068 H   0  0  0  0  0  0
  -23.7266  -37.6421   23.6704 H   0  0  0  0  0  0
  -26.1914  -31.4319   20.6189 H   0  0  0  0  0  0
  -26.8896  -30.7370   22.0425 H   0  0  0  0  0  0
  -28.1475  -28.7161   21.2483 H   0  0  0  0  0  0
  -25.8792  -25.8021   19.0133 H   0  0  0  0  0  0
  -23.9802  -27.2841   18.9916 H   0  0  0  0  0  0
  -23.8441  -30.5515   19.3979 H   0  0  0  0  0  0
  -22.8065  -29.2265   19.8348 H   0  0  0  0  0  0
  -25.1344  -36.1824   25.0809 H   0  0  0  0  0  0
  -21.0004  -28.3304   24.1358 H   0  0  0  0  0  0
  -20.5693  -26.2326   23.3639 H   0  0  0  0  0  0
  -21.6662  -26.7412   22.1218 H   0  0  0  0  0  0
  -19.6932  -25.6287   21.1247 H   0  0  0  0  0  0
  -19.6714  -27.3188   20.6747 H   0  0  0  0  0  0
  -17.4225  -26.6638   21.4036 H   0  0  0  0  0  0
  -18.0355  -26.0093   22.9053 H   0  0  0  0  0  0
  -19.7955  -30.7298   24.2212 H   0  0  0  0  0  0
  -17.5020  -31.6258   24.5175 H   0  0  0  0  0  0
  -15.5359  -30.2968   23.7675 H   0  0  0  0  0  0
  -15.8689  -28.0817   22.7061 H   0  0  0  0  0  0
  -24.5866  -30.7116   25.7690 H   0  0  0  0  0  0
  -24.8927  -32.2914   26.4788 H   0  0  0  0  0  0
  -25.7963  -30.8883   27.0188 H   0  0  0  0  0  0
  -26.3047  -29.6631   24.1331 H   0  0  0  0  0  0
  -27.4006  -29.7226   25.4919 H   0  0  0  0  0  0
  -27.8974  -30.4155   23.9692 H   0  0  0  0  0  0
  -27.2661  -33.3600   26.2021 H   0  0  0  0  0  0
  -28.3888  -32.6834   25.0315 H   0  0  0  0  0  0
  -28.0739  -31.8445   26.5419 H   0  0  0  0  0  0
  -28.2592  -38.0089   24.7522 H   0  0  0  0  0  0
  -28.1089  -36.2617   24.6283 H   0  0  0  0  0  0
  -27.2305  -37.1424   25.8871 H   0  0  0  0  0  0
  -20.9521  -29.8719   21.6758 H   0  0  0  0  0  0
  -26.0153  -38.2791   24.1388 H   0  0  0  0  0  0
  -26.9107  -16.4063   23.5033 H   0  0  0  0  0  0
  -28.8553  -15.7066   22.3521 H   0  0  0  0  0  0
  -27.0570  -20.1879   21.6419 H   0  0  0  0  0  0
  -28.3627  -21.3168   18.7314 H   0  0  0  0  0  0
  -27.2954  -21.4232   20.0712 H   0  0  0  0  0  0
  -29.6089  -23.1887   19.3110 H   0  0  0  0  0  0
  -28.0342  -22.3177   22.6660 H   0  0  0  0  0  0
  -28.8140  -23.8877   22.8018 H   0  0  0  0  0  0
  -29.5633  -22.4720   23.5200 H   0  0  0  0  0  0
  -31.7199  -23.0831   20.4992 H   0  0  0  0  0  0
  -31.6826  -23.0860   22.2571 H   0  0  0  0  0  0
  -30.9379  -24.4013   21.3623 H   0  0  0  0  0  0
  -23.3285  -16.0243   24.2135 H   0  0  0  0  0  0
  -24.7196  -15.9421   23.1187 H   0  0  0  0  0  0
  -23.3073  -16.9273   22.6870 H   0  0  0  0  0  0
  -27.1711  -24.2926   20.8797 H   0  0  0  0  0  0
  -27.4217  -24.3714   19.1771 H   0  0  0  0  0  0
  -30.7516  -16.9656   19.8127 H   0  0  0  0  0  0
  -25.3304  -19.7203   22.9285 H   0  0  0  0  0  0
  1 25  1  0  0  0
  1 30  2  0  0  0
  1 86  1  0  0  0
  2  3  1  0  0  0
  2 25  1  0  0  0
  2 92  1  0  0  0
  2 93  1  0  0  0
  3  4  1  0  0  0
  3 94  1  0  0  0
  3 95  1  0  0  0
  4  5  1  0  0  0
  4 96  1  0  0  0
  4 97  1  0  0  0
  5  6  1  0  0  0
  5 26  1  0  0  0
  5 98  1  0  0  0
  6 25  1  0  0  0
  6 99  1  0  0  0
  6100  1  0  0  0
  7  8  2  0  0  0
  7 26  1  0  0  0
  7 29  1  0  0  0
  8  9  1  0  0  0
  8 22  1  0  0  0
  9 10  1  0  0  0
  9 27  2  0  0  0
 10 11  2  0  0  0
 10 15  1  0  0  0
 11 12  1  0  0  0
 11101  1  0  0  0
 12 13  2  0  0  0
 12102  1  0  0  0
 13 14  1  0  0  0
 13 31  1  0  0  0
 14 15  2  0  0  0
 14103  1  0  0  0
 15104  1  0  0  0
 16 17  2  0  0  0
 16 21  1  0  0  0
 16 31  1  0  0  0
 17 18  1  0  0  0
 17105  1  0  0  0
 18 19  2  0  0  0
 18106  1  0  0  0
 19 20  1  0  0  0
 19 24  1  0  0  0
 20 21  2  0  0  0
 20107  1  0  0  0
 21 23  1  0  0  0
 22 28  1  0  0  0
 22 32  2  0  0  0
 26 27  1  0  0  0
 28108  1  0  0  0
 28109  1  0  0  0
 29110  1  0  0  0
 29111  1  0  0  0
 33 34  1  0  0  0
 33 66  1  0  0  0
 33 70  2  0  0  0
 34 36  1  0  0  0
 34 59  1  0  0  0
 34112  1  0  0  0
 35 44  2  0  0  0
 35 45  1  0  0  0
 35 68  1  0  0  0
 36 56  1  0  0  0
 36113  1  0  0  0
 37 39  1  0  0  0
 37 47  1  0  0  0
 37 66  1  0  0  0
 37114  1  0  0  0
 38 43  2  0  0  0
 38 46  1  0  0  0
 38 47  1  0  0  0
 39 64  1  0  0  0
 39 67  2  0  0  0
 40 52  1  0  0  0
 40 53  2  0  0  0
 40 58  1  0  0  0
 41115  1  0  0  0
 41116  1  0  0  0
 41117  1  0  0  0
 41 48  1  0  0  0
 42 43  1  0  0  0
 42 66  1  0  0  0
 42118  1  0  0  0
 42119  1  0  0  0
 43 44  1  0  0  0
 44120  1  0  0  0
 45 46  2  0  0  0
 45121  1  0  0  0
 46122  1  0  0  0
 47123  1  0  0  0
 47124  1  0  0  0
 48 56  1  0  0  0
 48 65  1  0  0  0
 48125  1  0  0  0
 49 50  1  0  0  0
 49 53  1  0  0  0
 49 64  1  0  0  0
 49126  1  0  0  0
 50 51  1  0  0  0
 50127  1  0  0  0
 50128  1  0  0  0
 51 52  1  0  0  0
 51129  1  0  0  0
 51130  1  0  0  0
 52131  1  0  0  0
 52132  1  0  0  0
 53 54  1  0  0  0
 54 55  2  0  0  0
 54133  1  0  0  0
 55 57  1  0  0  0
 55134  1  0  0  0
 56 69  2  0  0  0
 57 58  2  0  0  0
 57135  1  0  0  0
 58136  1  0  0  0
 59 60  1  0  0  0
 59 61  1  0  0  0
 59 62  1  0  0  0
 60137  1  0  0  0
 60138  1  0  0  0
 60139  1  0  0  0
 61140  1  0  0  0
 61141  1  0  0  0
 61142  1  0  0  0
 62143  1  0  0  0
 62144  1  0  0  0
 62145  1  0  0  0
 63 65  1  0  0  0
 63146  1  0  0  0
 63147  1  0  0  0
 63148  1  0  0  0
 64149  1  0  0  0
 65150  1  0  0  0
 68 84  1  0  0  0
 71 72  2  0  0  0
 71 75  1  0  0  0
 71151  1  0  0  0
 72 76  1  0  0  0
 72152  1  0  0  0
 73 74  1  0  0  0
 73 75  2  0  0  0
 73153  1  0  0  0
 74 76  2  0  0  0
 74 85  1  0  0  0
 75 87  1  0  0  0
 76 86  1  0  0  0
 77 80  1  0  0  0
 77 85  1  0  0  0
 77 88  2  0  0  0
 78 79  1  0  0  0
 78 85  1  0  0  0
 78154  1  0  0  0
 78155  1  0  0  0
 79 80  1  0  0  0
 79 84  1  0  0  0
 79156  1  0  0  0
 80 81  1  0  0  0
 80 82  1  0  0  0
 81157  1  0  0  0
 81158  1  0  0  0
 81159  1  0  0  0
 82160  1  0  0  0
 82161  1  0  0  0
 82162  1  0  0  0
 83163  1  0  0  0
 83164  1  0  0  0
 83165  1  0  0  0
 83 91  1  0  0  0
 84166  1  0  0  0
 84167  1  0  0  0
 86168  1  0  0  0
 87 91  1  0  0  0
 87169  1  0  0  0
 89 91  2  0  0  0
 90 91  2  0  0  0
M  ISO  4   1 100  68 101  84 101  86 100
M  END
> <chiral flag>
0

> <version>
0

> <s_m_source_file>
/data/baiqing/PycharmProjects/Reinvent-master-3.2/result/LINK_invent/BTK/process_docking_weight1_custom_product_contain_oxygen_bond_distance_aromatic_linkinvent_7_9_3/rearranged_h_0067.sdf

> <i_m_source_file_index>
74

> <r_mmod_Potential_Energy-OPLS-2005>
804.917602539062

> <r_mmod_Stretch_Energy-OPLS-2005>
380.751525878906

> <r_mmod_Bend_Energy-OPLS-2005>
500.288269042969

> <r_mmod_Torsional_Energy-OPLS-2005>
370.499206542969

> <r_mmod_Improper_Torsional_Energy-OPLS-2005>
16.0707721710205

> <r_mmod_Van_der_Waal_Energy-OPLS-2005>
130.074066162109

> <r_mmod_Electrostatic_Energy-OPLS-2005>
-611.7646484375

> <r_mmod_Solvation_Energy-OPLS-2005>
-255.767242431641

> <b_mmod_Minimization_Converged-OPLS-2005>
0

> <r_mmod_RMS_Derivative-OPLS-2005>
2.80046939849854

$$$$
74
                    3D
 Structure written by MMmdl.
154162  0  0  1  0            999 V2000
  -30.6313  -14.7188   20.4487 C   0  0  0  0  0  0
  -30.4355  -12.4453   19.4308 C   0  0  0  0  0  0
  -29.4972  -12.4668   18.2063 C   0  0  0  0  0  0
  -28.0236  -12.3128   18.6356 C   0  0  0  0  0  0
  -27.6358  -13.2235   19.8308 C   0  0  2  0  0  0
  -28.6923  -13.1546   20.9494 C   0  0  0  0  0  0
  -25.2528  -13.8196   20.5751 C   0  0  0  0  0  0
  -24.1802  -13.0445   20.9261 C   0  0  0  0  0  0
  -24.6391  -11.6937   20.8761 C   0  0  0  0  0  0
  -23.9060  -10.4302   21.0392 C   0  0  0  0  0  0
  -24.3604   -9.4215   21.9166 C   0  0  0  0  0  0
  -23.6285   -8.2241   22.0719 C   0  0  0  0  0  0
  -22.4265   -8.0271   21.3518 C   0  0  0  0  0  0
  -21.9911   -9.0249   20.4618 C   0  0  0  0  0  0
  -22.7234  -10.2137   20.3045 C   0  0  0  0  0  0
  -21.6860   -6.0731   22.5289 C   0  0  0  0  0  0
  -21.3983   -6.5637   23.8224 C   0  0  0  0  0  0
  -21.3649   -5.6770   24.9190 C   0  0  0  0  0  0
  -21.6054   -4.3038   24.7228 C   0  0  0  0  0  0
  -21.8818   -3.8151   23.4344 C   0  0  0  0  0  0
  -21.9182   -4.6957   22.3409 C   0  0  0  0  0  0
  -22.7839  -13.5230   21.1912 C   0  0  0  0  0  0
  -22.1663   -4.2168   21.0982 F   0  0  0  0  0  0
  -21.5633   -3.4512   25.7727 F   0  0  0  0  0  0
  -29.9851  -13.5094   20.3502 N   0  0  0  0  0  0
  -26.2906  -12.9368   20.3236 N   0  0  0  0  0  0
  -25.9298  -11.6527   20.5733 N   0  0  0  0  0  0
  -22.0432  -12.8220   22.0447 N   0  0  0  0  0  0
  -25.4275  -15.1920   20.4273 N   0  0  0  0  0  0
  -31.8427  -14.7920   20.2285 O   0  0  0  0  0  0
  -21.6626   -6.8868   21.4245 O   0  0  0  0  0  0
  -22.3538  -14.5535   20.6732 O   0  0  0  0  0  0
  -24.6324  -31.8564   23.1971 C   0  0  0  0  0  0
  -25.9151  -32.4787   23.8316 C   0  0  1  0  0  0
  -27.2110  -27.2515   20.1658 C   0  0  0  0  0  0
  -25.5939  -33.8587   24.2244 N   0  0  0  0  0  0
  -23.4288  -30.4765   21.5361 C   0  0  2  0  0  0
  -24.8810  -28.9224   20.1065 C   0  0  0  0  0  0
  -22.7510  -29.4602   22.4868 C   0  0  0  0  0  0
  -18.0294  -28.1412   22.8517 C   0  0  0  0  0  0
  -24.1485  -36.7268   23.2633 C   0  0  0  0  0  0
  -25.9728  -30.7687   21.3769 C   0  0  0  0  0  0
  -26.0468  -29.3873   20.7269 C   0  0  0  0  0  0
  -27.2166  -28.5632   20.7461 C   0  0  0  0  0  0
  -26.0342  -26.8592   19.4938 C   0  0  0  0  0  0
  -24.8822  -27.6715   19.4666 C   0  0  0  0  0  0
  -23.6518  -29.8097   20.1509 C   0  0  0  0  0  0
  -25.4110  -36.3076   24.0327 C   0  0  1  0  0  0
  -20.5913  -28.3690   23.1285 C   0  0  2  0  0  0
  -20.6771  -26.9409   22.5416 C   0  0  0  0  0  0
  -19.5742  -26.6399   21.5233 C   0  0  0  0  0  0
  -18.1926  -26.7958   22.1653 C   0  0  0  0  0  0
  -19.1564  -28.8868   23.2902 C   0  0  0  0  0  0
  -18.9482  -30.1473   23.8912 C   0  0  0  0  0  0
  -17.6479  -30.6606   24.0574 C   0  0  0  0  0  0
  -25.9043  -34.9462   23.5073 C   0  0  0  0  0  0
  -16.5371  -29.9107   23.6347 C   0  0  0  0  0  0
  -16.7284  -28.6529   23.0363 C   0  0  0  0  0  0
  -26.4492  -31.6636   25.0733 C   0  0  0  0  0  0
  -25.3679  -31.3832   26.1424 C   0  0  0  0  0  0
  -27.0326  -30.3061   24.6211 C   0  0  0  0  0  0
  -27.6012  -32.4401   25.7509 C   0  0  0  0  0  0
  -27.5568  -37.1769   24.8455 C   0  0  0  0  0  0
  -21.4206  -29.3046   22.3663 N   0  0  0  0  0  0
  -26.4265  -37.3793   23.9438 N   0  0  0  0  0  0
  -24.6958  -31.0525   22.0929 N   0  0  0  0  0  0
  -23.4234  -28.8118   23.2939 O   0  0  0  0  0  0
  -28.2962  -26.3487   20.2231 O   0  0  0  0  0  0
  -26.5607  -34.8925   22.4639 O   0  0  0  0  0  0
  -23.5472  -32.1351   23.7282 O   0  0  0  0  0  0
  -29.6220  -18.4827   20.3687 C   0  0  0  0  0  0
  -31.1005  -17.3982   21.9613 C   0  0  0  0  0  0
  -30.7890  -19.8436   22.0313 C   0  0  0  0  0  0
  -30.1968  -17.2485   20.8922 C   0  0  0  0  0  0
  -29.8941  -19.8114   20.9171 C   0  0  0  0  0  0
  -31.3835  -18.6556   22.5204 C   0  0  0  0  0  0
  -28.8541  -22.2320   20.8645 C   0  0  0  0  0  0
  -31.1831  -21.1426   22.7204 C   0  0  0  0  0  0
  -28.9564  -23.6844   20.1841 C   0  0  0  0  0  0
  -28.0538  -24.9353   20.6999 C   0  0  0  0  0  0
  -29.4366  -21.0970   20.3034 N   0  0  0  0  0  0
  -29.8557  -15.8692   20.4651 N   0  0  0  0  0  0
  -28.2145  -22.1384   21.9154 O   0  0  0  0  0  0
  -32.2515  -18.7085   23.5604 F   0  0  0  0  0  0
  -31.4668  -12.5869   19.1067 H   0  0  0  0  0  0
  -30.4042  -11.4727   19.9247 H   0  0  0  0  0  0
  -29.7659  -11.6632   17.5182 H   0  0  0  0  0  0
  -29.6290  -13.3969   17.6538 H   0  0  0  0  0  0
  -27.8800  -11.2684   18.9108 H   0  0  0  0  0  0
  -27.3617  -12.4879   17.7873 H   0  0  0  0  0  0
  -27.6236  -14.2425   19.4435 H   0  0  0  0  0  0
  -28.7299  -12.1545   21.3831 H   0  0  0  0  0  0
  -28.4380  -13.8316   21.7632 H   0  0  0  0  0  0
  -25.2730   -9.5695   22.4755 H   0  0  0  0  0  0
  -23.9997   -7.4624   22.7425 H   0  0  0  0  0  0
  -21.0837   -8.8751   19.8930 H   0  0  0  0  0  0
  -22.3661  -10.9657   19.6161 H   0  0  0  0  0  0
  -21.1956   -7.6146   23.9726 H   0  0  0  0  0  0
  -21.1476   -6.0509   25.9089 H   0  0  0  0  0  0
  -22.0605   -2.7614   23.2843 H   0  0  0  0  0  0
  -22.3997  -11.9935   22.4945 H   0  0  0  0  0  0
  -21.1015  -13.1240   22.2515 H   0  0  0  0  0  0
  -24.6724  -15.8554   20.5735 H   0  0  0  0  0  0
  -26.2900  -15.6353   20.1397 H   0  0  0  0  0  0
  -26.7193  -32.5468   23.1026 H   0  0  0  0  0  0
  -25.0135  -33.9703   25.0425 H   0  0  0  0  0  0
  -22.7267  -31.2985   21.3889 H   0  0  0  0  0  0
  -23.3755  -35.9579   23.3293 H   0  0  0  0  0  0
  -24.3574  -36.8916   22.2040 H   0  0  0  0  0  0
  -23.7206  -37.6452   23.6675 H   0  0  0  0  0  0
  -26.1015  -31.5267   20.6040 H   0  0  0  0  0  0
  -26.8510  -30.8274   22.0064 H   0  0  0  0  0  0
  -28.1050  -28.9039   21.2549 H   0  0  0  0  0  0
  -25.9979  -25.9019   18.9935 H   0  0  0  0  0  0
  -23.9953  -27.3267   18.9511 H   0  0  0  0  0  0
  -23.7788  -30.5885   19.3959 H   0  0  0  0  0  0
  -22.7716  -29.2427   19.8414 H   0  0  0  0  0  0
  -25.1288  -36.1859   25.0809 H   0  0  0  0  0  0
  -21.0014  -28.3240   24.1406 H   0  0  0  0  0  0
  -20.5681  -26.2283   23.3604 H   0  0  0  0  0  0
  -21.6621  -26.7416   22.1201 H   0  0  0  0  0  0
  -19.6876  -25.6306   21.1261 H   0  0  0  0  0  0
  -19.6687  -27.3206   20.6767 H   0  0  0  0  0  0
  -17.4185  -26.6744   21.4056 H   0  0  0  0  0  0
  -18.0311  -26.0098   22.9049 H   0  0  0  0  0  0
  -19.7949  -30.7304   24.2289 H   0  0  0  0  0  0
  -17.5027  -31.6285   24.5163 H   0  0  0  0  0  0
  -15.5376  -30.3007   23.7661 H   0  0  0  0  0  0
  -15.8693  -28.0843   22.7069 H   0  0  0  0  0  0
  -24.5825  -30.7234   25.7737 H   0  0  0  0  0  0
  -24.8892  -32.3042   26.4778 H   0  0  0  0  0  0
  -25.7935  -30.9033   27.0242 H   0  0  0  0  0  0
  -26.2895  -29.6835   24.1206 H   0  0  0  0  0  0
  -27.3988  -29.7314   25.4718 H   0  0  0  0  0  0
  -27.8796  -30.4365   23.9464 H   0  0  0  0  0  0
  -27.2570  -33.3684   26.2062 H   0  0  0  0  0  0
  -28.3819  -32.6994   25.0364 H   0  0  0  0  0  0
  -28.0667  -31.8559   26.5452 H   0  0  0  0  0  0
  -28.2531  -38.0114   24.7578 H   0  0  0  0  0  0
  -28.1118  -36.2652   24.6182 H   0  0  0  0  0  0
  -27.2313  -37.1278   25.8861 H   0  0  0  0  0  0
  -20.9382  -29.8796   21.6892 H   0  0  0  0  0  0
  -26.0135  -38.2847   24.1518 H   0  0  0  0  0  0
  -28.9611  -18.4126   19.5184 H   0  0  0  0  0  0
  -31.5817  -16.5395   22.4041 H   0  0  0  0  0  0
  -31.5214  -21.8817   21.9977 H   0  0  0  0  0  0
  -31.9940  -21.0041   23.4343 H   0  0  0  0  0  0
  -30.3357  -21.5440   23.2755 H   0  0  0  0  0  0
  -28.8180  -23.5676   19.1085 H   0  0  0  0  0  0
  -29.9952  -23.9868   20.3218 H   0  0  0  0  0  0
  -27.0071  -24.6573   20.5690 H   0  0  0  0  0  0
  -28.1654  -24.9792   21.7860 H   0  0  0  0  0  0
  -29.7249  -21.2222   19.3413 H   0  0  0  0  0  0
  -28.8860  -15.7153   20.2337 H   0  0  0  0  0  0
  1 25  1  0  0  0
  1 30  2  0  0  0
  1 82  1  0  0  0
  2  3  1  0  0  0
  2 25  1  0  0  0
  2 85  1  0  0  0
  2 86  1  0  0  0
  3  4  1  0  0  0
  3 87  1  0  0  0
  3 88  1  0  0  0
  4  5  1  0  0  0
  4 89  1  0  0  0
  4 90  1  0  0  0
  5  6  1  0  0  0
  5 26  1  0  0  0
  5 91  1  0  0  0
  6 25  1  0  0  0
  6 92  1  0  0  0
  6 93  1  0  0  0
  7  8  2  0  0  0
  7 26  1  0  0  0
  7 29  1  0  0  0
  8  9  1  0  0  0
  8 22  1  0  0  0
  9 10  1  0  0  0
  9 27  2  0  0  0
 10 11  2  0  0  0
 10 15  1  0  0  0
 11 12  1  0  0  0
 11 94  1  0  0  0
 12 13  2  0  0  0
 12 95  1  0  0  0
 13 14  1  0  0  0
 13 31  1  0  0  0
 14 15  2  0  0  0
 14 96  1  0  0  0
 15 97  1  0  0  0
 16 17  2  0  0  0
 16 21  1  0  0  0
 16 31  1  0  0  0
 17 18  1  0  0  0
 17 98  1  0  0  0
 18 19  2  0  0  0
 18 99  1  0  0  0
 19 20  1  0  0  0
 19 24  1  0  0  0
 20 21  2  0  0  0
 20100  1  0  0  0
 21 23  1  0  0  0
 22 28  1  0  0  0
 22 32  2  0  0  0
 26 27  1  0  0  0
 28101  1  0  0  0
 28102  1  0  0  0
 29103  1  0  0  0
 29104  1  0  0  0
 33 34  1  0  0  0
 33 66  1  0  0  0
 33 70  2  0  0  0
 34 36  1  0  0  0
 34 59  1  0  0  0
 34105  1  0  0  0
 35 44  2  0  0  0
 35 45  1  0  0  0
 35 68  1  0  0  0
 36 56  1  0  0  0
 36106  1  0  0  0
 37 39  1  0  0  0
 37 47  1  0  0  0
 37 66  1  0  0  0
 37107  1  0  0  0
 38 43  2  0  0  0
 38 46  1  0  0  0
 38 47  1  0  0  0
 39 64  1  0  0  0
 39 67  2  0  0  0
 40 52  1  0  0  0
 40 53  2  0  0  0
 40 58  1  0  0  0
 41108  1  0  0  0
 41109  1  0  0  0
 41110  1  0  0  0
 41 48  1  0  0  0
 42 43  1  0  0  0
 42 66  1  0  0  0
 42111  1  0  0  0
 42112  1  0  0  0
 43 44  1  0  0  0
 44113  1  0  0  0
 45 46  2  0  0  0
 45114  1  0  0  0
 46115  1  0  0  0
 47116  1  0  0  0
 47117  1  0  0  0
 48 56  1  0  0  0
 48 65  1  0  0  0
 48118  1  0  0  0
 49 50  1  0  0  0
 49 53  1  0  0  0
 49 64  1  0  0  0
 49119  1  0  0  0
 50 51  1  0  0  0
 50120  1  0  0  0
 50121  1  0  0  0
 51 52  1  0  0  0
 51122  1  0  0  0
 51123  1  0  0  0
 52124  1  0  0  0
 52125  1  0  0  0
 53 54  1  0  0  0
 54 55  2  0  0  0
 54126  1  0  0  0
 55 57  1  0  0  0
 55127  1  0  0  0
 56 69  2  0  0  0
 57 58  2  0  0  0
 57128  1  0  0  0
 58129  1  0  0  0
 59 60  1  0  0  0
 59 61  1  0  0  0
 59 62  1  0  0  0
 60130  1  0  0  0
 60131  1  0  0  0
 60132  1  0  0  0
 61133  1  0  0  0
 61134  1  0  0  0
 61135  1  0  0  0
 62136  1  0  0  0
 62137  1  0  0  0
 62138  1  0  0  0
 63 65  1  0  0  0
 63139  1  0  0  0
 63140  1  0  0  0
 63141  1  0  0  0
 64142  1  0  0  0
 65143  1  0  0  0
 68 80  1  0  0  0
 71 74  2  0  0  0
 71 75  1  0  0  0
 71144  1  0  0  0
 72 74  1  0  0  0
 72 76  2  0  0  0
 72145  1  0  0  0
 73 75  2  0  0  0
 73 76  1  0  0  0
 73 78  1  0  0  0
 74 82  1  0  0  0
 75 81  1  0  0  0
 76 84  1  0  0  0
 77 79  1  0  0  0
 77 81  1  0  0  0
 77 83  2  0  0  0
 78146  1  0  0  0
 78147  1  0  0  0
 78148  1  0  0  0
 79 80  1  0  0  0
 79149  1  0  0  0
 79150  1  0  0  0
 80151  1  0  0  0
 80152  1  0  0  0
 81153  1  0  0  0
 82154  1  0  0  0
M  ISO  4   1 100  68 101  80 101  82 100
M  END
> <chiral flag>
0

> <version>
0

> <s_m_source_file>
/data/baiqing/PycharmProjects/Reinvent-master-3.2/result/LINK_invent/BTK/process_docking_weight1_custom_product_contain_oxygen_bond_distance_aromatic_linkinvent_7_9_3/rearranged_h_0067.sdf

> <i_m_source_file_index>
75

> <r_mmod_Potential_Energy-OPLS-2005>
191.581604003906

> <r_mmod_Stretch_Energy-OPLS-2005>
127.399795532227

> <r_mmod_Bend_Energy-OPLS-2005>
154.76953125

> <r_mmod_Torsional_Energy-OPLS-2005>
281.894165039062

> <r_mmod_Improper_Torsional_Energy-OPLS-2005>
9.1177453994751

> <r_mmod_Van_der_Waal_Energy-OPLS-2005>
142.193405151367

> <r_mmod_Electrostatic_Energy-OPLS-2005>
-379.675903320312

> <r_mmod_Solvation_Energy-OPLS-2005>
-233.211334228516

> <b_mmod_Minimization_Converged-OPLS-2005>
0

> <r_mmod_RMS_Derivative-OPLS-2005>
4.88482999801636

$$$$
75
                    3D
 Structure written by MMmdl.
165174  0  0  1  0            999 V2000
  -30.5533  -14.6150   20.6035 C   0  0  0  0  0  0
  -30.4715  -12.4079   19.3955 C   0  0  0  0  0  0
  -29.5259  -12.4877   18.1734 C   0  0  0  0  0  0
  -28.0320  -12.3668   18.5533 C   0  0  0  0  0  0
  -27.6654  -13.1699   19.8221 C   0  0  2  0  0  0
  -28.7075  -12.8415   20.9086 C   0  0  0  0  0  0
  -25.2697  -13.8007   20.5445 C   0  0  0  0  0  0
  -24.1985  -13.0367   20.9165 C   0  0  0  0  0  0
  -24.6489  -11.6817   20.8731 C   0  0  0  0  0  0
  -23.9082  -10.4266   21.0415 C   0  0  0  0  0  0
  -24.3591   -9.4184   21.9223 C   0  0  0  0  0  0
  -23.6263   -8.2227   22.0755 C   0  0  0  0  0  0
  -22.4261   -8.0291   21.3534 C   0  0  0  0  0  0
  -21.9888   -9.0262   20.4665 C   0  0  0  0  0  0
  -22.7208  -10.2142   20.3091 C   0  0  0  0  0  0
  -21.6840   -6.0758   22.5283 C   0  0  0  0  0  0
  -21.3979   -6.5635   23.8229 C   0  0  0  0  0  0
  -21.3638   -5.6772   24.9193 C   0  0  0  0  0  0
  -21.6036   -4.3049   24.7225 C   0  0  0  0  0  0
  -21.8825   -3.8147   23.4351 C   0  0  0  0  0  0
  -21.9187   -4.6977   22.3406 C   0  0  0  0  0  0
  -22.8050  -13.5236   21.1894 C   0  0  0  0  0  0
  -22.1665   -4.2157   21.0993 F   0  0  0  0  0  0
  -21.5635   -3.4543   25.7747 F   0  0  0  0  0  0
  -29.9971  -13.3621   20.4295 N   0  0  0  0  0  0
  -26.3084  -12.9103   20.2894 N   0  0  0  0  0  0
  -25.9352  -11.6304   20.5485 N   0  0  0  0  0  0
  -22.0601  -12.8280   22.0421 N   0  0  0  0  0  0
  -25.4216  -15.1698   20.3675 N   0  0  0  0  0  0
  -31.7068  -14.8037   20.1792 O   0  0  0  0  0  0
  -21.6611   -6.8901   21.4257 O   0  0  0  0  0  0
  -22.3762  -14.5498   20.6668 O   0  0  0  0  0  0
  -24.6387  -31.8563   23.1936 C   0  0  0  0  0  0
  -25.9228  -32.4649   23.8308 C   0  0  1  0  0  0
  -27.3000  -27.4089   20.1920 C   0  0  0  0  0  0
  -25.6008  -33.8463   24.2226 N   0  0  0  0  0  0
  -23.4286  -30.4769   21.5253 C   0  0  2  0  0  0
  -24.9056  -28.9375   20.1030 C   0  0  0  0  0  0
  -22.7449  -29.4680   22.4805 C   0  0  0  0  0  0
  -18.0276  -28.1342   22.8517 C   0  0  0  0  0  0
  -24.1595  -36.7263   23.2639 C   0  0  0  0  0  0
  -25.9688  -30.8251   21.3693 C   0  0  0  0  0  0
  -26.0666  -29.4764   20.6864 C   0  0  0  0  0  0
  -27.2641  -28.7235   20.7216 C   0  0  0  0  0  0
  -26.1208  -26.8811   19.6312 C   0  0  0  0  0  0
  -24.9233  -27.6369   19.5540 C   0  0  0  0  0  0
  -23.6688  -29.7950   20.1581 C   0  0  0  0  0  0
  -25.4178  -36.3062   24.0360 C   0  0  1  0  0  0
  -20.5925  -28.3705   23.1099 C   0  0  2  0  0  0
  -20.6728  -26.9429   22.5297 C   0  0  0  0  0  0
  -19.5620  -26.6356   21.5160 C   0  0  0  0  0  0
  -18.1865  -26.7857   22.1693 C   0  0  0  0  0  0
  -19.1564  -28.8791   23.2862 C   0  0  0  0  0  0
  -18.9487  -30.1384   23.8870 C   0  0  0  0  0  0
  -17.6496  -30.6547   24.0521 C   0  0  0  0  0  0
  -25.9067  -34.9375   23.5085 C   0  0  0  0  0  0
  -16.5388  -29.9037   23.6382 C   0  0  0  0  0  0
  -16.7273  -28.6479   23.0377 C   0  0  0  0  0  0
  -26.4556  -31.6419   25.0672 C   0  0  0  0  0  0
  -25.3682  -31.3672   26.1288 C   0  0  0  0  0  0
  -27.0430  -30.2781   24.6195 C   0  0  0  0  0  0
  -27.6036  -32.4322   25.7321 C   0  0  0  0  0  0
  -27.5627  -37.1738   24.8451 C   0  0  0  0  0  0
  -21.4173  -29.3100   22.3407 N   0  0  0  0  0  0
  -26.4380  -37.3723   23.9363 N   0  0  0  0  0  0
  -24.6895  -31.0498   22.0943 N   0  0  0  0  0  0
  -23.4087  -28.8372   23.3032 O   0  0  0  0  0  0
  -28.3829  -26.5433   20.3703 O   0  0  0  0  0  0
  -26.5546  -34.8860   22.4605 O   0  0  0  0  0  0
  -23.5414  -32.1497   23.7059 O   0  0  0  0  0  0
  -29.6370  -18.4019   18.4585 C   0  0  0  0  0  0
  -29.6033  -19.5840   19.2147 C   0  0  0  0  0  0
  -29.7615  -17.1677   19.1102 C   0  0  0  0  0  0
  -29.7195  -18.2806   21.3078 C   0  0  0  0  0  0
  -29.6583  -19.5579   20.6200 C   0  0  0  0  0  0
  -29.7949  -17.0470   20.5223 C   0  0  0  0  0  0
  -28.5212  -21.4830   21.6202 C   0  0  0  0  0  0
  -30.0501  -25.0151   19.0827 C   0  0  0  0  0  0
  -28.6904  -23.0139   21.6778 C   0  0  0  0  0  0
  -30.7086  -21.8479   21.0222 C   0  0  0  0  0  0
  -30.1243  -23.2885   21.1806 C   0  0  1  0  0  0
  -29.6742  -18.3202   22.8503 C   0  0  0  0  0  0
  -28.6717  -15.5163   22.0411 C   0  0  0  0  0  0
  -29.3274  -26.4013   19.3096 C   0  0  0  0  0  0
  -29.6494  -20.8513   21.2674 N   0  0  0  0  0  0
  -30.3316  -23.9528   19.8711 N   0  0  0  0  0  0
  -29.7582  -15.6858   21.0636 N   0  0  0  0  0  0
  -27.4498  -20.9306   21.9079 O   0  0  0  0  0  0
  -30.5377  -24.8853   17.9631 O   0  0  0  0  0  0
  -31.4783  -12.6034   19.0454 H   0  0  0  0  0  0
  -30.5285  -11.3965   19.7908 H   0  0  0  0  0  0
  -29.7974  -11.7454   17.4174 H   0  0  0  0  0  0
  -29.6932  -13.4493   17.6994 H   0  0  0  0  0  0
  -27.7790  -11.3173   18.6641 H   0  0  0  0  0  0
  -27.4287  -12.7274   17.7186 H   0  0  0  0  0  0
  -27.7336  -14.2202   19.5446 H   0  0  0  0  0  0
  -28.7917  -11.7686   21.0378 H   0  0  0  0  0  0
  -28.4115  -13.1458   21.8973 H   0  0  0  0  0  0
  -25.2743   -9.5648   22.4807 H   0  0  0  0  0  0
  -23.9995   -7.4592   22.7415 H   0  0  0  0  0  0
  -21.0860   -8.8763   19.8949 H   0  0  0  0  0  0
  -22.3667  -10.9702   19.6203 H   0  0  0  0  0  0
  -21.1936   -7.6145   23.9732 H   0  0  0  0  0  0
  -21.1453   -6.0518   25.9095 H   0  0  0  0  0  0
  -22.0622   -2.7623   23.2843 H   0  0  0  0  0  0
  -22.4150  -11.9902   22.4813 H   0  0  0  0  0  0
  -21.1195  -13.1291   22.2528 H   0  0  0  0  0  0
  -24.5945  -15.7636   20.3997 H   0  0  0  0  0  0
  -26.2329  -15.6068   19.9471 H   0  0  0  0  0  0
  -26.7376  -32.5393   23.1077 H   0  0  0  0  0  0
  -25.0133  -33.9540   25.0317 H   0  0  0  0  0  0
  -22.7390  -31.2979   21.3430 H   0  0  0  0  0  0
  -23.3924  -35.9572   23.3308 H   0  0  0  0  0  0
  -24.3732  -36.8799   22.2071 H   0  0  0  0  0  0
  -23.7336  -37.6440   23.6623 H   0  0  0  0  0  0
  -26.1444  -31.6310   20.6556 H   0  0  0  0  0  0
  -26.8055  -30.8052   22.0359 H   0  0  0  0  0  0
  -28.1284  -29.1518   21.2076 H   0  0  0  0  0  0
  -26.1123  -25.8476   19.3355 H   0  0  0  0  0  0
  -24.0320  -27.1954   19.1297 H   0  0  0  0  0  0
  -23.7098  -30.5624   19.3813 H   0  0  0  0  0  0
  -22.8342  -29.1599   19.8793 H   0  0  0  0  0  0
  -25.1407  -36.1841   25.0877 H   0  0  0  0  0  0
  -21.0086  -28.3297   24.1141 H   0  0  0  0  0  0
  -20.5527  -26.2393   23.3573 H   0  0  0  0  0  0
  -21.6594  -26.7315   22.1123 H   0  0  0  0  0  0
  -19.6804  -25.6260   21.1139 H   0  0  0  0  0  0
  -19.6438  -27.3190   20.6678 H   0  0  0  0  0  0
  -17.4116  -26.6610   21.4172 H   0  0  0  0  0  0
  -18.0361  -25.9942   22.9025 H   0  0  0  0  0  0
  -19.7971  -30.7183   24.2286 H   0  0  0  0  0  0
  -17.5058  -31.6213   24.5125 H   0  0  0  0  0  0
  -15.5397  -30.2916   23.7621 H   0  0  0  0  0  0
  -15.8709  -28.0712   22.7115 H   0  0  0  0  0  0
  -24.5700  -30.7213   25.7518 H   0  0  0  0  0  0
  -24.9075  -32.2920   26.4737 H   0  0  0  0  0  0
  -25.7785  -30.8684   27.0003 H   0  0  0  0  0  0
  -26.3013  -29.6402   24.1272 H   0  0  0  0  0  0
  -27.4208  -29.7066   25.4662 H   0  0  0  0  0  0
  -27.8923  -30.4079   23.9474 H   0  0  0  0  0  0
  -27.2458  -33.3527   26.1877 H   0  0  0  0  0  0
  -28.3598  -32.6953   24.9960 H   0  0  0  0  0  0
  -28.0925  -31.8552   26.5088 H   0  0  0  0  0  0
  -28.2613  -38.0064   24.7556 H   0  0  0  0  0  0
  -28.1147  -36.2538   24.6303 H   0  0  0  0  0  0
  -27.2283  -37.1416   25.8836 H   0  0  0  0  0  0
  -20.9330  -29.8788   21.6641 H   0  0  0  0  0  0
  -26.0275  -38.2849   24.1232 H   0  0  0  0  0  0
  -29.6035  -18.4274   17.3700 H   0  0  0  0  0  0
  -29.5717  -20.5214   18.6922 H   0  0  0  0  0  0
  -29.8586  -16.3052   18.4815 H   0  0  0  0  0  0
  -28.6135  -23.3058   22.7330 H   0  0  0  0  0  0
  -27.9217  -23.5497   21.1163 H   0  0  0  0  0  0
  -31.4883  -21.6851   21.7807 H   0  0  0  0  0  0
  -31.1668  -21.6719   20.0421 H   0  0  0  0  0  0
  -30.6967  -23.8409   21.9247 H   0  0  0  0  0  0
  -30.2649  -19.1392   23.2503 H   0  0  0  0  0  0
  -30.0765  -17.4070   23.3207 H   0  0  0  0  0  0
  -28.6669  -18.4697   23.2488 H   0  0  0  0  0  0
  -28.9730  -15.0033   22.9482 H   0  0  0  0  0  0
  -27.8191  -15.0406   21.5872 H   0  0  0  0  0  0
  -28.2103  -16.4424   22.3317 H   0  0  0  0  0  0
  -28.7999  -26.5996   18.3808 H   0  0  0  0  0  0
  -30.1049  -27.1718   19.3694 H   0  0  0  0  0  0
  -30.9678  -23.3679   19.3431 H   0  0  0  0  0  0
  1 25  1  0  0  0
  1 30  2  0  0  0
  1 87  1  0  0  0
  2  3  1  0  0  0
  2 25  1  0  0  0
  2 90  1  0  0  0
  2 91  1  0  0  0
  3  4  1  0  0  0
  3 92  1  0  0  0
  3 93  1  0  0  0
  4  5  1  0  0  0
  4 94  1  0  0  0
  4 95  1  0  0  0
  5  6  1  0  0  0
  5 26  1  0  0  0
  5 96  1  0  0  0
  6 25  1  0  0  0
  6 97  1  0  0  0
  6 98  1  0  0  0
  7  8  2  0  0  0
  7 26  1  0  0  0
  7 29  1  0  0  0
  8  9  1  0  0  0
  8 22  1  0  0  0
  9 10  1  0  0  0
  9 27  2  0  0  0
 10 11  2  0  0  0
 10 15  1  0  0  0
 11 12  1  0  0  0
 11 99  1  0  0  0
 12 13  2  0  0  0
 12100  1  0  0  0
 13 14  1  0  0  0
 13 31  1  0  0  0
 14 15  2  0  0  0
 14101  1  0  0  0
 15102  1  0  0  0
 16 17  2  0  0  0
 16 21  1  0  0  0
 16 31  1  0  0  0
 17 18  1  0  0  0
 17103  1  0  0  0
 18 19  2  0  0  0
 18104  1  0  0  0
 19 20  1  0  0  0
 19 24  1  0  0  0
 20 21  2  0  0  0
 20105  1  0  0  0
 21 23  1  0  0  0
 22 28  1  0  0  0
 22 32  2  0  0  0
 26 27  1  0  0  0
 28106  1  0  0  0
 28107  1  0  0  0
 29108  1  0  0  0
 29109  1  0  0  0
 33 34  1  0  0  0
 33 66  1  0  0  0
 33 70  2  0  0  0
 34 36  1  0  0  0
 34 59  1  0  0  0
 34110  1  0  0  0
 35 44  2  0  0  0
 35 45  1  0  0  0
 35 68  1  0  0  0
 36 56  1  0  0  0
 36111  1  0  0  0
 37 39  1  0  0  0
 37 47  1  0  0  0
 37 66  1  0  0  0
 37112  1  0  0  0
 38 43  2  0  0  0
 38 46  1  0  0  0
 38 47  1  0  0  0
 39 64  1  0  0  0
 39 67  2  0  0  0
 40 52  1  0  0  0
 40 53  2  0  0  0
 40 58  1  0  0  0
 41113  1  0  0  0
 41114  1  0  0  0
 41115  1  0  0  0
 41 48  1  0  0  0
 42 43  1  0  0  0
 42 66  1  0  0  0
 42116  1  0  0  0
 42117  1  0  0  0
 43 44  1  0  0  0
 44118  1  0  0  0
 45 46  2  0  0  0
 45119  1  0  0  0
 46120  1  0  0  0
 47121  1  0  0  0
 47122  1  0  0  0
 48 56  1  0  0  0
 48 65  1  0  0  0
 48123  1  0  0  0
 49 50  1  0  0  0
 49 53  1  0  0  0
 49 64  1  0  0  0
 49124  1  0  0  0
 50 51  1  0  0  0
 50125  1  0  0  0
 50126  1  0  0  0
 51 52  1  0  0  0
 51127  1  0  0  0
 51128  1  0  0  0
 52129  1  0  0  0
 52130  1  0  0  0
 53 54  1  0  0  0
 54 55  2  0  0  0
 54131  1  0  0  0
 55 57  1  0  0  0
 55132  1  0  0  0
 56 69  2  0  0  0
 57 58  2  0  0  0
 57133  1  0  0  0
 58134  1  0  0  0
 59 60  1  0  0  0
 59 61  1  0  0  0
 59 62  1  0  0  0
 60135  1  0  0  0
 60136  1  0  0  0
 60137  1  0  0  0
 61138  1  0  0  0
 61139  1  0  0  0
 61140  1  0  0  0
 62141  1  0  0  0
 62142  1  0  0  0
 62143  1  0  0  0
 63 65  1  0  0  0
 63144  1  0  0  0
 63145  1  0  0  0
 63146  1  0  0  0
 64147  1  0  0  0
 65148  1  0  0  0
 68 84  1  0  0  0
 71 72  2  0  0  0
 71 73  1  0  0  0
 71149  1  0  0  0
 72 75  1  0  0  0
 72150  1  0  0  0
 73 76  2  0  0  0
 73151  1  0  0  0
 74 75  2  0  0  0
 74 76  1  0  0  0
 74 82  1  0  0  0
 75 85  1  0  0  0
 76 87  1  0  0  0
 77 79  1  0  0  0
 77 85  1  0  0  0
 77 88  2  0  0  0
 78 84  1  0  0  0
 78 86  1  0  0  0
 78 89  2  0  0  0
 79 81  1  0  0  0
 79152  1  0  0  0
 79153  1  0  0  0
 80 81  1  0  0  0
 80 85  1  0  0  0
 80154  1  0  0  0
 80155  1  0  0  0
 81 86  1  0  0  0
 81156  1  0  0  0
 82157  1  0  0  0
 82158  1  0  0  0
 82159  1  0  0  0
 83 87  1  0  0  0
 83160  1  0  0  0
 83161  1  0  0  0
 83162  1  0  0  0
 84163  1  0  0  0
 84164  1  0  0  0
 86165  1  0  0  0
M  ISO  4   1 100  68 101  84 101  87 100
M  END
> <chiral flag>
0

> <version>
0

> <s_m_source_file>
/data/baiqing/PycharmProjects/Reinvent-master-3.2/result/LINK_invent/BTK/process_docking_weight1_custom_product_contain_oxygen_bond_distance_aromatic_linkinvent_7_9_3/rearranged_h_0067.sdf

> <i_m_source_file_index>
76

> <r_mmod_Potential_Energy-OPLS-2005>
485.383544921875

> <r_mmod_Stretch_Energy-OPLS-2005>
87.3892135620117

> <r_mmod_Bend_Energy-OPLS-2005>
289.121063232422

> <r_mmod_Torsional_Energy-OPLS-2005>
413.103973388672

> <r_mmod_Improper_Torsional_Energy-OPLS-2005>
9.76574611663818

> <r_mmod_Van_der_Waal_Energy-OPLS-2005>
168.099395751953

> <r_mmod_Electrostatic_Energy-OPLS-2005>
-308.634002685547

> <r_mmod_Solvation_Energy-OPLS-2005>
-229.801254272461

> <b_mmod_Minimization_Converged-OPLS-2005>
0

> <r_mmod_RMS_Derivative-OPLS-2005>
26.9549713134766

$$$$
76
                    3D
 Structure written by MMmdl.
151159  0  0  1  0            999 V2000
  -30.6173  -14.7275   20.4316 C   0  0  0  0  0  0
  -30.4258  -12.4370   19.4783 C   0  0  0  0  0  0
  -29.5098  -12.5018   18.2372 C   0  0  0  0  0  0
  -28.0335  -12.3350   18.6454 C   0  0  0  0  0  0
  -27.6400  -13.2342   19.8479 C   0  0  2  0  0  0
  -28.6818  -13.1682   20.9856 C   0  0  0  0  0  0
  -25.2501  -13.8206   20.5687 C   0  0  0  0  0  0
  -24.1793  -13.0448   20.9200 C   0  0  0  0  0  0
  -24.6384  -11.6925   20.8737 C   0  0  0  0  0  0
  -23.9065  -10.4296   21.0399 C   0  0  0  0  0  0
  -24.3619   -9.4215   21.9179 C   0  0  0  0  0  0
  -23.6297   -8.2249   22.0753 C   0  0  0  0  0  0
  -22.4277   -8.0284   21.3547 C   0  0  0  0  0  0
  -21.9906   -9.0255   20.4650 C   0  0  0  0  0  0
  -22.7231  -10.2136   20.3058 C   0  0  0  0  0  0
  -21.6855   -6.0734   22.5277 C   0  0  0  0  0  0
  -21.4020   -6.5640   23.8211 C   0  0  0  0  0  0
  -21.3657   -5.6791   24.9173 C   0  0  0  0  0  0
  -21.6046   -4.3053   24.7222 C   0  0  0  0  0  0
  -21.8819   -3.8144   23.4344 C   0  0  0  0  0  0
  -21.9198   -4.6962   22.3399 C   0  0  0  0  0  0
  -22.7816  -13.5227   21.1862 C   0  0  0  0  0  0
  -22.1665   -4.2151   21.0975 F   0  0  0  0  0  0
  -21.5627   -3.4534   25.7733 F   0  0  0  0  0  0
  -29.9876  -13.5046   20.4071 N   0  0  0  0  0  0
  -26.2921  -12.9416   20.3255 N   0  0  0  0  0  0
  -25.9313  -11.6555   20.5735 N   0  0  0  0  0  0
  -22.0459  -12.8226   22.0421 N   0  0  0  0  0  0
  -25.4201  -15.1934   20.4113 N   0  0  0  0  0  0
  -31.8147  -14.7930   20.1387 O   0  0  0  0  0  0
  -21.6646   -6.8875   21.4240 O   0  0  0  0  0  0
  -22.3496  -14.5518   20.6686 O   0  0  0  0  0  0
  -24.6305  -31.8551   23.1978 C   0  0  0  0  0  0
  -25.9145  -32.4743   23.8311 C   0  0  1  0  0  0
  -27.2192  -27.2660   20.1189 C   0  0  0  0  0  0
  -25.5937  -33.8547   24.2225 N   0  0  0  0  0  0
  -23.4247  -30.4777   21.5406 C   0  0  2  0  0  0
  -24.8692  -28.9243   20.1081 C   0  0  0  0  0  0
  -22.7489  -29.4601   22.4915 C   0  0  0  0  0  0
  -18.0283  -28.1376   22.8473 C   0  0  0  0  0  0
  -24.1488  -36.7286   23.2630 C   0  0  0  0  0  0
  -25.9708  -30.7678   21.3776 C   0  0  0  0  0  0
  -26.0399  -29.3917   20.7162 C   0  0  0  0  0  0
  -27.2138  -28.5744   20.7100 C   0  0  0  0  0  0
  -26.0178  -26.8574   19.4956 C   0  0  0  0  0  0
  -24.8637  -27.6646   19.4897 C   0  0  0  0  0  0
  -23.6407  -29.8108   20.1564 C   0  0  0  0  0  0
  -25.4115  -36.3062   24.0313 C   0  0  1  0  0  0
  -20.5886  -28.3684   23.1270 C   0  0  2  0  0  0
  -20.6763  -26.9402   22.5406 C   0  0  0  0  0  0
  -19.5744  -26.6374   21.5203 C   0  0  0  0  0  0
  -18.1930  -26.7916   22.1621 C   0  0  0  0  0  0
  -19.1536  -28.8850   23.2858 C   0  0  0  0  0  0
  -18.9465  -30.1456   23.8870 C   0  0  0  0  0  0
  -17.6465  -30.6579   24.0559 C   0  0  0  0  0  0
  -25.9066  -34.9436   23.5072 C   0  0  0  0  0  0
  -16.5358  -29.9076   23.6332 C   0  0  0  0  0  0
  -16.7272  -28.6496   23.0345 C   0  0  0  0  0  0
  -26.4502  -31.6582   25.0716 C   0  0  0  0  0  0
  -25.3726  -31.3746   26.1440 C   0  0  0  0  0  0
  -27.0335  -30.2982   24.6234 C   0  0  0  0  0  0
  -27.6034  -32.4342   25.7504 C   0  0  0  0  0  0
  -27.5590  -37.1787   24.8451 C   0  0  0  0  0  0
  -21.4196  -29.3039   22.3669 N   0  0  0  0  0  0
  -26.4278  -37.3782   23.9422 N   0  0  0  0  0  0
  -24.6939  -31.0526   22.0943 N   0  0  0  0  0  0
  -23.4203  -28.8149   23.3010 O   0  0  0  0  0  0
  -28.3448  -26.4143   20.1970 O   0  0  0  0  0  0
  -26.5654  -34.8929   22.4654 O   0  0  0  0  0  0
  -23.5463  -32.1376   23.7286 O   0  0  0  0  0  0
  -29.4320  -18.4819   20.5465 C   0  0  0  0  0  0
  -30.5397  -19.8354   18.8563 C   0  0  0  0  0  0
  -30.9265  -17.4181   18.9493 C   0  0  0  0  0  0
  -29.6432  -19.8010   19.9505 C   0  0  0  0  0  0
  -30.0739  -17.2573   20.0680 C   0  0  0  0  0  0
  -31.1572  -18.6735   18.3616 C   0  0  0  0  0  0
  -28.8914  -22.3035   19.7746 C   0  0  0  0  0  0
  -28.5345  -23.6792   20.5142 C   0  0  0  0  0  0
  -28.4177  -25.0282   19.6194 C   0  0  0  0  0  0
  -29.0631  -21.0889   20.4370 N   0  0  0  0  0  0
  -29.8564  -15.8804   20.6050 N   0  0  0  0  0  0
  -28.9734  -22.3540   18.5452 O   0  0  0  0  0  0
  -31.9911  -18.7645   17.2981 F   0  0  0  0  0  0
  -31.4694  -12.5482   19.1779 H   0  0  0  0  0  0
  -30.3583  -11.4611   19.9611 H   0  0  0  0  0  0
  -29.7892  -11.7291   17.5202 H   0  0  0  0  0  0
  -29.6460  -13.4575   17.7280 H   0  0  0  0  0  0
  -27.8827  -11.2864   18.9041 H   0  0  0  0  0  0
  -27.3822  -12.5359   17.7944 H   0  0  0  0  0  0
  -27.6355  -14.2561   19.4682 H   0  0  0  0  0  0
  -28.7061  -12.1730   21.4327 H   0  0  0  0  0  0
  -28.4189  -13.8582   21.7892 H   0  0  0  0  0  0
  -25.2769   -9.5694   22.4749 H   0  0  0  0  0  0
  -24.0012   -7.4640   22.7464 H   0  0  0  0  0  0
  -21.0839   -8.8766   19.8954 H   0  0  0  0  0  0
  -22.3685  -10.9672   19.6167 H   0  0  0  0  0  0
  -21.2014   -7.6148   23.9714 H   0  0  0  0  0  0
  -21.1480   -6.0522   25.9076 H   0  0  0  0  0  0
  -22.0600   -2.7610   23.2841 H   0  0  0  0  0  0
  -22.4083  -11.9917   22.4854 H   0  0  0  0  0  0
  -21.1070  -13.1250   22.2589 H   0  0  0  0  0  0
  -24.6523  -15.8474   20.5183 H   0  0  0  0  0  0
  -26.2661  -15.6312   20.0691 H   0  0  0  0  0  0
  -26.7214  -32.5375   23.1051 H   0  0  0  0  0  0
  -25.0056  -33.9678   25.0349 H   0  0  0  0  0  0
  -22.7206  -31.2996   21.3949 H   0  0  0  0  0  0
  -23.3764  -35.9603   23.3251 H   0  0  0  0  0  0
  -24.3580  -36.8965   22.2054 H   0  0  0  0  0  0
  -23.7239  -37.6467   23.6696 H   0  0  0  0  0  0
  -26.1179  -31.5312   20.6129 H   0  0  0  0  0  0
  -26.8466  -30.8085   22.0132 H   0  0  0  0  0  0
  -28.1112  -28.9279   21.1980 H   0  0  0  0  0  0
  -25.9178  -25.8909   19.0303 H   0  0  0  0  0  0
  -23.9637  -27.2957   19.0158 H   0  0  0  0  0  0
  -23.7654  -30.5863   19.3998 H   0  0  0  0  0  0
  -22.7587  -29.2441   19.8512 H   0  0  0  0  0  0
  -25.1302  -36.1876   25.0805 H   0  0  0  0  0  0
  -20.9964  -28.3250   24.1393 H   0  0  0  0  0  0
  -20.5644  -26.2290   23.3603 H   0  0  0  0  0  0
  -21.6638  -26.7417   22.1219 H   0  0  0  0  0  0
  -19.6901  -25.6280   21.1241 H   0  0  0  0  0  0
  -19.6686  -27.3173   20.6722 H   0  0  0  0  0  0
  -17.4198  -26.6653   21.4030 H   0  0  0  0  0  0
  -18.0340  -26.0058   22.9017 H   0  0  0  0  0  0
  -19.7948  -30.7275   24.2222 H   0  0  0  0  0  0
  -17.5026  -31.6254   24.5163 H   0  0  0  0  0  0
  -15.5361  -30.2974   23.7665 H   0  0  0  0  0  0
  -15.8671  -28.0818   22.7061 H   0  0  0  0  0  0
  -24.5895  -30.7097   25.7786 H   0  0  0  0  0  0
  -24.8931  -32.2918   26.4865 H   0  0  0  0  0  0
  -25.8051  -30.8933   27.0220 H   0  0  0  0  0  0
  -26.2915  -29.6738   24.1242 H   0  0  0  0  0  0
  -27.3955  -29.7254   25.4784 H   0  0  0  0  0  0
  -27.8830  -30.4221   23.9514 H   0  0  0  0  0  0
  -27.2605  -33.3632   26.2076 H   0  0  0  0  0  0
  -28.3856  -32.6929   25.0355 H   0  0  0  0  0  0
  -28.0689  -31.8482   26.5439 H   0  0  0  0  0  0
  -28.2559  -38.0132   24.7571 H   0  0  0  0  0  0
  -28.1139  -36.2672   24.6173 H   0  0  0  0  0  0
  -27.2322  -37.1311   25.8854 H   0  0  0  0  0  0
  -20.9373  -29.8767   21.6885 H   0  0  0  0  0  0
  -26.0139  -38.2839   24.1470 H   0  0  0  0  0  0
  -28.7625  -18.4087   21.3913 H   0  0  0  0  0  0
  -30.7905  -20.7640   18.3677 H   0  0  0  0  0  0
  -31.4252  -16.5741   18.4993 H   0  0  0  0  0  0
  -29.3039  -23.8370   21.2701 H   0  0  0  0  0  0
  -27.6040  -23.5347   21.0627 H   0  0  0  0  0  0
  -27.6646  -24.8654   18.8538 H   0  0  0  0  0  0
  -29.3366  -25.0602   19.0335 H   0  0  0  0  0  0
  -28.7979  -21.1034   21.4137 H   0  0  0  0  0  0
  -28.9543  -15.7201   21.0279 H   0  0  0  0  0  0
  1 25  1  0  0  0
  1 30  2  0  0  0
  1 81  1  0  0  0
  2  3  1  0  0  0
  2 25  1  0  0  0
  2 84  1  0  0  0
  2 85  1  0  0  0
  3  4  1  0  0  0
  3 86  1  0  0  0
  3 87  1  0  0  0
  4  5  1  0  0  0
  4 88  1  0  0  0
  4 89  1  0  0  0
  5  6  1  0  0  0
  5 26  1  0  0  0
  5 90  1  0  0  0
  6 25  1  0  0  0
  6 91  1  0  0  0
  6 92  1  0  0  0
  7  8  2  0  0  0
  7 26  1  0  0  0
  7 29  1  0  0  0
  8  9  1  0  0  0
  8 22  1  0  0  0
  9 10  1  0  0  0
  9 27  2  0  0  0
 10 11  2  0  0  0
 10 15  1  0  0  0
 11 12  1  0  0  0
 11 93  1  0  0  0
 12 13  2  0  0  0
 12 94  1  0  0  0
 13 14  1  0  0  0
 13 31  1  0  0  0
 14 15  2  0  0  0
 14 95  1  0  0  0
 15 96  1  0  0  0
 16 17  2  0  0  0
 16 21  1  0  0  0
 16 31  1  0  0  0
 17 18  1  0  0  0
 17 97  1  0  0  0
 18 19  2  0  0  0
 18 98  1  0  0  0
 19 20  1  0  0  0
 19 24  1  0  0  0
 20 21  2  0  0  0
 20 99  1  0  0  0
 21 23  1  0  0  0
 22 28  1  0  0  0
 22 32  2  0  0  0
 26 27  1  0  0  0
 28100  1  0  0  0
 28101  1  0  0  0
 29102  1  0  0  0
 29103  1  0  0  0
 33 34  1  0  0  0
 33 66  1  0  0  0
 33 70  2  0  0  0
 34 36  1  0  0  0
 34 59  1  0  0  0
 34104  1  0  0  0
 35 44  2  0  0  0
 35 45  1  0  0  0
 35 68  1  0  0  0
 36 56  1  0  0  0
 36105  1  0  0  0
 37 39  1  0  0  0
 37 47  1  0  0  0
 37 66  1  0  0  0
 37106  1  0  0  0
 38 43  2  0  0  0
 38 46  1  0  0  0
 38 47  1  0  0  0
 39 64  1  0  0  0
 39 67  2  0  0  0
 40 52  1  0  0  0
 40 53  2  0  0  0
 40 58  1  0  0  0
 41107  1  0  0  0
 41108  1  0  0  0
 41109  1  0  0  0
 41 48  1  0  0  0
 42 43  1  0  0  0
 42 66  1  0  0  0
 42110  1  0  0  0
 42111  1  0  0  0
 43 44  1  0  0  0
 44112  1  0  0  0
 45 46  2  0  0  0
 45113  1  0  0  0
 46114  1  0  0  0
 47115  1  0  0  0
 47116  1  0  0  0
 48 56  1  0  0  0
 48 65  1  0  0  0
 48117  1  0  0  0
 49 50  1  0  0  0
 49 53  1  0  0  0
 49 64  1  0  0  0
 49118  1  0  0  0
 50 51  1  0  0  0
 50119  1  0  0  0
 50120  1  0  0  0
 51 52  1  0  0  0
 51121  1  0  0  0
 51122  1  0  0  0
 52123  1  0  0  0
 52124  1  0  0  0
 53 54  1  0  0  0
 54 55  2  0  0  0
 54125  1  0  0  0
 55 57  1  0  0  0
 55126  1  0  0  0
 56 69  2  0  0  0
 57 58  2  0  0  0
 57127  1  0  0  0
 58128  1  0  0  0
 59 60  1  0  0  0
 59 61  1  0  0  0
 59 62  1  0  0  0
 60129  1  0  0  0
 60130  1  0  0  0
 60131  1  0  0  0
 61132  1  0  0  0
 61133  1  0  0  0
 61134  1  0  0  0
 62135  1  0  0  0
 62136  1  0  0  0
 62137  1  0  0  0
 63 65  1  0  0  0
 63138  1  0  0  0
 63139  1  0  0  0
 63140  1  0  0  0
 64141  1  0  0  0
 65142  1  0  0  0
 68 79  1  0  0  0
 71 74  2  0  0  0
 71 75  1  0  0  0
 71143  1  0  0  0
 72 74  1  0  0  0
 72 76  2  0  0  0
 72144  1  0  0  0
 73 75  2  0  0  0
 73 76  1  0  0  0
 73145  1  0  0  0
 74 80  1  0  0  0
 75 81  1  0  0  0
 76 83  1  0  0  0
 77 78  1  0  0  0
 77 80  1  0  0  0
 77 82  2  0  0  0
 78 79  1  0  0  0
 78146  1  0  0  0
 78147  1  0  0  0
 79148  1  0  0  0
 79149  1  0  0  0
 80150  1  0  0  0
 81151  1  0  0  0
M  ISO  4   1 100  68 101  79 101  81 100
M  END
> <chiral flag>
0

> <version>
0

> <s_m_source_file>
/data/baiqing/PycharmProjects/Reinvent-master-3.2/result/LINK_invent/BTK/process_docking_weight1_custom_product_contain_oxygen_bond_distance_aromatic_linkinvent_7_9_3/rearranged_h_0067.sdf

> <i_m_source_file_index>
77

> <r_mmod_Potential_Energy-OPLS-2005>
160.487426757812

> <r_mmod_Stretch_Energy-OPLS-2005>
127.065689086914

> <r_mmod_Bend_Energy-OPLS-2005>
168.079605102539

> <r_mmod_Torsional_Energy-OPLS-2005>
232.350234985352

> <r_mmod_Improper_Torsional_Energy-OPLS-2005>
4.75796127319336

> <r_mmod_Van_der_Waal_Energy-OPLS-2005>
149.042633056641

> <r_mmod_Electrostatic_Energy-OPLS-2005>
-364.885498046875

> <r_mmod_Solvation_Energy-OPLS-2005>
-234.809768676758

> <b_mmod_Minimization_Converged-OPLS-2005>
0

> <r_mmod_RMS_Derivative-OPLS-2005>
1.30600321292877

$$$$
77
                    3D
 Structure written by MMmdl.
154162  0  0  1  0            999 V2000
  -30.6044  -14.7140   20.4619 C   0  0  0  0  0  0
  -30.4267  -12.4250   19.4933 C   0  0  0  0  0  0
  -29.5127  -12.5048   18.2499 C   0  0  0  0  0  0
  -28.0375  -12.3323   18.6562 C   0  0  0  0  0  0
  -27.6460  -13.2274   19.8630 C   0  0  2  0  0  0
  -28.6827  -13.1378   21.0050 C   0  0  0  0  0  0
  -25.2528  -13.8217   20.5721 C   0  0  0  0  0  0
  -24.1796  -13.0474   20.9209 C   0  0  0  0  0  0
  -24.6374  -11.6947   20.8758 C   0  0  0  0  0  0
  -23.9058  -10.4322   21.0409 C   0  0  0  0  0  0
  -24.3626   -9.4230   21.9175 C   0  0  0  0  0  0
  -23.6305   -8.2255   22.0744 C   0  0  0  0  0  0
  -22.4282   -8.0282   21.3544 C   0  0  0  0  0  0
  -21.9910   -9.0262   20.4648 C   0  0  0  0  0  0
  -22.7235  -10.2150   20.3067 C   0  0  0  0  0  0
  -21.6850   -6.0742   22.5276 C   0  0  0  0  0  0
  -21.4015   -6.5639   23.8221 C   0  0  0  0  0  0
  -21.3671   -5.6788   24.9172 C   0  0  0  0  0  0
  -21.6044   -4.3052   24.7217 C   0  0  0  0  0  0
  -21.8817   -3.8149   23.4333 C   0  0  0  0  0  0
  -21.9194   -4.6968   22.3397 C   0  0  0  0  0  0
  -22.7814  -13.5251   21.1836 C   0  0  0  0  0  0
  -22.1650   -4.2166   21.0969 F   0  0  0  0  0  0
  -21.5644   -3.4530   25.7723 F   0  0  0  0  0  0
  -29.9941  -13.4803   20.4409 N   0  0  0  0  0  0
  -26.2935  -12.9406   20.3313 N   0  0  0  0  0  0
  -25.9305  -11.6555   20.5776 N   0  0  0  0  0  0
  -22.0434  -12.8290   22.0411 N   0  0  0  0  0  0
  -25.4288  -15.1940   20.4213 N   0  0  0  0  0  0
  -31.7662  -14.8319   20.0610 O   0  0  0  0  0  0
  -21.6643   -6.8873   21.4239 O   0  0  0  0  0  0
  -22.3510  -14.5535   20.6629 O   0  0  0  0  0  0
  -24.6286  -31.8562   23.2034 C   0  0  0  0  0  0
  -25.9118  -32.4745   23.8363 C   0  0  1  0  0  0
  -27.2058  -27.2585   20.1159 C   0  0  0  0  0  0
  -25.5916  -33.8559   24.2249 N   0  0  0  0  0  0
  -23.4269  -30.4835   21.5426 C   0  0  2  0  0  0
  -24.8741  -28.9416   20.1044 C   0  0  0  0  0  0
  -22.7520  -29.4583   22.4877 C   0  0  0  0  0  0
  -18.0287  -28.1388   22.8473 C   0  0  0  0  0  0
  -24.1491  -36.7296   23.2636 C   0  0  0  0  0  0
  -25.9784  -30.7579   21.4014 C   0  0  0  0  0  0
  -26.0429  -29.3866   20.7334 C   0  0  0  0  0  0
  -27.2067  -28.5506   20.7430 C   0  0  0  0  0  0
  -26.0239  -26.9077   19.4213 C   0  0  0  0  0  0
  -24.8703  -27.7106   19.4385 C   0  0  0  0  0  0
  -23.6494  -29.8335   20.1531 C   0  0  0  0  0  0
  -25.4121  -36.3070   24.0314 C   0  0  1  0  0  0
  -20.5899  -28.3682   23.1275 C   0  0  2  0  0  0
  -20.6763  -26.9391   22.5420 C   0  0  0  0  0  0
  -19.5735  -26.6375   21.5223 C   0  0  0  0  0  0
  -18.1918  -26.7925   22.1631 C   0  0  0  0  0  0
  -19.1544  -28.8857   23.2865 C   0  0  0  0  0  0
  -18.9469  -30.1473   23.8854 C   0  0  0  0  0  0
  -17.6462  -30.6578   24.0572 C   0  0  0  0  0  0
  -25.9061  -34.9435   23.5091 C   0  0  0  0  0  0
  -16.5354  -29.9083   23.6329 C   0  0  0  0  0  0
  -16.7275  -28.6523   23.0313 C   0  0  0  0  0  0
  -26.4463  -31.6591   25.0774 C   0  0  0  0  0  0
  -25.3676  -31.3811   26.1500 C   0  0  0  0  0  0
  -27.0315  -30.2967   24.6380 C   0  0  0  0  0  0
  -27.5998  -32.4360   25.7536 C   0  0  0  0  0  0
  -27.5588  -37.1806   24.8450 C   0  0  0  0  0  0
  -21.4217  -29.3035   22.3668 N   0  0  0  0  0  0
  -26.4292  -37.3776   23.9401 N   0  0  0  0  0  0
  -24.6947  -31.0541   22.1012 N   0  0  0  0  0  0
  -23.4244  -28.8094   23.2934 O   0  0  0  0  0  0
  -28.2860  -26.3445   20.1994 O   0  0  0  0  0  0
  -26.5653  -34.8905   22.4671 O   0  0  0  0  0  0
  -23.5437  -32.1384   23.7325 O   0  0  0  0  0  0
  -29.4566  -19.5211   18.5036 C   0  0  0  0  0  0
  -29.8291  -17.1024   18.6700 C   0  0  0  0  0  0
  -29.5013  -18.4378   20.6810 C   0  0  0  0  0  0
  -29.6684  -18.2665   17.8897 C   0  0  0  0  0  0
  -29.3467  -19.6650   19.9067 C   0  0  0  0  0  0
  -29.7626  -17.1320   20.0802 C   0  0  0  0  0  0
  -28.6313  -22.1842   19.9002 C   0  0  0  0  0  0
  -28.8303  -23.6488   20.5191 C   0  0  0  0  0  0
  -28.0966  -24.9011   19.8017 C   0  0  0  0  0  0
  -29.7277  -18.1544   16.3723 C   0  0  0  0  0  0
  -29.1682  -21.0332   20.4718 N   0  0  0  0  0  0
  -29.8546  -15.8338   20.7961 N   0  0  0  0  0  0
  -27.9276  -22.1042   18.8897 O   0  0  0  0  0  0
  -29.2496  -19.2455   15.7722 F   0  0  0  0  0  0
  -30.9907  -17.9799   15.9878 F   0  0  0  0  0  0
  -29.0085  -17.1087   15.9629 F   0  0  0  0  0  0
  -31.4728  -12.5335   19.2008 H   0  0  0  0  0  0
  -30.3506  -11.4425   19.9644 H   0  0  0  0  0  0
  -29.7944  -11.7423   17.5244 H   0  0  0  0  0  0
  -29.6471  -13.4663   17.7531 H   0  0  0  0  0  0
  -27.8886  -11.2833   18.9155 H   0  0  0  0  0  0
  -27.3832  -12.5278   17.8057 H   0  0  0  0  0  0
  -27.6519  -14.2545   19.4975 H   0  0  0  0  0  0
  -28.7015  -12.1339   21.4309 H   0  0  0  0  0  0
  -28.4150  -13.8097   21.8220 H   0  0  0  0  0  0
  -25.2766   -9.5717   22.4756 H   0  0  0  0  0  0
  -24.0028   -7.4648   22.7461 H   0  0  0  0  0  0
  -21.0838   -8.8777   19.8962 H   0  0  0  0  0  0
  -22.3662  -10.9698   19.6190 H   0  0  0  0  0  0
  -21.1996   -7.6155   23.9722 H   0  0  0  0  0  0
  -21.1496   -6.0516   25.9081 H   0  0  0  0  0  0
  -22.0587   -2.7616   23.2821 H   0  0  0  0  0  0
  -22.4026  -11.9995   22.4907 H   0  0  0  0  0  0
  -21.1043  -13.1328   22.2550 H   0  0  0  0  0  0
  -24.6752  -15.8585   20.5595 H   0  0  0  0  0  0
  -26.2957  -15.6305   20.1346 H   0  0  0  0  0  0
  -26.7187  -32.5375   23.1104 H   0  0  0  0  0  0
  -24.9966  -33.9691   25.0325 H   0  0  0  0  0  0
  -22.7196  -31.3038   21.4014 H   0  0  0  0  0  0
  -23.3749  -35.9634   23.3285 H   0  0  0  0  0  0
  -24.3574  -36.8938   22.2051 H   0  0  0  0  0  0
  -23.7254  -37.6489   23.6687 H   0  0  0  0  0  0
  -26.1506  -31.5286   20.6487 H   0  0  0  0  0  0
  -26.8410  -30.7805   22.0562 H   0  0  0  0  0  0
  -28.0908  -28.8716   21.2754 H   0  0  0  0  0  0
  -25.9489  -26.0001   18.8448 H   0  0  0  0  0  0
  -23.9839  -27.3809   18.9133 H   0  0  0  0  0  0
  -23.7878  -30.6159   19.4064 H   0  0  0  0  0  0
  -22.7649  -29.2793   19.8321 H   0  0  0  0  0  0
  -25.1311  -36.1902   25.0808 H   0  0  0  0  0  0
  -20.9992  -28.3255   24.1401 H   0  0  0  0  0  0
  -20.5652  -26.2282   23.3629 H   0  0  0  0  0  0
  -21.6630  -26.7393   22.1226 H   0  0  0  0  0  0
  -19.6882  -25.6291   21.1241 H   0  0  0  0  0  0
  -19.6670  -27.3196   20.6768 H   0  0  0  0  0  0
  -17.4191  -26.6677   21.4033 H   0  0  0  0  0  0
  -18.0296  -26.0078   22.9032 H   0  0  0  0  0  0
  -19.7950  -30.7319   24.2169 H   0  0  0  0  0  0
  -17.5014  -31.6237   24.5206 H   0  0  0  0  0  0
  -15.5352  -30.2973   23.7674 H   0  0  0  0  0  0
  -15.8678  -28.0869   22.6974 H   0  0  0  0  0  0
  -24.5780  -30.7227   25.7852 H   0  0  0  0  0  0
  -24.8952  -32.3020   26.4935 H   0  0  0  0  0  0
  -25.7965  -30.8962   27.0281 H   0  0  0  0  0  0
  -26.2952  -29.6715   24.1315 H   0  0  0  0  0  0
  -27.3788  -29.7239   25.4991 H   0  0  0  0  0  0
  -27.8926  -30.4137   23.9799 H   0  0  0  0  0  0
  -27.2544  -33.3611   26.2169 H   0  0  0  0  0  0
  -28.3774  -32.7018   25.0363 H   0  0  0  0  0  0
  -28.0721  -31.8482   26.5416 H   0  0  0  0  0  0
  -28.2599  -38.0108   24.7503 H   0  0  0  0  0  0
  -28.1092  -36.2644   24.6267 H   0  0  0  0  0  0
  -27.2315  -37.1447   25.8852 H   0  0  0  0  0  0
  -20.9387  -29.8811   21.6931 H   0  0  0  0  0  0
  -26.0163  -38.2846   24.1407 H   0  0  0  0  0  0
  -29.3901  -20.3872   17.8650 H   0  0  0  0  0  0
  -29.9777  -16.1683   18.1475 H   0  0  0  0  0  0
  -29.4181  -18.5006   21.7571 H   0  0  0  0  0  0
  -29.9017  -23.8358   20.5520 H   0  0  0  0  0  0
  -28.4965  -23.6125   21.5555 H   0  0  0  0  0  0
  -27.0473  -24.6299   19.8847 H   0  0  0  0  0  0
  -28.3304  -24.8583   18.7366 H   0  0  0  0  0  0
  -29.5495  -21.1658   21.3993 H   0  0  0  0  0  0
  -29.0975  -15.6491   21.4385 H   0  0  0  0  0  0
  1 25  1  0  0  0
  1 30  2  0  0  0
  1 82  1  0  0  0
  2  3  1  0  0  0
  2 25  1  0  0  0
  2 87  1  0  0  0
  2 88  1  0  0  0
  3  4  1  0  0  0
  3 89  1  0  0  0
  3 90  1  0  0  0
  4  5  1  0  0  0
  4 91  1  0  0  0
  4 92  1  0  0  0
  5  6  1  0  0  0
  5 26  1  0  0  0
  5 93  1  0  0  0
  6 25  1  0  0  0
  6 94  1  0  0  0
  6 95  1  0  0  0
  7  8  2  0  0  0
  7 26  1  0  0  0
  7 29  1  0  0  0
  8  9  1  0  0  0
  8 22  1  0  0  0
  9 10  1  0  0  0
  9 27  2  0  0  0
 10 11  2  0  0  0
 10 15  1  0  0  0
 11 12  1  0  0  0
 11 96  1  0  0  0
 12 13  2  0  0  0
 12 97  1  0  0  0
 13 14  1  0  0  0
 13 31  1  0  0  0
 14 15  2  0  0  0
 14 98  1  0  0  0
 15 99  1  0  0  0
 16 17  2  0  0  0
 16 21  1  0  0  0
 16 31  1  0  0  0
 17 18  1  0  0  0
 17100  1  0  0  0
 18 19  2  0  0  0
 18101  1  0  0  0
 19 20  1  0  0  0
 19 24  1  0  0  0
 20 21  2  0  0  0
 20102  1  0  0  0
 21 23  1  0  0  0
 22 28  1  0  0  0
 22 32  2  0  0  0
 26 27  1  0  0  0
 28103  1  0  0  0
 28104  1  0  0  0
 29105  1  0  0  0
 29106  1  0  0  0
 33 34  1  0  0  0
 33 66  1  0  0  0
 33 70  2  0  0  0
 34 36  1  0  0  0
 34 59  1  0  0  0
 34107  1  0  0  0
 35 44  2  0  0  0
 35 45  1  0  0  0
 35 68  1  0  0  0
 36 56  1  0  0  0
 36108  1  0  0  0
 37 39  1  0  0  0
 37 47  1  0  0  0
 37 66  1  0  0  0
 37109  1  0  0  0
 38 43  2  0  0  0
 38 46  1  0  0  0
 38 47  1  0  0  0
 39 64  1  0  0  0
 39 67  2  0  0  0
 40 52  1  0  0  0
 40 53  2  0  0  0
 40 58  1  0  0  0
 41110  1  0  0  0
 41111  1  0  0  0
 41112  1  0  0  0
 41 48  1  0  0  0
 42 43  1  0  0  0
 42 66  1  0  0  0
 42113  1  0  0  0
 42114  1  0  0  0
 43 44  1  0  0  0
 44115  1  0  0  0
 45 46  2  0  0  0
 45116  1  0  0  0
 46117  1  0  0  0
 47118  1  0  0  0
 47119  1  0  0  0
 48 56  1  0  0  0
 48 65  1  0  0  0
 48120  1  0  0  0
 49 50  1  0  0  0
 49 53  1  0  0  0
 49 64  1  0  0  0
 49121  1  0  0  0
 50 51  1  0  0  0
 50122  1  0  0  0
 50123  1  0  0  0
 51 52  1  0  0  0
 51124  1  0  0  0
 51125  1  0  0  0
 52126  1  0  0  0
 52127  1  0  0  0
 53 54  1  0  0  0
 54 55  2  0  0  0
 54128  1  0  0  0
 55 57  1  0  0  0
 55129  1  0  0  0
 56 69  2  0  0  0
 57 58  2  0  0  0
 57130  1  0  0  0
 58131  1  0  0  0
 59 60  1  0  0  0
 59 61  1  0  0  0
 59 62  1  0  0  0
 60132  1  0  0  0
 60133  1  0  0  0
 60134  1  0  0  0
 61135  1  0  0  0
 61136  1  0  0  0
 61137  1  0  0  0
 62138  1  0  0  0
 62139  1  0  0  0
 62140  1  0  0  0
 63 65  1  0  0  0
 63141  1  0  0  0
 63142  1  0  0  0
 63143  1  0  0  0
 64144  1  0  0  0
 65145  1  0  0  0
 68 79  1  0  0  0
 71 74  2  0  0  0
 71 75  1  0  0  0
 71146  1  0  0  0
 72 74  1  0  0  0
 72 76  2  0  0  0
 72147  1  0  0  0
 73 75  2  0  0  0
 73 76  1  0  0  0
 73148  1  0  0  0
 74 80  1  0  0  0
 75 81  1  0  0  0
 76 82  1  0  0  0
 77 78  1  0  0  0
 77 81  1  0  0  0
 77 83  2  0  0  0
 78 79  1  0  0  0
 78149  1  0  0  0
 78150  1  0  0  0
 79151  1  0  0  0
 79152  1  0  0  0
 80 84  1  0  0  0
 80 85  1  0  0  0
 80 86  1  0  0  0
 81153  1  0  0  0
 82154  1  0  0  0
M  ISO  4   1 100  68 101  79 101  82 100
M  END
> <chiral flag>
0

> <version>
0

> <s_m_source_file>
/data/baiqing/PycharmProjects/Reinvent-master-3.2/result/LINK_invent/BTK/process_docking_weight1_custom_product_contain_oxygen_bond_distance_aromatic_linkinvent_7_9_3/rearranged_h_0067.sdf

> <i_m_source_file_index>
78

> <r_mmod_Potential_Energy-OPLS-2005>
151.909423828125

> <r_mmod_Stretch_Energy-OPLS-2005>
123.779396057129

> <r_mmod_Bend_Energy-OPLS-2005>
156.365249633789

> <r_mmod_Torsional_Energy-OPLS-2005>
253.930526733398

> <r_mmod_Improper_Torsional_Energy-OPLS-2005>
4.83671712875366

> <r_mmod_Van_der_Waal_Energy-OPLS-2005>
149.145721435547

> <r_mmod_Electrostatic_Energy-OPLS-2005>
-384.099914550781

> <r_mmod_Solvation_Energy-OPLS-2005>
-235.248687744141

> <b_mmod_Minimization_Converged-OPLS-2005>
0

> <r_mmod_RMS_Derivative-OPLS-2005>
2.9223415851593

$$$$
78
                    3D
 Structure written by MMmdl.
154162  0  0  1  0            999 V2000
  -30.5170  -15.0539   20.4139 C   0  0  0  0  0  0
  -30.4384  -12.6650   19.4996 C   0  0  0  0  0  0
  -29.5241  -12.5468   18.2582 C   0  0  0  0  0  0
  -28.0598  -12.3174   18.6779 C   0  0  0  0  0  0
  -27.6217  -13.2602   19.8308 C   0  0  2  0  0  0
  -28.6663  -13.3372   20.9651 C   0  0  0  0  0  0
  -25.2424  -13.8230   20.5718 C   0  0  0  0  0  0
  -24.1761  -13.0425   20.9238 C   0  0  0  0  0  0
  -24.6397  -11.6919   20.8746 C   0  0  0  0  0  0
  -23.9084  -10.4287   21.0394 C   0  0  0  0  0  0
  -24.3632   -9.4208   21.9177 C   0  0  0  0  0  0
  -23.6302   -8.2248   22.0752 C   0  0  0  0  0  0
  -22.4278   -8.0291   21.3552 C   0  0  0  0  0  0
  -21.9918   -9.0262   20.4647 C   0  0  0  0  0  0
  -22.7250  -10.2136   20.3053 C   0  0  0  0  0  0
  -21.6857   -6.0734   22.5277 C   0  0  0  0  0  0
  -21.4019   -6.5638   23.8212 C   0  0  0  0  0  0
  -21.3658   -5.6791   24.9173 C   0  0  0  0  0  0
  -21.6054   -4.3057   24.7223 C   0  0  0  0  0  0
  -21.8815   -3.8147   23.4339 C   0  0  0  0  0  0
  -21.9193   -4.6962   22.3395 C   0  0  0  0  0  0
  -22.7782  -13.5194   21.1893 C   0  0  0  0  0  0
  -22.1661   -4.2154   21.0971 F   0  0  0  0  0  0
  -21.5623   -3.4535   25.7729 F   0  0  0  0  0  0
  -29.9225  -13.7833   20.3483 N   0  0  0  0  0  0
  -26.2856  -12.9483   20.3232 N   0  0  0  0  0  0
  -25.9341  -11.6599   20.5724 N   0  0  0  0  0  0
  -22.0452  -12.8177   22.0447 N   0  0  0  0  0  0
  -25.4048  -15.1967   20.4159 N   0  0  0  0  0  0
  -31.7349  -15.0782   20.1970 O   0  0  0  0  0  0
  -21.6647   -6.8881   21.4241 O   0  0  0  0  0  0
  -22.3471  -14.5505   20.6739 O   0  0  0  0  0  0
  -24.6515  -31.8368   23.1814 C   0  0  0  0  0  0
  -25.9260  -32.4660   23.8219 C   0  0  1  0  0  0
  -27.2248  -27.0664   20.1652 C   0  0  0  0  0  0
  -25.5970  -33.8464   24.2143 N   0  0  0  0  0  0
  -23.4563  -30.4553   21.5296 C   0  0  2  0  0  0
  -24.9089  -28.8682   20.1085 C   0  0  0  0  0  0
  -22.7586  -29.4532   22.4834 C   0  0  0  0  0  0
  -18.0307  -28.1436   22.8476 C   0  0  0  0  0  0
  -24.1508  -36.7232   23.2640 C   0  0  0  0  0  0
  -26.0180  -30.6884   21.3898 C   0  0  0  0  0  0
  -26.0890  -29.2930   20.7333 C   0  0  0  0  0  0
  -27.2423  -28.4103   20.7426 C   0  0  0  0  0  0
  -26.0157  -26.7630   19.4965 C   0  0  0  0  0  0
  -24.8908  -27.6190   19.4714 C   0  0  0  0  0  0
  -23.6868  -29.7786   20.1521 C   0  0  0  0  0  0
  -25.4144  -36.3008   24.0313 C   0  0  1  0  0  0
  -20.5921  -28.3762   23.1222 C   0  0  2  0  0  0
  -20.6800  -26.9462   22.5410 C   0  0  0  0  0  0
  -19.5778  -26.6417   21.5216 C   0  0  0  0  0  0
  -18.1952  -26.7979   22.1621 C   0  0  0  0  0  0
  -19.1564  -28.8920   23.2840 C   0  0  0  0  0  0
  -18.9478  -30.1511   23.8878 C   0  0  0  0  0  0
  -17.6475  -30.6624   24.0576 C   0  0  0  0  0  0
  -25.9085  -34.9389   23.5048 C   0  0  0  0  0  0
  -16.5363  -29.9120   23.6352 C   0  0  0  0  0  0
  -16.7291  -28.6545   23.0353 C   0  0  0  0  0  0
  -26.4559  -31.6520   25.0670 C   0  0  0  0  0  0
  -25.3731  -31.3729   26.1354 C   0  0  0  0  0  0
  -27.0413  -30.2905   24.6279 C   0  0  0  0  0  0
  -27.6079  -32.4283   25.7477 C   0  0  0  0  0  0
  -27.5581  -37.1779   24.8479 C   0  0  0  0  0  0
  -21.4269  -29.3061   22.3579 N   0  0  0  0  0  0
  -26.4305  -37.3721   23.9399 N   0  0  0  0  0  0
  -24.7289  -31.0168   22.0891 N   0  0  0  0  0  0
  -23.4185  -28.8081   23.3009 O   0  0  0  0  0  0
  -28.2584  -26.0355   20.2727 O   0  0  0  0  0  0
  -26.5674  -34.8894   22.4625 O   0  0  0  0  0  0
  -23.5619  -32.1270   23.7008 O   0  0  0  0  0  0
  -30.8245  -20.5922   21.1708 C   0  0  0  0  0  0
  -31.2738  -18.1417   21.2003 C   0  0  0  0  0  0
  -29.1990  -19.0258   20.3080 C   0  0  0  0  0  0
  -31.6495  -19.4803   21.4780 C   0  0  0  0  0  0
  -29.5527  -20.4741   20.5630 C   0  0  0  0  0  0
  -30.0365  -17.8023   20.6151 C   0  0  0  0  0  0
  -28.9495  -23.2135   20.5329 C   0  0  0  0  0  0
  -32.9842  -19.7420   22.1496 C   0  0  0  0  0  0
  -28.3717  -24.4794   18.3548 C   0  0  0  0  0  0
  -28.0800  -24.5050   19.8665 C   0  0  2  0  0  0
  -28.7805  -21.8022   20.2306 N   0  0  0  0  0  0
  -29.7355  -16.2727   20.4592 N   0  0  0  0  0  0
  -29.7978  -23.5405   21.3659 O   0  0  0  0  0  0
  -31.4672  -12.8376   19.1809 H   0  0  0  0  0  0
  -30.4546  -11.7295   20.0602 H   0  0  0  0  0  0
  -29.8639  -11.7375   17.6105 H   0  0  0  0  0  0
  -29.5939  -13.4608   17.6668 H   0  0  0  0  0  0
  -27.9664  -11.2783   18.9945 H   0  0  0  0  0  0
  -27.3981  -12.4370   17.8189 H   0  0  0  0  0  0
  -27.5622  -14.2531   19.3827 H   0  0  0  0  0  0
  -28.7871  -12.3741   21.4628 H   0  0  0  0  0  0
  -28.3500  -14.0458   21.7329 H   0  0  0  0  0  0
  -25.2780   -9.5684   22.4745 H   0  0  0  0  0  0
  -24.0018   -7.4634   22.7467 H   0  0  0  0  0  0
  -21.0853   -8.8776   19.8951 H   0  0  0  0  0  0
  -22.3711  -10.9673   19.6161 H   0  0  0  0  0  0
  -21.2018   -7.6149   23.9714 H   0  0  0  0  0  0
  -21.1489   -6.0521   25.9076 H   0  0  0  0  0  0
  -22.0598   -2.7610   23.2831 H   0  0  0  0  0  0
  -22.4097  -11.9846   22.4822 H   0  0  0  0  0  0
  -21.1071  -13.1193   22.2665 H   0  0  0  0  0  0
  -24.6281  -15.8399   20.5233 H   0  0  0  0  0  0
  -26.2392  -15.6451   20.0623 H   0  0  0  0  0  0
  -26.7310  -32.5270   23.0924 H   0  0  0  0  0  0
  -25.0078  -33.9547   25.0266 H   0  0  0  0  0  0
  -22.7606  -31.2820   21.3701 H   0  0  0  0  0  0
  -23.3773  -35.9561   23.3301 H   0  0  0  0  0  0
  -24.3578  -36.8863   22.2049 H   0  0  0  0  0  0
  -23.7260  -37.6428   23.6679 H   0  0  0  0  0  0
  -26.1802  -31.4333   20.6100 H   0  0  0  0  0  0
  -26.8888  -30.7455   22.0323 H   0  0  0  0  0  0
  -28.1353  -28.7313   21.2614 H   0  0  0  0  0  0
  -25.8944  -25.8047   19.0189 H   0  0  0  0  0  0
  -23.9929  -27.2851   18.9678 H   0  0  0  0  0  0
  -23.8241  -30.5516   19.3949 H   0  0  0  0  0  0
  -22.7997  -29.2224   19.8434 H   0  0  0  0  0  0
  -25.1337  -36.1820   25.0806 H   0  0  0  0  0  0
  -21.0017  -28.3398   24.1342 H   0  0  0  0  0  0
  -20.5718  -26.2373   23.3634 H   0  0  0  0  0  0
  -21.6659  -26.7497   22.1188 H   0  0  0  0  0  0
  -19.6939  -25.6325   21.1257 H   0  0  0  0  0  0
  -19.6727  -27.3223   20.6746 H   0  0  0  0  0  0
  -17.4217  -26.6710   21.4031 H   0  0  0  0  0  0
  -18.0366  -26.0139   22.9037 H   0  0  0  0  0  0
  -19.7948  -30.7343   24.2227 H   0  0  0  0  0  0
  -17.5027  -31.6301   24.5196 H   0  0  0  0  0  0
  -15.5365  -30.3013   23.7725 H   0  0  0  0  0  0
  -15.8675  -28.0880   22.7065 H   0  0  0  0  0  0
  -24.5952  -30.7012   25.7701 H   0  0  0  0  0  0
  -24.8869  -32.2907   26.4674 H   0  0  0  0  0  0
  -25.8030  -30.8988   27.0184 H   0  0  0  0  0  0
  -26.3032  -29.6621   24.1282 H   0  0  0  0  0  0
  -27.3987  -29.7217   25.4868 H   0  0  0  0  0  0
  -27.8962  -30.4115   23.9625 H   0  0  0  0  0  0
  -27.2673  -33.3616   26.1975 H   0  0  0  0  0  0
  -28.3957  -32.6776   25.0353 H   0  0  0  0  0  0
  -28.0661  -31.8421   26.5454 H   0  0  0  0  0  0
  -28.2622  -38.0053   24.7484 H   0  0  0  0  0  0
  -28.1047  -36.2573   24.6371 H   0  0  0  0  0  0
  -27.2271  -37.1517   25.8875 H   0  0  0  0  0  0
  -20.9496  -29.8696   21.6687 H   0  0  0  0  0  0
  -26.0164  -38.2790   24.1369 H   0  0  0  0  0  0
  -31.2096  -21.5698   21.4175 H   0  0  0  0  0  0
  -31.9584  -17.3512   21.4747 H   0  0  0  0  0  0
  -28.2376  -18.8461   19.8495 H   0  0  0  0  0  0
  -33.6501  -18.8806   22.0823 H   0  0  0  0  0  0
  -32.8385  -19.9712   23.2062 H   0  0  0  0  0  0
  -33.4855  -20.5919   21.6859 H   0  0  0  0  0  0
  -28.2368  -23.4838   17.9318 H   0  0  0  0  0  0
  -29.4057  -24.7697   18.1675 H   0  0  0  0  0  0
  -27.7301  -25.1590   17.7953 H   0  0  0  0  0  0
  -27.0381  -24.2364   20.0400 H   0  0  0  0  0  0
  -27.9865  -21.6579   19.6211 H   0  0  0  0  0  0
  -28.7500  -16.0695   20.4082 H   0  0  0  0  0  0
  1 25  1  0  0  0
  1 30  2  0  0  0
  1 82  1  0  0  0
  2  3  1  0  0  0
  2 25  1  0  0  0
  2 84  1  0  0  0
  2 85  1  0  0  0
  3  4  1  0  0  0
  3 86  1  0  0  0
  3 87  1  0  0  0
  4  5  1  0  0  0
  4 88  1  0  0  0
  4 89  1  0  0  0
  5  6  1  0  0  0
  5 26  1  0  0  0
  5 90  1  0  0  0
  6 25  1  0  0  0
  6 91  1  0  0  0
  6 92  1  0  0  0
  7  8  2  0  0  0
  7 26  1  0  0  0
  7 29  1  0  0  0
  8  9  1  0  0  0
  8 22  1  0  0  0
  9 10  1  0  0  0
  9 27  2  0  0  0
 10 11  2  0  0  0
 10 15  1  0  0  0
 11 12  1  0  0  0
 11 93  1  0  0  0
 12 13  2  0  0  0
 12 94  1  0  0  0
 13 14  1  0  0  0
 13 31  1  0  0  0
 14 15  2  0  0  0
 14 95  1  0  0  0
 15 96  1  0  0  0
 16 17  2  0  0  0
 16 21  1  0  0  0
 16 31  1  0  0  0
 17 18  1  0  0  0
 17 97  1  0  0  0
 18 19  2  0  0  0
 18 98  1  0  0  0
 19 20  1  0  0  0
 19 24  1  0  0  0
 20 21  2  0  0  0
 20 99  1  0  0  0
 21 23  1  0  0  0
 22 28  1  0  0  0
 22 32  2  0  0  0
 26 27  1  0  0  0
 28100  1  0  0  0
 28101  1  0  0  0
 29102  1  0  0  0
 29103  1  0  0  0
 33 34  1  0  0  0
 33 66  1  0  0  0
 33 70  2  0  0  0
 34 36  1  0  0  0
 34 59  1  0  0  0
 34104  1  0  0  0
 35 44  2  0  0  0
 35 45  1  0  0  0
 35 68  1  0  0  0
 36 56  1  0  0  0
 36105  1  0  0  0
 37 39  1  0  0  0
 37 47  1  0  0  0
 37 66  1  0  0  0
 37106  1  0  0  0
 38 43  2  0  0  0
 38 46  1  0  0  0
 38 47  1  0  0  0
 39 64  1  0  0  0
 39 67  2  0  0  0
 40 52  1  0  0  0
 40 53  2  0  0  0
 40 58  1  0  0  0
 41107  1  0  0  0
 41108  1  0  0  0
 41109  1  0  0  0
 41 48  1  0  0  0
 42 43  1  0  0  0
 42 66  1  0  0  0
 42110  1  0  0  0
 42111  1  0  0  0
 43 44  1  0  0  0
 44112  1  0  0  0
 45 46  2  0  0  0
 45113  1  0  0  0
 46114  1  0  0  0
 47115  1  0  0  0
 47116  1  0  0  0
 48 56  1  0  0  0
 48 65  1  0  0  0
 48117  1  0  0  0
 49 50  1  0  0  0
 49 53  1  0  0  0
 49 64  1  0  0  0
 49118  1  0  0  0
 50 51  1  0  0  0
 50119  1  0  0  0
 50120  1  0  0  0
 51 52  1  0  0  0
 51121  1  0  0  0
 51122  1  0  0  0
 52123  1  0  0  0
 52124  1  0  0  0
 53 54  1  0  0  0
 54 55  2  0  0  0
 54125  1  0  0  0
 55 57  1  0  0  0
 55126  1  0  0  0
 56 69  2  0  0  0
 57 58  2  0  0  0
 57127  1  0  0  0
 58128  1  0  0  0
 59 60  1  0  0  0
 59 61  1  0  0  0
 59 62  1  0  0  0
 60129  1  0  0  0
 60130  1  0  0  0
 60131  1  0  0  0
 61132  1  0  0  0
 61133  1  0  0  0
 61134  1  0  0  0
 62135  1  0  0  0
 62136  1  0  0  0
 62137  1  0  0  0
 63 65  1  0  0  0
 63138  1  0  0  0
 63139  1  0  0  0
 63140  1  0  0  0
 64141  1  0  0  0
 65142  1  0  0  0
 68 80  1  0  0  0
 71 74  2  0  0  0
 71 75  1  0  0  0
 71143  1  0  0  0
 72 74  1  0  0  0
 72 76  2  0  0  0
 72144  1  0  0  0
 73 75  2  0  0  0
 73 76  1  0  0  0
 73145  1  0  0  0
 74 78  1  0  0  0
 75 81  1  0  0  0
 76 82  1  0  0  0
 77 80  1  0  0  0
 77 81  1  0  0  0
 77 83  2  0  0  0
 78146  1  0  0  0
 78147  1  0  0  0
 78148  1  0  0  0
 79149  1  0  0  0
 79150  1  0  0  0
 79151  1  0  0  0
 79 80  1  0  0  0
 80152  1  0  0  0
 81153  1  0  0  0
 82154  1  0  0  0
M  ISO  4   1 100  68 101  80 101  82 100
M  END
> <chiral flag>
0

> <version>
0

> <s_m_source_file>
/data/baiqing/PycharmProjects/Reinvent-master-3.2/result/LINK_invent/BTK/process_docking_weight1_custom_product_contain_oxygen_bond_distance_aromatic_linkinvent_7_9_3/rearranged_h_0067.sdf

> <i_m_source_file_index>
79

> <r_mmod_Potential_Energy-OPLS-2005>
665.603576660156

> <r_mmod_Stretch_Energy-OPLS-2005>
350.929382324219

> <r_mmod_Bend_Energy-OPLS-2005>
277.845489501953

> <r_mmod_Torsional_Energy-OPLS-2005>
229.115417480469

> <r_mmod_Improper_Torsional_Energy-OPLS-2005>
6.19788551330566

> <r_mmod_Van_der_Waal_Energy-OPLS-2005>
131.23323059082

> <r_mmod_Electrostatic_Energy-OPLS-2005>
-355.602935791016

> <r_mmod_Solvation_Energy-OPLS-2005>
-243.384201049805

> <b_mmod_Minimization_Converged-OPLS-2005>
0

> <r_mmod_RMS_Derivative-OPLS-2005>
2.24184608459473

$$$$
79
                    3D
 Structure written by MMmdl.
152160  0  0  1  0            999 V2000
  -30.6138  -14.7511   20.4676 C   0  0  0  0  0  0
  -30.4221  -12.4593   19.4904 C   0  0  0  0  0  0
  -29.5103  -12.5165   18.2457 C   0  0  0  0  0  0
  -28.0337  -12.3418   18.6500 C   0  0  0  0  0  0
  -27.6363  -13.2364   19.8554 C   0  0  2  0  0  0
  -28.6764  -13.1754   20.9956 C   0  0  0  0  0  0
  -25.2470  -13.8195   20.5696 C   0  0  0  0  0  0
  -24.1772  -13.0445   20.9218 C   0  0  0  0  0  0
  -24.6360  -11.6923   20.8729 C   0  0  0  0  0  0
  -23.9029  -10.4307   21.0395 C   0  0  0  0  0  0
  -24.3589   -9.4228   21.9177 C   0  0  0  0  0  0
  -23.6288   -8.2246   22.0739 C   0  0  0  0  0  0
  -22.4275   -8.0269   21.3526 C   0  0  0  0  0  0
  -21.9903   -9.0233   20.4629 C   0  0  0  0  0  0
  -22.7202  -10.2134   20.3046 C   0  0  0  0  0  0
  -21.6862   -6.0729   22.5272 C   0  0  0  0  0  0
  -21.4020   -6.5630   23.8204 C   0  0  0  0  0  0
  -21.3662   -5.6779   24.9164 C   0  0  0  0  0  0
  -21.6051   -4.3043   24.7219 C   0  0  0  0  0  0
  -21.8817   -3.8136   23.4342 C   0  0  0  0  0  0
  -21.9195   -4.6956   22.3400 C   0  0  0  0  0  0
  -22.7803  -13.5235   21.1876 C   0  0  0  0  0  0
  -22.1668   -4.2144   21.0979 F   0  0  0  0  0  0
  -21.5627   -3.4527   25.7730 F   0  0  0  0  0  0
  -29.9779  -13.5285   20.4178 N   0  0  0  0  0  0
  -26.2889  -12.9412   20.3279 N   0  0  0  0  0  0
  -25.9294  -11.6554   20.5752 N   0  0  0  0  0  0
  -22.0446  -12.8202   22.0423 N   0  0  0  0  0  0
  -25.4158  -15.1928   20.4080 N   0  0  0  0  0  0
  -31.8043  -14.7988   20.1509 O   0  0  0  0  0  0
  -21.6645   -6.8867   21.4232 O   0  0  0  0  0  0
  -22.3496  -14.5554   20.6738 O   0  0  0  0  0  0
  -24.6305  -31.8519   23.1923 C   0  0  0  0  0  0
  -25.9129  -32.4728   23.8277 C   0  0  1  0  0  0
  -27.2179  -27.2478   20.1205 C   0  0  0  0  0  0
  -25.5923  -33.8531   24.2214 N   0  0  0  0  0  0
  -23.4279  -30.4741   21.5350 C   0  0  2  0  0  0
  -24.8719  -28.9146   20.1024 C   0  0  0  0  0  0
  -22.7493  -29.4588   22.4860 C   0  0  0  0  0  0
  -18.0296  -28.1376   22.8490 C   0  0  0  0  0  0
  -24.1497  -36.7279   23.2646 C   0  0  0  0  0  0
  -25.9736  -30.7581   21.3746 C   0  0  0  0  0  0
  -26.0417  -29.3800   20.7157 C   0  0  0  0  0  0
  -27.2096  -28.5547   20.7188 C   0  0  0  0  0  0
  -26.0240  -26.8454   19.4828 C   0  0  0  0  0  0
  -24.8689  -27.6565   19.4765 C   0  0  0  0  0  0
  -23.6461  -29.8078   20.1496 C   0  0  0  0  0  0
  -25.4117  -36.3060   24.0336 C   0  0  1  0  0  0
  -20.5905  -28.3687   23.1262 C   0  0  2  0  0  0
  -20.6788  -26.9399   22.5412 C   0  0  0  0  0  0
  -19.5776  -26.6377   21.5201 C   0  0  0  0  0  0
  -18.1950  -26.7931   22.1608 C   0  0  0  0  0  0
  -19.1556  -28.8847   23.2881 C   0  0  0  0  0  0
  -18.9484  -30.1450   23.8892 C   0  0  0  0  0  0
  -17.6491  -30.6593   24.0562 C   0  0  0  0  0  0
  -25.9073  -34.9432   23.5090 C   0  0  0  0  0  0
  -16.5376  -29.9097   23.6318 C   0  0  0  0  0  0
  -16.7285  -28.6503   23.0351 C   0  0  0  0  0  0
  -26.4496  -31.6559   25.0678 C   0  0  0  0  0  0
  -25.3726  -31.3728   26.1399 C   0  0  0  0  0  0
  -27.0330  -30.2968   24.6177 C   0  0  0  0  0  0
  -27.6046  -32.4282   25.7480 C   0  0  0  0  0  0
  -27.5573  -37.1790   24.8474 C   0  0  0  0  0  0
  -21.4195  -29.3030   22.3625 N   0  0  0  0  0  0
  -26.4283  -37.3753   23.9426 N   0  0  0  0  0  0
  -24.6967  -31.0472   22.0904 N   0  0  0  0  0  0
  -23.4195  -28.8123   23.2949 O   0  0  0  0  0  0
  -28.3331  -26.3827   20.2148 O   0  0  0  0  0  0
  -26.5657  -34.8918   22.4671 O   0  0  0  0  0  0
  -23.5452  -32.1339   23.7215 O   0  0  0  0  0  0
  -31.5131  -17.7574   20.1458 C   0  0  0  0  0  0
  -31.8688  -19.1049   19.9432 C   0  0  0  0  0  0
  -29.2521  -18.4789   20.6374 C   0  0  0  0  0  0
  -29.5983  -19.8930   20.4440 C   0  0  0  0  0  0
  -30.1945  -17.3672   20.4943 C   0  0  0  0  0  0
  -30.9400  -20.1523   20.0836 C   0  0  0  0  0  0
  -28.6666  -21.1100   20.6566 C   0  0  0  0  0  0
  -28.1070  -23.6945   20.3964 C   0  0  0  0  0  0
  -28.4541  -25.0260   19.5629 C   0  0  0  0  0  0
  -29.8621  -15.9123   20.6799 N   0  0  0  0  0  0
  -28.8693  -22.4110   20.1674 N   0  0  0  0  0  0
  -27.5805  -20.8938   21.4104 N   0  3  0  0  0  0
  -27.1621  -23.7043   21.1933 O   0  0  0  0  0  0
  -31.3597  -21.4237   19.8614 F   0  0  0  0  0  0
  -31.4659  -12.5731   19.1930 H   0  0  0  0  0  0
  -30.3558  -11.4841   19.9752 H   0  0  0  0  0  0
  -29.7990  -11.7453   17.5299 H   0  0  0  0  0  0
  -29.6432  -13.4729   17.7350 H   0  0  0  0  0  0
  -27.8830  -11.2904   18.9009 H   0  0  0  0  0  0
  -27.3823  -12.5473   17.7992 H   0  0  0  0  0  0
  -27.6291  -14.2600   19.4803 H   0  0  0  0  0  0
  -28.7083  -12.1798   21.4402 H   0  0  0  0  0  0
  -28.4049  -13.8582   21.8026 H   0  0  0  0  0  0
  -25.2731   -9.5726   22.4753 H   0  0  0  0  0  0
  -24.0007   -7.4647   22.7465 H   0  0  0  0  0  0
  -21.0830   -8.8732   19.8936 H   0  0  0  0  0  0
  -22.3634  -10.9661   19.6159 H   0  0  0  0  0  0
  -21.2010   -7.6139   23.9705 H   0  0  0  0  0  0
  -21.1492   -6.0510   25.9066 H   0  0  0  0  0  0
  -22.0600   -2.7601   23.2835 H   0  0  0  0  0  0
  -22.4069  -11.9865   22.4802 H   0  0  0  0  0  0
  -21.1065  -13.1223   22.2635 H   0  0  0  0  0  0
  -24.6361  -15.8371   20.4839 H   0  0  0  0  0  0
  -26.2440  -15.6190   20.0123 H   0  0  0  0  0  0
  -26.7170  -32.5372   23.0983 H   0  0  0  0  0  0
  -25.0027  -33.9641   25.0333 H   0  0  0  0  0  0
  -22.7287  -31.2986   21.3851 H   0  0  0  0  0  0
  -23.3756  -35.9612   23.3310 H   0  0  0  0  0  0
  -24.3584  -36.8901   22.2062 H   0  0  0  0  0  0
  -23.7264  -37.6485   23.6665 H   0  0  0  0  0  0
  -26.1198  -31.5137   20.6016 H   0  0  0  0  0  0
  -26.8509  -30.8042   22.0095 H   0  0  0  0  0  0
  -28.1043  -28.8981   21.2188 H   0  0  0  0  0  0
  -25.9464  -25.8757   19.0151 H   0  0  0  0  0  0
  -23.9709  -27.2972   18.9927 H   0  0  0  0  0  0
  -23.7771  -30.5854   19.3965 H   0  0  0  0  0  0
  -22.7629  -29.2484   19.8339 H   0  0  0  0  0  0
  -25.1299  -36.1889   25.0823 H   0  0  0  0  0  0
  -21.0004  -28.3265   24.1378 H   0  0  0  0  0  0
  -20.5661  -26.2280   23.3600 H   0  0  0  0  0  0
  -21.6654  -26.7406   22.1208 H   0  0  0  0  0  0
  -19.6938  -25.6278   21.1241 H   0  0  0  0  0  0
  -19.6743  -27.3181   20.6727 H   0  0  0  0  0  0
  -17.4211  -26.6656   21.4027 H   0  0  0  0  0  0
  -18.0357  -26.0087   22.9011 H   0  0  0  0  0  0
  -19.7967  -30.7254   24.2264 H   0  0  0  0  0  0
  -17.5062  -31.6281   24.5153 H   0  0  0  0  0  0
  -15.5384  -30.3017   23.7654 H   0  0  0  0  0  0
  -15.8676  -28.0828   22.7087 H   0  0  0  0  0  0
  -24.5987  -30.6938   25.7792 H   0  0  0  0  0  0
  -24.8817  -32.2896   26.4675 H   0  0  0  0  0  0
  -25.8080  -30.9076   27.0257 H   0  0  0  0  0  0
  -26.2895  -29.6731   24.1189 H   0  0  0  0  0  0
  -27.4009  -29.7201   25.4680 H   0  0  0  0  0  0
  -27.8786  -30.4234   23.9407 H   0  0  0  0  0  0
  -27.2660  -33.3635   26.1929 H   0  0  0  0  0  0
  -28.3945  -32.6729   25.0374 H   0  0  0  0  0  0
  -28.0590  -31.8470   26.5510 H   0  0  0  0  0  0
  -28.2576  -38.0092   24.7506 H   0  0  0  0  0  0
  -28.1081  -36.2624   24.6317 H   0  0  0  0  0  0
  -27.2294  -37.1467   25.8873 H   0  0  0  0  0  0
  -20.9337  -29.8796   21.6890 H   0  0  0  0  0  0
  -26.0168  -38.2833   24.1405 H   0  0  0  0  0  0
  -32.3095  -17.0464   20.0112 H   0  0  0  0  0  0
  -32.8878  -19.3380   19.6715 H   0  0  0  0  0  0
  -28.2341  -18.2398   20.9074 H   0  0  0  0  0  0
  -27.8974  -25.0002   18.6264 H   0  0  0  0  0  0
  -29.4961  -24.9433   19.2553 H   0  0  0  0  0  0
  -28.9058  -15.7207   20.9351 H   0  0  0  0  0  0
  -29.6914  -22.4153   19.5781 H   0  0  0  0  0  0
  -27.4081  -19.9953   21.8327 H   0  0  0  0  0  0
  -26.9722  -21.6742   21.6236 H   0  0  0  0  0  0
  1 25  1  0  0  0
  1 30  2  0  0  0
  1 80  1  0  0  0
  2  3  1  0  0  0
  2 25  1  0  0  0
  2 85  1  0  0  0
  2 86  1  0  0  0
  3  4  1  0  0  0
  3 87  1  0  0  0
  3 88  1  0  0  0
  4  5  1  0  0  0
  4 89  1  0  0  0
  4 90  1  0  0  0
  5  6  1  0  0  0
  5 26  1  0  0  0
  5 91  1  0  0  0
  6 25  1  0  0  0
  6 92  1  0  0  0
  6 93  1  0  0  0
  7  8  2  0  0  0
  7 26  1  0  0  0
  7 29  1  0  0  0
  8  9  1  0  0  0
  8 22  1  0  0  0
  9 10  1  0  0  0
  9 27  2  0  0  0
 10 11  2  0  0  0
 10 15  1  0  0  0
 11 12  1  0  0  0
 11 94  1  0  0  0
 12 13  2  0  0  0
 12 95  1  0  0  0
 13 14  1  0  0  0
 13 31  1  0  0  0
 14 15  2  0  0  0
 14 96  1  0  0  0
 15 97  1  0  0  0
 16 17  2  0  0  0
 16 21  1  0  0  0
 16 31  1  0  0  0
 17 18  1  0  0  0
 17 98  1  0  0  0
 18 19  2  0  0  0
 18 99  1  0  0  0
 19 20  1  0  0  0
 19 24  1  0  0  0
 20 21  2  0  0  0
 20100  1  0  0  0
 21 23  1  0  0  0
 22 28  1  0  0  0
 22 32  2  0  0  0
 26 27  1  0  0  0
 28101  1  0  0  0
 28102  1  0  0  0
 29103  1  0  0  0
 29104  1  0  0  0
 33 34  1  0  0  0
 33 66  1  0  0  0
 33 70  2  0  0  0
 34 36  1  0  0  0
 34 59  1  0  0  0
 34105  1  0  0  0
 35 44  2  0  0  0
 35 45  1  0  0  0
 35 68  1  0  0  0
 36 56  1  0  0  0
 36106  1  0  0  0
 37 39  1  0  0  0
 37 47  1  0  0  0
 37 66  1  0  0  0
 37107  1  0  0  0
 38 43  2  0  0  0
 38 46  1  0  0  0
 38 47  1  0  0  0
 39 64  1  0  0  0
 39 67  2  0  0  0
 40 52  1  0  0  0
 40 53  2  0  0  0
 40 58  1  0  0  0
 41108  1  0  0  0
 41109  1  0  0  0
 41110  1  0  0  0
 41 48  1  0  0  0
 42 43  1  0  0  0
 42 66  1  0  0  0
 42111  1  0  0  0
 42112  1  0  0  0
 43 44  1  0  0  0
 44113  1  0  0  0
 45 46  2  0  0  0
 45114  1  0  0  0
 46115  1  0  0  0
 47116  1  0  0  0
 47117  1  0  0  0
 48 56  1  0  0  0
 48 65  1  0  0  0
 48118  1  0  0  0
 49 50  1  0  0  0
 49 53  1  0  0  0
 49 64  1  0  0  0
 49119  1  0  0  0
 50 51  1  0  0  0
 50120  1  0  0  0
 50121  1  0  0  0
 51 52  1  0  0  0
 51122  1  0  0  0
 51123  1  0  0  0
 52124  1  0  0  0
 52125  1  0  0  0
 53 54  1  0  0  0
 54 55  2  0  0  0
 54126  1  0  0  0
 55 57  1  0  0  0
 55127  1  0  0  0
 56 69  2  0  0  0
 57 58  2  0  0  0
 57128  1  0  0  0
 58129  1  0  0  0
 59 60  1  0  0  0
 59 61  1  0  0  0
 59 62  1  0  0  0
 60130  1  0  0  0
 60131  1  0  0  0
 60132  1  0  0  0
 61133  1  0  0  0
 61134  1  0  0  0
 61135  1  0  0  0
 62136  1  0  0  0
 62137  1  0  0  0
 62138  1  0  0  0
 63 65  1  0  0  0
 63139  1  0  0  0
 63140  1  0  0  0
 63141  1  0  0  0
 64142  1  0  0  0
 65143  1  0  0  0
 68 79  1  0  0  0
 71 72  2  0  0  0
 71 75  1  0  0  0
 71144  1  0  0  0
 72 76  1  0  0  0
 72145  1  0  0  0
 73 74  1  0  0  0
 73 75  2  0  0  0
 73146  1  0  0  0
 74 76  2  0  0  0
 74 77  1  0  0  0
 75 80  1  0  0  0
 76 84  1  0  0  0
 77 81  1  0  0  0
 77 82  2  0  0  0
 78 79  1  0  0  0
 78 81  1  0  0  0
 78 83  2  0  0  0
 79147  1  0  0  0
 79148  1  0  0  0
 80149  1  0  0  0
 81150  1  0  0  0
 82151  1  0  0  0
 82152  1  0  0  0
M  CHG  1  82   1
M  ISO  4   1 100  68 101  79 101  80 100
M  END
> <chiral flag>
0

> <version>
0

> <s_m_source_file>
/data/baiqing/PycharmProjects/Reinvent-master-3.2/result/LINK_invent/BTK/process_docking_weight1_custom_product_contain_oxygen_bond_distance_aromatic_linkinvent_7_9_3/rearranged_h_0067.sdf

> <i_m_source_file_index>
80

> <r_mmod_Potential_Energy-OPLS-2005>
-125.45532989502

> <r_mmod_Stretch_Energy-OPLS-2005>
141.292358398438

> <r_mmod_Bend_Energy-OPLS-2005>
187.148880004883

> <r_mmod_Torsional_Energy-OPLS-2005>
202.154312133789

> <r_mmod_Improper_Torsional_Energy-OPLS-2005>
5.26663637161255

> <r_mmod_Van_der_Waal_Energy-OPLS-2005>
153.80500793457

> <r_mmod_Electrostatic_Energy-OPLS-2005>
-445.784912109375

> <r_mmod_Solvation_Energy-OPLS-2005>
-457.751098632812

> <b_mmod_Minimization_Converged-OPLS-2005>
0

> <r_mmod_RMS_Derivative-OPLS-2005>
2.87437605857849

$$$$
80
                    3D
 Structure written by MMmdl.
167175  0  0  1  0            999 V2000
  -30.7255  -14.4977   20.5279 C   0  0  0  0  0  0
  -30.4067  -12.3071   19.4510 C   0  0  0  0  0  0
  -29.4963  -12.4897   18.2203 C   0  0  0  0  0  0
  -28.0183  -12.3556   18.6299 C   0  0  0  0  0  0
  -27.6552  -13.2170   19.8710 C   0  0  2  0  0  0
  -28.6969  -13.0569   21.0023 C   0  0  0  0  0  0
  -25.2549  -13.8180   20.5680 C   0  0  0  0  0  0
  -24.1809  -13.0439   20.9164 C   0  0  0  0  0  0
  -24.6379  -11.6913   20.8718 C   0  0  0  0  0  0
  -23.9050  -10.4284   21.0378 C   0  0  0  0  0  0
  -24.3605   -9.4201   21.9156 C   0  0  0  0  0  0
  -23.6275   -8.2245   22.0747 C   0  0  0  0  0  0
  -22.4253   -8.0280   21.3540 C   0  0  0  0  0  0
  -21.9874   -9.0246   20.4645 C   0  0  0  0  0  0
  -22.7209  -10.2125   20.3039 C   0  0  0  0  0  0
  -21.6855   -6.0709   22.5261 C   0  0  0  0  0  0
  -21.4027   -6.5625   23.8190 C   0  0  0  0  0  0
  -21.3662   -5.6778   24.9154 C   0  0  0  0  0  0
  -21.6049   -4.3041   24.7212 C   0  0  0  0  0  0
  -21.8826   -3.8121   23.4339 C   0  0  0  0  0  0
  -21.9196   -4.6933   22.3389 C   0  0  0  0  0  0
  -22.7831  -13.5223   21.1824 C   0  0  0  0  0  0
  -22.1658   -4.2119   21.0969 F   0  0  0  0  0  0
  -21.5624   -3.4533   25.7726 F   0  0  0  0  0  0
  -30.0263  -13.3324   20.4389 N   0  0  0  0  0  0
  -26.2987  -12.9371   20.3357 N   0  0  0  0  0  0
  -25.9313  -11.6527   20.5775 N   0  0  0  0  0  0
  -22.0483  -12.8236   22.0408 N   0  0  0  0  0  0
  -25.4273  -15.1908   20.4097 N   0  0  0  0  0  0
  -31.8731  -14.5770   20.0876 O   0  0  0  0  0  0
  -21.6648   -6.8854   21.4223 O   0  0  0  0  0  0
  -22.3504  -14.5513   20.6652 O   0  0  0  0  0  0
  -24.6160  -31.8673   23.2102 C   0  0  0  0  0  0
  -25.9049  -32.4819   23.8407 C   0  0  1  0  0  0
  -27.2206  -27.4237   20.1009 C   0  0  0  0  0  0
  -25.5909  -33.8616   24.2346 N   0  0  0  0  0  0
  -23.4055  -30.4916   21.5496 C   0  0  2  0  0  0
  -24.8528  -28.9656   20.1039 C   0  0  0  0  0  0
  -22.7428  -29.4642   22.4950 C   0  0  0  0  0  0
  -18.0287  -28.1369   22.8480 C   0  0  0  0  0  0
  -24.1484  -36.7310   23.2633 C   0  0  0  0  0  0
  -25.9362  -30.8310   21.3666 C   0  0  0  0  0  0
  -26.0145  -29.4678   20.7068 C   0  0  0  0  0  0
  -27.2065  -28.7040   20.7036 C   0  0  0  0  0  0
  -26.0518  -26.9475   19.4725 C   0  0  0  0  0  0
  -24.8680  -27.7071   19.4786 C   0  0  0  0  0  0
  -23.6156  -29.8335   20.1598 C   0  0  0  0  0  0
  -25.4096  -36.3106   24.0347 C   0  0  1  0  0  0
  -20.5876  -28.3655   23.1306 C   0  0  2  0  0  0
  -20.6771  -26.9385   22.5417 C   0  0  0  0  0  0
  -19.5755  -26.6372   21.5204 C   0  0  0  0  0  0
  -18.1933  -26.7918   22.1614 C   0  0  0  0  0  0
  -19.1535  -28.8832   23.2892 C   0  0  0  0  0  0
  -18.9461  -30.1429   23.8915 C   0  0  0  0  0  0
  -17.6462  -30.6566   24.0569 C   0  0  0  0  0  0
  -25.9030  -34.9474   23.5137 C   0  0  0  0  0  0
  -16.5359  -29.9068   23.6317 C   0  0  0  0  0  0
  -16.7274  -28.6490   23.0335 C   0  0  0  0  0  0
  -26.4467  -31.6587   25.0727 C   0  0  0  0  0  0
  -25.3747  -31.3729   26.1496 C   0  0  0  0  0  0
  -27.0258  -30.3017   24.6093 C   0  0  0  0  0  0
  -27.6089  -32.4270   25.7459 C   0  0  0  0  0  0
  -27.5588  -37.1788   24.8451 C   0  0  0  0  0  0
  -21.4153  -29.3013   22.3700 N   0  0  0  0  0  0
  -26.4278  -37.3794   23.9429 N   0  0  0  0  0  0
  -24.6703  -31.0770   22.1009 N   0  0  0  0  0  0
  -23.4204  -28.8172   23.2984 O   0  0  0  0  0  0
  -28.3157  -26.5922   20.1745 O   0  0  0  0  0  0
  -26.5582  -34.8921   22.4693 O   0  0  0  0  0  0
  -23.5346  -32.1432   23.7486 O   0  0  0  0  0  0
  -32.0202  -18.7601   20.2089 C   0  0  0  0  0  0
  -31.0090  -19.7317   20.2575 C   0  0  0  0  0  0
  -31.7267  -17.4129   20.4776 C   0  0  0  0  0  0
  -29.3971  -17.9942   20.8645 C   0  0  0  0  0  0
  -29.6925  -19.3683   20.6138 C   0  0  0  0  0  0
  -30.4022  -16.9871   20.7686 C   0  0  0  0  0  0
  -28.6743  -20.4366   20.7252 C   0  0  0  0  0  0
  -28.7203  -24.1618   20.7442 C   0  0  0  0  0  0
  -27.8337  -21.9335   25.1557 C   0  0  0  0  0  0
  -26.0219  -21.7556   23.5168 C   0  0  0  0  0  0
  -28.0678  -25.5180   21.1119 C   0  0  0  0  0  0
  -28.0483  -23.0912   22.9824 C   0  0  0  0  0  0
  -28.1611  -22.8745   21.4426 C   0  0  2  0  0  0
  -30.0539  -15.5944   20.9651 N   0  0  0  0  0  0
  -29.0108  -21.6764   21.1495 N   0  0  0  0  0  0
  -27.3973  -20.1806   20.4435 N   0  3  0  0  0  0
  -27.4816  -21.9247   23.7152 N   0  3  0  0  0  0
  -29.6538  -24.1125   19.9362 O   0  0  0  0  0  0
  -31.4556  -12.3643   19.1559 H   0  0  0  0  0  0
  -30.2756  -11.3117   19.8784 H   0  0  0  0  0  0
  -29.7403  -11.7501   17.4565 H   0  0  0  0  0  0
  -29.6724  -13.4680   17.7686 H   0  0  0  0  0  0
  -27.8344  -11.3022   18.8464 H   0  0  0  0  0  0
  -27.3698  -12.6111   17.7915 H   0  0  0  0  0  0
  -27.6836  -14.2565   19.5462 H   0  0  0  0  0  0
  -28.6722  -12.0425   21.4062 H   0  0  0  0  0  0
  -28.4653  -13.7137   21.8425 H   0  0  0  0  0  0
  -25.2758   -9.5669   22.4724 H   0  0  0  0  0  0
  -23.9975   -7.4638   22.7472 H   0  0  0  0  0  0
  -21.0795   -8.8764   19.8958 H   0  0  0  0  0  0
  -22.3659  -10.9656   19.6146 H   0  0  0  0  0  0
  -21.2045   -7.6135   23.9680 H   0  0  0  0  0  0
  -21.1473   -6.0514   25.9052 H   0  0  0  0  0  0
  -22.0612   -2.7577   23.2856 H   0  0  0  0  0  0
  -22.4123  -11.9923   22.4822 H   0  0  0  0  0  0
  -21.1100  -13.1260   22.2612 H   0  0  0  0  0  0
  -24.6571  -15.8450   20.5068 H   0  0  0  0  0  0
  -26.2801  -15.6261   20.0843 H   0  0  0  0  0  0
  -26.7127  -32.5531   23.1179 H   0  0  0  0  0  0
  -25.0069  -33.9785   25.0499 H   0  0  0  0  0  0
  -22.6940  -31.3081   21.4139 H   0  0  0  0  0  0
  -23.3748  -35.9638   23.3269 H   0  0  0  0  0  0
  -24.3597  -36.8948   22.2054 H   0  0  0  0  0  0
  -23.7223  -37.6504   23.6658 H   0  0  0  0  0  0
  -26.0523  -31.5985   20.6004 H   0  0  0  0  0  0
  -26.8228  -30.8836   21.9863 H   0  0  0  0  0  0
  -28.0967  -29.0730   21.1937 H   0  0  0  0  0  0
  -26.0480  -25.9754   18.9994 H   0  0  0  0  0  0
  -23.9773  -27.3191   19.0030 H   0  0  0  0  0  0
  -23.7291  -30.6165   19.4092 H   0  0  0  0  0  0
  -22.7377  -29.2612   19.8559 H   0  0  0  0  0  0
  -25.1256  -36.1972   25.0837 H   0  0  0  0  0  0
  -20.9974  -28.3225   24.1426 H   0  0  0  0  0  0
  -20.5645  -26.2261   23.3600 H   0  0  0  0  0  0
  -21.6646  -26.7402   22.1230 H   0  0  0  0  0  0
  -19.6912  -25.6287   21.1216 H   0  0  0  0  0  0
  -19.6695  -27.3190   20.6742 H   0  0  0  0  0  0
  -17.4196  -26.6658   21.4022 H   0  0  0  0  0  0
  -18.0338  -26.0059   22.9009 H   0  0  0  0  0  0
  -19.7935  -30.7238   24.2299 H   0  0  0  0  0  0
  -17.5013  -31.6247   24.5166 H   0  0  0  0  0  0
  -15.5357  -30.2973   23.7620 H   0  0  0  0  0  0
  -15.8680  -28.0809   22.7034 H   0  0  0  0  0  0
  -24.5880  -30.7109   25.7852 H   0  0  0  0  0  0
  -24.8989  -32.2906   26.4968 H   0  0  0  0  0  0
  -25.8101  -30.8872   27.0237 H   0  0  0  0  0  0
  -26.2775  -29.6798   24.1162 H   0  0  0  0  0  0
  -27.4034  -29.7236   25.4534 H   0  0  0  0  0  0
  -27.8623  -30.4316   23.9224 H   0  0  0  0  0  0
  -27.2770  -33.3575   26.2068 H   0  0  0  0  0  0
  -28.3872  -32.6798   25.0250 H   0  0  0  0  0  0
  -28.0771  -31.8356   26.5334 H   0  0  0  0  0  0
  -28.2573  -38.0121   24.7554 H   0  0  0  0  0  0
  -28.1119  -36.2661   24.6176 H   0  0  0  0  0  0
  -27.2336  -37.1327   25.8861 H   0  0  0  0  0  0
  -20.9298  -29.8761   21.6953 H   0  0  0  0  0  0
  -26.0166  -38.2861   24.1480 H   0  0  0  0  0  0
  -33.0312  -19.0492   19.9602 H   0  0  0  0  0  0
  -31.2649  -20.7566   20.0272 H   0  0  0  0  0  0
  -32.5629  -16.7354   20.4408 H   0  0  0  0  0  0
  -28.3865  -17.7087   21.1255 H   0  0  0  0  0  0
  -27.4768  -21.0275   25.6480 H   0  0  0  0  0  0
  -27.3905  -22.7886   25.6678 H   0  0  0  0  0  0
  -28.9138  -21.9753   25.3006 H   0  0  0  0  0  0
  -25.6680  -20.8440   24.0001 H   0  0  0  0  0  0
  -25.7583  -21.6776   22.4631 H   0  0  0  0  0  0
  -25.4661  -22.5929   23.9409 H   0  0  0  0  0  0
  -28.4510  -25.8307   22.0826 H   0  0  0  0  0  0
  -26.9991  -25.3415   21.2449 H   0  0  0  0  0  0
  -27.4441  -23.9673   23.2229 H   0  0  0  0  0  0
  -29.0448  -23.3056   23.3740 H   0  0  0  0  0  0
  -27.1653  -22.7076   21.0342 H   0  0  0  0  0  0
  -29.1214  -15.4080   21.3006 H   0  0  0  0  0  0
  -30.0082  -21.8468   21.2052 H   0  0  0  0  0  0
  -27.1549  -19.2677   20.0905 H   0  0  0  0  0  0
  -26.7329  -20.9216   20.3062 H   0  0  0  0  0  0
  -27.9255  -21.1006   23.3416 H   0  0  0  0  0  0
  1 25  1  0  0  0
  1 30  2  0  0  0
  1 84  1  0  0  0
  2  3  1  0  0  0
  2 25  1  0  0  0
  2 89  1  0  0  0
  2 90  1  0  0  0
  3  4  1  0  0  0
  3 91  1  0  0  0
  3 92  1  0  0  0
  4  5  1  0  0  0
  4 93  1  0  0  0
  4 94  1  0  0  0
  5  6  1  0  0  0
  5 26  1  0  0  0
  5 95  1  0  0  0
  6 25  1  0  0  0
  6 96  1  0  0  0
  6 97  1  0  0  0
  7  8  2  0  0  0
  7 26  1  0  0  0
  7 29  1  0  0  0
  8  9  1  0  0  0
  8 22  1  0  0  0
  9 10  1  0  0  0
  9 27  2  0  0  0
 10 11  2  0  0  0
 10 15  1  0  0  0
 11 12  1  0  0  0
 11 98  1  0  0  0
 12 13  2  0  0  0
 12 99  1  0  0  0
 13 14  1  0  0  0
 13 31  1  0  0  0
 14 15  2  0  0  0
 14100  1  0  0  0
 15101  1  0  0  0
 16 17  2  0  0  0
 16 21  1  0  0  0
 16 31  1  0  0  0
 17 18  1  0  0  0
 17102  1  0  0  0
 18 19  2  0  0  0
 18103  1  0  0  0
 19 20  1  0  0  0
 19 24  1  0  0  0
 20 21  2  0  0  0
 20104  1  0  0  0
 21 23  1  0  0  0
 22 28  1  0  0  0
 22 32  2  0  0  0
 26 27  1  0  0  0
 28105  1  0  0  0
 28106  1  0  0  0
 29107  1  0  0  0
 29108  1  0  0  0
 33 34  1  0  0  0
 33 66  1  0  0  0
 33 70  2  0  0  0
 34 36  1  0  0  0
 34 59  1  0  0  0
 34109  1  0  0  0
 35 44  2  0  0  0
 35 45  1  0  0  0
 35 68  1  0  0  0
 36 56  1  0  0  0
 36110  1  0  0  0
 37 39  1  0  0  0
 37 47  1  0  0  0
 37 66  1  0  0  0
 37111  1  0  0  0
 38 43  2  0  0  0
 38 46  1  0  0  0
 38 47  1  0  0  0
 39 64  1  0  0  0
 39 67  2  0  0  0
 40 52  1  0  0  0
 40 53  2  0  0  0
 40 58  1  0  0  0
 41112  1  0  0  0
 41113  1  0  0  0
 41114  1  0  0  0
 41 48  1  0  0  0
 42 43  1  0  0  0
 42 66  1  0  0  0
 42115  1  0  0  0
 42116  1  0  0  0
 43 44  1  0  0  0
 44117  1  0  0  0
 45 46  2  0  0  0
 45118  1  0  0  0
 46119  1  0  0  0
 47120  1  0  0  0
 47121  1  0  0  0
 48 56  1  0  0  0
 48 65  1  0  0  0
 48122  1  0  0  0
 49 50  1  0  0  0
 49 53  1  0  0  0
 49 64  1  0  0  0
 49123  1  0  0  0
 50 51  1  0  0  0
 50124  1  0  0  0
 50125  1  0  0  0
 51 52  1  0  0  0
 51126  1  0  0  0
 51127  1  0  0  0
 52128  1  0  0  0
 52129  1  0  0  0
 53 54  1  0  0  0
 54 55  2  0  0  0
 54130  1  0  0  0
 55 57  1  0  0  0
 55131  1  0  0  0
 56 69  2  0  0  0
 57 58  2  0  0  0
 57132  1  0  0  0
 58133  1  0  0  0
 59 60  1  0  0  0
 59 61  1  0  0  0
 59 62  1  0  0  0
 60134  1  0  0  0
 60135  1  0  0  0
 60136  1  0  0  0
 61137  1  0  0  0
 61138  1  0  0  0
 61139  1  0  0  0
 62140  1  0  0  0
 62141  1  0  0  0
 62142  1  0  0  0
 63 65  1  0  0  0
 63143  1  0  0  0
 63144  1  0  0  0
 63145  1  0  0  0
 64146  1  0  0  0
 65147  1  0  0  0
 68 81  1  0  0  0
 71 72  2  0  0  0
 71 73  1  0  0  0
 71148  1  0  0  0
 72 75  1  0  0  0
 72149  1  0  0  0
 73 76  2  0  0  0
 73150  1  0  0  0
 74 75  2  0  0  0
 74 76  1  0  0  0
 74151  1  0  0  0
 75 77  1  0  0  0
 76 84  1  0  0  0
 77 85  1  0  0  0
 77 86  2  0  0  0
 78 81  1  0  0  0
 78 83  1  0  0  0
 78 88  2  0  0  0
 79152  1  0  0  0
 79153  1  0  0  0
 79154  1  0  0  0
 79 87  1  0  0  0
 80 87  1  0  0  0
 80155  1  0  0  0
 80156  1  0  0  0
 80157  1  0  0  0
 81158  1  0  0  0
 81159  1  0  0  0
 82 87  1  0  0  0
 82160  1  0  0  0
 82161  1  0  0  0
 82 83  1  0  0  0
 83 85  1  0  0  0
 83162  1  0  0  0
 84163  1  0  0  0
 85164  1  0  0  0
 86165  1  0  0  0
 86166  1  0  0  0
 87167  1  0  0  0
M  CHG  2  86   1  87   1
M  ISO  4   1 100  68 101  81 101  84 100
M  END
> <chiral flag>
0

> <version>
0

> <s_m_source_file>
/data/baiqing/PycharmProjects/Reinvent-master-3.2/result/LINK_invent/BTK/process_docking_weight1_custom_product_contain_oxygen_bond_distance_aromatic_linkinvent_7_9_3/rearranged_h_0067.sdf

> <i_m_source_file_index>
81

> <r_mmod_Potential_Energy-OPLS-2005>
-412.339752197266

> <r_mmod_Stretch_Energy-OPLS-2005>
48.4049072265625

> <r_mmod_Bend_Energy-OPLS-2005>
106.012222290039

> <r_mmod_Torsional_Energy-OPLS-2005>
268.333618164062

> <r_mmod_Improper_Torsional_Energy-OPLS-2005>
5.16845941543579

> <r_mmod_Van_der_Waal_Energy-OPLS-2005>
159.351760864258

> <r_mmod_Electrostatic_Energy-OPLS-2005>
-30.9433364868164

> <r_mmod_Solvation_Energy-OPLS-2005>
-991.843505859375

> <b_mmod_Minimization_Converged-OPLS-2005>
0

> <r_mmod_RMS_Derivative-OPLS-2005>
2.0450975894928

$$$$
81
                    3D
 Structure written by MMmdl.
154162  0  0  1  0            999 V2000
  -30.6330  -14.7182   20.4443 C   0  0  0  0  0  0
  -30.4264  -12.4324   19.4828 C   0  0  0  0  0  0
  -29.5111  -12.4992   18.2408 C   0  0  0  0  0  0
  -28.0346  -12.3371   18.6496 C   0  0  0  0  0  0
  -27.6432  -13.2357   19.8535 C   0  0  2  0  0  0
  -28.6859  -13.1687   20.9915 C   0  0  0  0  0  0
  -25.2513  -13.8214   20.5710 C   0  0  0  0  0  0
  -24.1806  -13.0451   20.9221 C   0  0  0  0  0  0
  -24.6402  -11.6932   20.8755 C   0  0  0  0  0  0
  -23.9079  -10.4300   21.0410 C   0  0  0  0  0  0
  -24.3626   -9.4210   21.9184 C   0  0  0  0  0  0
  -23.6300   -8.2244   22.0750 C   0  0  0  0  0  0
  -22.4281   -8.0284   21.3542 C   0  0  0  0  0  0
  -21.9917   -9.0262   20.4645 C   0  0  0  0  0  0
  -22.7249  -10.2142   20.3058 C   0  0  0  0  0  0
  -21.6853   -6.0739   22.5279 C   0  0  0  0  0  0
  -21.4017   -6.5641   23.8212 C   0  0  0  0  0  0
  -21.3666   -5.6793   24.9174 C   0  0  0  0  0  0
  -21.6045   -4.3055   24.7227 C   0  0  0  0  0  0
  -21.8816   -3.8148   23.4346 C   0  0  0  0  0  0
  -21.9191   -4.6965   22.3402 C   0  0  0  0  0  0
  -22.7823  -13.5227   21.1879 C   0  0  0  0  0  0
  -22.1657   -4.2148   21.0978 F   0  0  0  0  0  0
  -21.5631   -3.4539   25.7739 F   0  0  0  0  0  0
  -29.9934  -13.5003   20.4136 N   0  0  0  0  0  0
  -26.2944  -12.9432   20.3293 N   0  0  0  0  0  0
  -25.9333  -11.6570   20.5761 N   0  0  0  0  0  0
  -22.0468  -12.8214   22.0433 N   0  0  0  0  0  0
  -25.4197  -15.1937   20.4125 N   0  0  0  0  0  0
  -31.8259  -14.7829   20.1338 O   0  0  0  0  0  0
  -21.6642   -6.8884   21.4241 O   0  0  0  0  0  0
  -22.3504  -14.5527   20.6716 O   0  0  0  0  0  0
  -24.6304  -31.8564   23.1996 C   0  0  0  0  0  0
  -25.9135  -32.4757   23.8341 C   0  0  1  0  0  0
  -27.2175  -27.2713   20.1198 C   0  0  0  0  0  0
  -25.5935  -33.8561   24.2265 N   0  0  0  0  0  0
  -23.4260  -30.4807   21.5435 C   0  0  2  0  0  0
  -24.8722  -28.9325   20.1069 C   0  0  0  0  0  0
  -22.7500  -29.4612   22.4920 C   0  0  0  0  0  0
  -18.0290  -28.1391   22.8490 C   0  0  0  0  0  0
  -24.1482  -36.7284   23.2639 C   0  0  0  0  0  0
  -25.9723  -30.7699   21.3805 C   0  0  0  0  0  0
  -26.0432  -29.3946   20.7209 C   0  0  0  0  0  0
  -27.2167  -28.5751   20.7204 C   0  0  0  0  0  0
  -26.0285  -26.8892   19.4553 C   0  0  0  0  0  0
  -24.8705  -27.6881   19.4623 C   0  0  0  0  0  0
  -23.6420  -29.8165   20.1586 C   0  0  0  0  0  0
  -25.4108  -36.3068   24.0324 C   0  0  1  0  0  0
  -20.5894  -28.3700   23.1270 C   0  0  2  0  0  0
  -20.6772  -26.9418   22.5407 C   0  0  0  0  0  0
  -19.5745  -26.6387   21.5213 C   0  0  0  0  0  0
  -18.1930  -26.7932   22.1632 C   0  0  0  0  0  0
  -19.1544  -28.8863   23.2875 C   0  0  0  0  0  0
  -18.9468  -30.1463   23.8895 C   0  0  0  0  0  0
  -17.6466  -30.6590   24.0568 C   0  0  0  0  0  0
  -25.9055  -34.9439   23.5094 C   0  0  0  0  0  0
  -16.5357  -29.9091   23.6330 C   0  0  0  0  0  0
  -16.7277  -28.6509   23.0354 C   0  0  0  0  0  0
  -26.4492  -31.6587   25.0739 C   0  0  0  0  0  0
  -25.3705  -31.3749   26.1458 C   0  0  0  0  0  0
  -27.0355  -30.3006   24.6238 C   0  0  0  0  0  0
  -27.6042  -32.4339   25.7515 C   0  0  0  0  0  0
  -27.5572  -37.1796   24.8466 C   0  0  0  0  0  0
  -21.4208  -29.3044   22.3661 N   0  0  0  0  0  0
  -26.4282  -37.3766   23.9410 N   0  0  0  0  0  0
  -24.6953  -31.0538   22.0967 N   0  0  0  0  0  0
  -23.4208  -28.8152   23.3011 O   0  0  0  0  0  0
  -28.3096  -26.3747   20.2041 O   0  0  0  0  0  0
  -26.5626  -34.8910   22.4662 O   0  0  0  0  0  0
  -23.5453  -32.1382   23.7292 O   0  0  0  0  0  0
  -30.5492  -19.7994   18.8443 C   0  0  0  0  0  0
  -30.8712  -17.3765   18.9164 C   0  0  0  0  0  0
  -29.5432  -18.4836   20.6385 C   0  0  0  0  0  0
  -29.7537  -19.7929   20.0131 C   0  0  0  0  0  0
  -30.1079  -17.2452   20.1012 C   0  0  0  0  0  0
  -31.0906  -18.6217   18.3049 C   0  0  0  0  0  0
  -29.0274  -22.2914   19.8441 C   0  0  0  0  0  0
  -28.6970  -18.3849   21.8956 C   0  0  0  0  0  0
  -28.9955  -23.7334   20.5387 C   0  0  0  0  0  0
  -28.1100  -24.9174   19.8842 C   0  0  0  0  0  0
  -29.3012  -21.1145   20.5336 N   0  0  0  0  0  0
  -29.8886  -15.8739   20.6465 N   0  0  0  0  0  0
  -28.7831  -22.2530   18.6358 O   0  0  0  0  0  0
  -31.8401  -18.6884   17.1780 F   0  0  0  0  0  0
  -31.4703  -12.5374   19.1831 H   0  0  0  0  0  0
  -30.3539  -11.4570   19.9665 H   0  0  0  0  0  0
  -29.7878  -11.7220   17.5271 H   0  0  0  0  0  0
  -29.6506  -13.4518   17.7273 H   0  0  0  0  0  0
  -27.8805  -11.2887   18.9071 H   0  0  0  0  0  0
  -27.3830  -12.5386   17.7985 H   0  0  0  0  0  0
  -27.6388  -14.2588   19.4760 H   0  0  0  0  0  0
  -28.7103  -12.1751   21.4413 H   0  0  0  0  0  0
  -28.4256  -13.8610   21.7937 H   0  0  0  0  0  0
  -25.2774   -9.5681   22.4761 H   0  0  0  0  0  0
  -24.0009   -7.4634   22.7465 H   0  0  0  0  0  0
  -21.0848   -8.8793   19.8950 H   0  0  0  0  0  0
  -22.3715  -10.9686   19.6169 H   0  0  0  0  0  0
  -21.2010   -7.6147   23.9719 H   0  0  0  0  0  0
  -21.1491   -6.0520   25.9078 H   0  0  0  0  0  0
  -22.0589   -2.7609   23.2845 H   0  0  0  0  0  0
  -22.4089  -11.9888   22.4840 H   0  0  0  0  0  0
  -21.1081  -13.1231   22.2628 H   0  0  0  0  0  0
  -24.6488  -15.8446   20.5164 H   0  0  0  0  0  0
  -26.2616  -15.6320   20.0613 H   0  0  0  0  0  0
  -26.7209  -32.5403   23.1089 H   0  0  0  0  0  0
  -25.0092  -33.9699   25.0418 H   0  0  0  0  0  0
  -22.7217  -31.3027   21.3996 H   0  0  0  0  0  0
  -23.3738  -35.9622   23.3300 H   0  0  0  0  0  0
  -24.3570  -36.8907   22.2053 H   0  0  0  0  0  0
  -23.7238  -37.6485   23.6663 H   0  0  0  0  0  0
  -26.1152  -31.5305   20.6114 H   0  0  0  0  0  0
  -26.8488  -30.8148   22.0157 H   0  0  0  0  0  0
  -28.1103  -28.9215   21.2204 H   0  0  0  0  0  0
  -25.9569  -25.9510   18.9264 H   0  0  0  0  0  0
  -23.9791  -27.3354   18.9616 H   0  0  0  0  0  0
  -23.7619  -30.5928   19.4018 H   0  0  0  0  0  0
  -22.7604  -29.2474   19.8578 H   0  0  0  0  0  0
  -25.1285  -36.1914   25.0817 H   0  0  0  0  0  0
  -20.9993  -28.3279   24.1388 H   0  0  0  0  0  0
  -20.5662  -26.2317   23.3615 H   0  0  0  0  0  0
  -21.6640  -26.7434   22.1209 H   0  0  0  0  0  0
  -19.6898  -25.6295   21.1251 H   0  0  0  0  0  0
  -19.6672  -27.3191   20.6738 H   0  0  0  0  0  0
  -17.4193  -26.6679   21.4042 H   0  0  0  0  0  0
  -18.0333  -26.0076   22.9033 H   0  0  0  0  0  0
  -19.7944  -30.7281   24.2264 H   0  0  0  0  0  0
  -17.5021  -31.6269   24.5173 H   0  0  0  0  0  0
  -15.5357  -30.2994   23.7648 H   0  0  0  0  0  0
  -15.8682  -28.0827   22.7066 H   0  0  0  0  0  0
  -24.5860  -30.7118   25.7789 H   0  0  0  0  0  0
  -24.8912  -32.2927   26.4882 H   0  0  0  0  0  0
  -25.8007  -30.8918   27.0240 H   0  0  0  0  0  0
  -26.2954  -29.6760   24.1227 H   0  0  0  0  0  0
  -27.3999  -29.7269   25.4770 H   0  0  0  0  0  0
  -27.8843  -30.4294   23.9519 H   0  0  0  0  0  0
  -27.2635  -33.3631   26.2096 H   0  0  0  0  0  0
  -28.3854  -32.6917   25.0353 H   0  0  0  0  0  0
  -28.0718  -31.8467   26.5429 H   0  0  0  0  0  0
  -28.2595  -38.0090   24.7505 H   0  0  0  0  0  0
  -28.1063  -36.2620   24.6295 H   0  0  0  0  0  0
  -27.2298  -37.1455   25.8873 H   0  0  0  0  0  0
  -20.9391  -29.8776   21.6876 H   0  0  0  0  0  0
  -26.0159  -38.2843   24.1399 H   0  0  0  0  0  0
  -30.7822  -20.7247   18.3389 H   0  0  0  0  0  0
  -31.3025  -16.5135   18.4328 H   0  0  0  0  0  0
  -28.4623  -19.3597   22.3189 H   0  0  0  0  0  0
  -29.2192  -17.8104   22.6611 H   0  0  0  0  0  0
  -27.7550  -17.8827   21.6736 H   0  0  0  0  0  0
  -30.0317  -24.0706   20.5557 H   0  0  0  0  0  0
  -28.7104  -23.6109   21.5831 H   0  0  0  0  0  0
  -27.0906  -24.6392   20.1486 H   0  0  0  0  0  0
  -28.1705  -24.8366   18.7984 H   0  0  0  0  0  0
  -29.2915  -21.2008   21.5413 H   0  0  0  0  0  0
  -28.9933  -15.7215   21.0861 H   0  0  0  0  0  0
  1 25  1  0  0  0
  1 30  2  0  0  0
  1 82  1  0  0  0
  2  3  1  0  0  0
  2 25  1  0  0  0
  2 85  1  0  0  0
  2 86  1  0  0  0
  3  4  1  0  0  0
  3 87  1  0  0  0
  3 88  1  0  0  0
  4  5  1  0  0  0
  4 89  1  0  0  0
  4 90  1  0  0  0
  5  6  1  0  0  0
  5 26  1  0  0  0
  5 91  1  0  0  0
  6 25  1  0  0  0
  6 92  1  0  0  0
  6 93  1  0  0  0
  7  8  2  0  0  0
  7 26  1  0  0  0
  7 29  1  0  0  0
  8  9  1  0  0  0
  8 22  1  0  0  0
  9 10  1  0  0  0
  9 27  2  0  0  0
 10 11  2  0  0  0
 10 15  1  0  0  0
 11 12  1  0  0  0
 11 94  1  0  0  0
 12 13  2  0  0  0
 12 95  1  0  0  0
 13 14  1  0  0  0
 13 31  1  0  0  0
 14 15  2  0  0  0
 14 96  1  0  0  0
 15 97  1  0  0  0
 16 17  2  0  0  0
 16 21  1  0  0  0
 16 31  1  0  0  0
 17 18  1  0  0  0
 17 98  1  0  0  0
 18 19  2  0  0  0
 18 99  1  0  0  0
 19 20  1  0  0  0
 19 24  1  0  0  0
 20 21  2  0  0  0
 20100  1  0  0  0
 21 23  1  0  0  0
 22 28  1  0  0  0
 22 32  2  0  0  0
 26 27  1  0  0  0
 28101  1  0  0  0
 28102  1  0  0  0
 29103  1  0  0  0
 29104  1  0  0  0
 33 34  1  0  0  0
 33 66  1  0  0  0
 33 70  2  0  0  0
 34 36  1  0  0  0
 34 59  1  0  0  0
 34105  1  0  0  0
 35 44  2  0  0  0
 35 45  1  0  0  0
 35 68  1  0  0  0
 36 56  1  0  0  0
 36106  1  0  0  0
 37 39  1  0  0  0
 37 47  1  0  0  0
 37 66  1  0  0  0
 37107  1  0  0  0
 38 43  2  0  0  0
 38 46  1  0  0  0
 38 47  1  0  0  0
 39 64  1  0  0  0
 39 67  2  0  0  0
 40 52  1  0  0  0
 40 53  2  0  0  0
 40 58  1  0  0  0
 41108  1  0  0  0
 41109  1  0  0  0
 41110  1  0  0  0
 41 48  1  0  0  0
 42 43  1  0  0  0
 42 66  1  0  0  0
 42111  1  0  0  0
 42112  1  0  0  0
 43 44  1  0  0  0
 44113  1  0  0  0
 45 46  2  0  0  0
 45114  1  0  0  0
 46115  1  0  0  0
 47116  1  0  0  0
 47117  1  0  0  0
 48 56  1  0  0  0
 48 65  1  0  0  0
 48118  1  0  0  0
 49 50  1  0  0  0
 49 53  1  0  0  0
 49 64  1  0  0  0
 49119  1  0  0  0
 50 51  1  0  0  0
 50120  1  0  0  0
 50121  1  0  0  0
 51 52  1  0  0  0
 51122  1  0  0  0
 51123  1  0  0  0
 52124  1  0  0  0
 52125  1  0  0  0
 53 54  1  0  0  0
 54 55  2  0  0  0
 54126  1  0  0  0
 55 57  1  0  0  0
 55127  1  0  0  0
 56 69  2  0  0  0
 57 58  2  0  0  0
 57128  1  0  0  0
 58129  1  0  0  0
 59 60  1  0  0  0
 59 61  1  0  0  0
 59 62  1  0  0  0
 60130  1  0  0  0
 60131  1  0  0  0
 60132  1  0  0  0
 61133  1  0  0  0
 61134  1  0  0  0
 61135  1  0  0  0
 62136  1  0  0  0
 62137  1  0  0  0
 62138  1  0  0  0
 63 65  1  0  0  0
 63139  1  0  0  0
 63140  1  0  0  0
 63141  1  0  0  0
 64142  1  0  0  0
 65143  1  0  0  0
 68 80  1  0  0  0
 71 74  2  0  0  0
 71 76  1  0  0  0
 71144  1  0  0  0
 72 75  1  0  0  0
 72 76  2  0  0  0
 72145  1  0  0  0
 73 74  1  0  0  0
 73 75  2  0  0  0
 73 78  1  0  0  0
 74 81  1  0  0  0
 75 82  1  0  0  0
 76 84  1  0  0  0
 77 79  1  0  0  0
 77 81  1  0  0  0
 77 83  2  0  0  0
 78146  1  0  0  0
 78147  1  0  0  0
 78148  1  0  0  0
 79 80  1  0  0  0
 79149  1  0  0  0
 79150  1  0  0  0
 80151  1  0  0  0
 80152  1  0  0  0
 81153  1  0  0  0
 82154  1  0  0  0
M  ISO  4   1 100  68 101  80 101  82 100
M  END
> <chiral flag>
0

> <version>
0

> <s_m_source_file>
/data/baiqing/PycharmProjects/Reinvent-master-3.2/result/LINK_invent/BTK/process_docking_weight1_custom_product_contain_oxygen_bond_distance_aromatic_linkinvent_7_9_3/rearranged_h_0067.sdf

> <i_m_source_file_index>
82

> <r_mmod_Potential_Energy-OPLS-2005>
130.314926147461

> <r_mmod_Stretch_Energy-OPLS-2005>
124.362899780273

> <r_mmod_Bend_Energy-OPLS-2005>
154.269500732422

> <r_mmod_Torsional_Energy-OPLS-2005>
245.425827026367

> <r_mmod_Improper_Torsional_Energy-OPLS-2005>
4.85643911361694

> <r_mmod_Van_der_Waal_Energy-OPLS-2005>
150.748001098633

> <r_mmod_Electrostatic_Energy-OPLS-2005>
-395.913818359375

> <r_mmod_Solvation_Energy-OPLS-2005>
-232.651565551758

> <b_mmod_Minimization_Converged-OPLS-2005>
0

> <r_mmod_RMS_Derivative-OPLS-2005>
0.91378790140152

$$$$
82
                    3D
 Structure written by MMmdl.
169178  0  0  1  0            999 V2000
  -30.5789  -14.6593   20.4934 C   0  0  0  0  0  0
  -30.4423  -12.4014   19.4502 C   0  0  0  0  0  0
  -29.5084  -12.5007   18.2218 C   0  0  0  0  0  0
  -28.0287  -12.3400   18.6300 C   0  0  0  0  0  0
  -27.6499  -13.2053   19.8601 C   0  0  2  0  0  0
  -28.6943  -13.0516   20.9896 C   0  0  0  0  0  0
  -25.2547  -13.8111   20.5623 C   0  0  0  0  0  0
  -24.1823  -13.0405   20.9188 C   0  0  0  0  0  0
  -24.6363  -11.6865   20.8740 C   0  0  0  0  0  0
  -23.9006  -10.4262   21.0383 C   0  0  0  0  0  0
  -24.3574   -9.4191   21.9170 C   0  0  0  0  0  0
  -23.6259   -8.2228   22.0749 C   0  0  0  0  0  0
  -22.4254   -8.0258   21.3525 C   0  0  0  0  0  0
  -21.9845   -9.0222   20.4637 C   0  0  0  0  0  0
  -22.7166  -10.2115   20.3039 C   0  0  0  0  0  0
  -21.6851   -6.0711   22.5258 C   0  0  0  0  0  0
  -21.4018   -6.5617   23.8187 C   0  0  0  0  0  0
  -21.3657   -5.6775   24.9145 C   0  0  0  0  0  0
  -21.6043   -4.3037   24.7209 C   0  0  0  0  0  0
  -21.8835   -3.8113   23.4338 C   0  0  0  0  0  0
  -21.9196   -4.6929   22.3388 C   0  0  0  0  0  0
  -22.7849  -13.5205   21.1856 C   0  0  0  0  0  0
  -22.1674   -4.2092   21.0971 F   0  0  0  0  0  0
  -21.5610   -3.4532   25.7731 F   0  0  0  0  0  0
  -30.0057  -13.4151   20.4294 N   0  0  0  0  0  0
  -26.2958  -12.9257   20.3262 N   0  0  0  0  0  0
  -25.9290  -11.6435   20.5742 N   0  0  0  0  0  0
  -22.0506  -12.8213   22.0440 N   0  0  0  0  0  0
  -25.4323  -15.1791   20.3967 N   0  0  0  0  0  0
  -31.7422  -14.8519   20.1281 O   0  0  0  0  0  0
  -21.6647   -6.8861   21.4226 O   0  0  0  0  0  0
  -22.3504  -14.5496   20.6690 O   0  0  0  0  0  0
  -24.6224  -31.8627   23.2049 C   0  0  0  0  0  0
  -25.9088  -32.4786   23.8371 C   0  0  1  0  0  0
  -27.2091  -27.3333   20.1256 C   0  0  0  0  0  0
  -25.5915  -33.8583   24.2297 N   0  0  0  0  0  0
  -23.4141  -30.4889   21.5466 C   0  0  2  0  0  0
  -24.8575  -28.9463   20.1135 C   0  0  0  0  0  0
  -22.7458  -29.4643   22.4938 C   0  0  0  0  0  0
  -18.0300  -28.1374   22.8478 C   0  0  0  0  0  0
  -24.1475  -36.7281   23.2646 C   0  0  0  0  0  0
  -25.9541  -30.7978   21.3744 C   0  0  0  0  0  0
  -26.0265  -29.4263   20.7189 C   0  0  0  0  0  0
  -27.2074  -28.6300   20.7184 C   0  0  0  0  0  0
  -26.0282  -26.9119   19.4743 C   0  0  0  0  0  0
  -24.8593  -27.6931   19.4817 C   0  0  0  0  0  0
  -23.6270  -29.8278   20.1612 C   0  0  0  0  0  0
  -25.4104  -36.3083   24.0340 C   0  0  1  0  0  0
  -20.5890  -28.3679   23.1279 C   0  0  2  0  0  0
  -20.6768  -26.9400   22.5421 C   0  0  0  0  0  0
  -19.5751  -26.6378   21.5203 C   0  0  0  0  0  0
  -18.1932  -26.7929   22.1613 C   0  0  0  0  0  0
  -19.1552  -28.8840   23.2879 C   0  0  0  0  0  0
  -18.9475  -30.1434   23.8913 C   0  0  0  0  0  0
  -17.6475  -30.6566   24.0574 C   0  0  0  0  0  0
  -25.9044  -34.9448   23.5117 C   0  0  0  0  0  0
  -16.5371  -29.9076   23.6321 C   0  0  0  0  0  0
  -16.7290  -28.6497   23.0337 C   0  0  0  0  0  0
  -26.4475  -31.6592   25.0729 C   0  0  0  0  0  0
  -25.3717  -31.3761   26.1473 C   0  0  0  0  0  0
  -27.0291  -30.3011   24.6168 C   0  0  0  0  0  0
  -27.6056  -32.4317   25.7467 C   0  0  0  0  0  0
  -27.5567  -37.1806   24.8469 C   0  0  0  0  0  0
  -21.4178  -29.3024   22.3660 N   0  0  0  0  0  0
  -26.4284  -37.3772   23.9409 N   0  0  0  0  0  0
  -24.6824  -31.0665   22.0984 N   0  0  0  0  0  0
  -23.4194  -28.8196   23.3025 O   0  0  0  0  0  0
  -28.3162  -26.4827   20.1641 O   0  0  0  0  0  0
  -26.5619  -34.8913   22.4690 O   0  0  0  0  0  0
  -23.5393  -32.1426   23.7397 O   0  0  0  0  0  0
  -28.4543  -17.8133   20.7640 C   0  0  0  0  0  0
  -30.8106  -17.9417   20.3073 C   0  0  0  0  0  0
  -29.4290  -20.0287   20.2183 C   0  0  0  0  0  0
  -29.6932  -17.1265   20.6243 C   0  0  0  0  0  0
  -28.3021  -19.2208   20.5567 C   0  0  0  0  0  0
  -30.6811  -19.3515   20.1088 C   0  0  0  0  0  0
  -29.4050  -21.9892   18.6882 C   0  0  0  0  0  0
  -28.8739  -22.5429   20.8469 C   0  0  0  0  0  0
  -29.0416  -23.4919   18.6395 C   0  0  1  0  0  0
  -29.0786  -23.9293   20.1203 C   0  0  1  0  0  0
  -29.7158  -25.8050   17.6290 C   0  0  0  0  0  0
  -24.3775  -20.5539   21.1386 C   0  0  0  0  0  0
  -29.9435  -24.2854   17.6596 C   0  0  0  0  0  0
  -28.0691  -25.0789   20.5517 C   0  0  0  0  0  0
  -29.3186  -21.4661   19.9250 N   0  0  0  0  0  0
  -29.7111  -15.6723   20.8241 N   0  0  0  0  0  0
  -27.0227  -19.8040   20.6200 N   0  0  0  0  0  0
  -29.7273  -21.3629   17.6731 O   0  0  0  0  0  0
  -25.2868  -18.0433   21.3192 O   0  0  0  0  0  0
  -26.1384  -19.7544   23.0171 O   0  0  0  0  0  0
  -31.7941  -20.0640   19.8053 F   0  0  0  0  0  0
  -25.6943  -19.4133   21.6565 S   0  0  0  0  0  0
  -31.4806  -12.5484   19.1483 H   0  0  0  0  0  0
  -30.3956  -11.4066   19.8946 H   0  0  0  0  0  0
  -29.7727  -11.7393   17.4853 H   0  0  0  0  0  0
  -29.6480  -13.4645   17.7302 H   0  0  0  0  0  0
  -27.8625  -11.2875   18.8572 H   0  0  0  0  0  0
  -27.3765  -12.5767   17.7883 H   0  0  0  0  0  0
  -27.6666  -14.2402   19.5210 H   0  0  0  0  0  0
  -28.7137  -12.0238   21.3531 H   0  0  0  0  0  0
  -28.4354  -13.6629   21.8562 H   0  0  0  0  0  0
  -25.2727   -9.5667   22.4729 H   0  0  0  0  0  0
  -23.9946   -7.4626   22.7481 H   0  0  0  0  0  0
  -21.0760   -8.8739   19.8974 H   0  0  0  0  0  0
  -22.3606  -10.9643   19.6148 H   0  0  0  0  0  0
  -21.2047   -7.6136   23.9658 H   0  0  0  0  0  0
  -21.1454   -6.0519   25.9032 H   0  0  0  0  0  0
  -22.0625   -2.7564   23.2863 H   0  0  0  0  0  0
  -22.4150  -11.9900   22.4847 H   0  0  0  0  0  0
  -21.1105  -13.1204   22.2628 H   0  0  0  0  0  0
  -24.7107  -15.8668   20.5917 H   0  0  0  0  0  0
  -26.2722  -15.6030   20.0253 H   0  0  0  0  0  0
  -26.7152  -32.5457   23.1115 H   0  0  0  0  0  0
  -25.0027  -33.9735   25.0417 H   0  0  0  0  0  0
  -22.7064  -31.3085   21.4080 H   0  0  0  0  0  0
  -23.3714  -35.9641   23.3350 H   0  0  0  0  0  0
  -24.3549  -36.8846   22.2049 H   0  0  0  0  0  0
  -23.7251  -37.6511   23.6627 H   0  0  0  0  0  0
  -26.0836  -31.5584   20.6038 H   0  0  0  0  0  0
  -26.8348  -30.8466   22.0025 H   0  0  0  0  0  0
  -28.1013  -28.9903   21.2085 H   0  0  0  0  0  0
  -25.9892  -25.9658   18.9541 H   0  0  0  0  0  0
  -23.9663  -27.3229   18.9954 H   0  0  0  0  0  0
  -23.7533  -30.6062   19.4089 H   0  0  0  0  0  0
  -22.7441  -29.2659   19.8520 H   0  0  0  0  0  0
  -25.1276  -36.1943   25.0836 H   0  0  0  0  0  0
  -21.0004  -28.3267   24.1388 H   0  0  0  0  0  0
  -20.5616  -26.2306   23.3626 H   0  0  0  0  0  0
  -21.6644  -26.7382   22.1250 H   0  0  0  0  0  0
  -19.6914  -25.6297   21.1200 H   0  0  0  0  0  0
  -19.6681  -27.3202   20.6740 H   0  0  0  0  0  0
  -17.4199  -26.6668   21.4017 H   0  0  0  0  0  0
  -18.0338  -26.0068   22.9002 H   0  0  0  0  0  0
  -19.7947  -30.7233   24.2305 H   0  0  0  0  0  0
  -17.5030  -31.6236   24.5204 H   0  0  0  0  0  0
  -15.5372  -30.2979   23.7643 H   0  0  0  0  0  0
  -15.8688  -28.0821   22.7041 H   0  0  0  0  0  0
  -24.5893  -30.7091   25.7831 H   0  0  0  0  0  0
  -24.8906  -32.2941   26.4872 H   0  0  0  0  0  0
  -25.8057  -30.8971   27.0259 H   0  0  0  0  0  0
  -26.2849  -29.6775   24.1198 H   0  0  0  0  0  0
  -27.3991  -29.7265   25.4669 H   0  0  0  0  0  0
  -27.8722  -30.4285   23.9374 H   0  0  0  0  0  0
  -27.2688  -33.3616   26.2064 H   0  0  0  0  0  0
  -28.3844  -32.6878   25.0269 H   0  0  0  0  0  0
  -28.0740  -31.8426   26.5361 H   0  0  0  0  0  0
  -28.2640  -38.0046   24.7435 H   0  0  0  0  0  0
  -28.0995  -36.2580   24.6362 H   0  0  0  0  0  0
  -27.2280  -37.1536   25.8874 H   0  0  0  0  0  0
  -20.9371  -29.8741   21.6849 H   0  0  0  0  0  0
  -26.0156  -38.2847   24.1402 H   0  0  0  0  0  0
  -27.5845  -17.2245   21.0073 H   0  0  0  0  0  0
  -31.7885  -17.4921   20.2110 H   0  0  0  0  0  0
  -27.8198  -22.3953   21.0826 H   0  0  0  0  0  0
  -29.4263  -22.5076   21.7867 H   0  0  0  0  0  0
  -28.0117  -23.5385   18.2848 H   0  0  0  0  0  0
  -30.0879  -24.2736   20.3487 H   0  0  0  0  0  0
  -30.2463  -26.2650   16.7951 H   0  0  0  0  0  0
  -30.0948  -26.2759   18.5347 H   0  0  0  0  0  0
  -28.6593  -26.0547   17.5270 H   0  0  0  0  0  0
  -24.1121  -20.3564   20.1016 H   0  0  0  0  0  0
  -24.6972  -21.5871   21.2509 H   0  0  0  0  0  0
  -23.5048  -20.3783   21.7651 H   0  0  0  0  0  0
  -29.7619  -23.9075   16.6521 H   0  0  0  0  0  0
  -30.9958  -24.0887   17.8680 H   0  0  0  0  0  0
  -28.0468  -25.0924   21.6423 H   0  0  0  0  0  0
  -27.0755  -24.7380   20.2705 H   0  0  0  0  0  0
  -28.8241  -15.2946   21.1178 H   0  0  0  0  0  0
  -26.9550  -20.7312   20.2277 H   0  0  0  0  0  0
  1 25  1  0  0  0
  1 30  2  0  0  0
  1 86  1  0  0  0
  2  3  1  0  0  0
  2 25  1  0  0  0
  2 93  1  0  0  0
  2 94  1  0  0  0
  3  4  1  0  0  0
  3 95  1  0  0  0
  3 96  1  0  0  0
  4  5  1  0  0  0
  4 97  1  0  0  0
  4 98  1  0  0  0
  5  6  1  0  0  0
  5 26  1  0  0  0
  5 99  1  0  0  0
  6 25  1  0  0  0
  6100  1  0  0  0
  6101  1  0  0  0
  7  8  2  0  0  0
  7 26  1  0  0  0
  7 29  1  0  0  0
  8  9  1  0  0  0
  8 22  1  0  0  0
  9 10  1  0  0  0
  9 27  2  0  0  0
 10 11  2  0  0  0
 10 15  1  0  0  0
 11 12  1  0  0  0
 11102  1  0  0  0
 12 13  2  0  0  0
 12103  1  0  0  0
 13 14  1  0  0  0
 13 31  1  0  0  0
 14 15  2  0  0  0
 14104  1  0  0  0
 15105  1  0  0  0
 16 17  2  0  0  0
 16 21  1  0  0  0
 16 31  1  0  0  0
 17 18  1  0  0  0
 17106  1  0  0  0
 18 19  2  0  0  0
 18107  1  0  0  0
 19 20  1  0  0  0
 19 24  1  0  0  0
 20 21  2  0  0  0
 20108  1  0  0  0
 21 23  1  0  0  0
 22 28  1  0  0  0
 22 32  2  0  0  0
 26 27  1  0  0  0
 28109  1  0  0  0
 28110  1  0  0  0
 29111  1  0  0  0
 29112  1  0  0  0
 33 34  1  0  0  0
 33 66  1  0  0  0
 33 70  2  0  0  0
 34 36  1  0  0  0
 34 59  1  0  0  0
 34113  1  0  0  0
 35 44  2  0  0  0
 35 45  1  0  0  0
 35 68  1  0  0  0
 36 56  1  0  0  0
 36114  1  0  0  0
 37 39  1  0  0  0
 37 47  1  0  0  0
 37 66  1  0  0  0
 37115  1  0  0  0
 38 43  2  0  0  0
 38 46  1  0  0  0
 38 47  1  0  0  0
 39 64  1  0  0  0
 39 67  2  0  0  0
 40 52  1  0  0  0
 40 53  2  0  0  0
 40 58  1  0  0  0
 41116  1  0  0  0
 41117  1  0  0  0
 41118  1  0  0  0
 41 48  1  0  0  0
 42 43  1  0  0  0
 42 66  1  0  0  0
 42119  1  0  0  0
 42120  1  0  0  0
 43 44  1  0  0  0
 44121  1  0  0  0
 45 46  2  0  0  0
 45122  1  0  0  0
 46123  1  0  0  0
 47124  1  0  0  0
 47125  1  0  0  0
 48 56  1  0  0  0
 48 65  1  0  0  0
 48126  1  0  0  0
 49 50  1  0  0  0
 49 53  1  0  0  0
 49 64  1  0  0  0
 49127  1  0  0  0
 50 51  1  0  0  0
 50128  1  0  0  0
 50129  1  0  0  0
 51 52  1  0  0  0
 51130  1  0  0  0
 51131  1  0  0  0
 52132  1  0  0  0
 52133  1  0  0  0
 53 54  1  0  0  0
 54 55  2  0  0  0
 54134  1  0  0  0
 55 57  1  0  0  0
 55135  1  0  0  0
 56 69  2  0  0  0
 57 58  2  0  0  0
 57136  1  0  0  0
 58137  1  0  0  0
 59 60  1  0  0  0
 59 61  1  0  0  0
 59 62  1  0  0  0
 60138  1  0  0  0
 60139  1  0  0  0
 60140  1  0  0  0
 61141  1  0  0  0
 61142  1  0  0  0
 61143  1  0  0  0
 62144  1  0  0  0
 62145  1  0  0  0
 62146  1  0  0  0
 63 65  1  0  0  0
 63147  1  0  0  0
 63148  1  0  0  0
 63149  1  0  0  0
 64150  1  0  0  0
 65151  1  0  0  0
 68 84  1  0  0  0
 71 74  2  0  0  0
 71 75  1  0  0  0
 71152  1  0  0  0
 72 74  1  0  0  0
 72 76  2  0  0  0
 72153  1  0  0  0
 73 75  2  0  0  0
 73 76  1  0  0  0
 73 85  1  0  0  0
 74 86  1  0  0  0
 75 87  1  0  0  0
 76 91  1  0  0  0
 77 79  1  0  0  0
 77 85  1  0  0  0
 77 88  2  0  0  0
 78 80  1  0  0  0
 78 85  1  0  0  0
 78154  1  0  0  0
 78155  1  0  0  0
 79 80  1  0  0  0
 79 83  1  0  0  0
 79156  1  0  0  0
 80 84  1  0  0  0
 80157  1  0  0  0
 81 83  1  0  0  0
 81158  1  0  0  0
 81159  1  0  0  0
 81160  1  0  0  0
 82161  1  0  0  0
 82162  1  0  0  0
 82163  1  0  0  0
 82 92  1  0  0  0
 83164  1  0  0  0
 83165  1  0  0  0
 84166  1  0  0  0
 84167  1  0  0  0
 86168  1  0  0  0
 87 92  1  0  0  0
 87169  1  0  0  0
 89 92  2  0  0  0
 90 92  2  0  0  0
M  ISO  4   1 100  68 101  84 101  86 100
M  END
> <chiral flag>
0

> <version>
0

> <s_m_source_file>
/data/baiqing/PycharmProjects/Reinvent-master-3.2/result/LINK_invent/BTK/process_docking_weight1_custom_product_contain_oxygen_bond_distance_aromatic_linkinvent_7_9_3/rearranged_h_0067.sdf

> <i_m_source_file_index>
83

> <r_mmod_Potential_Energy-OPLS-2005>
-78.7123794555664

> <r_mmod_Stretch_Energy-OPLS-2005>
77.1731338500977

> <r_mmod_Bend_Energy-OPLS-2005>
167.276626586914

> <r_mmod_Torsional_Energy-OPLS-2005>
315.568176269531

> <r_mmod_Improper_Torsional_Energy-OPLS-2005>
5.7018928527832

> <r_mmod_Van_der_Waal_Energy-OPLS-2005>
125.700759887695

> <r_mmod_Electrostatic_Energy-OPLS-2005>
-565.067199707031

> <r_mmod_Solvation_Energy-OPLS-2005>
-256.936279296875

> <b_mmod_Minimization_Converged-OPLS-2005>
0

> <r_mmod_RMS_Derivative-OPLS-2005>
3.71518111228943

$$$$
83
                    3D
 Structure written by MMmdl.
149157  0  0  1  0            999 V2000
  -30.5896  -14.8034   20.4055 C   0  0  0  0  0  0
  -30.4231  -12.4856   19.4854 C   0  0  0  0  0  0
  -29.5039  -12.5152   18.2454 C   0  0  0  0  0  0
  -28.0311  -12.3338   18.6575 C   0  0  0  0  0  0
  -27.6323  -13.2444   19.8485 C   0  0  2  0  0  0
  -28.6775  -13.2066   20.9829 C   0  0  0  0  0  0
  -25.2435  -13.8239   20.5733 C   0  0  0  0  0  0
  -24.1751  -13.0446   20.9222 C   0  0  0  0  0  0
  -24.6366  -11.6943   20.8729 C   0  0  0  0  0  0
  -23.9050  -10.4297   21.0372 C   0  0  0  0  0  0
  -24.3596   -9.4222   21.9164 C   0  0  0  0  0  0
  -23.6269   -8.2260   22.0751 C   0  0  0  0  0  0
  -22.4257   -8.0274   21.3536 C   0  0  0  0  0  0
  -21.9876   -9.0247   20.4642 C   0  0  0  0  0  0
  -22.7209  -10.2125   20.3037 C   0  0  0  0  0  0
  -21.6861   -6.0722   22.5278 C   0  0  0  0  0  0
  -21.4020   -6.5627   23.8206 C   0  0  0  0  0  0
  -21.3674   -5.6793   24.9169 C   0  0  0  0  0  0
  -21.6036   -4.3056   24.7227 C   0  0  0  0  0  0
  -21.8825   -3.8144   23.4353 C   0  0  0  0  0  0
  -21.9191   -4.6953   22.3401 C   0  0  0  0  0  0
  -22.7769  -13.5204   21.1881 C   0  0  0  0  0  0
  -22.1649   -4.2141   21.0970 F   0  0  0  0  0  0
  -21.5635   -3.4536   25.7735 F   0  0  0  0  0  0
  -29.9740  -13.5666   20.3977 N   0  0  0  0  0  0
  -26.2872  -12.9473   20.3308 N   0  0  0  0  0  0
  -25.9298  -11.6603   20.5771 N   0  0  0  0  0  0
  -22.0420  -12.8186   22.0436 N   0  0  0  0  0  0
  -25.4071  -15.1966   20.4158 N   0  0  0  0  0  0
  -31.7874  -14.8669   20.1102 O   0  0  0  0  0  0
  -21.6648   -6.8855   21.4238 O   0  0  0  0  0  0
  -22.3434  -14.5494   20.6708 O   0  0  0  0  0  0
  -24.6326  -31.8517   23.1962 C   0  0  0  0  0  0
  -25.9142  -32.4739   23.8305 C   0  0  1  0  0  0
  -27.2196  -27.2336   20.1215 C   0  0  0  0  0  0
  -25.5951  -33.8552   24.2236 N   0  0  0  0  0  0
  -23.4280  -30.4709   21.5421 C   0  0  2  0  0  0
  -24.8759  -28.9148   20.1030 C   0  0  0  0  0  0
  -22.7488  -29.4575   22.4933 C   0  0  0  0  0  0
  -18.0281  -28.1354   22.8497 C   0  0  0  0  0  0
  -24.1491  -36.7264   23.2643 C   0  0  0  0  0  0
  -25.9737  -30.7511   21.3802 C   0  0  0  0  0  0
  -26.0458  -29.3734   20.7189 C   0  0  0  0  0  0
  -27.2153  -28.5441   20.7207 C   0  0  0  0  0  0
  -26.0256  -26.8487   19.4719 C   0  0  0  0  0  0
  -24.8723  -27.6634   19.4680 C   0  0  0  0  0  0
  -23.6438  -29.8010   20.1576 C   0  0  0  0  0  0
  -25.4132  -36.3061   24.0320 C   0  0  1  0  0  0
  -20.5889  -28.3664   23.1281 C   0  0  2  0  0  0
  -20.6770  -26.9379   22.5425 C   0  0  0  0  0  0
  -19.5754  -26.6356   21.5221 C   0  0  0  0  0  0
  -18.1925  -26.7898   22.1617 C   0  0  0  0  0  0
  -19.1538  -28.8833   23.2881 C   0  0  0  0  0  0
  -18.9459  -30.1439   23.8883 C   0  0  0  0  0  0
  -17.6468  -30.6565   24.0549 C   0  0  0  0  0  0
  -25.9077  -34.9438   23.5081 C   0  0  0  0  0  0
  -16.5353  -29.9058   23.6336 C   0  0  0  0  0  0
  -16.7268  -28.6465   23.0369 C   0  0  0  0  0  0
  -26.4507  -31.6586   25.0711 C   0  0  0  0  0  0
  -25.3730  -31.3734   26.1429 C   0  0  0  0  0  0
  -27.0368  -30.3006   24.6210 C   0  0  0  0  0  0
  -27.6050  -32.4341   25.7481 C   0  0  0  0  0  0
  -27.5579  -37.1790   24.8469 C   0  0  0  0  0  0
  -21.4196  -29.3015   22.3661 N   0  0  0  0  0  0
  -26.4289  -37.3772   23.9412 N   0  0  0  0  0  0
  -24.6962  -31.0455   22.0945 N   0  0  0  0  0  0
  -23.4181  -28.8136   23.3049 O   0  0  0  0  0  0
  -28.3048  -26.3220   20.2307 O   0  0  0  0  0  0
  -26.5645  -34.8911   22.4648 O   0  0  0  0  0  0
  -23.5483  -32.1359   23.7257 O   0  0  0  0  0  0
  -29.4182  -18.6131   20.4739 C   0  0  0  0  0  0
  -30.3487  -19.8876   18.6250 C   0  0  0  0  0  0
  -30.7341  -17.4630   18.7819 C   0  0  0  0  0  0
  -29.5735  -19.9202   19.8088 C   0  0  0  0  0  0
  -30.0004  -17.3490   19.9852 C   0  0  0  0  0  0
  -30.9030  -18.6957   18.1220 C   0  0  0  0  0  0
  -28.7045  -23.7844   20.3028 C   0  0  0  0  0  0
  -28.3066  -24.9853   19.7010 C   0  0  0  0  0  0
  -28.8343  -22.4543   19.5774 C   0  0  0  0  0  0
  -29.0733  -21.2646   20.2872 N   0  0  0  0  0  0
  -29.8265  -15.9699   20.5712 N   0  0  0  0  0  0
  -28.7290  -22.4117   18.3499 O   0  0  0  0  0  0
  -31.6151  -18.7315   16.9697 F   0  0  0  0  0  0
  -31.4619  -12.6064   19.1756 H   0  0  0  0  0  0
  -30.3700  -11.5166   19.9865 H   0  0  0  0  0  0
  -29.7931  -11.7375   17.5399 H   0  0  0  0  0  0
  -29.6302  -13.4641   17.7214 H   0  0  0  0  0  0
  -27.8954  -11.2888   18.9323 H   0  0  0  0  0  0
  -27.3727  -12.5122   17.8062 H   0  0  0  0  0  0
  -27.6154  -14.2618   19.4600 H   0  0  0  0  0  0
  -28.7209  -12.2183   21.4409 H   0  0  0  0  0  0
  -28.4029  -13.9007   21.7766 H   0  0  0  0  0  0
  -25.2741   -9.5732   22.4755 H   0  0  0  0  0  0
  -23.9992   -7.4660   22.7472 H   0  0  0  0  0  0
  -21.0811   -8.8731   19.8953 H   0  0  0  0  0  0
  -22.3625  -10.9643   19.6146 H   0  0  0  0  0  0
  -21.2014   -7.6134   23.9699 H   0  0  0  0  0  0
  -21.1488   -6.0523   25.9063 H   0  0  0  0  0  0
  -22.0588   -2.7610   23.2860 H   0  0  0  0  0  0
  -22.4034  -11.9842   22.4824 H   0  0  0  0  0  0
  -21.1030  -13.1204   22.2641 H   0  0  0  0  0  0
  -24.6367  -15.8462   20.5345 H   0  0  0  0  0  0
  -26.2521  -15.6446   20.0838 H   0  0  0  0  0  0
  -26.7191  -32.5359   23.1030 H   0  0  0  0  0  0
  -25.0143  -33.9719   25.0407 H   0  0  0  0  0  0
  -22.7255  -31.2945   21.3969 H   0  0  0  0  0  0
  -23.3781  -35.9568   23.3307 H   0  0  0  0  0  0
  -24.3572  -36.8886   22.2056 H   0  0  0  0  0  0
  -23.7225  -37.6452   23.6679 H   0  0  0  0  0  0
  -26.1211  -31.5105   20.6112 H   0  0  0  0  0  0
  -26.8472  -30.7981   22.0169 H   0  0  0  0  0  0
  -28.1025  -28.8861   21.2348 H   0  0  0  0  0  0
  -25.9516  -25.8835   18.9935 H   0  0  0  0  0  0
  -23.9749  -27.3093   18.9806 H   0  0  0  0  0  0
  -23.7569  -30.5792   19.4004 H   0  0  0  0  0  0
  -22.7614  -29.2302   19.8589 H   0  0  0  0  0  0
  -25.1328  -36.1896   25.0813 H   0  0  0  0  0  0
  -20.9980  -28.3226   24.1402 H   0  0  0  0  0  0
  -20.5666  -26.2265   23.3630 H   0  0  0  0  0  0
  -21.6632  -26.7394   22.1210 H   0  0  0  0  0  0
  -19.6919  -25.6272   21.1240 H   0  0  0  0  0  0
  -19.6702  -27.3175   20.6759 H   0  0  0  0  0  0
  -17.4214  -26.6673   21.3996 H   0  0  0  0  0  0
  -18.0305  -26.0015   22.8975 H   0  0  0  0  0  0
  -19.7941  -30.7252   24.2227 H   0  0  0  0  0  0
  -17.5017  -31.6253   24.5133 H   0  0  0  0  0  0
  -15.5351  -30.2955   23.7670 H   0  0  0  0  0  0
  -15.8664  -28.0774   22.7117 H   0  0  0  0  0  0
  -24.5947  -30.7029   25.7761 H   0  0  0  0  0  0
  -24.8887  -32.2908   26.4789 H   0  0  0  0  0  0
  -25.8062  -30.8972   27.0236 H   0  0  0  0  0  0
  -26.2957  -29.6746   24.1224 H   0  0  0  0  0  0
  -27.4048  -29.7269   25.4727 H   0  0  0  0  0  0
  -27.8833  -30.4296   23.9457 H   0  0  0  0  0  0
  -27.2651  -33.3672   26.1983 H   0  0  0  0  0  0
  -28.3887  -32.6841   25.0319 H   0  0  0  0  0  0
  -28.0673  -31.8510   26.5455 H   0  0  0  0  0  0
  -28.2597  -38.0084   24.7521 H   0  0  0  0  0  0
  -28.1067  -36.2621   24.6294 H   0  0  0  0  0  0
  -27.2287  -37.1428   25.8862 H   0  0  0  0  0  0
  -20.9382  -29.8712   21.6843 H   0  0  0  0  0  0
  -26.0167  -38.2833   24.1429 H   0  0  0  0  0  0
  -28.8394  -18.5791   21.3861 H   0  0  0  0  0  0
  -30.5502  -20.7924   18.0718 H   0  0  0  0  0  0
  -31.1760  -16.5930   18.3183 H   0  0  0  0  0  0
  -28.9826  -23.8130   21.3454 H   0  0  0  0  0  0
  -28.0000  -24.9946   18.6643 H   0  0  0  0  0  0
  -28.9254  -21.3392   21.2836 H   0  0  0  0  0  0
  -28.9349  -15.8106   21.0159 H   0  0  0  0  0  0
  1 25  1  0  0  0
  1 30  2  0  0  0
  1 81  1  0  0  0
  2  3  1  0  0  0
  2 25  1  0  0  0
  2 84  1  0  0  0
  2 85  1  0  0  0
  3  4  1  0  0  0
  3 86  1  0  0  0
  3 87  1  0  0  0
  4  5  1  0  0  0
  4 88  1  0  0  0
  4 89  1  0  0  0
  5  6  1  0  0  0
  5 26  1  0  0  0
  5 90  1  0  0  0
  6 25  1  0  0  0
  6 91  1  0  0  0
  6 92  1  0  0  0
  7  8  2  0  0  0
  7 26  1  0  0  0
  7 29  1  0  0  0
  8  9  1  0  0  0
  8 22  1  0  0  0
  9 10  1  0  0  0
  9 27  2  0  0  0
 10 11  2  0  0  0
 10 15  1  0  0  0
 11 12  1  0  0  0
 11 93  1  0  0  0
 12 13  2  0  0  0
 12 94  1  0  0  0
 13 14  1  0  0  0
 13 31  1  0  0  0
 14 15  2  0  0  0
 14 95  1  0  0  0
 15 96  1  0  0  0
 16 17  2  0  0  0
 16 21  1  0  0  0
 16 31  1  0  0  0
 17 18  1  0  0  0
 17 97  1  0  0  0
 18 19  2  0  0  0
 18 98  1  0  0  0
 19 20  1  0  0  0
 19 24  1  0  0  0
 20 21  2  0  0  0
 20 99  1  0  0  0
 21 23  1  0  0  0
 22 28  1  0  0  0
 22 32  2  0  0  0
 26 27  1  0  0  0
 28100  1  0  0  0
 28101  1  0  0  0
 29102  1  0  0  0
 29103  1  0  0  0
 33 34  1  0  0  0
 33 66  1  0  0  0
 33 70  2  0  0  0
 34 36  1  0  0  0
 34 59  1  0  0  0
 34104  1  0  0  0
 35 44  2  0  0  0
 35 45  1  0  0  0
 35 68  1  0  0  0
 36 56  1  0  0  0
 36105  1  0  0  0
 37 39  1  0  0  0
 37 47  1  0  0  0
 37 66  1  0  0  0
 37106  1  0  0  0
 38 43  2  0  0  0
 38 46  1  0  0  0
 38 47  1  0  0  0
 39 64  1  0  0  0
 39 67  2  0  0  0
 40 52  1  0  0  0
 40 53  2  0  0  0
 40 58  1  0  0  0
 41107  1  0  0  0
 41108  1  0  0  0
 41109  1  0  0  0
 41 48  1  0  0  0
 42 43  1  0  0  0
 42 66  1  0  0  0
 42110  1  0  0  0
 42111  1  0  0  0
 43 44  1  0  0  0
 44112  1  0  0  0
 45 46  2  0  0  0
 45113  1  0  0  0
 46114  1  0  0  0
 47115  1  0  0  0
 47116  1  0  0  0
 48 56  1  0  0  0
 48 65  1  0  0  0
 48117  1  0  0  0
 49 50  1  0  0  0
 49 53  1  0  0  0
 49 64  1  0  0  0
 49118  1  0  0  0
 50 51  1  0  0  0
 50119  1  0  0  0
 50120  1  0  0  0
 51 52  1  0  0  0
 51121  1  0  0  0
 51122  1  0  0  0
 52123  1  0  0  0
 52124  1  0  0  0
 53 54  1  0  0  0
 54 55  2  0  0  0
 54125  1  0  0  0
 55 57  1  0  0  0
 55126  1  0  0  0
 56 69  2  0  0  0
 57 58  2  0  0  0
 57127  1  0  0  0
 58128  1  0  0  0
 59 60  1  0  0  0
 59 61  1  0  0  0
 59 62  1  0  0  0
 60129  1  0  0  0
 60130  1  0  0  0
 60131  1  0  0  0
 61132  1  0  0  0
 61133  1  0  0  0
 61134  1  0  0  0
 62135  1  0  0  0
 62136  1  0  0  0
 62137  1  0  0  0
 63 65  1  0  0  0
 63138  1  0  0  0
 63139  1  0  0  0
 63140  1  0  0  0
 64141  1  0  0  0
 65142  1  0  0  0
 68 78  1  0  0  0
 71 74  2  0  0  0
 71 75  1  0  0  0
 71143  1  0  0  0
 72 74  1  0  0  0
 72 76  2  0  0  0
 72144  1  0  0  0
 73 75  2  0  0  0
 73 76  1  0  0  0
 73145  1  0  0  0
 74 80  1  0  0  0
 75 81  1  0  0  0
 76 83  1  0  0  0
 77 78  2  0  0  0
 77 79  1  0  0  0
 77146  1  0  0  0
 78147  1  0  0  0
 79 80  1  0  0  0
 79 82  2  0  0  0
 80148  1  0  0  0
 81149  1  0  0  0
M  ISO  4   1 100  68 101  78 101  81 100
M  END
> <chiral flag>
0

> <version>
0

> <s_m_source_file>
/data/baiqing/PycharmProjects/Reinvent-master-3.2/result/LINK_invent/BTK/process_docking_weight1_custom_product_contain_oxygen_bond_distance_aromatic_linkinvent_7_9_3/rearranged_h_0067.sdf

> <i_m_source_file_index>
84

> <r_mmod_Potential_Energy-OPLS-2005>
235.8671875

> <r_mmod_Stretch_Energy-OPLS-2005>
153.13215637207

> <r_mmod_Bend_Energy-OPLS-2005>
169.718704223633

> <r_mmod_Torsional_Energy-OPLS-2005>
247.46369934082

> <r_mmod_Improper_Torsional_Energy-OPLS-2005>
5.43815279006958

> <r_mmod_Van_der_Waal_Energy-OPLS-2005>
143.913436889648

> <r_mmod_Electrostatic_Energy-OPLS-2005>
-363.189331054688

> <r_mmod_Solvation_Energy-OPLS-2005>
-231.652267456055

> <b_mmod_Minimization_Converged-OPLS-2005>
0

> <r_mmod_RMS_Derivative-OPLS-2005>
3.23008298873901

$$$$
85
                    3D
 Structure written by MMmdl.
173182  0  0  1  0            999 V2000
  -30.6203  -14.7497   20.4655 C   0  0  0  0  0  0
  -30.4332  -12.4631   19.4662 C   0  0  0  0  0  0
  -29.5077  -12.5061   18.2310 C   0  0  0  0  0  0
  -28.0346  -12.3291   18.6505 C   0  0  0  0  0  0
  -27.6405  -13.2310   19.8502 C   0  0  2  0  0  0
  -28.6909  -13.1747   20.9809 C   0  0  0  0  0  0
  -25.2516  -13.8197   20.5712 C   0  0  0  0  0  0
  -24.1807  -13.0436   20.9211 C   0  0  0  0  0  0
  -24.6394  -11.6918   20.8741 C   0  0  0  0  0  0
  -23.9065  -10.4301   21.0405 C   0  0  0  0  0  0
  -24.3617   -9.4209   21.9183 C   0  0  0  0  0  0
  -23.6291   -8.2240   22.0756 C   0  0  0  0  0  0
  -22.4271   -8.0284   21.3544 C   0  0  0  0  0  0
  -21.9908   -9.0259   20.4639 C   0  0  0  0  0  0
  -22.7240  -10.2133   20.3050 C   0  0  0  0  0  0
  -21.6845   -6.0724   22.5280 C   0  0  0  0  0  0
  -21.4023   -6.5635   23.8211 C   0  0  0  0  0  0
  -21.3660   -5.6783   24.9175 C   0  0  0  0  0  0
  -21.6049   -4.3051   24.7224 C   0  0  0  0  0  0
  -21.8817   -3.8138   23.4348 C   0  0  0  0  0  0
  -21.9197   -4.6956   22.3397 C   0  0  0  0  0  0
  -22.7830  -13.5214   21.1883 C   0  0  0  0  0  0
  -22.1657   -4.2137   21.0971 F   0  0  0  0  0  0
  -21.5634   -3.4539   25.7739 F   0  0  0  0  0  0
  -29.9857  -13.5300   20.3886 N   0  0  0  0  0  0
  -26.2941  -12.9400   20.3308 N   0  0  0  0  0  0
  -25.9327  -11.6542   20.5767 N   0  0  0  0  0  0
  -22.0474  -12.8177   22.0422 N   0  0  0  0  0  0
  -25.4171  -15.1925   20.4144 N   0  0  0  0  0  0
  -31.8182  -14.8299   20.1831 O   0  0  0  0  0  0
  -21.6646   -6.8874   21.4237 O   0  0  0  0  0  0
  -22.3514  -14.5519   20.6734 O   0  0  0  0  0  0
  -24.6290  -31.8555   23.2003 C   0  0  0  0  0  0
  -25.9126  -32.4756   23.8341 C   0  0  1  0  0  0
  -27.2251  -27.2794   20.1402 C   0  0  0  0  0  0
  -25.5933  -33.8561   24.2281 N   0  0  0  0  0  0
  -23.4268  -30.4751   21.5416 C   0  0  2  0  0  0
  -24.8766  -28.9218   20.1142 C   0  0  0  0  0  0
  -22.7491  -29.4605   22.4946 C   0  0  0  0  0  0
  -18.0282  -28.1382   22.8452 C   0  0  0  0  0  0
  -24.1495  -36.7285   23.2645 C   0  0  0  0  0  0
  -25.9687  -30.7774   21.3732 C   0  0  0  0  0  0
  -26.0473  -29.3999   20.7172 C   0  0  0  0  0  0
  -27.2274  -28.5928   20.7137 C   0  0  0  0  0  0
  -26.0346  -26.8563   19.5179 C   0  0  0  0  0  0
  -24.8743  -27.6565   19.5054 C   0  0  0  0  0  0
  -23.6447  -29.8046   20.1608 C   0  0  0  0  0  0
  -25.4120  -36.3083   24.0327 C   0  0  1  0  0  0
  -20.5877  -28.3696   23.1289 C   0  0  2  0  0  0
  -20.6764  -26.9423   22.5417 C   0  0  0  0  0  0
  -19.5753  -26.6370   21.5214 C   0  0  0  0  0  0
  -18.1924  -26.7918   22.1612 C   0  0  0  0  0  0
  -19.1527  -28.8856   23.2849 C   0  0  0  0  0  0
  -18.9468  -30.1454   23.8876 C   0  0  0  0  0  0
  -17.6466  -30.6583   24.0558 C   0  0  0  0  0  0
  -25.9063  -34.9447   23.5117 C   0  0  0  0  0  0
  -16.5361  -29.9068   23.6341 C   0  0  0  0  0  0
  -16.7265  -28.6492   23.0341 C   0  0  0  0  0  0
  -26.4498  -31.6584   25.0723 C   0  0  0  0  0  0
  -25.3724  -31.3687   26.1437 C   0  0  0  0  0  0
  -27.0366  -30.3013   24.6197 C   0  0  0  0  0  0
  -27.6074  -32.4318   25.7478 C   0  0  0  0  0  0
  -27.5583  -37.1797   24.8464 C   0  0  0  0  0  0
  -21.4199  -29.3033   22.3684 N   0  0  0  0  0  0
  -26.4304  -37.3773   23.9395 N   0  0  0  0  0  0
  -24.6928  -31.0551   22.0948 N   0  0  0  0  0  0
  -23.4191  -28.8152   23.3049 O   0  0  0  0  0  0
  -28.3279  -26.4059   20.1422 O   0  0  0  0  0  0
  -26.5645  -34.8917   22.4692 O   0  0  0  0  0  0
  -23.5451  -32.1378   23.7302 O   0  0  0  0  0  0
  -30.9036  -20.0223   21.5096 C   0  0  0  0  0  0
  -31.3699  -17.6154   21.5642 C   0  0  0  0  0  0
  -29.4155  -18.4734   20.3868 C   0  0  0  0  0  0
  -31.7275  -18.9436   21.9015 C   0  0  0  0  0  0
  -29.7460  -19.8542   20.7215 C   0  0  0  0  0  0
  -30.2074  -17.3214   20.8137 C   0  0  0  0  0  0
  -33.9749  -20.8243   21.3324 C   0  0  0  0  0  0
  -32.9327  -19.2111   22.7753 C   0  0  0  0  0  0
  -29.0235  -22.3696   20.7794 C   0  0  0  0  0  0
  -34.1540  -22.5062   23.7061 C   0  0  0  0  0  0
  -34.8936  -22.9829   22.4611 C   0  0  0  0  0  0
  -34.2504  -20.9802   23.7719 C   0  0  0  0  0  0
  -34.3731  -22.3234   21.1591 C   0  0  0  0  0  0
  -35.4752  -22.4498   20.0827 C   0  0  0  0  0  0
  -33.1254  -23.0844   20.6540 C   0  0  0  0  0  0
  -28.5873  -23.6700   19.9493 C   0  0  0  0  0  0
  -28.1760  -25.0336   20.7295 C   0  0  0  0  0  0
  -33.6759  -20.3363   22.5733 N   0  0  0  0  0  0
  -29.0411  -21.0807   20.2460 N   0  0  0  0  0  0
  -29.8415  -15.8953   20.5937 N   0  0  0  0  0  0
  -33.8962  -20.1368   20.3075 O   0  0  0  0  0  0
  -33.1518  -18.4372   23.7156 O   0  0  0  0  0  0
  -29.3363  -22.5512   21.9570 O   0  0  0  0  0  0
  -31.4730  -12.5873   19.1604 H   0  0  0  0  0  0
  -30.3795  -11.4896   19.9567 H   0  0  0  0  0  0
  -29.7881  -11.7274   17.5203 H   0  0  0  0  0  0
  -29.6300  -13.4561   17.7082 H   0  0  0  0  0  0
  -27.8941  -11.2815   18.9182 H   0  0  0  0  0  0
  -27.3731  -12.5178   17.8036 H   0  0  0  0  0  0
  -27.6299  -14.2506   19.4646 H   0  0  0  0  0  0
  -28.7334  -12.1803   21.4258 H   0  0  0  0  0  0
  -28.4303  -13.8598   21.7878 H   0  0  0  0  0  0
  -25.2766   -9.5697   22.4757 H   0  0  0  0  0  0
  -24.0012   -7.4638   22.7473 H   0  0  0  0  0  0
  -21.0841   -8.8768   19.8937 H   0  0  0  0  0  0
  -22.3700  -10.9672   19.6158 H   0  0  0  0  0  0
  -21.2009   -7.6143   23.9709 H   0  0  0  0  0  0
  -21.1490   -6.0516   25.9069 H   0  0  0  0  0  0
  -22.0593   -2.7601   23.2855 H   0  0  0  0  0  0
  -22.4121  -11.9834   22.4774 H   0  0  0  0  0  0
  -21.1101  -13.1203   22.2662 H   0  0  0  0  0  0
  -24.6446  -15.8403   20.5267 H   0  0  0  0  0  0
  -26.2527  -15.6347   20.0566 H   0  0  0  0  0  0
  -26.7180  -32.5420   23.1077 H   0  0  0  0  0  0
  -25.0071  -33.9716   25.0414 H   0  0  0  0  0  0
  -22.7241  -31.2982   21.3930 H   0  0  0  0  0  0
  -23.3775  -35.9603   23.3297 H   0  0  0  0  0  0
  -24.3589  -36.8932   22.2070 H   0  0  0  0  0  0
  -23.7245  -37.6468   23.6685 H   0  0  0  0  0  0
  -26.1051  -31.5394   20.6052 H   0  0  0  0  0  0
  -26.8471  -30.8290   22.0051 H   0  0  0  0  0  0
  -28.1264  -28.9560   21.1895 H   0  0  0  0  0  0
  -25.9970  -25.8830   19.0498 H   0  0  0  0  0  0
  -23.9759  -27.2848   19.0347 H   0  0  0  0  0  0
  -23.7640  -30.5779   19.4014 H   0  0  0  0  0  0
  -22.7631  -29.2343   19.8640 H   0  0  0  0  0  0
  -25.1297  -36.1931   25.0817 H   0  0  0  0  0  0
  -20.9958  -28.3258   24.1413 H   0  0  0  0  0  0
  -20.5685  -26.2299   23.3600 H   0  0  0  0  0  0
  -21.6629  -26.7452   22.1219 H   0  0  0  0  0  0
  -19.6945  -25.6282   21.1237 H   0  0  0  0  0  0
  -19.6704  -27.3185   20.6745 H   0  0  0  0  0  0
  -17.4204  -26.6667   21.3996 H   0  0  0  0  0  0
  -18.0321  -26.0069   22.9019 H   0  0  0  0  0  0
  -19.7955  -30.7249   24.2251 H   0  0  0  0  0  0
  -17.5035  -31.6276   24.5142 H   0  0  0  0  0  0
  -15.5362  -30.2963   23.7691 H   0  0  0  0  0  0
  -15.8662  -28.0814   22.7065 H   0  0  0  0  0  0
  -24.5926  -30.7015   25.7736 H   0  0  0  0  0  0
  -24.8868  -32.2827   26.4875 H   0  0  0  0  0  0
  -25.8043  -30.8850   27.0210 H   0  0  0  0  0  0
  -26.2966  -29.6704   24.1251 H   0  0  0  0  0  0
  -27.4106  -29.7306   25.4714 H   0  0  0  0  0  0
  -27.8801  -30.4300   23.9404 H   0  0  0  0  0  0
  -27.2737  -33.3649   26.2014 H   0  0  0  0  0  0
  -28.3883  -32.6824   25.0289 H   0  0  0  0  0  0
  -28.0729  -31.8454   26.5410 H   0  0  0  0  0  0
  -28.2587  -38.0104   24.7533 H   0  0  0  0  0  0
  -28.1094  -36.2642   24.6261 H   0  0  0  0  0  0
  -27.2296  -37.1395   25.8866 H   0  0  0  0  0  0
  -20.9411  -29.8741   21.6868 H   0  0  0  0  0  0
  -26.0179  -38.2842   24.1407 H   0  0  0  0  0  0
  -31.2009  -21.0157   21.8088 H   0  0  0  0  0  0
  -31.9951  -16.8102   21.9246 H   0  0  0  0  0  0
  -28.5326  -18.2942   19.7925 H   0  0  0  0  0  0
  -33.1101  -22.8213   23.6801 H   0  0  0  0  0  0
  -34.5885  -22.9560   24.5997 H   0  0  0  0  0  0
  -35.9555  -22.7670   22.5870 H   0  0  0  0  0  0
  -34.8230  -24.0697   22.3924 H   0  0  0  0  0  0
  -33.7524  -20.6569   24.6891 H   0  0  0  0  0  0
  -35.2928  -20.6703   23.8706 H   0  0  0  0  0  0
  -36.3537  -21.8533   20.3364 H   0  0  0  0  0  0
  -35.8033  -23.4842   19.9761 H   0  0  0  0  0  0
  -35.1290  -22.1221   19.1014 H   0  0  0  0  0  0
  -32.3254  -23.0885   21.3949 H   0  0  0  0  0  0
  -32.7226  -22.6355   19.7443 H   0  0  0  0  0  0
  -33.3554  -24.1253   20.4232 H   0  0  0  0  0  0
  -27.7862  -23.3960   19.2619 H   0  0  0  0  0  0
  -29.4442  -23.9025   19.3169 H   0  0  0  0  0  0
  -28.7648  -25.0764   21.6459 H   0  0  0  0  0  0
  -27.1540  -24.9082   21.0912 H   0  0  0  0  0  0
  -28.5752  -20.9883   19.3546 H   0  0  0  0  0  0
  -28.8514  -15.7130   20.5622 H   0  0  0  0  0  0
  1 25  1  0  0  0
  1 30  2  0  0  0
  1 90  1  0  0  0
  2  3  1  0  0  0
  2 25  1  0  0  0
  2 94  1  0  0  0
  2 95  1  0  0  0
  3  4  1  0  0  0
  3 96  1  0  0  0
  3 97  1  0  0  0
  4  5  1  0  0  0
  4 98  1  0  0  0
  4 99  1  0  0  0
  5  6  1  0  0  0
  5 26  1  0  0  0
  5100  1  0  0  0
  6 25  1  0  0  0
  6101  1  0  0  0
  6102  1  0  0  0
  7  8  2  0  0  0
  7 26  1  0  0  0
  7 29  1  0  0  0
  8  9  1  0  0  0
  8 22  1  0  0  0
  9 10  1  0  0  0
  9 27  2  0  0  0
 10 11  2  0  0  0
 10 15  1  0  0  0
 11 12  1  0  0  0
 11103  1  0  0  0
 12 13  2  0  0  0
 12104  1  0  0  0
 13 14  1  0  0  0
 13 31  1  0  0  0
 14 15  2  0  0  0
 14105  1  0  0  0
 15106  1  0  0  0
 16 17  2  0  0  0
 16 21  1  0  0  0
 16 31  1  0  0  0
 17 18  1  0  0  0
 17107  1  0  0  0
 18 19  2  0  0  0
 18108  1  0  0  0
 19 20  1  0  0  0
 19 24  1  0  0  0
 20 21  2  0  0  0
 20109  1  0  0  0
 21 23  1  0  0  0
 22 28  1  0  0  0
 22 32  2  0  0  0
 26 27  1  0  0  0
 28110  1  0  0  0
 28111  1  0  0  0
 29112  1  0  0  0
 29113  1  0  0  0
 33 34  1  0  0  0
 33 66  1  0  0  0
 33 70  2  0  0  0
 34 36  1  0  0  0
 34 59  1  0  0  0
 34114  1  0  0  0
 35 44  2  0  0  0
 35 45  1  0  0  0
 35 68  1  0  0  0
 36 56  1  0  0  0
 36115  1  0  0  0
 37 39  1  0  0  0
 37 47  1  0  0  0
 37 66  1  0  0  0
 37116  1  0  0  0
 38 43  2  0  0  0
 38 46  1  0  0  0
 38 47  1  0  0  0
 39 64  1  0  0  0
 39 67  2  0  0  0
 40 52  1  0  0  0
 40 53  2  0  0  0
 40 58  1  0  0  0
 41117  1  0  0  0
 41118  1  0  0  0
 41119  1  0  0  0
 41 48  1  0  0  0
 42 43  1  0  0  0
 42 66  1  0  0  0
 42120  1  0  0  0
 42121  1  0  0  0
 43 44  1  0  0  0
 44122  1  0  0  0
 45 46  2  0  0  0
 45123  1  0  0  0
 46124  1  0  0  0
 47125  1  0  0  0
 47126  1  0  0  0
 48 56  1  0  0  0
 48 65  1  0  0  0
 48127  1  0  0  0
 49 50  1  0  0  0
 49 53  1  0  0  0
 49 64  1  0  0  0
 49128  1  0  0  0
 50 51  1  0  0  0
 50129  1  0  0  0
 50130  1  0  0  0
 51 52  1  0  0  0
 51131  1  0  0  0
 51132  1  0  0  0
 52133  1  0  0  0
 52134  1  0  0  0
 53 54  1  0  0  0
 54 55  2  0  0  0
 54135  1  0  0  0
 55 57  1  0  0  0
 55136  1  0  0  0
 56 69  2  0  0  0
 57 58  2  0  0  0
 57137  1  0  0  0
 58138  1  0  0  0
 59 60  1  0  0  0
 59 61  1  0  0  0
 59 62  1  0  0  0
 60139  1  0  0  0
 60140  1  0  0  0
 60141  1  0  0  0
 61142  1  0  0  0
 61143  1  0  0  0
 61144  1  0  0  0
 62145  1  0  0  0
 62146  1  0  0  0
 62147  1  0  0  0
 63 65  1  0  0  0
 63148  1  0  0  0
 63149  1  0  0  0
 63150  1  0  0  0
 64151  1  0  0  0
 65152  1  0  0  0
 68 87  1  0  0  0
 71 74  2  0  0  0
 71 75  1  0  0  0
 71153  1  0  0  0
 72 74  1  0  0  0
 72 76  2  0  0  0
 72154  1  0  0  0
 73 75  2  0  0  0
 73 76  1  0  0  0
 73155  1  0  0  0
 74 78  1  0  0  0
 75 89  1  0  0  0
 76 90  1  0  0  0
 77 83  1  0  0  0
 77 88  1  0  0  0
 77 91  2  0  0  0
 78 88  1  0  0  0
 78 92  2  0  0  0
 79 86  1  0  0  0
 79 89  1  0  0  0
 79 93  2  0  0  0
 80 81  1  0  0  0
 80 82  1  0  0  0
 80156  1  0  0  0
 80157  1  0  0  0
 81 83  1  0  0  0
 81158  1  0  0  0
 81159  1  0  0  0
 82 88  1  0  0  0
 82160  1  0  0  0
 82161  1  0  0  0
 83 84  1  0  0  0
 83 85  1  0  0  0
 84162  1  0  0  0
 84163  1  0  0  0
 84164  1  0  0  0
 85165  1  0  0  0
 85166  1  0  0  0
 85167  1  0  0  0
 86 87  1  0  0  0
 86168  1  0  0  0
 86169  1  0  0  0
 87170  1  0  0  0
 87171  1  0  0  0
 89172  1  0  0  0
 90173  1  0  0  0
M  ISO  4   1 100  68 101  87 101  90 100
M  END
> <chiral flag>
0

> <version>
0

> <s_m_source_file>
/data/baiqing/PycharmProjects/Reinvent-master-3.2/result/LINK_invent/BTK/process_docking_weight1_custom_product_contain_oxygen_bond_distance_aromatic_linkinvent_7_9_3/rearranged_h_0067.sdf

> <i_m_source_file_index>
85

> <r_mmod_Potential_Energy-OPLS-2005>
200.387298583984

> <r_mmod_Stretch_Energy-OPLS-2005>
131.102813720703

> <r_mmod_Bend_Energy-OPLS-2005>
174.050994873047

> <r_mmod_Torsional_Energy-OPLS-2005>
340.973052978516

> <r_mmod_Improper_Torsional_Energy-OPLS-2005>
7.88595581054688

> <r_mmod_Van_der_Waal_Energy-OPLS-2005>
167.467926025391

> <r_mmod_Electrostatic_Energy-OPLS-2005>
-450.585174560547

> <r_mmod_Solvation_Energy-OPLS-2005>
-251.395782470703

> <b_mmod_Minimization_Converged-OPLS-2005>
0

> <r_mmod_RMS_Derivative-OPLS-2005>
2.9006667137146

$$$$
86
                    3D
 Structure written by MMmdl.
160169  0  0  1  0            999 V2000
  -30.6023  -14.6729   20.4693 C   0  0  0  0  0  0
  -30.4467  -12.4089   19.4493 C   0  0  0  0  0  0
  -29.5112  -12.5004   18.2225 C   0  0  0  0  0  0
  -28.0347  -12.3312   18.6367 C   0  0  0  0  0  0
  -27.6505  -13.2103   19.8559 C   0  0  2  0  0  0
  -28.6990  -13.0913   20.9851 C   0  0  0  0  0  0
  -25.2562  -13.8122   20.5687 C   0  0  0  0  0  0
  -24.1825  -13.0410   20.9196 C   0  0  0  0  0  0
  -24.6391  -11.6881   20.8737 C   0  0  0  0  0  0
  -23.9052  -10.4281   21.0414 C   0  0  0  0  0  0
  -24.3611   -9.4192   21.9187 C   0  0  0  0  0  0
  -23.6289   -8.2228   22.0756 C   0  0  0  0  0  0
  -22.4276   -8.0273   21.3541 C   0  0  0  0  0  0
  -21.9903   -9.0252   20.4650 C   0  0  0  0  0  0
  -22.7232  -10.2129   20.3052 C   0  0  0  0  0  0
  -21.6849   -6.0734   22.5279 C   0  0  0  0  0  0
  -21.4011   -6.5637   23.8213 C   0  0  0  0  0  0
  -21.3654   -5.6788   24.9176 C   0  0  0  0  0  0
  -21.6039   -4.3050   24.7225 C   0  0  0  0  0  0
  -21.8823   -3.8148   23.4347 C   0  0  0  0  0  0
  -21.9193   -4.6963   22.3400 C   0  0  0  0  0  0
  -22.7852  -13.5224   21.1850 C   0  0  0  0  0  0
  -22.1665   -4.2154   21.0977 F   0  0  0  0  0  0
  -21.5628   -3.4531   25.7733 F   0  0  0  0  0  0
  -30.0108  -13.4371   20.4135 N   0  0  0  0  0  0
  -26.2979  -12.9299   20.3285 N   0  0  0  0  0  0
  -25.9318  -11.6464   20.5737 N   0  0  0  0  0  0
  -22.0457  -12.8249   22.0402 N   0  0  0  0  0  0
  -25.4250  -15.1832   20.4128 N   0  0  0  0  0  0
  -31.7842  -14.8364   20.1524 O   0  0  0  0  0  0
  -21.6634   -6.8879   21.4245 O   0  0  0  0  0  0
  -22.3553  -14.5531   20.6687 O   0  0  0  0  0  0
  -24.6276  -31.8600   23.2042 C   0  0  0  0  0  0
  -25.9134  -32.4771   23.8365 C   0  0  1  0  0  0
  -27.2215  -27.3143   20.1238 C   0  0  0  0  0  0
  -25.5952  -33.8565   24.2299 N   0  0  0  0  0  0
  -23.4205  -30.4848   21.5465 C   0  0  2  0  0  0
  -24.8678  -28.9429   20.1108 C   0  0  0  0  0  0
  -22.7488  -29.4626   22.4949 C   0  0  0  0  0  0
  -18.0278  -28.1390   22.8467 C   0  0  0  0  0  0
  -24.1491  -36.7294   23.2636 C   0  0  0  0  0  0
  -25.9631  -30.7874   21.3799 C   0  0  0  0  0  0
  -26.0353  -29.4148   20.7235 C   0  0  0  0  0  0
  -27.2148  -28.6107   20.7252 C   0  0  0  0  0  0
  -26.0374  -26.9112   19.4627 C   0  0  0  0  0  0
  -24.8722  -27.6970   19.4690 C   0  0  0  0  0  0
  -23.6357  -29.8219   20.1604 C   0  0  0  0  0  0
  -25.4104  -36.3071   24.0336 C   0  0  1  0  0  0
  -20.5879  -28.3693   23.1285 C   0  0  2  0  0  0
  -20.6771  -26.9424   22.5407 C   0  0  0  0  0  0
  -19.5756  -26.6390   21.5202 C   0  0  0  0  0  0
  -18.1929  -26.7930   22.1608 C   0  0  0  0  0  0
  -19.1528  -28.8858   23.2866 C   0  0  0  0  0  0
  -18.9451  -30.1457   23.8891 C   0  0  0  0  0  0
  -17.6449  -30.6587   24.0553 C   0  0  0  0  0  0
  -25.9048  -34.9442   23.5115 C   0  0  0  0  0  0
  -16.5339  -29.9081   23.6334 C   0  0  0  0  0  0
  -16.7263  -28.6502   23.0348 C   0  0  0  0  0  0
  -26.4510  -31.6564   25.0728 C   0  0  0  0  0  0
  -25.3749  -31.3690   26.1463 C   0  0  0  0  0  0
  -27.0352  -30.2982   24.6195 C   0  0  0  0  0  0
  -27.6097  -32.4273   25.7484 C   0  0  0  0  0  0
  -27.5589  -37.1782   24.8451 C   0  0  0  0  0  0
  -21.4200  -29.3047   22.3691 N   0  0  0  0  0  0
  -26.4280  -37.3774   23.9424 N   0  0  0  0  0  0
  -24.6886  -31.0611   22.0997 N   0  0  0  0  0  0
  -23.4215  -28.8167   23.3024 O   0  0  0  0  0  0
  -28.3289  -26.4507   20.1670 O   0  0  0  0  0  0
  -26.5610  -34.8914   22.4678 O   0  0  0  0  0  0
  -23.5443  -32.1409   23.7369 O   0  0  0  0  0  0
  -30.6957  -19.3841   21.3039 C   0  0  0  0  0  0
  -30.7502  -17.9555   21.2991 C   0  0  0  0  0  0
  -28.8916  -19.3432   19.7299 C   0  0  0  0  0  0
  -28.9372  -17.9151   19.7114 C   0  0  0  0  0  0
  -29.7511  -20.1285   20.5392 C   0  0  0  0  0  0
  -29.8573  -17.1749   20.5200 C   0  0  0  0  0  0
  -30.1423  -23.6054   21.2773 C   0  0  0  0  0  0
  -31.3499  -24.2853   23.2912 C   0  0  0  0  0  0
  -30.7535  -24.6105   22.1268 C   0  0  0  0  0  0
  -28.6628  -22.4124   19.9476 C   0  0  0  0  0  0
  -29.1546  -23.8814   20.1699 C   0  0  1  0  0  0
  -27.9568  -17.2108   18.7904 C   0  0  0  0  0  0
  -28.0643  -25.0130   20.4517 C   0  0  0  0  0  0
  -30.4125  -22.3407   21.4077 N   0  0  0  0  0  0
  -29.6854  -21.5682   20.5998 N   0  0  0  0  0  0
  -29.7379  -15.7212   20.6661 N   0  0  0  0  0  0
  -31.4851  -12.5495   19.1432 H   0  0  0  0  0  0
  -30.3992  -11.4175   19.9047 H   0  0  0  0  0  0
  -29.7828  -11.7426   17.4863 H   0  0  0  0  0  0
  -29.6447  -13.4653   17.7304 H   0  0  0  0  0  0
  -27.8789  -11.2784   18.8783 H   0  0  0  0  0  0
  -27.3799  -12.5464   17.7920 H   0  0  0  0  0  0
  -27.6548  -14.2363   19.4963 H   0  0  0  0  0  0
  -28.7182  -12.0783   21.3886 H   0  0  0  0  0  0
  -28.4411  -13.7411   21.8232 H   0  0  0  0  0  0
  -25.2746   -9.5686   22.4768 H   0  0  0  0  0  0
  -24.0007   -7.4621   22.7472 H   0  0  0  0  0  0
  -21.0826   -8.8779   19.8958 H   0  0  0  0  0  0
  -22.3690  -10.9677   19.6169 H   0  0  0  0  0  0
  -21.2001   -7.6145   23.9723 H   0  0  0  0  0  0
  -21.1469   -6.0511   25.9082 H   0  0  0  0  0  0
  -22.0606   -2.7616   23.2833 H   0  0  0  0  0  0
  -22.4040  -11.9921   22.4828 H   0  0  0  0  0  0
  -21.1082  -13.1325   22.2573 H   0  0  0  0  0  0
  -24.6548  -15.8330   20.5274 H   0  0  0  0  0  0
  -26.2724  -15.6260   20.0899 H   0  0  0  0  0  0
  -26.7204  -32.5442   23.1114 H   0  0  0  0  0  0
  -25.0109  -33.9694   25.0453 H   0  0  0  0  0  0
  -22.7130  -31.3046   21.4047 H   0  0  0  0  0  0
  -23.3757  -35.9626   23.3254 H   0  0  0  0  0  0
  -24.3608  -36.8957   22.2067 H   0  0  0  0  0  0
  -23.7238  -37.6482   23.6673 H   0  0  0  0  0  0
  -26.0984  -31.5487   20.6104 H   0  0  0  0  0  0
  -26.8428  -30.8338   22.0097 H   0  0  0  0  0  0
  -28.1054  -28.9645   21.2253 H   0  0  0  0  0  0
  -25.9833  -25.9811   18.9193 H   0  0  0  0  0  0
  -23.9853  -27.3390   18.9639 H   0  0  0  0  0  0
  -23.7536  -30.5988   19.4045 H   0  0  0  0  0  0
  -22.7564  -29.2504   19.8589 H   0  0  0  0  0  0
  -25.1273  -36.1914   25.0828 H   0  0  0  0  0  0
  -20.9945  -28.3255   24.1415 H   0  0  0  0  0  0
  -20.5667  -26.2307   23.3601 H   0  0  0  0  0  0
  -21.6644  -26.7456   22.1209 H   0  0  0  0  0  0
  -19.6926  -25.6297   21.1241 H   0  0  0  0  0  0
  -19.6702  -27.3189   20.6722 H   0  0  0  0  0  0
  -17.4208  -26.6676   21.3999 H   0  0  0  0  0  0
  -18.0324  -26.0070   22.9001 H   0  0  0  0  0  0
  -19.7924  -30.7262   24.2276 H   0  0  0  0  0  0
  -17.5004  -31.6264   24.5157 H   0  0  0  0  0  0
  -15.5339  -30.2973   23.7671 H   0  0  0  0  0  0
  -15.8666  -28.0817   22.7073 H   0  0  0  0  0  0
  -24.5949  -30.7001   25.7786 H   0  0  0  0  0  0
  -24.8911  -32.2849   26.4868 H   0  0  0  0  0  0
  -25.8096  -30.8887   27.0243 H   0  0  0  0  0  0
  -26.2918  -29.6710   24.1258 H   0  0  0  0  0  0
  -27.4076  -29.7250   25.4695 H   0  0  0  0  0  0
  -27.8781  -30.4240   23.9399 H   0  0  0  0  0  0
  -27.2743  -33.3570   26.2084 H   0  0  0  0  0  0
  -28.3898  -32.6828   25.0298 H   0  0  0  0  0  0
  -28.0785  -31.8380   26.5379 H   0  0  0  0  0  0
  -28.2554  -38.0125   24.7556 H   0  0  0  0  0  0
  -28.1125  -36.2665   24.6164 H   0  0  0  0  0  0
  -27.2333  -37.1301   25.8855 H   0  0  0  0  0  0
  -20.9393  -29.8777   21.6898 H   0  0  0  0  0  0
  -26.0157  -38.2844   24.1431 H   0  0  0  0  0  0
  -31.3876  -19.9167   21.9408 H   0  0  0  0  0  0
  -31.4627  -17.4634   21.9465 H   0  0  0  0  0  0
  -28.1611  -19.8416   19.1091 H   0  0  0  0  0  0
  -31.7992  -25.0455   23.9146 H   0  0  0  0  0  0
  -31.4080  -23.2666   23.6515 H   0  0  0  0  0  0
  -30.7137  -25.6428   21.8081 H   0  0  0  0  0  0
  -28.5503  -22.1841   18.8869 H   0  0  0  0  0  0
  -27.7009  -22.2431   20.4346 H   0  0  0  0  0  0
  -29.7147  -24.1758   19.2825 H   0  0  0  0  0  0
  -27.8453  -17.7709   17.8610 H   0  0  0  0  0  0
  -26.9759  -17.1510   19.2590 H   0  0  0  0  0  0
  -28.2867  -16.2096   18.5170 H   0  0  0  0  0  0
  -27.7387  -24.9393   21.4904 H   0  0  0  0  0  0
  -27.2054  -24.6725   19.8824 H   0  0  0  0  0  0
  -28.7913  -15.4018   20.7942 H   0  0  0  0  0  0
  1 25  1  0  0  0
  1 30  2  0  0  0
  1 86  1  0  0  0
  2  3  1  0  0  0
  2 25  1  0  0  0
  2 87  1  0  0  0
  2 88  1  0  0  0
  3  4  1  0  0  0
  3 89  1  0  0  0
  3 90  1  0  0  0
  4  5  1  0  0  0
  4 91  1  0  0  0
  4 92  1  0  0  0
  5  6  1  0  0  0
  5 26  1  0  0  0
  5 93  1  0  0  0
  6 25  1  0  0  0
  6 94  1  0  0  0
  6 95  1  0  0  0
  7  8  2  0  0  0
  7 26  1  0  0  0
  7 29  1  0  0  0
  8  9  1  0  0  0
  8 22  1  0  0  0
  9 10  1  0  0  0
  9 27  2  0  0  0
 10 11  2  0  0  0
 10 15  1  0  0  0
 11 12  1  0  0  0
 11 96  1  0  0  0
 12 13  2  0  0  0
 12 97  1  0  0  0
 13 14  1  0  0  0
 13 31  1  0  0  0
 14 15  2  0  0  0
 14 98  1  0  0  0
 15 99  1  0  0  0
 16 17  2  0  0  0
 16 21  1  0  0  0
 16 31  1  0  0  0
 17 18  1  0  0  0
 17100  1  0  0  0
 18 19  2  0  0  0
 18101  1  0  0  0
 19 20  1  0  0  0
 19 24  1  0  0  0
 20 21  2  0  0  0
 20102  1  0  0  0
 21 23  1  0  0  0
 22 28  1  0  0  0
 22 32  2  0  0  0
 26 27  1  0  0  0
 28103  1  0  0  0
 28104  1  0  0  0
 29105  1  0  0  0
 29106  1  0  0  0
 33 34  1  0  0  0
 33 66  1  0  0  0
 33 70  2  0  0  0
 34 36  1  0  0  0
 34 59  1  0  0  0
 34107  1  0  0  0
 35 44  2  0  0  0
 35 45  1  0  0  0
 35 68  1  0  0  0
 36 56  1  0  0  0
 36108  1  0  0  0
 37 39  1  0  0  0
 37 47  1  0  0  0
 37 66  1  0  0  0
 37109  1  0  0  0
 38 43  2  0  0  0
 38 46  1  0  0  0
 38 47  1  0  0  0
 39 64  1  0  0  0
 39 67  2  0  0  0
 40 52  1  0  0  0
 40 53  2  0  0  0
 40 58  1  0  0  0
 41110  1  0  0  0
 41111  1  0  0  0
 41112  1  0  0  0
 41 48  1  0  0  0
 42 43  1  0  0  0
 42 66  1  0  0  0
 42113  1  0  0  0
 42114  1  0  0  0
 43 44  1  0  0  0
 44115  1  0  0  0
 45 46  2  0  0  0
 45116  1  0  0  0
 46117  1  0  0  0
 47118  1  0  0  0
 47119  1  0  0  0
 48 56  1  0  0  0
 48 65  1  0  0  0
 48120  1  0  0  0
 49 50  1  0  0  0
 49 53  1  0  0  0
 49 64  1  0  0  0
 49121  1  0  0  0
 50 51  1  0  0  0
 50122  1  0  0  0
 50123  1  0  0  0
 51 52  1  0  0  0
 51124  1  0  0  0
 51125  1  0  0  0
 52126  1  0  0  0
 52127  1  0  0  0
 53 54  1  0  0  0
 54 55  2  0  0  0
 54128  1  0  0  0
 55 57  1  0  0  0
 55129  1  0  0  0
 56 69  2  0  0  0
 57 58  2  0  0  0
 57130  1  0  0  0
 58131  1  0  0  0
 59 60  1  0  0  0
 59 61  1  0  0  0
 59 62  1  0  0  0
 60132  1  0  0  0
 60133  1  0  0  0
 60134  1  0  0  0
 61135  1  0  0  0
 61136  1  0  0  0
 61137  1  0  0  0
 62138  1  0  0  0
 62139  1  0  0  0
 62140  1  0  0  0
 63 65  1  0  0  0
 63141  1  0  0  0
 63142  1  0  0  0
 63143  1  0  0  0
 64144  1  0  0  0
 65145  1  0  0  0
 68 83  1  0  0  0
 71 72  2  0  0  0
 71 75  1  0  0  0
 71146  1  0  0  0
 72 76  1  0  0  0
 72147  1  0  0  0
 73 74  1  0  0  0
 73 75  2  0  0  0
 73148  1  0  0  0
 74 76  2  0  0  0
 74 82  1  0  0  0
 75 85  1  0  0  0
 76 86  1  0  0  0
 77 79  1  0  0  0
 77 81  1  0  0  0
 77 84  2  0  0  0
 78 79  2  0  0  0
 78149  1  0  0  0
 78150  1  0  0  0
 79151  1  0  0  0
 80 81  1  0  0  0
 80 85  1  0  0  0
 80152  1  0  0  0
 80153  1  0  0  0
 81 83  1  0  0  0
 81154  1  0  0  0
 82155  1  0  0  0
 82156  1  0  0  0
 82157  1  0  0  0
 83158  1  0  0  0
 83159  1  0  0  0
 84 85  1  0  0  0
 86160  1  0  0  0
M  ISO  4   1 100  68 101  83 101  86 100
M  END
> <chiral flag>
0

> <version>
0

> <s_m_source_file>
/data/baiqing/PycharmProjects/Reinvent-master-3.2/result/LINK_invent/BTK/process_docking_weight1_custom_product_contain_oxygen_bond_distance_aromatic_linkinvent_7_9_3/rearranged_h_0067.sdf

> <i_m_source_file_index>
86

> <r_mmod_Potential_Energy-OPLS-2005>
130.132934570312

> <r_mmod_Stretch_Energy-OPLS-2005>
77.754020690918

> <r_mmod_Bend_Energy-OPLS-2005>
184.248413085938

> <r_mmod_Torsional_Energy-OPLS-2005>
262.547912597656

> <r_mmod_Improper_Torsional_Energy-OPLS-2005>
6.75189924240112

> <r_mmod_Van_der_Waal_Energy-OPLS-2005>
142.462631225586

> <r_mmod_Electrostatic_Energy-OPLS-2005>
-382.288024902344

> <r_mmod_Solvation_Energy-OPLS-2005>
-219.633438110352

> <b_mmod_Minimization_Converged-OPLS-2005>
0

> <r_mmod_RMS_Derivative-OPLS-2005>
2.0092077255249

$$$$
87
                    3D
 Structure written by MMmdl.
164173  0  0  1  0            999 V2000
  -30.5834  -14.7714   20.4605 C   0  0  0  0  0  0
  -30.4439  -12.4728   19.4778 C   0  0  0  0  0  0
  -29.5160  -12.5147   18.2398 C   0  0  0  0  0  0
  -28.0447  -12.3198   18.6544 C   0  0  0  0  0  0
  -27.6448  -13.2143   19.8580 C   0  0  2  0  0  0
  -28.6906  -13.1422   20.9942 C   0  0  0  0  0  0
  -25.2516  -13.8119   20.5686 C   0  0  0  0  0  0
  -24.1784  -13.0387   20.9157 C   0  0  0  0  0  0
  -24.6355  -11.6860   20.8701 C   0  0  0  0  0  0
  -23.9022  -10.4247   21.0384 C   0  0  0  0  0  0
  -24.3569   -9.4174   21.9180 C   0  0  0  0  0  0
  -23.6255   -8.2209   22.0754 C   0  0  0  0  0  0
  -22.4245   -8.0233   21.3540 C   0  0  0  0  0  0
  -21.9868   -9.0199   20.4638 C   0  0  0  0  0  0
  -22.7184  -10.2087   20.3043 C   0  0  0  0  0  0
  -21.6845   -6.0686   22.5269 C   0  0  0  0  0  0
  -21.4002   -6.5603   23.8191 C   0  0  0  0  0  0
  -21.3661   -5.6769   24.9163 C   0  0  0  0  0  0
  -21.6051   -4.3030   24.7232 C   0  0  0  0  0  0
  -21.8818   -3.8111   23.4358 C   0  0  0  0  0  0
  -21.9183   -4.6913   22.3406 C   0  0  0  0  0  0
  -22.7805  -13.5187   21.1833 C   0  0  0  0  0  0
  -22.1657   -4.2089   21.0987 F   0  0  0  0  0  0
  -21.5637   -3.4526   25.7759 F   0  0  0  0  0  0
  -29.9933  -13.5220   20.4251 N   0  0  0  0  0  0
  -26.2942  -12.9302   20.3296 N   0  0  0  0  0  0
  -25.9278  -11.6454   20.5719 N   0  0  0  0  0  0
  -22.0446  -12.8199   22.0394 N   0  0  0  0  0  0
  -25.4198  -15.1862   20.4172 N   0  0  0  0  0  0
  -31.7379  -14.9106   20.0458 O   0  0  0  0  0  0
  -21.6629   -6.8825   21.4231 O   0  0  0  0  0  0
  -22.3494  -14.5490   20.6663 O   0  0  0  0  0  0
  -24.6335  -31.8532   23.1964 C   0  0  0  0  0  0
  -25.9146  -32.4749   23.8324 C   0  0  1  0  0  0
  -27.2219  -27.2543   20.1495 C   0  0  0  0  0  0
  -25.5923  -33.8551   24.2240 N   0  0  0  0  0  0
  -23.4325  -30.4738   21.5370 C   0  0  2  0  0  0
  -24.8855  -28.9219   20.1051 C   0  0  0  0  0  0
  -22.7532  -29.4601   22.4901 C   0  0  0  0  0  0
  -18.0342  -28.1386   22.8454 C   0  0  0  0  0  0
  -24.1485  -36.7289   23.2642 C   0  0  0  0  0  0
  -25.9790  -30.7632   21.3828 C   0  0  0  0  0  0
  -26.0535  -29.3855   20.7250 C   0  0  0  0  0  0
  -27.2264  -28.5630   20.7406 C   0  0  0  0  0  0
  -26.0511  -26.8780   19.4571 C   0  0  0  0  0  0
  -24.8897  -27.6759   19.4572 C   0  0  0  0  0  0
  -23.6545  -29.8055   20.1534 C   0  0  0  0  0  0
  -25.4116  -36.3078   24.0329 C   0  0  1  0  0  0
  -20.5936  -28.3673   23.1264 C   0  0  2  0  0  0
  -20.6797  -26.9403   22.5352 C   0  0  0  0  0  0
  -19.5795  -26.6448   21.5090 C   0  0  0  0  0  0
  -18.1985  -26.7962   22.1501 C   0  0  0  0  0  0
  -19.1585  -28.8843   23.2890 C   0  0  0  0  0  0
  -18.9495  -30.1424   23.8945 C   0  0  0  0  0  0
  -17.6510  -30.6565   24.0622 C   0  0  0  0  0  0
  -25.9065  -34.9444   23.5098 C   0  0  0  0  0  0
  -16.5420  -29.9088   23.6348 C   0  0  0  0  0  0
  -16.7324  -28.6527   23.0310 C   0  0  0  0  0  0
  -26.4494  -31.6587   25.0733 C   0  0  0  0  0  0
  -25.3698  -31.3746   26.1443 C   0  0  0  0  0  0
  -27.0353  -30.3001   24.6259 C   0  0  0  0  0  0
  -27.6038  -32.4338   25.7516 C   0  0  0  0  0  0
  -27.5579  -37.1804   24.8466 C   0  0  0  0  0  0
  -21.4242  -29.3033   22.3654 N   0  0  0  0  0  0
  -26.4298  -37.3774   23.9400 N   0  0  0  0  0  0
  -24.7001  -31.0498   22.0939 N   0  0  0  0  0  0
  -23.4206  -28.8159   23.3032 O   0  0  0  0  0  0
  -28.2818  -26.3174   20.2266 O   0  0  0  0  0  0
  -26.5644  -34.8922   22.4674 O   0  0  0  0  0  0
  -23.5478  -32.1355   23.7235 O   0  0  0  0  0  0
  -27.9676  -18.1904   18.6059 C   0  0  0  0  0  0
  -28.5803  -17.0530   19.1624 C   0  0  0  0  0  0
  -29.7927  -18.5052   20.6815 C   0  0  0  0  0  0
  -28.2596  -19.4954   19.0572 C   0  0  0  0  0  0
  -29.2174  -19.7120   20.0801 C   0  0  0  0  0  0
  -29.4870  -17.1462   20.2362 C   0  0  0  0  0  0
  -28.7533  -23.6697   20.2416 C   0  0  0  0  0  0
  -26.5553  -23.8263   22.7108 C   0  0  0  0  0  0
  -26.8703  -22.3636   22.4141 C   0  0  0  0  0  0
  -26.6712  -24.7367   21.4865 C   0  0  0  0  0  0
  -28.3632  -22.1091   22.1852 C   0  0  0  0  0  0
  -28.1150  -24.9846   20.9552 C   0  0  2  0  0  0
  -27.5502  -20.6582   18.3853 C   0  0  0  0  0  0
  -29.7153  -21.2158   20.3464 C   0  0  0  0  0  0
  -28.8308  -22.3874   20.8226 N   0  0  0  0  0  0
  -29.8345  -15.8564   20.8988 N   0  0  0  0  0  0
  -29.2373  -23.8506   19.1209 O   0  0  0  0  0  0
  -31.4834  -12.6082   19.1742 H   0  0  0  0  0  0
  -30.4040  -11.4931   19.9586 H   0  0  0  0  0  0
  -29.8123  -11.7452   17.5249 H   0  0  0  0  0  0
  -29.6270  -13.4707   17.7236 H   0  0  0  0  0  0
  -27.9157  -11.2689   18.9201 H   0  0  0  0  0  0
  -27.3836  -12.4989   17.8062 H   0  0  0  0  0  0
  -27.6332  -14.2336   19.4857 H   0  0  0  0  0  0
  -28.7375  -12.1332   21.4053 H   0  0  0  0  0  0
  -28.4082  -13.7900   21.8238 H   0  0  0  0  0  0
  -25.2699   -9.5655   22.4771 H   0  0  0  0  0  0
  -23.9943   -7.4599   22.7481 H   0  0  0  0  0  0
  -21.0788   -8.8679   19.8961 H   0  0  0  0  0  0
  -22.3598  -10.9608   19.6150 H   0  0  0  0  0  0
  -21.1990   -7.6107   23.9669 H   0  0  0  0  0  0
  -21.1507   -6.0514   25.9061 H   0  0  0  0  0  0
  -22.0610   -2.7567   23.2881 H   0  0  0  0  0  0
  -22.4040  -11.9886   22.4853 H   0  0  0  0  0  0
  -21.1049  -13.1219   22.2557 H   0  0  0  0  0  0
  -24.6492  -15.8343   20.5348 H   0  0  0  0  0  0
  -26.2766  -15.6420   20.1341 H   0  0  0  0  0  0
  -26.7225  -32.5412   23.1078 H   0  0  0  0  0  0
  -25.0065  -33.9678   25.0385 H   0  0  0  0  0  0
  -22.7288  -31.2938   21.3858 H   0  0  0  0  0  0
  -23.3756  -35.9616   23.3319 H   0  0  0  0  0  0
  -24.3571  -36.8903   22.2054 H   0  0  0  0  0  0
  -23.7233  -37.6492   23.6659 H   0  0  0  0  0  0
  -26.1272  -31.5219   20.6130 H   0  0  0  0  0  0
  -26.8539  -30.8103   22.0210 H   0  0  0  0  0  0
  -28.1173  -28.9073   21.2492 H   0  0  0  0  0  0
  -26.0199  -25.9216   18.9551 H   0  0  0  0  0  0
  -24.0026  -27.3189   18.9535 H   0  0  0  0  0  0
  -23.7833  -30.5793   19.3970 H   0  0  0  0  0  0
  -22.7754  -29.2355   19.8469 H   0  0  0  0  0  0
  -25.1293  -36.1945   25.0823 H   0  0  0  0  0  0
  -21.0036  -28.3259   24.1385 H   0  0  0  0  0  0
  -20.5609  -26.2261   23.3532 H   0  0  0  0  0  0
  -21.6673  -26.7395   22.1185 H   0  0  0  0  0  0
  -19.6923  -25.6375   21.1054 H   0  0  0  0  0  0
  -19.6768  -27.3296   20.6661 H   0  0  0  0  0  0
  -17.4243  -26.6686   21.3909 H   0  0  0  0  0  0
  -18.0471  -26.0018   22.8795 H   0  0  0  0  0  0
  -19.7977  -30.7210   24.2336 H   0  0  0  0  0  0
  -17.5070  -31.6255   24.5250 H   0  0  0  0  0  0
  -15.5419  -30.2991   23.7714 H   0  0  0  0  0  0
  -15.8700  -28.0905   22.6950 H   0  0  0  0  0  0
  -24.5878  -30.7097   25.7752 H   0  0  0  0  0  0
  -24.8892  -32.2922   26.4847 H   0  0  0  0  0  0
  -25.8007  -30.8930   27.0231 H   0  0  0  0  0  0
  -26.2953  -29.6749   24.1255 H   0  0  0  0  0  0
  -27.3974  -29.7277   25.4800 H   0  0  0  0  0  0
  -27.8854  -30.4256   23.9557 H   0  0  0  0  0  0
  -27.2629  -33.3639   26.2078 H   0  0  0  0  0  0
  -28.3865  -32.6899   25.0363 H   0  0  0  0  0  0
  -28.0691  -31.8481   26.5453 H   0  0  0  0  0  0
  -28.2603  -38.0089   24.7501 H   0  0  0  0  0  0
  -28.1065  -36.2625   24.6316 H   0  0  0  0  0  0
  -27.2292  -37.1478   25.8865 H   0  0  0  0  0  0
  -20.9451  -29.8751   21.6832 H   0  0  0  0  0  0
  -26.0192  -38.2862   24.1379 H   0  0  0  0  0  0
  -27.2524  -18.0437   17.8070 H   0  0  0  0  0  0
  -28.3044  -16.0909   18.7640 H   0  0  0  0  0  0
  -30.4917  -18.6249   21.4980 H   0  0  0  0  0  0
  -27.1877  -24.1980   23.5196 H   0  0  0  0  0  0
  -25.5353  -23.8917   23.0916 H   0  0  0  0  0  0
  -26.2770  -21.9936   21.5768 H   0  0  0  0  0  0
  -26.5607  -21.7784   23.2805 H   0  0  0  0  0  0
  -26.2274  -25.6732   21.8211 H   0  0  0  0  0  0
  -26.0297  -24.3605   20.6869 H   0  0  0  0  0  0
  -28.5366  -21.0580   22.4229 H   0  0  0  0  0  0
  -28.9757  -22.6616   22.9025 H   0  0  0  0  0  0
  -28.7276  -25.1323   21.8460 H   0  0  0  0  0  0
  -28.2586  -21.2989   17.8617 H   0  0  0  0  0  0
  -27.0080  -21.2518   19.1224 H   0  0  0  0  0  0
  -26.8198  -20.3129   17.6550 H   0  0  0  0  0  0
  -30.1873  -21.5207   19.4113 H   0  0  0  0  0  0
  -30.5538  -21.1518   21.0394 H   0  0  0  0  0  0
  -29.0539  -15.5092   21.4336 H   0  0  0  0  0  0
  1 25  1  0  0  0
  1 30  2  0  0  0
  1 86  1  0  0  0
  2  3  1  0  0  0
  2 25  1  0  0  0
  2 88  1  0  0  0
  2 89  1  0  0  0
  3  4  1  0  0  0
  3 90  1  0  0  0
  3 91  1  0  0  0
  4  5  1  0  0  0
  4 92  1  0  0  0
  4 93  1  0  0  0
  5  6  1  0  0  0
  5 26  1  0  0  0
  5 94  1  0  0  0
  6 25  1  0  0  0
  6 95  1  0  0  0
  6 96  1  0  0  0
  7  8  2  0  0  0
  7 26  1  0  0  0
  7 29  1  0  0  0
  8  9  1  0  0  0
  8 22  1  0  0  0
  9 10  1  0  0  0
  9 27  2  0  0  0
 10 11  2  0  0  0
 10 15  1  0  0  0
 11 12  1  0  0  0
 11 97  1  0  0  0
 12 13  2  0  0  0
 12 98  1  0  0  0
 13 14  1  0  0  0
 13 31  1  0  0  0
 14 15  2  0  0  0
 14 99  1  0  0  0
 15100  1  0  0  0
 16 17  2  0  0  0
 16 21  1  0  0  0
 16 31  1  0  0  0
 17 18  1  0  0  0
 17101  1  0  0  0
 18 19  2  0  0  0
 18102  1  0  0  0
 19 20  1  0  0  0
 19 24  1  0  0  0
 20 21  2  0  0  0
 20103  1  0  0  0
 21 23  1  0  0  0
 22 28  1  0  0  0
 22 32  2  0  0  0
 26 27  1  0  0  0
 28104  1  0  0  0
 28105  1  0  0  0
 29106  1  0  0  0
 29107  1  0  0  0
 33 34  1  0  0  0
 33 66  1  0  0  0
 33 70  2  0  0  0
 34 36  1  0  0  0
 34 59  1  0  0  0
 34108  1  0  0  0
 35 44  2  0  0  0
 35 45  1  0  0  0
 35 68  1  0  0  0
 36 56  1  0  0  0
 36109  1  0  0  0
 37 39  1  0  0  0
 37 47  1  0  0  0
 37 66  1  0  0  0
 37110  1  0  0  0
 38 43  2  0  0  0
 38 46  1  0  0  0
 38 47  1  0  0  0
 39 64  1  0  0  0
 39 67  2  0  0  0
 40 52  1  0  0  0
 40 53  2  0  0  0
 40 58  1  0  0  0
 41111  1  0  0  0
 41112  1  0  0  0
 41113  1  0  0  0
 41 48  1  0  0  0
 42 43  1  0  0  0
 42 66  1  0  0  0
 42114  1  0  0  0
 42115  1  0  0  0
 43 44  1  0  0  0
 44116  1  0  0  0
 45 46  2  0  0  0
 45117  1  0  0  0
 46118  1  0  0  0
 47119  1  0  0  0
 47120  1  0  0  0
 48 56  1  0  0  0
 48 65  1  0  0  0
 48121  1  0  0  0
 49 50  1  0  0  0
 49 53  1  0  0  0
 49 64  1  0  0  0
 49122  1  0  0  0
 50 51  1  0  0  0
 50123  1  0  0  0
 50124  1  0  0  0
 51 52  1  0  0  0
 51125  1  0  0  0
 51126  1  0  0  0
 52127  1  0  0  0
 52128  1  0  0  0
 53 54  1  0  0  0
 54 55  2  0  0  0
 54129  1  0  0  0
 55 57  1  0  0  0
 55130  1  0  0  0
 56 69  2  0  0  0
 57 58  2  0  0  0
 57131  1  0  0  0
 58132  1  0  0  0
 59 60  1  0  0  0
 59 61  1  0  0  0
 59 62  1  0  0  0
 60133  1  0  0  0
 60134  1  0  0  0
 60135  1  0  0  0
 61136  1  0  0  0
 61137  1  0  0  0
 61138  1  0  0  0
 62139  1  0  0  0
 62140  1  0  0  0
 62141  1  0  0  0
 63 65  1  0  0  0
 63142  1  0  0  0
 63143  1  0  0  0
 63144  1  0  0  0
 64145  1  0  0  0
 65146  1  0  0  0
 68 82  1  0  0  0
 71 72  2  0  0  0
 71 74  1  0  0  0
 71147  1  0  0  0
 72 76  1  0  0  0
 72148  1  0  0  0
 73 75  1  0  0  0
 73 76  2  0  0  0
 73149  1  0  0  0
 74 75  2  0  0  0
 74 83  1  0  0  0
 75 84  1  0  0  0
 76 86  1  0  0  0
 77 82  1  0  0  0
 77 85  1  0  0  0
 77 87  2  0  0  0
 78 79  1  0  0  0
 78 80  1  0  0  0
 78150  1  0  0  0
 78151  1  0  0  0
 79 81  1  0  0  0
 79152  1  0  0  0
 79153  1  0  0  0
 80 82  1  0  0  0
 80154  1  0  0  0
 80155  1  0  0  0
 81 85  1  0  0  0
 81156  1  0  0  0
 81157  1  0  0  0
 82158  1  0  0  0
 83159  1  0  0  0
 83160  1  0  0  0
 83161  1  0  0  0
 84 85  1  0  0  0
 84162  1  0  0  0
 84163  1  0  0  0
 86164  1  0  0  0
M  ISO  4   1 100  68 101  82 101  86 100
M  END
> <chiral flag>
0

> <version>
0

> <s_m_source_file>
/data/baiqing/PycharmProjects/Reinvent-master-3.2/result/LINK_invent/BTK/process_docking_weight1_custom_product_contain_oxygen_bond_distance_aromatic_linkinvent_7_9_3/rearranged_h_0067.sdf

> <i_m_source_file_index>
87

> <r_mmod_Potential_Energy-OPLS-2005>
356.340301513672

> <r_mmod_Stretch_Energy-OPLS-2005>
150.696655273438

> <r_mmod_Bend_Energy-OPLS-2005>
194.095977783203

> <r_mmod_Torsional_Energy-OPLS-2005>
321.764923095703

> <r_mmod_Improper_Torsional_Energy-OPLS-2005>
8.21799087524414

> <r_mmod_Van_der_Waal_Energy-OPLS-2005>
137.404663085938

> <r_mmod_Electrostatic_Energy-OPLS-2005>
-326.175811767578

> <r_mmod_Solvation_Energy-OPLS-2005>
-228.520645141602

> <b_mmod_Minimization_Converged-OPLS-2005>
0

> <r_mmod_RMS_Derivative-OPLS-2005>
3.33358478546143

$$$$
88
                    3D
 Structure written by MMmdl.
156164  0  0  1  0            999 V2000
  -30.6124  -14.6465   20.4948 C   0  0  0  0  0  0
  -30.4420  -12.3966   19.4469 C   0  0  0  0  0  0
  -29.5077  -12.5048   18.2205 C   0  0  0  0  0  0
  -28.0302  -12.3434   18.6332 C   0  0  0  0  0  0
  -27.6517  -13.2150   19.8606 C   0  0  2  0  0  0
  -28.6985  -13.0709   20.9888 C   0  0  0  0  0  0
  -25.2555  -13.8165   20.5689 C   0  0  0  0  0  0
  -24.1821  -13.0424   20.9176 C   0  0  0  0  0  0
  -24.6396  -11.6900   20.8732 C   0  0  0  0  0  0
  -23.9063  -10.4284   21.0398 C   0  0  0  0  0  0
  -24.3614   -9.4204   21.9182 C   0  0  0  0  0  0
  -23.6288   -8.2241   22.0755 C   0  0  0  0  0  0
  -22.4273   -8.0278   21.3543 C   0  0  0  0  0  0
  -21.9905   -9.0251   20.4645 C   0  0  0  0  0  0
  -22.7233  -10.2128   20.3049 C   0  0  0  0  0  0
  -21.6851   -6.0735   22.5280 C   0  0  0  0  0  0
  -21.4014   -6.5640   23.8215 C   0  0  0  0  0  0
  -21.3659   -5.6792   24.9176 C   0  0  0  0  0  0
  -21.6042   -4.3053   24.7227 C   0  0  0  0  0  0
  -21.8819   -3.8147   23.4347 C   0  0  0  0  0  0
  -21.9195   -4.6963   22.3402 C   0  0  0  0  0  0
  -22.7844  -13.5220   21.1850 C   0  0  0  0  0  0
  -22.1664   -4.2149   21.0977 F   0  0  0  0  0  0
  -21.5628   -3.4534   25.7739 F   0  0  0  0  0  0
  -30.0124  -13.4162   20.4224 N   0  0  0  0  0  0
  -26.2982  -12.9347   20.3313 N   0  0  0  0  0  0
  -25.9325  -11.6501   20.5749 N   0  0  0  0  0  0
  -22.0490  -12.8214   22.0408 N   0  0  0  0  0  0
  -25.4218  -15.1891   20.4155 N   0  0  0  0  0  0
  -31.7862  -14.8145   20.1501 O   0  0  0  0  0  0
  -21.6637   -6.8877   21.4240 O   0  0  0  0  0  0
  -22.3525  -14.5532   20.6709 O   0  0  0  0  0  0
  -24.6258  -31.8606   23.2011 C   0  0  0  0  0  0
  -25.9101  -32.4787   23.8345 C   0  0  1  0  0  0
  -27.2244  -27.3192   20.1164 C   0  0  0  0  0  0
  -25.5920  -33.8586   24.2280 N   0  0  0  0  0  0
  -23.4193  -30.4835   21.5446 C   0  0  2  0  0  0
  -24.8653  -28.9371   20.1115 C   0  0  0  0  0  0
  -22.7477  -29.4628   22.4943 C   0  0  0  0  0  0
  -18.0292  -28.1384   22.8501 C   0  0  0  0  0  0
  -24.1487  -36.7288   23.2639 C   0  0  0  0  0  0
  -25.9602  -30.7913   21.3708 C   0  0  0  0  0  0
  -26.0341  -29.4181   20.7143 C   0  0  0  0  0  0
  -27.2169  -28.6211   20.7055 C   0  0  0  0  0  0
  -26.0300  -26.8892   19.4936 C   0  0  0  0  0  0
  -24.8645  -27.6782   19.4926 C   0  0  0  0  0  0
  -23.6335  -29.8174   20.1604 C   0  0  0  0  0  0
  -25.4117  -36.3090   24.0334 C   0  0  1  0  0  0
  -20.5897  -28.3681   23.1296 C   0  0  2  0  0  0
  -20.6789  -26.9408   22.5413 C   0  0  0  0  0  0
  -19.5766  -26.6389   21.5216 C   0  0  0  0  0  0
  -18.1942  -26.7937   22.1623 C   0  0  0  0  0  0
  -19.1545  -28.8849   23.2897 C   0  0  0  0  0  0
  -18.9469  -30.1457   23.8909 C   0  0  0  0  0  0
  -17.6469  -30.6594   24.0568 C   0  0  0  0  0  0
  -25.9053  -34.9460   23.5108 C   0  0  0  0  0  0
  -16.5359  -29.9097   23.6334 C   0  0  0  0  0  0
  -16.7278  -28.6508   23.0364 C   0  0  0  0  0  0
  -26.4490  -31.6590   25.0709 C   0  0  0  0  0  0
  -25.3727  -31.3726   26.1435 C   0  0  0  0  0  0
  -27.0324  -30.3023   24.6135 C   0  0  0  0  0  0
  -27.6054  -32.4312   25.7485 C   0  0  0  0  0  0
  -27.5585  -37.1805   24.8474 C   0  0  0  0  0  0
  -21.4191  -29.3042   22.3692 N   0  0  0  0  0  0
  -26.4300  -37.3782   23.9414 N   0  0  0  0  0  0
  -24.6874  -31.0615   22.0957 N   0  0  0  0  0  0
  -23.4209  -28.8177   23.3022 O   0  0  0  0  0  0
  -28.3494  -26.4810   20.1639 O   0  0  0  0  0  0
  -26.5619  -34.8927   22.4672 O   0  0  0  0  0  0
  -23.5422  -32.1391   23.7349 O   0  0  0  0  0  0
  -28.7167  -19.3484   20.5563 C   0  0  0  0  0  0
  -31.0970  -17.8773   20.8278 C   0  0  0  0  0  0
  -29.9100  -20.0870   20.7582 C   0  0  0  0  0  0
  -29.8936  -17.1437   20.6842 C   0  0  0  0  0  0
  -28.7115  -17.9201   20.5311 C   0  0  0  0  0  0
  -31.1037  -19.3043   20.8688 C   0  0  0  0  0  0
  -29.9261  -21.5933   20.9735 C   0  0  0  0  0  0
  -30.6208  -24.5140   19.5265 C   0  0  0  0  0  0
  -28.1666  -25.0177   20.0025 C   0  0  0  0  0  0
  -29.4044  -24.0873   20.3650 C   0  0  1  0  0  0
  -30.7040  -22.0458   21.9570 N   0  0  0  0  0  0
  -29.7655  -15.6876   20.7590 N   0  0  0  0  0  0
  -29.2299  -22.5648   20.2848 N   0  3  0  0  0  0
  -27.5323  -17.2707   20.3763 F   0  0  0  0  0  0
  -32.2948  -19.9213   21.0674 F   0  0  0  0  0  0
  -31.4817  -12.5320   19.1424 H   0  0  0  0  0  0
  -30.3858  -11.4008   19.8894 H   0  0  0  0  0  0
  -29.7727  -11.7509   17.4781 H   0  0  0  0  0  0
  -29.6484  -13.4720   17.7353 H   0  0  0  0  0  0
  -27.8668  -11.2903   18.8647 H   0  0  0  0  0  0
  -27.3759  -12.5733   17.7917 H   0  0  0  0  0  0
  -27.6646  -14.2490   19.5164 H   0  0  0  0  0  0
  -28.7118  -12.0492   21.3715 H   0  0  0  0  0  0
  -28.4450  -13.7036   21.8410 H   0  0  0  0  0  0
  -25.2761   -9.5683   22.4753 H   0  0  0  0  0  0
  -24.0004   -7.4630   22.7469 H   0  0  0  0  0  0
  -21.0841   -8.8762   19.8946 H   0  0  0  0  0  0
  -22.3694  -10.9664   19.6154 H   0  0  0  0  0  0
  -21.2003   -7.6150   23.9719 H   0  0  0  0  0  0
  -21.1481   -6.0521   25.9080 H   0  0  0  0  0  0
  -22.0599   -2.7609   23.2845 H   0  0  0  0  0  0
  -22.4107  -11.9869   22.4785 H   0  0  0  0  0  0
  -21.1105  -13.1233   22.2613 H   0  0  0  0  0  0
  -24.6510  -15.8336   20.5463 H   0  0  0  0  0  0
  -26.2766  -15.6619   20.1463 H   0  0  0  0  0  0
  -26.7172  -32.5451   23.1094 H   0  0  0  0  0  0
  -25.0089  -33.9731   25.0441 H   0  0  0  0  0  0
  -22.7127  -31.3040   21.4023 H   0  0  0  0  0  0
  -23.3758  -35.9610   23.3309 H   0  0  0  0  0  0
  -24.3586  -36.8892   22.2053 H   0  0  0  0  0  0
  -23.7234  -37.6492   23.6648 H   0  0  0  0  0  0
  -26.0906  -31.5539   20.6018 H   0  0  0  0  0  0
  -26.8421  -30.8419   21.9978 H   0  0  0  0  0  0
  -28.1153  -28.9860   21.1836 H   0  0  0  0  0  0
  -25.9657  -25.9273   19.0082 H   0  0  0  0  0  0
  -23.9673  -27.3041   19.0192 H   0  0  0  0  0  0
  -23.7532  -30.5931   19.4032 H   0  0  0  0  0  0
  -22.7528  -29.2473   19.8589 H   0  0  0  0  0  0
  -25.1298  -36.1943   25.0828 H   0  0  0  0  0  0
  -20.9983  -28.3246   24.1418 H   0  0  0  0  0  0
  -20.5705  -26.2281   23.3604 H   0  0  0  0  0  0
  -21.6656  -26.7464   22.1192 H   0  0  0  0  0  0
  -19.6924  -25.6300   21.1240 H   0  0  0  0  0  0
  -19.6703  -27.3211   20.6757 H   0  0  0  0  0  0
  -17.4214  -26.6697   21.4018 H   0  0  0  0  0  0
  -18.0335  -26.0081   22.9016 H   0  0  0  0  0  0
  -19.7941  -30.7278   24.2274 H   0  0  0  0  0  0
  -17.5024  -31.6276   24.5170 H   0  0  0  0  0  0
  -15.5361  -30.3004   23.7650 H   0  0  0  0  0  0
  -15.8679  -28.0828   22.7078 H   0  0  0  0  0  0
  -24.5914  -30.7058   25.7769 H   0  0  0  0  0  0
  -24.8900  -32.2888   26.4847 H   0  0  0  0  0  0
  -25.8052  -30.8923   27.0220 H   0  0  0  0  0  0
  -26.2883  -29.6789   24.1161 H   0  0  0  0  0  0
  -27.4057  -29.7259   25.4611 H   0  0  0  0  0  0
  -27.8736  -30.4337   23.9325 H   0  0  0  0  0  0
  -27.2677  -33.3620   26.2059 H   0  0  0  0  0  0
  -28.3870  -32.6856   25.0312 H   0  0  0  0  0  0
  -28.0712  -31.8432   26.5404 H   0  0  0  0  0  0
  -28.2607  -38.0096   24.7518 H   0  0  0  0  0  0
  -28.1072  -36.2630   24.6301 H   0  0  0  0  0  0
  -27.2303  -37.1455   25.8876 H   0  0  0  0  0  0
  -20.9362  -29.8749   21.6892 H   0  0  0  0  0  0
  -26.0181  -38.2854   24.1412 H   0  0  0  0  0  0
  -27.7763  -19.8724   20.4735 H   0  0  0  0  0  0
  -32.0315  -17.3530   20.9551 H   0  0  0  0  0  0
  -30.9633  -25.5057   19.8245 H   0  0  0  0  0  0
  -30.3741  -24.5610   18.4659 H   0  0  0  0  0  0
  -31.4614  -23.8303   19.6431 H   0  0  0  0  0  0
  -27.3198  -24.6993   20.6121 H   0  0  0  0  0  0
  -27.8930  -24.8210   18.9658 H   0  0  0  0  0  0
  -29.6336  -24.3165   21.4065 H   0  0  0  0  0  0
  -31.3257  -21.3960   22.4177 H   0  0  0  0  0  0
  -30.7265  -23.0090   22.2413 H   0  0  0  0  0  0
  -28.8184  -15.3839   20.9226 H   0  0  0  0  0  0
  -28.6706  -22.2305   19.5086 H   0  0  0  0  0  0
  1 25  1  0  0  0
  1 30  2  0  0  0
  1 82  1  0  0  0
  2  3  1  0  0  0
  2 25  1  0  0  0
  2 86  1  0  0  0
  2 87  1  0  0  0
  3  4  1  0  0  0
  3 88  1  0  0  0
  3 89  1  0  0  0
  4  5  1  0  0  0
  4 90  1  0  0  0
  4 91  1  0  0  0
  5  6  1  0  0  0
  5 26  1  0  0  0
  5 92  1  0  0  0
  6 25  1  0  0  0
  6 93  1  0  0  0
  6 94  1  0  0  0
  7  8  2  0  0  0
  7 26  1  0  0  0
  7 29  1  0  0  0
  8  9  1  0  0  0
  8 22  1  0  0  0
  9 10  1  0  0  0
  9 27  2  0  0  0
 10 11  2  0  0  0
 10 15  1  0  0  0
 11 12  1  0  0  0
 11 95  1  0  0  0
 12 13  2  0  0  0
 12 96  1  0  0  0
 13 14  1  0  0  0
 13 31  1  0  0  0
 14 15  2  0  0  0
 14 97  1  0  0  0
 15 98  1  0  0  0
 16 17  2  0  0  0
 16 21  1  0  0  0
 16 31  1  0  0  0
 17 18  1  0  0  0
 17 99  1  0  0  0
 18 19  2  0  0  0
 18100  1  0  0  0
 19 20  1  0  0  0
 19 24  1  0  0  0
 20 21  2  0  0  0
 20101  1  0  0  0
 21 23  1  0  0  0
 22 28  1  0  0  0
 22 32  2  0  0  0
 26 27  1  0  0  0
 28102  1  0  0  0
 28103  1  0  0  0
 29104  1  0  0  0
 29105  1  0  0  0
 33 34  1  0  0  0
 33 66  1  0  0  0
 33 70  2  0  0  0
 34 36  1  0  0  0
 34 59  1  0  0  0
 34106  1  0  0  0
 35 44  2  0  0  0
 35 45  1  0  0  0
 35 68  1  0  0  0
 36 56  1  0  0  0
 36107  1  0  0  0
 37 39  1  0  0  0
 37 47  1  0  0  0
 37 66  1  0  0  0
 37108  1  0  0  0
 38 43  2  0  0  0
 38 46  1  0  0  0
 38 47  1  0  0  0
 39 64  1  0  0  0
 39 67  2  0  0  0
 40 52  1  0  0  0
 40 53  2  0  0  0
 40 58  1  0  0  0
 41109  1  0  0  0
 41110  1  0  0  0
 41111  1  0  0  0
 41 48  1  0  0  0
 42 43  1  0  0  0
 42 66  1  0  0  0
 42112  1  0  0  0
 42113  1  0  0  0
 43 44  1  0  0  0
 44114  1  0  0  0
 45 46  2  0  0  0
 45115  1  0  0  0
 46116  1  0  0  0
 47117  1  0  0  0
 47118  1  0  0  0
 48 56  1  0  0  0
 48 65  1  0  0  0
 48119  1  0  0  0
 49 50  1  0  0  0
 49 53  1  0  0  0
 49 64  1  0  0  0
 49120  1  0  0  0
 50 51  1  0  0  0
 50121  1  0  0  0
 50122  1  0  0  0
 51 52  1  0  0  0
 51123  1  0  0  0
 51124  1  0  0  0
 52125  1  0  0  0
 52126  1  0  0  0
 53 54  1  0  0  0
 54 55  2  0  0  0
 54127  1  0  0  0
 55 57  1  0  0  0
 55128  1  0  0  0
 56 69  2  0  0  0
 57 58  2  0  0  0
 57129  1  0  0  0
 58130  1  0  0  0
 59 60  1  0  0  0
 59 61  1  0  0  0
 59 62  1  0  0  0
 60131  1  0  0  0
 60132  1  0  0  0
 60133  1  0  0  0
 61134  1  0  0  0
 61135  1  0  0  0
 61136  1  0  0  0
 62137  1  0  0  0
 62138  1  0  0  0
 62139  1  0  0  0
 63 65  1  0  0  0
 63140  1  0  0  0
 63141  1  0  0  0
 63142  1  0  0  0
 64143  1  0  0  0
 65144  1  0  0  0
 68 79  1  0  0  0
 71 73  2  0  0  0
 71 75  1  0  0  0
 71145  1  0  0  0
 72 74  1  0  0  0
 72 76  2  0  0  0
 72146  1  0  0  0
 73 76  1  0  0  0
 73 77  1  0  0  0
 74 75  2  0  0  0
 74 82  1  0  0  0
 75 84  1  0  0  0
 76 85  1  0  0  0
 77 81  1  0  0  0
 77 83  2  0  0  0
 78147  1  0  0  0
 78148  1  0  0  0
 78149  1  0  0  0
 78 80  1  0  0  0
 79 80  1  0  0  0
 79150  1  0  0  0
 79151  1  0  0  0
 80 83  1  0  0  0
 80152  1  0  0  0
 81153  1  0  0  0
 81154  1  0  0  0
 82155  1  0  0  0
 83156  1  0  0  0
M  CHG  1  83   1
M  ISO  4   1 100  68 101  79 101  82 100
M  END
> <chiral flag>
0

> <version>
0

> <s_m_source_file>
/data/baiqing/PycharmProjects/Reinvent-master-3.2/result/LINK_invent/BTK/process_docking_weight1_custom_product_contain_oxygen_bond_distance_aromatic_linkinvent_7_9_3/rearranged_h_0067.sdf

> <i_m_source_file_index>
88

> <r_mmod_Potential_Energy-OPLS-2005>
-220.808410644531

> <r_mmod_Stretch_Energy-OPLS-2005>
80.9629364013672

> <r_mmod_Bend_Energy-OPLS-2005>
138.407257080078

> <r_mmod_Torsional_Energy-OPLS-2005>
215.602630615234

> <r_mmod_Improper_Torsional_Energy-OPLS-2005>
5.86810541152954

> <r_mmod_Van_der_Waal_Energy-OPLS-2005>
148.323516845703

> <r_mmod_Electrostatic_Energy-OPLS-2005>
-443.958343505859

> <r_mmod_Solvation_Energy-OPLS-2005>
-415.834350585938

> <b_mmod_Minimization_Converged-OPLS-2005>
0

> <r_mmod_RMS_Derivative-OPLS-2005>
1.19113743305206

$$$$
89
                    3D
 Structure written by MMmdl.
154162  0  0  1  0            999 V2000
  -30.6237  -14.7581   20.4501 C   0  0  0  0  0  0
  -30.4322  -12.4695   19.4532 C   0  0  0  0  0  0
  -29.4979  -12.5090   18.2249 C   0  0  0  0  0  0
  -28.0225  -12.3508   18.6432 C   0  0  0  0  0  0
  -27.6398  -13.2474   19.8521 C   0  0  2  0  0  0
  -28.6958  -13.1781   20.9755 C   0  0  0  0  0  0
  -25.2479  -13.8244   20.5819 C   0  0  0  0  0  0
  -24.1783  -13.0458   20.9263 C   0  0  0  0  0  0
  -24.6413  -11.6949   20.8788 C   0  0  0  0  0  0
  -23.9093  -10.4305   21.0408 C   0  0  0  0  0  0
  -24.3619   -9.4204   21.9182 C   0  0  0  0  0  0
  -23.6276   -8.2246   22.0753 C   0  0  0  0  0  0
  -22.4259   -8.0289   21.3548 C   0  0  0  0  0  0
  -21.9904   -9.0259   20.4649 C   0  0  0  0  0  0
  -22.7258  -10.2137   20.3048 C   0  0  0  0  0  0
  -21.6852   -6.0729   22.5281 C   0  0  0  0  0  0
  -21.4010   -6.5630   23.8219 C   0  0  0  0  0  0
  -21.3655   -5.6790   24.9180 C   0  0  0  0  0  0
  -21.6048   -4.3047   24.7244 C   0  0  0  0  0  0
  -21.8820   -3.8139   23.4358 C   0  0  0  0  0  0
  -21.9191   -4.6950   22.3416 C   0  0  0  0  0  0
  -22.7773  -13.5194   21.1887 C   0  0  0  0  0  0
  -22.1664   -4.2128   21.0993 F   0  0  0  0  0  0
  -21.5630   -3.4540   25.7755 F   0  0  0  0  0  0
  -29.9924  -13.5355   20.3854 N   0  0  0  0  0  0
  -26.2947  -12.9511   20.3377 N   0  0  0  0  0  0
  -25.9361  -11.6642   20.5817 N   0  0  0  0  0  0
  -22.0420  -12.8181   22.0440 N   0  0  0  0  0  0
  -25.4051  -15.1983   20.4348 N   0  0  0  0  0  0
  -31.8170  -14.8465   20.1498 O   0  0  0  0  0  0
  -21.6640   -6.8865   21.4240 O   0  0  0  0  0  0
  -22.3428  -14.5481   20.6714 O   0  0  0  0  0  0
  -24.6288  -31.8551   23.1983 C   0  0  0  0  0  0
  -25.9115  -32.4755   23.8337 C   0  0  1  0  0  0
  -27.2263  -27.2670   20.1433 C   0  0  0  0  0  0
  -25.5923  -33.8566   24.2258 N   0  0  0  0  0  0
  -23.4270  -30.4761   21.5397 C   0  0  2  0  0  0
  -24.8769  -28.9134   20.1207 C   0  0  0  0  0  0
  -22.7478  -29.4615   22.4908 C   0  0  0  0  0  0
  -18.0298  -28.1402   22.8447 C   0  0  0  0  0  0
  -24.1493  -36.7278   23.2644 C   0  0  0  0  0  0
  -25.9719  -30.7697   21.3789 C   0  0  0  0  0  0
  -26.0476  -29.3887   20.7290 C   0  0  0  0  0  0
  -27.2273  -28.5784   20.7260 C   0  0  0  0  0  0
  -26.0336  -26.8461   19.5227 C   0  0  0  0  0  0
  -24.8743  -27.6490   19.5076 C   0  0  0  0  0  0
  -23.6477  -29.7997   20.1613 C   0  0  0  0  0  0
  -25.4120  -36.3073   24.0326 C   0  0  1  0  0  0
  -20.5880  -28.3740   23.1276 C   0  0  2  0  0  0
  -20.6810  -26.9466   22.5441 C   0  0  0  0  0  0
  -19.5824  -26.6380   21.5212 C   0  0  0  0  0  0
  -18.1981  -26.7944   22.1591 C   0  0  0  0  0  0
  -19.1529  -28.8889   23.2852 C   0  0  0  0  0  0
  -18.9447  -30.1456   23.8898 C   0  0  0  0  0  0
  -17.6432  -30.6578   24.0526 C   0  0  0  0  0  0
  -25.9048  -34.9439   23.5088 C   0  0  0  0  0  0
  -16.5345  -29.9078   23.6260 C   0  0  0  0  0  0
  -16.7282  -28.6503   23.0290 C   0  0  0  0  0  0
  -26.4493  -31.6580   25.0722 C   0  0  0  0  0  0
  -25.3719  -31.3746   26.1441 C   0  0  0  0  0  0
  -27.0341  -30.2998   24.6209 C   0  0  0  0  0  0
  -27.6038  -32.4323   25.7504 C   0  0  0  0  0  0
  -27.5571  -37.1798   24.8465 C   0  0  0  0  0  0
  -21.4190  -29.3079   22.3660 N   0  0  0  0  0  0
  -26.4290  -37.3765   23.9393 N   0  0  0  0  0  0
  -24.6946  -31.0523   22.0950 N   0  0  0  0  0  0
  -23.4166  -28.8168   23.3023 O   0  0  0  0  0  0
  -28.3336  -26.3971   20.1020 O   0  0  0  0  0  0
  -26.5628  -34.8907   22.4666 O   0  0  0  0  0  0
  -23.5438  -32.1375   23.7262 O   0  0  0  0  0  0
  -27.3083  -20.7181   20.1441 C   0  0  0  0  0  0
  -29.6076  -20.0213   20.4742 C   0  0  0  0  0  0
  -26.9270  -19.3600   20.1258 C   0  0  0  0  0  0
  -29.2480  -18.6014   20.4327 C   0  0  0  0  0  0
  -28.6493  -21.1152   20.3356 C   0  0  0  0  0  0
  -27.8753  -18.3213   20.2582 C   0  0  0  0  0  0
  -28.2330  -23.6957   20.0730 C   0  0  0  0  0  0
  -25.4573  -19.0143   19.9998 C   0  0  0  0  0  0
  -30.2864  -17.3860   20.5827 C   0  0  0  0  0  0
  -28.2928  -25.0987   20.8555 C   0  0  0  0  0  0
  -28.9359  -22.5716   20.5082 N   0  0  0  0  0  0
  -29.8668  -15.9060   20.6433 N   0  0  0  0  0  0
  -27.5200  -23.6324   19.0676 O   0  0  0  0  0  0
  -27.4488  -17.0374   20.2250 F   0  0  0  0  0  0
  -31.4615  -12.6079   19.1210 H   0  0  0  0  0  0
  -30.4034  -11.4919   19.9377 H   0  0  0  0  0  0
  -29.7704  -11.7276   17.5140 H   0  0  0  0  0  0
  -29.6314  -13.4527   17.6966 H   0  0  0  0  0  0
  -27.8573  -11.3002   18.8886 H   0  0  0  0  0  0
  -27.3681  -12.5684   17.7976 H   0  0  0  0  0  0
  -27.6298  -14.2725   19.4821 H   0  0  0  0  0  0
  -28.7356  -12.1771   21.4074 H   0  0  0  0  0  0
  -28.4345  -13.8532   21.7920 H   0  0  0  0  0  0
  -25.2762   -9.5669   22.4760 H   0  0  0  0  0  0
  -23.9997   -7.4630   22.7448 H   0  0  0  0  0  0
  -21.0850   -8.8777   19.8929 H   0  0  0  0  0  0
  -22.3731  -10.9671   19.6146 H   0  0  0  0  0  0
  -21.1999   -7.6139   23.9718 H   0  0  0  0  0  0
  -21.1473   -6.0518   25.9085 H   0  0  0  0  0  0
  -22.0598   -2.7597   23.2886 H   0  0  0  0  0  0
  -22.4028  -11.9851   22.4844 H   0  0  0  0  0  0
  -21.1024  -13.1192   22.2626 H   0  0  0  0  0  0
  -24.6342  -15.8437   20.5610 H   0  0  0  0  0  0
  -26.2734  -15.6697   20.2010 H   0  0  0  0  0  0
  -26.7167  -32.5411   23.1067 H   0  0  0  0  0  0
  -25.0076  -33.9710   25.0409 H   0  0  0  0  0  0
  -22.7256  -31.3003   21.3872 H   0  0  0  0  0  0
  -23.3751  -35.9612   23.3311 H   0  0  0  0  0  0
  -24.3587  -36.8895   22.2057 H   0  0  0  0  0  0
  -23.7247  -37.6481   23.6670 H   0  0  0  0  0  0
  -26.1073  -31.5252   20.6046 H   0  0  0  0  0  0
  -26.8493  -30.8224   22.0129 H   0  0  0  0  0  0
  -28.1270  -28.9415   21.2026 H   0  0  0  0  0  0
  -25.9981  -25.8745   19.0502 H   0  0  0  0  0  0
  -23.9801  -27.2778   19.0262 H   0  0  0  0  0  0
  -23.7724  -30.5680   19.3975 H   0  0  0  0  0  0
  -22.7683  -29.2302   19.8574 H   0  0  0  0  0  0
  -25.1305  -36.1915   25.0819 H   0  0  0  0  0  0
  -20.9932  -28.3396   24.1428 H   0  0  0  0  0  0
  -20.5691  -26.2394   23.3667 H   0  0  0  0  0  0
  -21.6724  -26.7479   22.1313 H   0  0  0  0  0  0
  -19.7034  -25.6274   21.1297 H   0  0  0  0  0  0
  -19.6853  -27.3148   20.6714 H   0  0  0  0  0  0
  -17.4300  -26.6679   21.3943 H   0  0  0  0  0  0
  -18.0326  -26.0123   22.9012 H   0  0  0  0  0  0
  -19.7920  -30.7261   24.2304 H   0  0  0  0  0  0
  -17.4958  -31.6230   24.5163 H   0  0  0  0  0  0
  -15.5333  -30.2977   23.7540 H   0  0  0  0  0  0
  -15.8685  -28.0815   22.6994 H   0  0  0  0  0  0
  -24.5904  -30.7071   25.7789 H   0  0  0  0  0  0
  -24.8893  -32.2922   26.4814 H   0  0  0  0  0  0
  -25.8031  -30.8974   27.0244 H   0  0  0  0  0  0
  -26.2937  -29.6744   24.1206 H   0  0  0  0  0  0
  -27.3997  -29.7249   25.4719 H   0  0  0  0  0  0
  -27.8818  -30.4264   23.9475 H   0  0  0  0  0  0
  -27.2649  -33.3639   26.2038 H   0  0  0  0  0  0
  -28.3886  -32.6845   25.0368 H   0  0  0  0  0  0
  -28.0661  -31.8471   26.5456 H   0  0  0  0  0  0
  -28.2595  -38.0089   24.7498 H   0  0  0  0  0  0
  -28.1059  -36.2612   24.6313 H   0  0  0  0  0  0
  -27.2283  -37.1475   25.8870 H   0  0  0  0  0  0
  -20.9382  -29.8738   21.6807 H   0  0  0  0  0  0
  -26.0163  -38.2834   24.1393 H   0  0  0  0  0  0
  -26.5329  -21.4665   20.0671 H   0  0  0  0  0  0
  -30.6462  -20.2763   20.6267 H   0  0  0  0  0  0
  -25.2678  -18.4783   19.0710 H   0  0  0  0  0  0
  -24.8306  -19.9079   20.0220 H   0  0  0  0  0  0
  -25.1491  -18.3730   20.8253 H   0  0  0  0  0  0
  -31.0030  -17.4940   19.7688 H   0  0  0  0  0  0
  -30.8511  -17.5845   21.4929 H   0  0  0  0  0  0
  -27.4259  -25.1154   21.5184 H   0  0  0  0  0  0
  -29.1569  -25.0746   21.5196 H   0  0  0  0  0  0
  -29.6763  -22.7891   21.1593 H   0  0  0  0  0  0
  -28.8821  -15.7571   20.8056 H   0  0  0  0  0  0
  1 25  1  0  0  0
  1 30  2  0  0  0
  1 82  1  0  0  0
  2  3  1  0  0  0
  2 25  1  0  0  0
  2 85  1  0  0  0
  2 86  1  0  0  0
  3  4  1  0  0  0
  3 87  1  0  0  0
  3 88  1  0  0  0
  4  5  1  0  0  0
  4 89  1  0  0  0
  4 90  1  0  0  0
  5  6  1  0  0  0
  5 26  1  0  0  0
  5 91  1  0  0  0
  6 25  1  0  0  0
  6 92  1  0  0  0
  6 93  1  0  0  0
  7  8  2  0  0  0
  7 26  1  0  0  0
  7 29  1  0  0  0
  8  9  1  0  0  0
  8 22  1  0  0  0
  9 10  1  0  0  0
  9 27  2  0  0  0
 10 11  2  0  0  0
 10 15  1  0  0  0
 11 12  1  0  0  0
 11 94  1  0  0  0
 12 13  2  0  0  0
 12 95  1  0  0  0
 13 14  1  0  0  0
 13 31  1  0  0  0
 14 15  2  0  0  0
 14 96  1  0  0  0
 15 97  1  0  0  0
 16 17  2  0  0  0
 16 21  1  0  0  0
 16 31  1  0  0  0
 17 18  1  0  0  0
 17 98  1  0  0  0
 18 19  2  0  0  0
 18 99  1  0  0  0
 19 20  1  0  0  0
 19 24  1  0  0  0
 20 21  2  0  0  0
 20100  1  0  0  0
 21 23  1  0  0  0
 22 28  1  0  0  0
 22 32  2  0  0  0
 26 27  1  0  0  0
 28101  1  0  0  0
 28102  1  0  0  0
 29103  1  0  0  0
 29104  1  0  0  0
 33 34  1  0  0  0
 33 66  1  0  0  0
 33 70  2  0  0  0
 34 36  1  0  0  0
 34 59  1  0  0  0
 34105  1  0  0  0
 35 44  2  0  0  0
 35 45  1  0  0  0
 35 68  1  0  0  0
 36 56  1  0  0  0
 36106  1  0  0  0
 37 39  1  0  0  0
 37 47  1  0  0  0
 37 66  1  0  0  0
 37107  1  0  0  0
 38 43  2  0  0  0
 38 46  1  0  0  0
 38 47  1  0  0  0
 39 64  1  0  0  0
 39 67  2  0  0  0
 40 52  1  0  0  0
 40 53  2  0  0  0
 40 58  1  0  0  0
 41108  1  0  0  0
 41109  1  0  0  0
 41110  1  0  0  0
 41 48  1  0  0  0
 42 43  1  0  0  0
 42 66  1  0  0  0
 42111  1  0  0  0
 42112  1  0  0  0
 43 44  1  0  0  0
 44113  1  0  0  0
 45 46  2  0  0  0
 45114  1  0  0  0
 46115  1  0  0  0
 47116  1  0  0  0
 47117  1  0  0  0
 48 56  1  0  0  0
 48 65  1  0  0  0
 48118  1  0  0  0
 49 50  1  0  0  0
 49 53  1  0  0  0
 49 64  1  0  0  0
 49119  1  0  0  0
 50 51  1  0  0  0
 50120  1  0  0  0
 50121  1  0  0  0
 51 52  1  0  0  0
 51122  1  0  0  0
 51123  1  0  0  0
 52124  1  0  0  0
 52125  1  0  0  0
 53 54  1  0  0  0
 54 55  2  0  0  0
 54126  1  0  0  0
 55 57  1  0  0  0
 55127  1  0  0  0
 56 69  2  0  0  0
 57 58  2  0  0  0
 57128  1  0  0  0
 58129  1  0  0  0
 59 60  1  0  0  0
 59 61  1  0  0  0
 59 62  1  0  0  0
 60130  1  0  0  0
 60131  1  0  0  0
 60132  1  0  0  0
 61133  1  0  0  0
 61134  1  0  0  0
 61135  1  0  0  0
 62136  1  0  0  0
 62137  1  0  0  0
 62138  1  0  0  0
 63 65  1  0  0  0
 63139  1  0  0  0
 63140  1  0  0  0
 63141  1  0  0  0
 64142  1  0  0  0
 65143  1  0  0  0
 68 80  1  0  0  0
 71 73  2  0  0  0
 71 75  1  0  0  0
 71144  1  0  0  0
 72 74  1  0  0  0
 72 75  2  0  0  0
 72145  1  0  0  0
 73 76  1  0  0  0
 73 78  1  0  0  0
 74 76  2  0  0  0
 74 79  1  0  0  0
 75 81  1  0  0  0
 76 84  1  0  0  0
 77 80  1  0  0  0
 77 81  1  0  0  0
 77 83  2  0  0  0
 78146  1  0  0  0
 78147  1  0  0  0
 78148  1  0  0  0
 79 82  1  0  0  0
 79149  1  0  0  0
 79150  1  0  0  0
 80151  1  0  0  0
 80152  1  0  0  0
 81153  1  0  0  0
 82154  1  0  0  0
M  ISO  4   1 100  68 101  80 101  82 100
M  END
> <chiral flag>
0

> <version>
0

> <s_m_source_file>
/data/baiqing/PycharmProjects/Reinvent-master-3.2/result/LINK_invent/BTK/process_docking_weight1_custom_product_contain_oxygen_bond_distance_aromatic_linkinvent_7_9_3/rearranged_h_0067.sdf

> <i_m_source_file_index>
89

> <r_mmod_Potential_Energy-OPLS-2005>
111.830551147461

> <r_mmod_Stretch_Energy-OPLS-2005>
128.462677001953

> <r_mmod_Bend_Energy-OPLS-2005>
162.151626586914

> <r_mmod_Torsional_Energy-OPLS-2005>
247.975234985352

> <r_mmod_Improper_Torsional_Energy-OPLS-2005>
5.22105979919434

> <r_mmod_Van_der_Waal_Energy-OPLS-2005>
133.61181640625

> <r_mmod_Electrostatic_Energy-OPLS-2005>
-426.027954101562

> <r_mmod_Solvation_Energy-OPLS-2005>
-223.715148925781

> <b_mmod_Minimization_Converged-OPLS-2005>
0

> <r_mmod_RMS_Derivative-OPLS-2005>
4.11580801010132

$$$$
90
                    3D
 Structure written by MMmdl.
151159  0  0  1  0            999 V2000
  -30.5187  -15.0491   20.4032 C   0  0  0  0  0  0
  -30.4365  -12.6574   19.5066 C   0  0  0  0  0  0
  -29.5231  -12.5433   18.2634 C   0  0  0  0  0  0
  -28.0605  -12.3121   18.6841 C   0  0  0  0  0  0
  -27.6216  -13.2596   19.8303 C   0  0  2  0  0  0
  -28.6623  -13.3414   20.9670 C   0  0  0  0  0  0
  -25.2425  -13.8235   20.5723 C   0  0  0  0  0  0
  -24.1761  -13.0439   20.9241 C   0  0  0  0  0  0
  -24.6395  -11.6932   20.8762 C   0  0  0  0  0  0
  -23.9088  -10.4293   21.0410 C   0  0  0  0  0  0
  -24.3634   -9.4207   21.9187 C   0  0  0  0  0  0
  -23.6304   -8.2245   22.0757 C   0  0  0  0  0  0
  -22.4285   -8.0285   21.3548 C   0  0  0  0  0  0
  -21.9925   -9.0259   20.4649 C   0  0  0  0  0  0
  -22.7261  -10.2134   20.3058 C   0  0  0  0  0  0
  -21.6853   -6.0741   22.5280 C   0  0  0  0  0  0
  -21.4017   -6.5644   23.8215 C   0  0  0  0  0  0
  -21.3659   -5.6795   24.9176 C   0  0  0  0  0  0
  -21.6041   -4.3058   24.7226 C   0  0  0  0  0  0
  -21.8818   -3.8150   23.4347 C   0  0  0  0  0  0
  -21.9194   -4.6967   22.3404 C   0  0  0  0  0  0
  -22.7780  -13.5199   21.1896 C   0  0  0  0  0  0
  -22.1661   -4.2156   21.0982 F   0  0  0  0  0  0
  -21.5626   -3.4541   25.7738 F   0  0  0  0  0  0
  -29.9236  -13.7792   20.3553 N   0  0  0  0  0  0
  -26.2851  -12.9484   20.3227 N   0  0  0  0  0  0
  -25.9330  -11.6602   20.5733 N   0  0  0  0  0  0
  -22.0436  -12.8182   22.0450 N   0  0  0  0  0  0
  -25.4061  -15.1969   20.4149 N   0  0  0  0  0  0
  -31.7327  -15.0642   20.1671 O   0  0  0  0  0  0
  -21.6644   -6.8886   21.4243 O   0  0  0  0  0  0
  -22.3457  -14.5502   20.6740 O   0  0  0  0  0  0
  -24.6500  -31.8369   23.1822 C   0  0  0  0  0  0
  -25.9238  -32.4663   23.8235 C   0  0  1  0  0  0
  -27.2149  -27.0623   20.1625 C   0  0  0  0  0  0
  -25.5958  -33.8471   24.2144 N   0  0  0  0  0  0
  -23.4577  -30.4549   21.5288 C   0  0  2  0  0  0
  -24.9083  -28.8694   20.1106 C   0  0  0  0  0  0
  -22.7600  -29.4509   22.4820 C   0  0  0  0  0  0
  -18.0308  -28.1407   22.8466 C   0  0  0  0  0  0
  -24.1495  -36.7237   23.2646 C   0  0  0  0  0  0
  -26.0196  -30.6879   21.3919 C   0  0  0  0  0  0
  -26.0895  -29.2924   20.7334 C   0  0  0  0  0  0
  -27.2425  -28.4073   20.7381 C   0  0  0  0  0  0
  -26.0056  -26.7604   19.4978 C   0  0  0  0  0  0
  -24.8839  -27.6195   19.4753 C   0  0  0  0  0  0
  -23.6892  -29.7809   20.1502 C   0  0  0  0  0  0
  -25.4131  -36.3011   24.0309 C   0  0  1  0  0  0
  -20.5928  -28.3733   23.1218 C   0  0  2  0  0  0
  -20.6796  -26.9426   22.5405 C   0  0  0  0  0  0
  -19.5770  -26.6376   21.5214 C   0  0  0  0  0  0
  -18.1947  -26.7941   22.1617 C   0  0  0  0  0  0
  -19.1568  -28.8884   23.2833 C   0  0  0  0  0  0
  -18.9487  -30.1475   23.8864 C   0  0  0  0  0  0
  -17.6486  -30.6597   24.0552 C   0  0  0  0  0  0
  -25.9082  -34.9390   23.5037 C   0  0  0  0  0  0
  -16.5373  -29.9088   23.6345 C   0  0  0  0  0  0
  -16.7292  -28.6510   23.0355 C   0  0  0  0  0  0
  -26.4537  -31.6560   25.0706 C   0  0  0  0  0  0
  -25.3699  -31.3782   26.1384 C   0  0  0  0  0  0
  -27.0407  -30.2943   24.6342 C   0  0  0  0  0  0
  -27.6049  -32.4344   25.7499 C   0  0  0  0  0  0
  -27.5572  -37.1779   24.8467 C   0  0  0  0  0  0
  -21.4286  -29.3046   22.3576 N   0  0  0  0  0  0
  -26.4288  -37.3732   23.9408 N   0  0  0  0  0  0
  -24.7297  -31.0158   22.0892 N   0  0  0  0  0  0
  -23.4212  -28.8062   23.3001 O   0  0  0  0  0  0
  -28.2408  -26.0250   20.2365 O   0  0  0  0  0  0
  -26.5672  -34.8898   22.4619 O   0  0  0  0  0  0
  -23.5599  -32.1272   23.6996 O   0  0  0  0  0  0
  -30.9902  -20.6088   20.5467 C   0  0  0  0  0  0
  -31.4367  -18.1656   20.6290 C   0  0  0  0  0  0
  -31.8758  -19.5095   20.6607 C   0  0  0  0  0  0
  -29.5903  -20.4674   20.4023 C   0  0  0  0  0  0
  -30.0799  -17.8040   20.4841 C   0  0  0  0  0  0
  -29.1741  -19.0122   20.3777 C   0  0  0  0  0  0
  -29.0008  -23.2087   20.3436 C   0  0  0  0  0  0
  -33.3613  -19.7782   20.8170 C   0  0  0  0  0  0
  -27.9076  -24.4734   20.1019 C   0  0  0  0  0  0
  -28.7347  -21.7814   20.2781 N   0  0  0  0  0  0
  -29.7496  -16.2724   20.4891 N   0  0  0  0  0  0
  -30.1461  -23.5828   20.6054 O   0  0  0  0  0  0
  -27.8492  -18.7629   20.2439 F   0  0  0  0  0  0
  -31.4669  -12.8234   19.1891 H   0  0  0  0  0  0
  -30.4476  -11.7216   20.0679 H   0  0  0  0  0  0
  -29.8609  -11.7338   17.6149 H   0  0  0  0  0  0
  -29.5944  -13.4591   17.6738 H   0  0  0  0  0  0
  -27.9726  -11.2752   19.0101 H   0  0  0  0  0  0
  -27.3960  -12.4188   17.8255 H   0  0  0  0  0  0
  -27.5661  -14.2500   19.3773 H   0  0  0  0  0  0
  -28.7753  -12.3821   21.4735 H   0  0  0  0  0  0
  -28.3443  -14.0589   21.7249 H   0  0  0  0  0  0
  -25.2775   -9.5682   22.4765 H   0  0  0  0  0  0
  -24.0009   -7.4636   22.7475 H   0  0  0  0  0  0
  -21.0855   -8.8783   19.8951 H   0  0  0  0  0  0
  -22.3720  -10.9677   19.6169 H   0  0  0  0  0  0
  -21.2009   -7.6152   23.9721 H   0  0  0  0  0  0
  -21.1479   -6.0525   25.9079 H   0  0  0  0  0  0
  -22.0595   -2.7613   23.2845 H   0  0  0  0  0  0
  -22.4064  -11.9842   22.4828 H   0  0  0  0  0  0
  -21.1053  -13.1191   22.2666 H   0  0  0  0  0  0
  -24.6326  -15.8435   20.5267 H   0  0  0  0  0  0
  -26.2428  -15.6432   20.0636 H   0  0  0  0  0  0
  -26.7294  -32.5241   23.0947 H   0  0  0  0  0  0
  -25.0094  -33.9577   25.0287 H   0  0  0  0  0  0
  -22.7645  -31.2837   21.3684 H   0  0  0  0  0  0
  -23.3759  -35.9566   23.3299 H   0  0  0  0  0  0
  -24.3571  -36.8882   22.2061 H   0  0  0  0  0  0
  -23.7251  -37.6432   23.6691 H   0  0  0  0  0  0
  -26.1843  -31.4395   20.6186 H   0  0  0  0  0  0
  -26.8865  -30.7390   22.0393 H   0  0  0  0  0  0
  -28.1388  -28.7264   21.2506 H   0  0  0  0  0  0
  -25.8881  -25.8068   19.0065 H   0  0  0  0  0  0
  -23.9839  -27.2897   18.9753 H   0  0  0  0  0  0
  -23.8333  -30.5542   19.3946 H   0  0  0  0  0  0
  -22.8023  -29.2290   19.8346 H   0  0  0  0  0  0
  -25.1327  -36.1825   25.0801 H   0  0  0  0  0  0
  -21.0016  -28.3325   24.1342 H   0  0  0  0  0  0
  -20.5691  -26.2342   23.3632 H   0  0  0  0  0  0
  -21.6661  -26.7424   22.1203 H   0  0  0  0  0  0
  -19.6939  -25.6279   21.1263 H   0  0  0  0  0  0
  -19.6724  -27.3168   20.6732 H   0  0  0  0  0  0
  -17.4224  -26.6678   21.4014 H   0  0  0  0  0  0
  -18.0337  -26.0103   22.9031 H   0  0  0  0  0  0
  -19.7965  -30.7295   24.2221 H   0  0  0  0  0  0
  -17.5041  -31.6277   24.5155 H   0  0  0  0  0  0
  -15.5370  -30.2979   23.7696 H   0  0  0  0  0  0
  -15.8690  -28.0816   22.7094 H   0  0  0  0  0  0
  -24.5892  -30.7114   25.7705 H   0  0  0  0  0  0
  -24.8873  -32.2979   26.4705 H   0  0  0  0  0  0
  -25.7959  -30.9029   27.0227 H   0  0  0  0  0  0
  -26.3041  -29.6658   24.1328 H   0  0  0  0  0  0
  -27.3974  -29.7260   25.4941 H   0  0  0  0  0  0
  -27.8967  -30.4161   23.9704 H   0  0  0  0  0  0
  -27.2630  -33.3678   26.1981 H   0  0  0  0  0  0
  -28.3911  -32.6849   25.0365 H   0  0  0  0  0  0
  -28.0655  -31.8535   26.5498 H   0  0  0  0  0  0
  -28.2585  -38.0078   24.7494 H   0  0  0  0  0  0
  -28.1074  -36.2604   24.6316 H   0  0  0  0  0  0
  -27.2283  -37.1451   25.8869 H   0  0  0  0  0  0
  -20.9501  -29.8761   21.6751 H   0  0  0  0  0  0
  -26.0144  -38.2798   24.1408 H   0  0  0  0  0  0
  -31.4315  -21.5920   20.5696 H   0  0  0  0  0  0
  -32.1874  -17.3971   20.7316 H   0  0  0  0  0  0
  -33.5474  -20.7713   21.2277 H   0  0  0  0  0  0
  -33.8621  -19.7122   19.8507 H   0  0  0  0  0  0
  -33.8217  -19.0524   21.4887 H   0  0  0  0  0  0
  -27.0674  -24.2736   20.7669 H   0  0  0  0  0  0
  -27.5273  -24.3191   19.0928 H   0  0  0  0  0  0
  -27.7577  -21.5917   20.0980 H   0  0  0  0  0  0
  -28.7604  -16.0880   20.5562 H   0  0  0  0  0  0
  1 25  1  0  0  0
  1 30  2  0  0  0
  1 81  1  0  0  0
  2  3  1  0  0  0
  2 25  1  0  0  0
  2 84  1  0  0  0
  2 85  1  0  0  0
  3  4  1  0  0  0
  3 86  1  0  0  0
  3 87  1  0  0  0
  4  5  1  0  0  0
  4 88  1  0  0  0
  4 89  1  0  0  0
  5  6  1  0  0  0
  5 26  1  0  0  0
  5 90  1  0  0  0
  6 25  1  0  0  0
  6 91  1  0  0  0
  6 92  1  0  0  0
  7  8  2  0  0  0
  7 26  1  0  0  0
  7 29  1  0  0  0
  8  9  1  0  0  0
  8 22  1  0  0  0
  9 10  1  0  0  0
  9 27  2  0  0  0
 10 11  2  0  0  0
 10 15  1  0  0  0
 11 12  1  0  0  0
 11 93  1  0  0  0
 12 13  2  0  0  0
 12 94  1  0  0  0
 13 14  1  0  0  0
 13 31  1  0  0  0
 14 15  2  0  0  0
 14 95  1  0  0  0
 15 96  1  0  0  0
 16 17  2  0  0  0
 16 21  1  0  0  0
 16 31  1  0  0  0
 17 18  1  0  0  0
 17 97  1  0  0  0
 18 19  2  0  0  0
 18 98  1  0  0  0
 19 20  1  0  0  0
 19 24  1  0  0  0
 20 21  2  0  0  0
 20 99  1  0  0  0
 21 23  1  0  0  0
 22 28  1  0  0  0
 22 32  2  0  0  0
 26 27  1  0  0  0
 28100  1  0  0  0
 28101  1  0  0  0
 29102  1  0  0  0
 29103  1  0  0  0
 33 34  1  0  0  0
 33 66  1  0  0  0
 33 70  2  0  0  0
 34 36  1  0  0  0
 34 59  1  0  0  0
 34104  1  0  0  0
 35 44  2  0  0  0
 35 45  1  0  0  0
 35 68  1  0  0  0
 36 56  1  0  0  0
 36105  1  0  0  0
 37 39  1  0  0  0
 37 47  1  0  0  0
 37 66  1  0  0  0
 37106  1  0  0  0
 38 43  2  0  0  0
 38 46  1  0  0  0
 38 47  1  0  0  0
 39 64  1  0  0  0
 39 67  2  0  0  0
 40 52  1  0  0  0
 40 53  2  0  0  0
 40 58  1  0  0  0
 41107  1  0  0  0
 41108  1  0  0  0
 41109  1  0  0  0
 41 48  1  0  0  0
 42 43  1  0  0  0
 42 66  1  0  0  0
 42110  1  0  0  0
 42111  1  0  0  0
 43 44  1  0  0  0
 44112  1  0  0  0
 45 46  2  0  0  0
 45113  1  0  0  0
 46114  1  0  0  0
 47115  1  0  0  0
 47116  1  0  0  0
 48 56  1  0  0  0
 48 65  1  0  0  0
 48117  1  0  0  0
 49 50  1  0  0  0
 49 53  1  0  0  0
 49 64  1  0  0  0
 49118  1  0  0  0
 50 51  1  0  0  0
 50119  1  0  0  0
 50120  1  0  0  0
 51 52  1  0  0  0
 51121  1  0  0  0
 51122  1  0  0  0
 52123  1  0  0  0
 52124  1  0  0  0
 53 54  1  0  0  0
 54 55  2  0  0  0
 54125  1  0  0  0
 55 57  1  0  0  0
 55126  1  0  0  0
 56 69  2  0  0  0
 57 58  2  0  0  0
 57127  1  0  0  0
 58128  1  0  0  0
 59 60  1  0  0  0
 59 61  1  0  0  0
 59 62  1  0  0  0
 60129  1  0  0  0
 60130  1  0  0  0
 60131  1  0  0  0
 61132  1  0  0  0
 61133  1  0  0  0
 61134  1  0  0  0
 62135  1  0  0  0
 62136  1  0  0  0
 62137  1  0  0  0
 63 65  1  0  0  0
 63138  1  0  0  0
 63139  1  0  0  0
 63140  1  0  0  0
 64141  1  0  0  0
 65142  1  0  0  0
 68 79  1  0  0  0
 71 73  2  0  0  0
 71 74  1  0  0  0
 71143  1  0  0  0
 72 73  1  0  0  0
 72 75  2  0  0  0
 72144  1  0  0  0
 73 78  1  0  0  0
 74 76  2  0  0  0
 74 80  1  0  0  0
 75 76  1  0  0  0
 75 81  1  0  0  0
 76 83  1  0  0  0
 77 79  1  0  0  0
 77 80  1  0  0  0
 77 82  2  0  0  0
 78145  1  0  0  0
 78146  1  0  0  0
 78147  1  0  0  0
 79148  1  0  0  0
 79149  1  0  0  0
 80150  1  0  0  0
 81151  1  0  0  0
M  ISO  4   1 100  68 101  79 101  81 100
M  END
> <chiral flag>
0

> <version>
0

> <s_m_source_file>
/data/baiqing/PycharmProjects/Reinvent-master-3.2/result/LINK_invent/BTK/process_docking_weight1_custom_product_contain_oxygen_bond_distance_aromatic_linkinvent_7_9_3/rearranged_h_0067.sdf

> <i_m_source_file_index>
90

> <r_mmod_Potential_Energy-OPLS-2005>
615.255126953125

> <r_mmod_Stretch_Energy-OPLS-2005>
347.821899414062

> <r_mmod_Bend_Energy-OPLS-2005>
269.537689208984

> <r_mmod_Torsional_Energy-OPLS-2005>
218.579925537109

> <r_mmod_Improper_Torsional_Energy-OPLS-2005>
4.75199794769287

> <r_mmod_Van_der_Waal_Energy-OPLS-2005>
134.472579956055

> <r_mmod_Electrostatic_Energy-OPLS-2005>
-396.409088134766

> <r_mmod_Solvation_Energy-OPLS-2005>
-231.516784667969

> <b_mmod_Minimization_Converged-OPLS-2005>
0

> <r_mmod_RMS_Derivative-OPLS-2005>
0.98411351442337

$$$$
91
                    3D
 Structure written by MMmdl.
154162  0  0  1  0            999 V2000
  -30.6235  -14.7325   20.4538 C   0  0  0  0  0  0
  -30.4282  -12.4446   19.4797 C   0  0  0  0  0  0
  -29.5087  -12.5078   18.2398 C   0  0  0  0  0  0
  -28.0325  -12.3427   18.6466 C   0  0  0  0  0  0
  -27.6426  -13.2338   19.8547 C   0  0  2  0  0  0
  -28.6866  -13.1658   20.9922 C   0  0  0  0  0  0
  -25.2505  -13.8212   20.5705 C   0  0  0  0  0  0
  -24.1800  -13.0448   20.9215 C   0  0  0  0  0  0
  -24.6386  -11.6926   20.8739 C   0  0  0  0  0  0
  -23.9051  -10.4302   21.0401 C   0  0  0  0  0  0
  -24.3595   -9.4217   21.9181 C   0  0  0  0  0  0
  -23.6279   -8.2246   22.0747 C   0  0  0  0  0  0
  -22.4253   -8.0289   21.3550 C   0  0  0  0  0  0
  -21.9894   -9.0249   20.4642 C   0  0  0  0  0  0
  -22.7221  -10.2135   20.3050 C   0  0  0  0  0  0
  -21.6861   -6.0741   22.5283 C   0  0  0  0  0  0
  -21.4015   -6.5638   23.8221 C   0  0  0  0  0  0
  -21.3655   -5.6794   24.9178 C   0  0  0  0  0  0
  -21.6039   -4.3055   24.7228 C   0  0  0  0  0  0
  -21.8819   -3.8152   23.4351 C   0  0  0  0  0  0
  -21.9187   -4.6967   22.3417 C   0  0  0  0  0  0
  -22.7822  -13.5216   21.1886 C   0  0  0  0  0  0
  -22.1654   -4.2151   21.0997 F   0  0  0  0  0  0
  -21.5629   -3.4529   25.7728 F   0  0  0  0  0  0
  -29.9935  -13.5082   20.4160 N   0  0  0  0  0  0
  -26.2931  -12.9414   20.3289 N   0  0  0  0  0  0
  -25.9322  -11.6556   20.5756 N   0  0  0  0  0  0
  -22.0467  -12.8187   22.0433 N   0  0  0  0  0  0
  -25.4221  -15.1945   20.4147 N   0  0  0  0  0  0
  -31.8035  -14.8229   20.1045 O   0  0  0  0  0  0
  -21.6642   -6.8869   21.4241 O   0  0  0  0  0  0
  -22.3496  -14.5522   20.6744 O   0  0  0  0  0  0
  -24.6321  -31.8552   23.2004 C   0  0  0  0  0  0
  -25.9154  -32.4747   23.8350 C   0  0  1  0  0  0
  -27.2146  -27.2561   20.1267 C   0  0  0  0  0  0
  -25.5953  -33.8551   24.2280 N   0  0  0  0  0  0
  -23.4288  -30.4787   21.5442 C   0  0  2  0  0  0
  -24.8755  -28.9304   20.1074 C   0  0  0  0  0  0
  -22.7524  -29.4593   22.4931 C   0  0  0  0  0  0
  -18.0293  -28.1377   22.8488 C   0  0  0  0  0  0
  -24.1489  -36.7287   23.2639 C   0  0  0  0  0  0
  -25.9751  -30.7654   21.3825 C   0  0  0  0  0  0
  -26.0462  -29.3880   20.7241 C   0  0  0  0  0  0
  -27.2172  -28.5622   20.7271 C   0  0  0  0  0  0
  -26.0230  -26.8813   19.4629 C   0  0  0  0  0  0
  -24.8688  -27.6860   19.4641 C   0  0  0  0  0  0
  -23.6467  -29.8173   20.1586 C   0  0  0  0  0  0
  -25.4112  -36.3066   24.0329 C   0  0  1  0  0  0
  -20.5900  -28.3689   23.1280 C   0  0  2  0  0  0
  -20.6783  -26.9413   22.5409 C   0  0  0  0  0  0
  -19.5751  -26.6377   21.5220 C   0  0  0  0  0  0
  -18.1935  -26.7925   22.1634 C   0  0  0  0  0  0
  -19.1545  -28.8852   23.2873 C   0  0  0  0  0  0
  -18.9462  -30.1462   23.8880 C   0  0  0  0  0  0
  -17.6455  -30.6581   24.0557 C   0  0  0  0  0  0
  -25.9060  -34.9433   23.5111 C   0  0  0  0  0  0
  -16.5347  -29.9074   23.6330 C   0  0  0  0  0  0
  -16.7278  -28.6490   23.0356 C   0  0  0  0  0  0
  -26.4516  -31.6566   25.0745 C   0  0  0  0  0  0
  -25.3743  -31.3728   26.1472 C   0  0  0  0  0  0
  -27.0347  -30.2974   24.6237 C   0  0  0  0  0  0
  -27.6096  -32.4280   25.7499 C   0  0  0  0  0  0
  -27.5575  -37.1799   24.8461 C   0  0  0  0  0  0
  -21.4229  -29.3030   22.3676 N   0  0  0  0  0  0
  -26.4280  -37.3766   23.9415 N   0  0  0  0  0  0
  -24.6980  -31.0518   22.0986 N   0  0  0  0  0  0
  -23.4236  -28.8135   23.3028 O   0  0  0  0  0  0
  -28.2965  -26.3441   20.2121 O   0  0  0  0  0  0
  -26.5623  -34.8906   22.4680 O   0  0  0  0  0  0
  -23.5477  -32.1369   23.7307 O   0  0  0  0  0  0
  -30.1623  -20.0186   22.8832 C   0  0  0  0  0  0
  -29.7253  -21.1873   22.2272 C   0  0  0  0  0  0
  -29.4490  -19.8789   20.2102 C   0  0  0  0  0  0
  -30.2653  -18.7720   22.2251 C   0  0  0  0  0  0
  -29.8971  -18.6505   20.8601 C   0  0  0  0  0  0
  -29.3626  -21.1783   20.8637 C   0  0  0  0  0  0
  -28.9790  -23.7698   20.5859 C   0  0  0  0  0  0
  -30.8093  -17.5946   23.0166 C   0  0  0  0  0  0
  -30.1100  -17.2759   20.0723 C   0  0  0  0  0  0
  -28.0453  -24.8845   19.9162 C   0  0  0  0  0  0
  -28.8599  -22.4270   20.2272 N   0  0  0  0  0  0
  -29.8603  -15.8741   20.6405 N   0  0  0  0  0  0
  -29.8127  -24.1424   21.4174 O   0  0  0  0  0  0
  -31.4713  -12.5560   19.1764 H   0  0  0  0  0  0
  -30.3601  -11.4659   19.9571 H   0  0  0  0  0  0
  -29.7857  -11.7350   17.5210 H   0  0  0  0  0  0
  -29.6415  -13.4642   17.7311 H   0  0  0  0  0  0
  -27.8748  -11.2940   18.8975 H   0  0  0  0  0  0
  -27.3785  -12.5521   17.7988 H   0  0  0  0  0  0
  -27.6385  -14.2571   19.4794 H   0  0  0  0  0  0
  -28.7134  -12.1696   21.4363 H   0  0  0  0  0  0
  -28.4211  -13.8529   21.7965 H   0  0  0  0  0  0
  -25.2736   -9.5666   22.4766 H   0  0  0  0  0  0
  -24.0003   -7.4626   22.7453 H   0  0  0  0  0  0
  -21.0839   -8.8750   19.8945 H   0  0  0  0  0  0
  -22.3681  -10.9667   19.6159 H   0  0  0  0  0  0
  -21.2012   -7.6144   23.9706 H   0  0  0  0  0  0
  -21.1480   -6.0534   25.9084 H   0  0  0  0  0  0
  -22.0595   -2.7616   23.2849 H   0  0  0  0  0  0
  -22.4064  -11.9827   22.4805 H   0  0  0  0  0  0
  -21.1103  -13.1236   22.2662 H   0  0  0  0  0  0
  -24.6631  -15.8575   20.5306 H   0  0  0  0  0  0
  -26.2759  -15.6269   20.0874 H   0  0  0  0  0  0
  -26.7235  -32.5394   23.1106 H   0  0  0  0  0  0
  -25.0103  -33.9676   25.0423 H   0  0  0  0  0  0
  -22.7238  -31.2998   21.4003 H   0  0  0  0  0  0
  -23.3744  -35.9624   23.3283 H   0  0  0  0  0  0
  -24.3590  -36.8930   22.2058 H   0  0  0  0  0  0
  -23.7236  -37.6486   23.6670 H   0  0  0  0  0  0
  -26.1117  -31.5253   20.6115 H   0  0  0  0  0  0
  -26.8548  -30.8166   22.0128 H   0  0  0  0  0  0
  -28.1072  -28.8999   21.2377 H   0  0  0  0  0  0
  -25.9401  -25.9391   18.9428 H   0  0  0  0  0  0
  -23.9762  -27.3372   18.9631 H   0  0  0  0  0  0
  -23.7717  -30.5926   19.4023 H   0  0  0  0  0  0
  -22.7649  -29.2508   19.8547 H   0  0  0  0  0  0
  -25.1289  -36.1919   25.0820 H   0  0  0  0  0  0
  -20.9973  -28.3246   24.1407 H   0  0  0  0  0  0
  -20.5693  -26.2295   23.3607 H   0  0  0  0  0  0
  -21.6648  -26.7442   22.1187 H   0  0  0  0  0  0
  -19.6916  -25.6284   21.1250 H   0  0  0  0  0  0
  -19.6686  -27.3185   20.6750 H   0  0  0  0  0  0
  -17.4211  -26.6665   21.4038 H   0  0  0  0  0  0
  -18.0334  -26.0059   22.9026 H   0  0  0  0  0  0
  -19.7937  -30.7289   24.2229 H   0  0  0  0  0  0
  -17.5007  -31.6255   24.5173 H   0  0  0  0  0  0
  -15.5351  -30.2972   23.7646 H   0  0  0  0  0  0
  -15.8679  -28.0801   22.7078 H   0  0  0  0  0  0
  -24.5844  -30.7181   25.7779 H   0  0  0  0  0  0
  -24.9026  -32.2911   26.4987 H   0  0  0  0  0  0
  -25.8038  -30.8792   27.0203 H   0  0  0  0  0  0
  -26.2931  -29.6718   24.1256 H   0  0  0  0  0  0
  -27.4010  -29.7244   25.4769 H   0  0  0  0  0  0
  -27.8830  -30.4233   23.9502 H   0  0  0  0  0  0
  -27.2748  -33.3589   26.2087 H   0  0  0  0  0  0
  -28.3903  -32.6815   25.0316 H   0  0  0  0  0  0
  -28.0774  -31.8386   26.5396 H   0  0  0  0  0  0
  -28.2584  -38.0099   24.7508 H   0  0  0  0  0  0
  -28.1070  -36.2635   24.6278 H   0  0  0  0  0  0
  -27.2303  -37.1449   25.8863 H   0  0  0  0  0  0
  -20.9429  -29.8756   21.6873 H   0  0  0  0  0  0
  -26.0159  -38.2845   24.1399 H   0  0  0  0  0  0
  -30.4365  -20.0963   23.9264 H   0  0  0  0  0  0
  -29.6644  -22.0948   22.8081 H   0  0  0  0  0  0
  -29.1775  -19.8224   19.1662 H   0  0  0  0  0  0
  -31.3402  -17.9325   23.9072 H   0  0  0  0  0  0
  -31.5178  -17.0112   22.4285 H   0  0  0  0  0  0
  -29.9953  -16.9433   23.3380 H   0  0  0  0  0  0
  -31.1401  -17.3076   19.7144 H   0  0  0  0  0  0
  -29.5064  -17.3424   19.1677 H   0  0  0  0  0  0
  -27.0445  -24.6173   20.2595 H   0  0  0  0  0  0
  -28.0622  -24.7408   18.8361 H   0  0  0  0  0  0
  -28.2731  -22.2786   19.4167 H   0  0  0  0  0  0
  -28.9166  -15.7038   20.9523 H   0  0  0  0  0  0
  1 25  1  0  0  0
  1 30  2  0  0  0
  1 82  1  0  0  0
  2  3  1  0  0  0
  2 25  1  0  0  0
  2 84  1  0  0  0
  2 85  1  0  0  0
  3  4  1  0  0  0
  3 86  1  0  0  0
  3 87  1  0  0  0
  4  5  1  0  0  0
  4 88  1  0  0  0
  4 89  1  0  0  0
  5  6  1  0  0  0
  5 26  1  0  0  0
  5 90  1  0  0  0
  6 25  1  0  0  0
  6 91  1  0  0  0
  6 92  1  0  0  0
  7  8  2  0  0  0
  7 26  1  0  0  0
  7 29  1  0  0  0
  8  9  1  0  0  0
  8 22  1  0  0  0
  9 10  1  0  0  0
  9 27  2  0  0  0
 10 11  2  0  0  0
 10 15  1  0  0  0
 11 12  1  0  0  0
 11 93  1  0  0  0
 12 13  2  0  0  0
 12 94  1  0  0  0
 13 14  1  0  0  0
 13 31  1  0  0  0
 14 15  2  0  0  0
 14 95  1  0  0  0
 15 96  1  0  0  0
 16 17  2  0  0  0
 16 21  1  0  0  0
 16 31  1  0  0  0
 17 18  1  0  0  0
 17 97  1  0  0  0
 18 19  2  0  0  0
 18 98  1  0  0  0
 19 20  1  0  0  0
 19 24  1  0  0  0
 20 21  2  0  0  0
 20 99  1  0  0  0
 21 23  1  0  0  0
 22 28  1  0  0  0
 22 32  2  0  0  0
 26 27  1  0  0  0
 28100  1  0  0  0
 28101  1  0  0  0
 29102  1  0  0  0
 29103  1  0  0  0
 33 34  1  0  0  0
 33 66  1  0  0  0
 33 70  2  0  0  0
 34 36  1  0  0  0
 34 59  1  0  0  0
 34104  1  0  0  0
 35 44  2  0  0  0
 35 45  1  0  0  0
 35 68  1  0  0  0
 36 56  1  0  0  0
 36105  1  0  0  0
 37 39  1  0  0  0
 37 47  1  0  0  0
 37 66  1  0  0  0
 37106  1  0  0  0
 38 43  2  0  0  0
 38 46  1  0  0  0
 38 47  1  0  0  0
 39 64  1  0  0  0
 39 67  2  0  0  0
 40 52  1  0  0  0
 40 53  2  0  0  0
 40 58  1  0  0  0
 41107  1  0  0  0
 41108  1  0  0  0
 41109  1  0  0  0
 41 48  1  0  0  0
 42 43  1  0  0  0
 42 66  1  0  0  0
 42110  1  0  0  0
 42111  1  0  0  0
 43 44  1  0  0  0
 44112  1  0  0  0
 45 46  2  0  0  0
 45113  1  0  0  0
 46114  1  0  0  0
 47115  1  0  0  0
 47116  1  0  0  0
 48 56  1  0  0  0
 48 65  1  0  0  0
 48117  1  0  0  0
 49 50  1  0  0  0
 49 53  1  0  0  0
 49 64  1  0  0  0
 49118  1  0  0  0
 50 51  1  0  0  0
 50119  1  0  0  0
 50120  1  0  0  0
 51 52  1  0  0  0
 51121  1  0  0  0
 51122  1  0  0  0
 52123  1  0  0  0
 52124  1  0  0  0
 53 54  1  0  0  0
 54 55  2  0  0  0
 54125  1  0  0  0
 55 57  1  0  0  0
 55126  1  0  0  0
 56 69  2  0  0  0
 57 58  2  0  0  0
 57127  1  0  0  0
 58128  1  0  0  0
 59 60  1  0  0  0
 59 61  1  0  0  0
 59 62  1  0  0  0
 60129  1  0  0  0
 60130  1  0  0  0
 60131  1  0  0  0
 61132  1  0  0  0
 61133  1  0  0  0
 61134  1  0  0  0
 62135  1  0  0  0
 62136  1  0  0  0
 62137  1  0  0  0
 63 65  1  0  0  0
 63138  1  0  0  0
 63139  1  0  0  0
 63140  1  0  0  0
 64141  1  0  0  0
 65142  1  0  0  0
 68 80  1  0  0  0
 71 72  2  0  0  0
 71 74  1  0  0  0
 71143  1  0  0  0
 72 76  1  0  0  0
 72144  1  0  0  0
 73 75  1  0  0  0
 73 76  2  0  0  0
 73145  1  0  0  0
 74 75  2  0  0  0
 74 78  1  0  0  0
 75 79  1  0  0  0
 76 81  1  0  0  0
 77 80  1  0  0  0
 77 81  1  0  0  0
 77 83  2  0  0  0
 78146  1  0  0  0
 78147  1  0  0  0
 78148  1  0  0  0
 79 82  1  0  0  0
 79149  1  0  0  0
 79150  1  0  0  0
 80151  1  0  0  0
 80152  1  0  0  0
 81153  1  0  0  0
 82154  1  0  0  0
M  ISO  4   1 100  68 101  80 101  82 100
M  END
> <chiral flag>
0

> <version>
0

> <s_m_source_file>
/data/baiqing/PycharmProjects/Reinvent-master-3.2/result/LINK_invent/BTK/process_docking_weight1_custom_product_contain_oxygen_bond_distance_aromatic_linkinvent_7_9_3/rearranged_h_0067.sdf

> <i_m_source_file_index>
91

> <r_mmod_Potential_Energy-OPLS-2005>
84.2335357666016

> <r_mmod_Stretch_Energy-OPLS-2005>
124.447174072266

> <r_mmod_Bend_Energy-OPLS-2005>
160.001754760742

> <r_mmod_Torsional_Energy-OPLS-2005>
221.106399536133

> <r_mmod_Improper_Torsional_Energy-OPLS-2005>
7.25744485855103

> <r_mmod_Van_der_Waal_Energy-OPLS-2005>
146.2099609375

> <r_mmod_Electrostatic_Energy-OPLS-2005>
-413.336547851562

> <r_mmod_Solvation_Energy-OPLS-2005>
-247.392776489258

> <b_mmod_Minimization_Converged-OPLS-2005>
0

> <r_mmod_RMS_Derivative-OPLS-2005>
2.29441404342651

$$$$
92
                    3D
 Structure written by MMmdl.
150158  0  0  1  0            999 V2000
  -30.5314  -15.0411   20.3841 C   0  0  0  0  0  0
  -30.4317  -12.6181   19.5307 C   0  0  0  0  0  0
  -29.5291  -12.5411   18.2755 C   0  0  0  0  0  0
  -28.0596  -12.3213   18.6790 C   0  0  0  0  0  0
  -27.6155  -13.2665   19.8262 C   0  0  2  0  0  0
  -28.6368  -13.3443   20.9754 C   0  0  0  0  0  0
  -25.2396  -13.8261   20.5701 C   0  0  0  0  0  0
  -24.1738  -13.0451   20.9221 C   0  0  0  0  0  0
  -24.6381  -11.6950   20.8745 C   0  0  0  0  0  0
  -23.9086  -10.4307   21.0409 C   0  0  0  0  0  0
  -24.3638   -9.4224   21.9187 C   0  0  0  0  0  0
  -23.6307   -8.2258   22.0761 C   0  0  0  0  0  0
  -22.4289   -8.0291   21.3555 C   0  0  0  0  0  0
  -21.9931   -9.0260   20.4650 C   0  0  0  0  0  0
  -22.7262  -10.2138   20.3057 C   0  0  0  0  0  0
  -21.6854   -6.0747   22.5285 C   0  0  0  0  0  0
  -21.4019   -6.5645   23.8219 C   0  0  0  0  0  0
  -21.3665   -5.6797   24.9180 C   0  0  0  0  0  0
  -21.6045   -4.3060   24.7227 C   0  0  0  0  0  0
  -21.8818   -3.8154   23.4347 C   0  0  0  0  0  0
  -21.9196   -4.6976   22.3407 C   0  0  0  0  0  0
  -22.7764  -13.5211   21.1884 C   0  0  0  0  0  0
  -22.1659   -4.2161   21.0983 F   0  0  0  0  0  0
  -21.5630   -3.4544   25.7739 F   0  0  0  0  0  0
  -29.9231  -13.7241   20.3952 N   0  0  0  0  0  0
  -26.2801  -12.9519   20.3160 N   0  0  0  0  0  0
  -25.9310  -11.6636   20.5694 N   0  0  0  0  0  0
  -22.0419  -12.8193   22.0440 N   0  0  0  0  0  0
  -25.4072  -15.1997   20.4189 N   0  0  0  0  0  0
  -31.7341  -15.1069   20.1119 O   0  0  0  0  0  0
  -21.6652   -6.8893   21.4251 O   0  0  0  0  0  0
  -22.3444  -14.5515   20.6733 O   0  0  0  0  0  0
  -24.6500  -31.8381   23.1838 C   0  0  0  0  0  0
  -25.9251  -32.4657   23.8245 C   0  0  1  0  0  0
  -27.2045  -27.0621   20.1728 C   0  0  0  0  0  0
  -25.5989  -33.8466   24.2168 N   0  0  0  0  0  0
  -23.4565  -30.4561   21.5302 C   0  0  2  0  0  0
  -24.9060  -28.8705   20.1132 C   0  0  0  0  0  0
  -22.7595  -29.4515   22.4826 C   0  0  0  0  0  0
  -18.0312  -28.1393   22.8476 C   0  0  0  0  0  0
  -24.1494  -36.7225   23.2642 C   0  0  0  0  0  0
  -26.0175  -30.6884   21.3949 C   0  0  0  0  0  0
  -26.0863  -29.2918   20.7396 C   0  0  0  0  0  0
  -27.2382  -28.4059   20.7487 C   0  0  0  0  0  0
  -26.0039  -26.7662   19.4928 C   0  0  0  0  0  0
  -24.8822  -27.6242   19.4707 C   0  0  0  0  0  0
  -23.6883  -29.7840   20.1510 C   0  0  0  0  0  0
  -25.4129  -36.3004   24.0309 C   0  0  1  0  0  0
  -20.5930  -28.3725   23.1218 C   0  0  2  0  0  0
  -20.6791  -26.9420   22.5401 C   0  0  0  0  0  0
  -19.5763  -26.6374   21.5209 C   0  0  0  0  0  0
  -18.1946  -26.7932   22.1620 C   0  0  0  0  0  0
  -19.1570  -28.8879   23.2836 C   0  0  0  0  0  0
  -18.9484  -30.1475   23.8858 C   0  0  0  0  0  0
  -17.6478  -30.6588   24.0555 C   0  0  0  0  0  0
  -25.9083  -34.9380   23.5041 C   0  0  0  0  0  0
  -16.5371  -29.9073   23.6343 C   0  0  0  0  0  0
  -16.7295  -28.6497   23.0360 C   0  0  0  0  0  0
  -26.4556  -31.6541   25.0708 C   0  0  0  0  0  0
  -25.3734  -31.3741   26.1397 C   0  0  0  0  0  0
  -27.0439  -30.2930   24.6329 C   0  0  0  0  0  0
  -27.6077  -32.4321   25.7498 C   0  0  0  0  0  0
  -27.5574  -37.1774   24.8466 C   0  0  0  0  0  0
  -21.4280  -29.3044   22.3579 N   0  0  0  0  0  0
  -26.4285  -37.3729   23.9412 N   0  0  0  0  0  0
  -24.7280  -31.0174   22.0908 N   0  0  0  0  0  0
  -23.4210  -28.8068   23.3003 O   0  0  0  0  0  0
  -28.2250  -26.0223   20.2140 O   0  0  0  0  0  0
  -26.5655  -34.8889   22.4613 O   0  0  0  0  0  0
  -23.5604  -32.1288   23.7022 O   0  0  0  0  0  0
  -30.3989  -19.2408   18.1517 C   0  0  0  0  0  0
  -29.9129  -20.4158   18.7566 C   0  0  0  0  0  0
  -29.1939  -19.0213   20.5946 C   0  0  0  0  0  0
  -30.2881  -17.9451   18.7130 C   0  0  0  0  0  0
  -29.2523  -20.4133   19.9999 C   0  0  0  0  0  0
  -29.7274  -17.7271   20.0085 C   0  0  0  0  0  0
  -28.8281  -23.1715   20.0691 C   0  0  0  0  0  0
  -30.7257  -16.8121   17.7977 C   0  0  0  0  0  0
  -27.8790  -24.4955   20.5055 C   0  0  0  0  0  0
  -28.6529  -21.7863   20.4675 N   0  0  0  0  0  0
  -29.7808  -23.4517   19.3379 O   0  0  0  0  0  0
  -29.6078  -16.3305   20.5359 O   0  0  0  0  0  0
  -31.4678  -12.7811   19.2318 H   0  0  0  0  0  0
  -30.4210  -11.6730   20.0764 H   0  0  0  0  0  0
  -29.8597  -11.7396   17.6137 H   0  0  0  0  0  0
  -29.6180  -13.4662   17.7037 H   0  0  0  0  0  0
  -27.9570  -11.2829   18.9940 H   0  0  0  0  0  0
  -27.4060  -12.4428   17.8143 H   0  0  0  0  0  0
  -27.5666  -14.2604   19.3799 H   0  0  0  0  0  0
  -28.7129  -12.3912   21.5013 H   0  0  0  0  0  0
  -28.3253  -14.0874   21.7115 H   0  0  0  0  0  0
  -25.2776   -9.5708   22.4772 H   0  0  0  0  0  0
  -24.0014   -7.4663   22.7490 H   0  0  0  0  0  0
  -21.0864   -8.8784   19.8955 H   0  0  0  0  0  0
  -22.3715  -10.9681   19.6171 H   0  0  0  0  0  0
  -21.2005   -7.6152   23.9729 H   0  0  0  0  0  0
  -21.1485   -6.0526   25.9085 H   0  0  0  0  0  0
  -22.0589   -2.7618   23.2847 H   0  0  0  0  0  0
  -22.4038  -11.9852   22.4820 H   0  0  0  0  0  0
  -21.1041  -13.1226   22.2644 H   0  0  0  0  0  0
  -24.6463  -15.8576   20.5497 H   0  0  0  0  0  0
  -26.2692  -15.6444   20.1293 H   0  0  0  0  0  0
  -26.7308  -32.5240   23.0958 H   0  0  0  0  0  0
  -25.0171  -33.9570   25.0342 H   0  0  0  0  0  0
  -22.7628  -31.2846   21.3720 H   0  0  0  0  0  0
  -23.3769  -35.9542   23.3286 H   0  0  0  0  0  0
  -24.3576  -36.8878   22.2059 H   0  0  0  0  0  0
  -23.7231  -37.6407   23.6693 H   0  0  0  0  0  0
  -26.1821  -31.4386   20.6205 H   0  0  0  0  0  0
  -26.8842  -30.7408   22.0419 H   0  0  0  0  0  0
  -28.1353  -28.7227   21.2623 H   0  0  0  0  0  0
  -25.9068  -25.8231   18.9762 H   0  0  0  0  0  0
  -23.9865  -27.3025   18.9578 H   0  0  0  0  0  0
  -23.8355  -30.5579   19.3965 H   0  0  0  0  0  0
  -22.8003  -29.2341   19.8347 H   0  0  0  0  0  0
  -25.1319  -36.1822   25.0802 H   0  0  0  0  0  0
  -21.0024  -28.3320   24.1337 H   0  0  0  0  0  0
  -20.5685  -26.2332   23.3621 H   0  0  0  0  0  0
  -21.6655  -26.7410   22.1204 H   0  0  0  0  0  0
  -19.6921  -25.6281   21.1247 H   0  0  0  0  0  0
  -19.6697  -27.3171   20.6729 H   0  0  0  0  0  0
  -17.4216  -26.6683   21.4023 H   0  0  0  0  0  0
  -18.0336  -26.0077   22.9017 H   0  0  0  0  0  0
  -19.7958  -30.7306   24.2203 H   0  0  0  0  0  0
  -17.5028  -31.6264   24.5163 H   0  0  0  0  0  0
  -15.5367  -30.2961   23.7685 H   0  0  0  0  0  0
  -15.8701  -28.0800   22.7093 H   0  0  0  0  0  0
  -24.5938  -30.7054   25.7727 H   0  0  0  0  0  0
  -24.8895  -32.2922   26.4735 H   0  0  0  0  0  0
  -25.8024  -30.8987   27.0226 H   0  0  0  0  0  0
  -26.3073  -29.6628   24.1326 H   0  0  0  0  0  0
  -27.4027  -29.7250   25.4923 H   0  0  0  0  0  0
  -27.8989  -30.4154   23.9678 H   0  0  0  0  0  0
  -27.2679  -33.3673   26.1955 H   0  0  0  0  0  0
  -28.3951  -32.6790   25.0366 H   0  0  0  0  0  0
  -28.0662  -31.8516   26.5512 H   0  0  0  0  0  0
  -28.2573  -38.0090   24.7530 H   0  0  0  0  0  0
  -28.1096  -36.2619   24.6287 H   0  0  0  0  0  0
  -27.2287  -37.1403   25.8868 H   0  0  0  0  0  0
  -20.9493  -29.8771   21.6764 H   0  0  0  0  0  0
  -26.0142  -38.2789   24.1442 H   0  0  0  0  0  0
  -30.8428  -19.3468   17.1714 H   0  0  0  0  0  0
  -30.0196  -21.3312   18.1960 H   0  0  0  0  0  0
  -28.6863  -18.9306   21.5440 H   0  0  0  0  0  0
  -30.7038  -17.1207   16.7519 H   0  0  0  0  0  0
  -30.0588  -15.9538   17.8693 H   0  0  0  0  0  0
  -31.7489  -16.5093   18.0175 H   0  0  0  0  0  0
  -27.7491  -24.4243   21.5855 H   0  0  0  0  0  0
  -26.8944  -24.2734   20.0983 H   0  0  0  0  0  0
  -27.9358  -21.6908   21.1756 H   0  0  0  0  0  0
  1 25  1  0  0  0
  1 30  2  0  0  0
  1 82  1  0  0  0
  2  3  1  0  0  0
  2 25  1  0  0  0
  2 83  1  0  0  0
  2 84  1  0  0  0
  3  4  1  0  0  0
  3 85  1  0  0  0
  3 86  1  0  0  0
  4  5  1  0  0  0
  4 87  1  0  0  0
  4 88  1  0  0  0
  5  6  1  0  0  0
  5 26  1  0  0  0
  5 89  1  0  0  0
  6 25  1  0  0  0
  6 90  1  0  0  0
  6 91  1  0  0  0
  7  8  2  0  0  0
  7 26  1  0  0  0
  7 29  1  0  0  0
  8  9  1  0  0  0
  8 22  1  0  0  0
  9 10  1  0  0  0
  9 27  2  0  0  0
 10 11  2  0  0  0
 10 15  1  0  0  0
 11 12  1  0  0  0
 11 92  1  0  0  0
 12 13  2  0  0  0
 12 93  1  0  0  0
 13 14  1  0  0  0
 13 31  1  0  0  0
 14 15  2  0  0  0
 14 94  1  0  0  0
 15 95  1  0  0  0
 16 17  2  0  0  0
 16 21  1  0  0  0
 16 31  1  0  0  0
 17 18  1  0  0  0
 17 96  1  0  0  0
 18 19  2  0  0  0
 18 97  1  0  0  0
 19 20  1  0  0  0
 19 24  1  0  0  0
 20 21  2  0  0  0
 20 98  1  0  0  0
 21 23  1  0  0  0
 22 28  1  0  0  0
 22 32  2  0  0  0
 26 27  1  0  0  0
 28 99  1  0  0  0
 28100  1  0  0  0
 29101  1  0  0  0
 29102  1  0  0  0
 33 34  1  0  0  0
 33 66  1  0  0  0
 33 70  2  0  0  0
 34 36  1  0  0  0
 34 59  1  0  0  0
 34103  1  0  0  0
 35 44  2  0  0  0
 35 45  1  0  0  0
 35 68  1  0  0  0
 36 56  1  0  0  0
 36104  1  0  0  0
 37 39  1  0  0  0
 37 47  1  0  0  0
 37 66  1  0  0  0
 37105  1  0  0  0
 38 43  2  0  0  0
 38 46  1  0  0  0
 38 47  1  0  0  0
 39 64  1  0  0  0
 39 67  2  0  0  0
 40 52  1  0  0  0
 40 53  2  0  0  0
 40 58  1  0  0  0
 41106  1  0  0  0
 41107  1  0  0  0
 41108  1  0  0  0
 41 48  1  0  0  0
 42 43  1  0  0  0
 42 66  1  0  0  0
 42109  1  0  0  0
 42110  1  0  0  0
 43 44  1  0  0  0
 44111  1  0  0  0
 45 46  2  0  0  0
 45112  1  0  0  0
 46113  1  0  0  0
 47114  1  0  0  0
 47115  1  0  0  0
 48 56  1  0  0  0
 48 65  1  0  0  0
 48116  1  0  0  0
 49 50  1  0  0  0
 49 53  1  0  0  0
 49 64  1  0  0  0
 49117  1  0  0  0
 50 51  1  0  0  0
 50118  1  0  0  0
 50119  1  0  0  0
 51 52  1  0  0  0
 51120  1  0  0  0
 51121  1  0  0  0
 52122  1  0  0  0
 52123  1  0  0  0
 53 54  1  0  0  0
 54 55  2  0  0  0
 54124  1  0  0  0
 55 57  1  0  0  0
 55125  1  0  0  0
 56 69  2  0  0  0
 57 58  2  0  0  0
 57126  1  0  0  0
 58127  1  0  0  0
 59 60  1  0  0  0
 59 61  1  0  0  0
 59 62  1  0  0  0
 60128  1  0  0  0
 60129  1  0  0  0
 60130  1  0  0  0
 61131  1  0  0  0
 61132  1  0  0  0
 61133  1  0  0  0
 62134  1  0  0  0
 62135  1  0  0  0
 62136  1  0  0  0
 63 65  1  0  0  0
 63137  1  0  0  0
 63138  1  0  0  0
 63139  1  0  0  0
 64140  1  0  0  0
 65141  1  0  0  0
 68 79  1  0  0  0
 71 72  2  0  0  0
 71 74  1  0  0  0
 71142  1  0  0  0
 72 75  1  0  0  0
 72143  1  0  0  0
 73 75  2  0  0  0
 73 76  1  0  0  0
 73144  1  0  0  0
 74 76  2  0  0  0
 74 78  1  0  0  0
 75 80  1  0  0  0
 76 82  1  0  0  0
 77 79  1  0  0  0
 77 80  1  0  0  0
 77 81  2  0  0  0
 78145  1  0  0  0
 78146  1  0  0  0
 78147  1  0  0  0
 79148  1  0  0  0
 79149  1  0  0  0
 80150  1  0  0  0
M  ISO  4   1 100  68 101  79 101  82 100
M  END
> <chiral flag>
0

> <version>
0

> <s_m_source_file>
/data/baiqing/PycharmProjects/Reinvent-master-3.2/result/LINK_invent/BTK/process_docking_weight1_custom_product_contain_oxygen_bond_distance_aromatic_linkinvent_7_9_3/rearranged_h_0067.sdf

> <i_m_source_file_index>
92

> <r_mmod_Potential_Energy-OPLS-2005>
732.056701660156

> <r_mmod_Stretch_Energy-OPLS-2005>
375.101379394531

> <r_mmod_Bend_Energy-OPLS-2005>
284.667144775391

> <r_mmod_Torsional_Energy-OPLS-2005>
204.231323242188

> <r_mmod_Improper_Torsional_Energy-OPLS-2005>
4.32718229293823

> <r_mmod_Van_der_Waal_Energy-OPLS-2005>
135.794967651367

> <r_mmod_Electrostatic_Energy-OPLS-2005>
-305.437225341797

> <r_mmod_Solvation_Energy-OPLS-2005>
-227.612411499023

> <b_mmod_Minimization_Converged-OPLS-2005>
0

> <r_mmod_RMS_Derivative-OPLS-2005>
1.31346583366394

$$$$
