0
                    3D
 Structure written by MMmdl.
173182  0  0  1  0            999 V2000
  -30.6169  -14.6174   20.5221 C   0  0  0  0  0  0
  -30.4452  -12.3812   19.4527 C   0  0  0  0  0  0
  -29.5124  -12.5091   18.2269 C   0  0  0  0  0  0
  -28.0343  -12.3490   18.6374 C   0  0  0  0  0  0
  -27.6606  -13.2062   19.8763 C   0  0  2  0  0  0
  -28.7045  -13.0342   21.0020 C   0  0  0  0  0  0
  -25.2598  -13.8144   20.5697 C   0  0  0  0  0  0
  -24.1839  -13.0427   20.9162 C   0  0  0  0  0  0
  -24.6383  -11.6889   20.8711 C   0  0  0  0  0  0
  -23.9047  -10.4288   21.0397 C   0  0  0  0  0  0
  -24.3597   -9.4207   21.9184 C   0  0  0  0  0  0
  -23.6277   -8.2241   22.0755 C   0  0  0  0  0  0
  -22.4264   -8.0274   21.3543 C   0  0  0  0  0  0
  -21.9897   -9.0238   20.4644 C   0  0  0  0  0  0
  -22.7217  -10.2122   20.3051 C   0  0  0  0  0  0
  -21.6848   -6.0725   22.5277 C   0  0  0  0  0  0
  -21.4013   -6.5633   23.8207 C   0  0  0  0  0  0
  -21.3662   -5.6786   24.9170 C   0  0  0  0  0  0
  -21.6048   -4.3045   24.7225 C   0  0  0  0  0  0
  -21.8821   -3.8135   23.4344 C   0  0  0  0  0  0
  -21.9198   -4.6954   22.3403 C   0  0  0  0  0  0
  -22.7870  -13.5238   21.1833 C   0  0  0  0  0  0
  -22.1660   -4.2134   21.0979 F   0  0  0  0  0  0
  -21.5636   -3.4534   25.7738 F   0  0  0  0  0  0
  -30.0236  -13.3856   20.4482 N   0  0  0  0  0  0
  -26.3015  -12.9298   20.3377 N   0  0  0  0  0  0
  -25.9317  -11.6457   20.5769 N   0  0  0  0  0  0
  -22.0503  -12.8226   22.0379 N   0  0  0  0  0  0
  -25.4355  -15.1866   20.4140 N   0  0  0  0  0  0
  -31.7621  -14.8121   20.1003 O   0  0  0  0  0  0
  -21.6637   -6.8867   21.4236 O   0  0  0  0  0  0
  -22.3559  -14.5561   20.6705 O   0  0  0  0  0  0
  -24.6224  -31.8610   23.2040 C   0  0  0  0  0  0
  -25.9079  -32.4782   23.8363 C   0  0  1  0  0  0
  -27.2220  -27.3208   20.1239 C   0  0  0  0  0  0
  -25.5905  -33.8589   24.2280 N   0  0  0  0  0  0
  -23.4154  -30.4855   21.5469 C   0  0  2  0  0  0
  -24.8620  -28.9336   20.1213 C   0  0  0  0  0  0
  -22.7457  -29.4615   22.4938 C   0  0  0  0  0  0
  -18.0295  -28.1391   22.8492 C   0  0  0  0  0  0
  -24.1490  -36.7272   23.2651 C   0  0  0  0  0  0
  -25.9564  -30.7841   21.3836 C   0  0  0  0  0  0
  -26.0268  -29.4078   20.7373 C   0  0  0  0  0  0
  -27.2085  -28.6087   20.7395 C   0  0  0  0  0  0
  -26.0514  -26.9179   19.4519 C   0  0  0  0  0  0
  -24.8724  -27.6864   19.4778 C   0  0  0  0  0  0
  -23.6324  -29.8180   20.1632 C   0  0  0  0  0  0
  -25.4104  -36.3069   24.0348 C   0  0  1  0  0  0
  -20.5887  -28.3661   23.1293 C   0  0  2  0  0  0
  -20.6792  -26.9385   22.5408 C   0  0  0  0  0  0
  -19.5769  -26.6383   21.5216 C   0  0  0  0  0  0
  -18.1942  -26.7936   22.1623 C   0  0  0  0  0  0
  -19.1547  -28.8836   23.2896 C   0  0  0  0  0  0
  -18.9482  -30.1445   23.8897 C   0  0  0  0  0  0
  -17.6489  -30.6588   24.0560 C   0  0  0  0  0  0
  -25.9041  -34.9458   23.5111 C   0  0  0  0  0  0
  -16.5377  -29.9090   23.6346 C   0  0  0  0  0  0
  -16.7281  -28.6516   23.0343 C   0  0  0  0  0  0
  -26.4463  -31.6595   25.0743 C   0  0  0  0  0  0
  -25.3698  -31.3786   26.1473 C   0  0  0  0  0  0
  -27.0315  -30.3019   24.6205 C   0  0  0  0  0  0
  -27.5994  -32.4349   25.7510 C   0  0  0  0  0  0
  -27.5577  -37.1776   24.8475 C   0  0  0  0  0  0
  -21.4170  -29.3029   22.3686 N   0  0  0  0  0  0
  -26.4277  -37.3761   23.9433 N   0  0  0  0  0  0
  -24.6833  -31.0619   22.1003 N   0  0  0  0  0  0
  -23.4202  -28.8155   23.3003 O   0  0  0  0  0  0
  -28.3713  -26.5338   19.9975 O   0  0  0  0  0  0
  -26.5609  -34.8914   22.4678 O   0  0  0  0  0  0
  -23.5391  -32.1412   23.7367 O   0  0  0  0  0  0
  -29.2670  -19.2791   21.8479 C   0  0  0  0  0  0
  -29.3349  -19.1299   19.4544 C   0  0  0  0  0  0
  -29.0733  -19.9271   20.6023 C   0  0  0  0  0  0
  -29.6225  -17.9007   21.9449 C   0  0  0  0  0  0
  -29.6687  -17.7404   19.5275 C   0  0  0  0  0  0
  -29.7899  -17.0777   20.7918 C   0  0  0  0  0  0
  -28.0379  -23.9342   20.4671 C   0  0  0  0  0  0
  -26.7143  -23.7533   20.2807 C   0  0  0  0  0  0
  -29.5537  -24.8110   23.1731 C   0  0  0  0  0  0
  -29.4665  -23.2809   22.9867 C   0  0  0  0  0  0
  -28.5774  -25.6380   22.3117 C   0  0  0  0  0  0
  -30.0179  -22.7718   21.6307 C   0  0  0  0  0  0
  -28.6814  -25.3337   20.8077 C   0  0  2  0  0  0
  -29.7675  -17.2896   23.3289 C   0  0  0  0  0  0
  -28.4176  -16.6832   17.5829 C   0  0  0  0  0  0
  -29.7852  -16.9933   18.2037 C   0  0  0  0  0  0
  -28.3260  -21.3159   20.5029 C   0  0  0  0  0  0
  -29.8131  -15.6248   20.9747 N   0  0  0  0  0  0
  -28.9969  -22.6896   20.5463 N   0  3  1  0  0  0
  -31.4861  -12.5133   19.1503 H   0  0  0  0  0  0
  -30.3858  -11.3787   19.8787 H   0  0  0  0  0  0
  -29.7730  -11.7597   17.4780 H   0  0  0  0  0  0
  -29.6582  -13.4811   17.7532 H   0  0  0  0  0  0
  -27.8665  -11.2945   18.8565 H   0  0  0  0  0  0
  -27.3802  -12.5920   17.7989 H   0  0  0  0  0  0
  -27.6896  -14.2465   19.5585 H   0  0  0  0  0  0
  -28.7125  -12.0035   21.3586 H   0  0  0  0  0  0
  -28.4478  -13.6409   21.8703 H   0  0  0  0  0  0
  -25.2741   -9.5692   22.4753 H   0  0  0  0  0  0
  -23.9986   -7.4644   22.7482 H   0  0  0  0  0  0
  -21.0829   -8.8748   19.8950 H   0  0  0  0  0  0
  -22.3675  -10.9651   19.6153 H   0  0  0  0  0  0
  -21.1992   -7.6138   23.9705 H   0  0  0  0  0  0
  -21.1487   -6.0515   25.9072 H   0  0  0  0  0  0
  -22.0600   -2.7594   23.2848 H   0  0  0  0  0  0
  -22.4087  -11.9858   22.4732 H   0  0  0  0  0  0
  -21.1128  -13.1268   22.2606 H   0  0  0  0  0  0
  -24.6738  -15.8459   20.5330 H   0  0  0  0  0  0
  -26.2969  -15.6272   20.1157 H   0  0  0  0  0  0
  -26.7135  -32.5414   23.1091 H   0  0  0  0  0  0
  -25.0072  -33.9765   25.0437 H   0  0  0  0  0  0
  -22.7077  -31.3045   21.4012 H   0  0  0  0  0  0
  -23.3773  -35.9587   23.3310 H   0  0  0  0  0  0
  -24.3599  -36.8881   22.2071 H   0  0  0  0  0  0
  -23.7236  -37.6477   23.6656 H   0  0  0  0  0  0
  -26.0978  -31.5454   20.6150 H   0  0  0  0  0  0
  -26.8320  -30.8240   22.0198 H   0  0  0  0  0  0
  -28.1087  -28.9776   21.2071 H   0  0  0  0  0  0
  -26.0543  -26.0114   18.8655 H   0  0  0  0  0  0
  -23.9852  -27.3263   18.9742 H   0  0  0  0  0  0
  -23.7560  -30.5942   19.4075 H   0  0  0  0  0  0
  -22.7521  -29.2501   19.8587 H   0  0  0  0  0  0
  -25.1279  -36.1915   25.0839 H   0  0  0  0  0  0
  -20.9968  -28.3226   24.1415 H   0  0  0  0  0  0
  -20.5710  -26.2252   23.3592 H   0  0  0  0  0  0
  -21.6648  -26.7428   22.1164 H   0  0  0  0  0  0
  -19.6938  -25.6299   21.1218 H   0  0  0  0  0  0
  -19.6732  -27.3216   20.6767 H   0  0  0  0  0  0
  -17.4204  -26.6691   21.4026 H   0  0  0  0  0  0
  -18.0320  -26.0079   22.9011 H   0  0  0  0  0  0
  -19.7970  -30.7258   24.2239 H   0  0  0  0  0  0
  -17.5063  -31.6266   24.5156 H   0  0  0  0  0  0
  -15.5379  -30.2997   23.7697 H   0  0  0  0  0  0
  -15.8679  -28.0857   22.7031 H   0  0  0  0  0  0
  -24.5837  -30.7161   25.7824 H   0  0  0  0  0  0
  -24.8937  -32.2991   26.4863 H   0  0  0  0  0  0
  -25.8003  -30.8999   27.0272 H   0  0  0  0  0  0
  -26.2923  -29.6787   24.1154 H   0  0  0  0  0  0
  -27.3970  -29.7231   25.4698 H   0  0  0  0  0  0
  -27.8788  -30.4347   23.9474 H   0  0  0  0  0  0
  -27.2561  -33.3641   26.2061 H   0  0  0  0  0  0
  -28.3793  -32.6917   25.0333 H   0  0  0  0  0  0
  -28.0648  -31.8510   26.5456 H   0  0  0  0  0  0
  -28.2535  -38.0116   24.7496 H   0  0  0  0  0  0
  -28.1112  -36.2635   24.6280 H   0  0  0  0  0  0
  -27.2305  -37.1381   25.8878 H   0  0  0  0  0  0
  -20.9326  -29.8775   21.6934 H   0  0  0  0  0  0
  -26.0174  -38.2836   24.1446 H   0  0  0  0  0  0
  -29.0615  -19.8296   22.7571 H   0  0  0  0  0  0
  -29.1727  -19.5635   18.4767 H   0  0  0  0  0  0
  -26.0243  -24.5704   20.3652 H   0  0  0  0  0  0
  -26.2583  -22.7966   20.0916 H   0  0  0  0  0  0
  -30.5753  -25.1439   22.9847 H   0  0  0  0  0  0
  -29.3706  -25.0482   24.2224 H   0  0  0  0  0  0
  -28.4490  -22.9277   23.1605 H   0  0  0  0  0  0
  -30.0651  -22.8259   23.7766 H   0  0  0  0  0  0
  -28.8098  -26.6901   22.4766 H   0  0  0  0  0  0
  -27.5482  -25.5035   22.6493 H   0  0  0  0  0  0
  -30.4895  -21.8000   21.7767 H   0  0  0  0  0  0
  -30.8417  -23.4042   21.2991 H   0  0  0  0  0  0
  -29.7414  -25.2260   20.5801 H   0  0  0  0  0  0
  -29.7729  -18.0512   24.1083 H   0  0  0  0  0  0
  -30.7060  -16.7400   23.4058 H   0  0  0  0  0  0
  -28.9463  -16.6044   23.5386 H   0  0  0  0  0  0
  -28.5299  -16.1438   16.6422 H   0  0  0  0  0  0
  -27.8535  -17.5930   17.3773 H   0  0  0  0  0  0
  -27.8132  -16.0646   18.2445 H   0  0  0  0  0  0
  -30.3530  -16.0731   18.3062 H   0  0  0  0  0  0
  -30.3678  -17.6060   17.5148 H   0  0  0  0  0  0
  -27.5862  -21.3053   21.3043 H   0  0  0  0  0  0
  -27.7523  -21.2679   19.5769 H   0  0  0  0  0  0
  -29.0007  -15.2689   21.4570 H   0  0  0  0  0  0
  -29.5479  -22.6914   19.6997 H   0  0  0  0  0  0
  1 25  1  0  0  0
  1 30  2  0  0  0
  1 88  1  0  0  0
  2  3  1  0  0  0
  2 25  1  0  0  0
  2 90  1  0  0  0
  2 91  1  0  0  0
  3  4  1  0  0  0
  3 92  1  0  0  0
  3 93  1  0  0  0
  4  5  1  0  0  0
  4 94  1  0  0  0
  4 95  1  0  0  0
  5  6  1  0  0  0
  5 26  1  0  0  0
  5 96  1  0  0  0
  6 25  1  0  0  0
  6 97  1  0  0  0
  6 98  1  0  0  0
  7  8  2  0  0  0
  7 26  1  0  0  0
  7 29  1  0  0  0
  8  9  1  0  0  0
  8 22  1  0  0  0
  9 10  1  0  0  0
  9 27  2  0  0  0
 10 11  2  0  0  0
 10 15  1  0  0  0
 11 12  1  0  0  0
 11 99  1  0  0  0
 12 13  2  0  0  0
 12100  1  0  0  0
 13 14  1  0  0  0
 13 31  1  0  0  0
 14 15  2  0  0  0
 14101  1  0  0  0
 15102  1  0  0  0
 16 17  2  0  0  0
 16 21  1  0  0  0
 16 31  1  0  0  0
 17 18  1  0  0  0
 17103  1  0  0  0
 18 19  2  0  0  0
 18104  1  0  0  0
 19 20  1  0  0  0
 19 24  1  0  0  0
 20 21  2  0  0  0
 20105  1  0  0  0
 21 23  1  0  0  0
 22 28  1  0  0  0
 22 32  2  0  0  0
 26 27  1  0  0  0
 28106  1  0  0  0
 28107  1  0  0  0
 29108  1  0  0  0
 29109  1  0  0  0
 33 34  1  0  0  0
 33 66  1  0  0  0
 33 70  2  0  0  0
 34 36  1  0  0  0
 34 59  1  0  0  0
 34110  1  0  0  0
 35 44  2  0  0  0
 35 45  1  0  0  0
 35 68  1  0  0  0
 36 56  1  0  0  0
 36111  1  0  0  0
 37 39  1  0  0  0
 37 47  1  0  0  0
 37 66  1  0  0  0
 37112  1  0  0  0
 38 43  2  0  0  0
 38 46  1  0  0  0
 38 47  1  0  0  0
 39 64  1  0  0  0
 39 67  2  0  0  0
 40 52  1  0  0  0
 40 53  2  0  0  0
 40 58  1  0  0  0
 41113  1  0  0  0
 41114  1  0  0  0
 41115  1  0  0  0
 41 48  1  0  0  0
 42 43  1  0  0  0
 42 66  1  0  0  0
 42116  1  0  0  0
 42117  1  0  0  0
 43 44  1  0  0  0
 44118  1  0  0  0
 45 46  2  0  0  0
 45119  1  0  0  0
 46120  1  0  0  0
 47121  1  0  0  0
 47122  1  0  0  0
 48 56  1  0  0  0
 48 65  1  0  0  0
 48123  1  0  0  0
 49 50  1  0  0  0
 49 53  1  0  0  0
 49 64  1  0  0  0
 49124  1  0  0  0
 50 51  1  0  0  0
 50125  1  0  0  0
 50126  1  0  0  0
 51 52  1  0  0  0
 51127  1  0  0  0
 51128  1  0  0  0
 52129  1  0  0  0
 52130  1  0  0  0
 53 54  1  0  0  0
 54 55  2  0  0  0
 54131  1  0  0  0
 55 57  1  0  0  0
 55132  1  0  0  0
 56 69  2  0  0  0
 57 58  2  0  0  0
 57133  1  0  0  0
 58134  1  0  0  0
 59 60  1  0  0  0
 59 61  1  0  0  0
 59 62  1  0  0  0
 60135  1  0  0  0
 60136  1  0  0  0
 60137  1  0  0  0
 61138  1  0  0  0
 61139  1  0  0  0
 61140  1  0  0  0
 62141  1  0  0  0
 62142  1  0  0  0
 62143  1  0  0  0
 63 65  1  0  0  0
 63144  1  0  0  0
 63145  1  0  0  0
 63146  1  0  0  0
 64147  1  0  0  0
 65148  1  0  0  0
 68 83  1  0  0  0
 71 73  2  0  0  0
 71 74  1  0  0  0
 71149  1  0  0  0
 72 73  1  0  0  0
 72 75  2  0  0  0
 72150  1  0  0  0
 73 87  1  0  0  0
 74 76  2  0  0  0
 74 84  1  0  0  0
 75 76  1  0  0  0
 75 86  1  0  0  0
 76 88  1  0  0  0
 77 78  2  0  0  0
 77 83  1  0  0  0
 77 89  1  0  0  0
 78151  1  0  0  0
 78152  1  0  0  0
 79 80  1  0  0  0
 79 81  1  0  0  0
 79153  1  0  0  0
 79154  1  0  0  0
 80 82  1  0  0  0
 80155  1  0  0  0
 80156  1  0  0  0
 81 83  1  0  0  0
 81157  1  0  0  0
 81158  1  0  0  0
 82 89  1  0  0  0
 82159  1  0  0  0
 82160  1  0  0  0
 83161  1  0  0  0
 84162  1  0  0  0
 84163  1  0  0  0
 84164  1  0  0  0
 85 86  1  0  0  0
 85165  1  0  0  0
 85166  1  0  0  0
 85167  1  0  0  0
 86168  1  0  0  0
 86169  1  0  0  0
 87170  1  0  0  0
 87171  1  0  0  0
 87 89  1  0  0  0
 88172  1  0  0  0
 89173  1  0  0  0
M  CHG  1  89   1
M  ISO  4   1 100  68 101  83 101  88 100
M  END
> <chiral flag>
0

> <version>
0

> <s_m_source_file>
/data/baiqing/PycharmProjects/Reinvent-master-3.2/result/LINK_invent/BTK/process_docking_weight1_custom_product_contain_oxygen_bond_distance_aromatic_linkinvent_7_9_3/rearranged_h_0030.sdf

> <i_m_source_file_index>
1

> <r_mmod_Potential_Energy-OPLS-2005>
31.6322612762451

> <r_mmod_Stretch_Energy-OPLS-2005>
89.9232482910156

> <r_mmod_Bend_Energy-OPLS-2005>
186.129608154297

> <r_mmod_Torsional_Energy-OPLS-2005>
291.475830078125

> <r_mmod_Improper_Torsional_Energy-OPLS-2005>
7.93892621994019

> <r_mmod_Van_der_Waal_Energy-OPLS-2005>
144.140808105469

> <r_mmod_Electrostatic_Energy-OPLS-2005>
-299.802276611328

> <r_mmod_Solvation_Energy-OPLS-2005>
-427.702545166016

> <b_mmod_Minimization_Converged-OPLS-2005>
0

> <r_mmod_RMS_Derivative-OPLS-2005>
3.21106243133545

$$$$
1
                    3D
 Structure written by MMmdl.
160169  0  0  1  0            999 V2000
  -30.6603  -14.5029   20.5554 C   0  0  0  0  0  0
  -30.4373  -12.3223   19.4248 C   0  0  0  0  0  0
  -29.5025  -12.5124   18.2103 C   0  0  0  0  0  0
  -28.0214  -12.3702   18.6203 C   0  0  0  0  0  0
  -27.6671  -13.2022   19.8810 C   0  0  2  0  0  0
  -28.7093  -12.9699   21.0002 C   0  0  0  0  0  0
  -25.2609  -13.8160   20.5668 C   0  0  0  0  0  0
  -24.1866  -13.0442   20.9187 C   0  0  0  0  0  0
  -24.6432  -11.6916   20.8772 C   0  0  0  0  0  0
  -23.9108  -10.4307   21.0423 C   0  0  0  0  0  0
  -24.3664   -9.4216   21.9195 C   0  0  0  0  0  0
  -23.6318   -8.2266   22.0778 C   0  0  0  0  0  0
  -22.4291   -8.0314   21.3570 C   0  0  0  0  0  0
  -21.9930   -9.0303   20.4677 C   0  0  0  0  0  0
  -22.7279  -10.2165   20.3076 C   0  0  0  0  0  0
  -21.6862   -6.0762   22.5286 C   0  0  0  0  0  0
  -21.4017   -6.5661   23.8222 C   0  0  0  0  0  0
  -21.3647   -5.6787   24.9175 C   0  0  0  0  0  0
  -21.6036   -4.3059   24.7191 C   0  0  0  0  0  0
  -21.8823   -3.8167   23.4315 C   0  0  0  0  0  0
  -21.9191   -4.6995   22.3384 C   0  0  0  0  0  0
  -22.7878  -13.5248   21.1790 C   0  0  0  0  0  0
  -22.1661   -4.2200   21.0957 F   0  0  0  0  0  0
  -21.5616   -3.4527   25.7697 F   0  0  0  0  0  0
  -30.0436  -13.2932   20.4601 N   0  0  0  0  0  0
  -26.3065  -12.9326   20.3394 N   0  0  0  0  0  0
  -25.9361  -11.6501   20.5826 N   0  0  0  0  0  0
  -22.0497  -12.8309   22.0374 N   0  0  0  0  0  0
  -25.4253  -15.1876   20.4001 N   0  0  0  0  0  0
  -31.7551  -14.7480   20.0426 O   0  0  0  0  0  0
  -21.6645   -6.8924   21.4255 O   0  0  0  0  0  0
  -22.3569  -14.5516   20.6556 O   0  0  0  0  0  0
  -24.6197  -31.8648   23.2063 C   0  0  0  0  0  0
  -25.9093  -32.4796   23.8360 C   0  0  1  0  0  0
  -27.2151  -27.3968   20.1053 C   0  0  0  0  0  0
  -25.5953  -33.8602   24.2282 N   0  0  0  0  0  0
  -23.4069  -30.4917   21.5476 C   0  0  2  0  0  0
  -24.8494  -28.9578   20.1085 C   0  0  0  0  0  0
  -22.7418  -29.4675   22.4966 C   0  0  0  0  0  0
  -18.0260  -28.1377   22.8487 C   0  0  0  0  0  0
  -24.1490  -36.7297   23.2639 C   0  0  0  0  0  0
  -25.9416  -30.8186   21.3663 C   0  0  0  0  0  0
  -26.0149  -29.4552   20.7055 C   0  0  0  0  0  0
  -27.2066  -28.6853   20.6945 C   0  0  0  0  0  0
  -26.0292  -26.9195   19.5092 C   0  0  0  0  0  0
  -24.8521  -27.6904   19.5064 C   0  0  0  0  0  0
  -23.6141  -29.8304   20.1596 C   0  0  0  0  0  0
  -25.4122  -36.3088   24.0314 C   0  0  1  0  0  0
  -20.5863  -28.3673   23.1307 C   0  0  2  0  0  0
  -20.6760  -26.9405   22.5421 C   0  0  0  0  0  0
  -19.5747  -26.6382   21.5211 C   0  0  0  0  0  0
  -18.1917  -26.7925   22.1608 C   0  0  0  0  0  0
  -19.1518  -28.8838   23.2890 C   0  0  0  0  0  0
  -18.9454  -30.1442   23.8901 C   0  0  0  0  0  0
  -17.6465  -30.6590   24.0566 C   0  0  0  0  0  0
  -25.9065  -34.9462   23.5084 C   0  0  0  0  0  0
  -16.5350  -29.9092   23.6343 C   0  0  0  0  0  0
  -16.7248  -28.6508   23.0354 C   0  0  0  0  0  0
  -26.4488  -31.6587   25.0712 C   0  0  0  0  0  0
  -25.3781  -31.3723   26.1490 C   0  0  0  0  0  0
  -27.0309  -30.3012   24.6134 C   0  0  0  0  0  0
  -27.6023  -32.4329   25.7499 C   0  0  0  0  0  0
  -27.5568  -37.1818   24.8468 C   0  0  0  0  0  0
  -21.4142  -29.3038   22.3704 N   0  0  0  0  0  0
  -26.4294  -37.3787   23.9390 N   0  0  0  0  0  0
  -24.6732  -31.0749   22.0965 N   0  0  0  0  0  0
  -23.4177  -28.8244   23.3031 O   0  0  0  0  0  0
  -28.3457  -26.5989   20.1092 O   0  0  0  0  0  0
  -26.5613  -34.8925   22.4634 O   0  0  0  0  0  0
  -23.5376  -32.1414   23.7453 O   0  0  0  0  0  0
  -28.0658  -23.8551   18.8400 C   0  0  0  0  0  0
  -28.3153  -22.6440   18.1673 C   0  0  0  0  0  0
  -29.2173  -22.9830   20.8016 C   0  0  0  0  0  0
  -28.5343  -24.0571   20.1548 C   0  0  0  0  0  0
  -29.4645  -21.7448   20.1354 C   0  0  0  0  0  0
  -29.0361  -21.6124   18.7947 C   0  0  0  0  0  0
  -28.2440  -17.3394   20.6723 C   0  0  0  0  0  0
  -28.3513  -18.8795   20.6783 C   0  0  0  0  0  0
  -30.5341  -18.0231   20.9344 C   0  0  0  0  0  0
  -29.6778  -16.8226   20.4595 C   0  0  1  0  0  0
  -30.2126  -20.5767   20.8306 C   0  0  0  0  0  0
  -28.2327  -25.3804   20.8906 C   0  0  0  0  0  0
  -29.8863  -15.4845   21.0617 N   0  0  0  0  0  0
  -29.7713  -19.1995   20.4275 N   0  3  2  0  0  0
  -29.3043  -20.4737   18.1084 F   0  0  0  0  0  0
  -31.4796  -12.4417   19.1230 H   0  0  0  0  0  0
  -30.3530  -11.3079   19.8162 H   0  0  0  0  0  0
  -29.7435  -11.7832   17.4365 H   0  0  0  0  0  0
  -29.6694  -13.4948   17.7642 H   0  0  0  0  0  0
  -27.8358  -11.3129   18.8106 H   0  0  0  0  0  0
  -27.3682  -12.6445   17.7908 H   0  0  0  0  0  0
  -27.7124  -14.2517   19.5935 H   0  0  0  0  0  0
  -28.6957  -11.9275   21.3191 H   0  0  0  0  0  0
  -28.4661  -13.5477   21.8919 H   0  0  0  0  0  0
  -25.2844   -9.5665   22.4731 H   0  0  0  0  0  0
  -24.0033   -7.4651   22.7495 H   0  0  0  0  0  0
  -21.0857   -8.8851   19.8982 H   0  0  0  0  0  0
  -22.3790  -10.9711   19.6166 H   0  0  0  0  0  0
  -21.2033   -7.6167   23.9743 H   0  0  0  0  0  0
  -21.1451   -6.0512   25.9076 H   0  0  0  0  0  0
  -22.0614   -2.7635   23.2786 H   0  0  0  0  0  0
  -22.4102  -12.0013   22.4837 H   0  0  0  0  0  0
  -21.1118  -13.1394   22.2535 H   0  0  0  0  0  0
  -24.6446  -15.8284   20.4851 H   0  0  0  0  0  0
  -26.2547  -15.6195   20.0167 H   0  0  0  0  0  0
  -26.7183  -32.5468   23.1125 H   0  0  0  0  0  0
  -25.0120  -33.9751   25.0446 H   0  0  0  0  0  0
  -22.6995  -31.3116   21.4111 H   0  0  0  0  0  0
  -23.3730  -35.9655   23.3336 H   0  0  0  0  0  0
  -24.3591  -36.8875   22.2048 H   0  0  0  0  0  0
  -23.7270  -37.6521   23.6646 H   0  0  0  0  0  0
  -26.0836  -31.5863   20.6039 H   0  0  0  0  0  0
  -26.8190  -30.8510   21.9991 H   0  0  0  0  0  0
  -28.1066  -29.0617   21.1616 H   0  0  0  0  0  0
  -25.9942  -25.9411   19.0582 H   0  0  0  0  0  0
  -23.9530  -27.3006   19.0502 H   0  0  0  0  0  0
  -23.7326  -30.6080   19.4037 H   0  0  0  0  0  0
  -22.7329  -29.2594   19.8594 H   0  0  0  0  0  0
  -25.1316  -36.1944   25.0815 H   0  0  0  0  0  0
  -20.9951  -28.3226   24.1427 H   0  0  0  0  0  0
  -20.5669  -26.2265   23.3592 H   0  0  0  0  0  0
  -21.6634  -26.7452   22.1224 H   0  0  0  0  0  0
  -19.6922  -25.6297   21.1221 H   0  0  0  0  0  0
  -19.6701  -27.3199   20.6750 H   0  0  0  0  0  0
  -17.4196  -26.6648   21.4000 H   0  0  0  0  0  0
  -18.0326  -26.0071   22.9012 H   0  0  0  0  0  0
  -19.7947  -30.7238   24.2271 H   0  0  0  0  0  0
  -17.5040  -31.6284   24.5145 H   0  0  0  0  0  0
  -15.5362  -30.3002   23.7693 H   0  0  0  0  0  0
  -15.8630  -28.0844   22.7071 H   0  0  0  0  0  0
  -24.5960  -30.7032   25.7883 H   0  0  0  0  0  0
  -24.8987  -32.2892   26.4938 H   0  0  0  0  0  0
  -25.8200  -30.8943   27.0247 H   0  0  0  0  0  0
  -26.2847  -29.6786   24.1182 H   0  0  0  0  0  0
  -27.4029  -29.7253   25.4617 H   0  0  0  0  0  0
  -27.8723  -30.4268   23.9309 H   0  0  0  0  0  0
  -27.2585  -33.3608   26.2080 H   0  0  0  0  0  0
  -28.3851  -32.6924   25.0364 H   0  0  0  0  0  0
  -28.0677  -31.8476   26.5438 H   0  0  0  0  0  0
  -28.2626  -38.0075   24.7477 H   0  0  0  0  0  0
  -28.1020  -36.2613   24.6350 H   0  0  0  0  0  0
  -27.2291  -37.1530   25.8874 H   0  0  0  0  0  0
  -20.9283  -29.8751   21.6930 H   0  0  0  0  0  0
  -26.0165  -38.2858   24.1384 H   0  0  0  0  0  0
  -27.5185  -24.6291   18.3228 H   0  0  0  0  0  0
  -27.9511  -22.5131   17.1583 H   0  0  0  0  0  0
  -29.5589  -23.1150   21.8191 H   0  0  0  0  0  0
  -27.5842  -16.9899   19.8807 H   0  0  0  0  0  0
  -27.8238  -17.0011   21.6221 H   0  0  0  0  0  0
  -28.0429  -19.2805   21.6458 H   0  0  0  0  0  0
  -27.7131  -19.3353   19.9204 H   0  0  0  0  0  0
  -31.5501  -17.9891   20.5394 H   0  0  0  0  0  0
  -30.5908  -18.0533   22.0226 H   0  0  0  0  0  0
  -29.8300  -16.7197   19.3839 H   0  0  0  0  0  0
  -30.1299  -20.6846   21.9122 H   0  0  0  0  0  0
  -31.2692  -20.6859   20.5882 H   0  0  0  0  0  0
  -28.9161  -25.4731   21.7358 H   0  0  0  0  0  0
  -27.2431  -25.2827   21.3424 H   0  0  0  0  0  0
  -29.0908  -15.1244   21.5666 H   0  0  0  0  0  0
  -29.8744  -19.1835   19.4201 H   0  0  0  0  0  0
  1 25  1  0  0  0
  1 30  2  0  0  0
  1 83  1  0  0  0
  2  3  1  0  0  0
  2 25  1  0  0  0
  2 86  1  0  0  0
  2 87  1  0  0  0
  3  4  1  0  0  0
  3 88  1  0  0  0
  3 89  1  0  0  0
  4  5  1  0  0  0
  4 90  1  0  0  0
  4 91  1  0  0  0
  5  6  1  0  0  0
  5 26  1  0  0  0
  5 92  1  0  0  0
  6 25  1  0  0  0
  6 93  1  0  0  0
  6 94  1  0  0  0
  7  8  2  0  0  0
  7 26  1  0  0  0
  7 29  1  0  0  0
  8  9  1  0  0  0
  8 22  1  0  0  0
  9 10  1  0  0  0
  9 27  2  0  0  0
 10 11  2  0  0  0
 10 15  1  0  0  0
 11 12  1  0  0  0
 11 95  1  0  0  0
 12 13  2  0  0  0
 12 96  1  0  0  0
 13 14  1  0  0  0
 13 31  1  0  0  0
 14 15  2  0  0  0
 14 97  1  0  0  0
 15 98  1  0  0  0
 16 17  2  0  0  0
 16 21  1  0  0  0
 16 31  1  0  0  0
 17 18  1  0  0  0
 17 99  1  0  0  0
 18 19  2  0  0  0
 18100  1  0  0  0
 19 20  1  0  0  0
 19 24  1  0  0  0
 20 21  2  0  0  0
 20101  1  0  0  0
 21 23  1  0  0  0
 22 28  1  0  0  0
 22 32  2  0  0  0
 26 27  1  0  0  0
 28102  1  0  0  0
 28103  1  0  0  0
 29104  1  0  0  0
 29105  1  0  0  0
 33 34  1  0  0  0
 33 66  1  0  0  0
 33 70  2  0  0  0
 34 36  1  0  0  0
 34 59  1  0  0  0
 34106  1  0  0  0
 35 44  2  0  0  0
 35 45  1  0  0  0
 35 68  1  0  0  0
 36 56  1  0  0  0
 36107  1  0  0  0
 37 39  1  0  0  0
 37 47  1  0  0  0
 37 66  1  0  0  0
 37108  1  0  0  0
 38 43  2  0  0  0
 38 46  1  0  0  0
 38 47  1  0  0  0
 39 64  1  0  0  0
 39 67  2  0  0  0
 40 52  1  0  0  0
 40 53  2  0  0  0
 40 58  1  0  0  0
 41109  1  0  0  0
 41110  1  0  0  0
 41111  1  0  0  0
 41 48  1  0  0  0
 42 43  1  0  0  0
 42 66  1  0  0  0
 42112  1  0  0  0
 42113  1  0  0  0
 43 44  1  0  0  0
 44114  1  0  0  0
 45 46  2  0  0  0
 45115  1  0  0  0
 46116  1  0  0  0
 47117  1  0  0  0
 47118  1  0  0  0
 48 56  1  0  0  0
 48 65  1  0  0  0
 48119  1  0  0  0
 49 50  1  0  0  0
 49 53  1  0  0  0
 49 64  1  0  0  0
 49120  1  0  0  0
 50 51  1  0  0  0
 50121  1  0  0  0
 50122  1  0  0  0
 51 52  1  0  0  0
 51123  1  0  0  0
 51124  1  0  0  0
 52125  1  0  0  0
 52126  1  0  0  0
 53 54  1  0  0  0
 54 55  2  0  0  0
 54127  1  0  0  0
 55 57  1  0  0  0
 55128  1  0  0  0
 56 69  2  0  0  0
 57 58  2  0  0  0
 57129  1  0  0  0
 58130  1  0  0  0
 59 60  1  0  0  0
 59 61  1  0  0  0
 59 62  1  0  0  0
 60131  1  0  0  0
 60132  1  0  0  0
 60133  1  0  0  0
 61134  1  0  0  0
 61135  1  0  0  0
 61136  1  0  0  0
 62137  1  0  0  0
 62138  1  0  0  0
 62139  1  0  0  0
 63 65  1  0  0  0
 63140  1  0  0  0
 63141  1  0  0  0
 63142  1  0  0  0
 64143  1  0  0  0
 65144  1  0  0  0
 68 82  1  0  0  0
 71 72  2  0  0  0
 71 74  1  0  0  0
 71145  1  0  0  0
 72 76  1  0  0  0
 72146  1  0  0  0
 73 74  2  0  0  0
 73 75  1  0  0  0
 73147  1  0  0  0
 74 82  1  0  0  0
 75 76  2  0  0  0
 75 81  1  0  0  0
 76 85  1  0  0  0
 77 78  1  0  0  0
 77 80  1  0  0  0
 77148  1  0  0  0
 77149  1  0  0  0
 78 84  1  0  0  0
 78150  1  0  0  0
 78151  1  0  0  0
 79 80  1  0  0  0
 79 84  1  0  0  0
 79152  1  0  0  0
 79153  1  0  0  0
 80 83  1  0  0  0
 80154  1  0  0  0
 81155  1  0  0  0
 81156  1  0  0  0
 81 84  1  0  0  0
 82157  1  0  0  0
 82158  1  0  0  0
 83159  1  0  0  0
 84160  1  0  0  0
M  CHG  1  84   1
M  ISO  4   1 100  68 101  82 101  83 100
M  END
> <chiral flag>
0

> <version>
0

> <s_m_source_file>
/data/baiqing/PycharmProjects/Reinvent-master-3.2/result/LINK_invent/BTK/process_docking_weight1_custom_product_contain_oxygen_bond_distance_aromatic_linkinvent_7_9_3/rearranged_h_0030.sdf

> <i_m_source_file_index>
2

> <r_mmod_Potential_Energy-OPLS-2005>
-114.914405822754

> <r_mmod_Stretch_Energy-OPLS-2005>
45.8767127990723

> <r_mmod_Bend_Energy-OPLS-2005>
131.333770751953

> <r_mmod_Torsional_Energy-OPLS-2005>
302.414611816406

> <r_mmod_Improper_Torsional_Energy-OPLS-2005>
7.96336507797241

> <r_mmod_Van_der_Waal_Energy-OPLS-2005>
140.580108642578

> <r_mmod_Electrostatic_Energy-OPLS-2005>
-321.241851806641

> <r_mmod_Solvation_Energy-OPLS-2005>
-440.920379638672

> <b_mmod_Minimization_Converged-OPLS-2005>
0

> <r_mmod_RMS_Derivative-OPLS-2005>
3.59400868415833

$$$$
2
                    3D
 Structure written by MMmdl.
163172  0  0  1  0            999 V2000
  -30.5212  -14.8289   20.4582 C   0  0  0  0  0  0
  -30.4546  -12.5066   19.4703 C   0  0  0  0  0  0
  -29.5118  -12.4738   18.2449 C   0  0  0  0  0  0
  -28.0489  -12.2624   18.6793 C   0  0  0  0  0  0
  -27.6362  -13.2036   19.8386 C   0  0  2  0  0  0
  -28.6811  -13.1663   20.9728 C   0  0  0  0  0  0
  -25.2506  -13.8176   20.5684 C   0  0  0  0  0  0
  -24.1768  -13.0440   20.9248 C   0  0  0  0  0  0
  -24.6339  -11.6892   20.8799 C   0  0  0  0  0  0
  -23.9003  -10.4284   21.0455 C   0  0  0  0  0  0
  -24.3589   -9.4184   21.9205 C   0  0  0  0  0  0
  -23.6268   -8.2204   22.0751 C   0  0  0  0  0  0
  -22.4251   -8.0258   21.3532 C   0  0  0  0  0  0
  -21.9876   -9.0240   20.4647 C   0  0  0  0  0  0
  -22.7192  -10.2126   20.3079 C   0  0  0  0  0  0
  -21.6836   -6.0723   22.5275 C   0  0  0  0  0  0
  -21.4009   -6.5633   23.8221 C   0  0  0  0  0  0
  -21.3676   -5.6796   24.9184 C   0  0  0  0  0  0
  -21.6034   -4.3043   24.7232 C   0  0  0  0  0  0
  -21.8825   -3.8140   23.4358 C   0  0  0  0  0  0
  -21.9185   -4.6952   22.3416 C   0  0  0  0  0  0
  -22.7800  -13.5234   21.1876 C   0  0  0  0  0  0
  -22.1637   -4.2147   21.0987 F   0  0  0  0  0  0
  -21.5637   -3.4520   25.7746 F   0  0  0  0  0  0
  -29.9641  -13.5647   20.3796 N   0  0  0  0  0  0
  -26.2887  -12.9295   20.3260 N   0  0  0  0  0  0
  -25.9248  -11.6469   20.5784 N   0  0  0  0  0  0
  -22.0437  -12.8265   22.0451 N   0  0  0  0  0  0
  -25.4239  -15.1905   20.4088 N   0  0  0  0  0  0
  -31.7384  -14.9713   20.3053 O   0  0  0  0  0  0
  -21.6612   -6.8851   21.4207 O   0  0  0  0  0  0
  -22.3477  -14.5511   20.6639 O   0  0  0  0  0  0
  -24.6367  -31.8473   23.1916 C   0  0  0  0  0  0
  -25.9161  -32.4722   23.8280 C   0  0  1  0  0  0
  -27.1993  -27.1802   20.1323 C   0  0  0  0  0  0
  -25.5942  -33.8520   24.2213 N   0  0  0  0  0  0
  -23.4347  -30.4733   21.5404 C   0  0  2  0  0  0
  -24.8726  -28.9026   20.1123 C   0  0  0  0  0  0
  -22.7525  -29.4580   22.4898 C   0  0  0  0  0  0
  -18.0292  -28.1370   22.8477 C   0  0  0  0  0  0
  -24.1477  -36.7256   23.2653 C   0  0  0  0  0  0
  -25.9865  -30.7404   21.3727 C   0  0  0  0  0  0
  -26.0525  -29.3527   20.7186 C   0  0  0  0  0  0
  -27.2149  -28.5058   20.7154 C   0  0  0  0  0  0
  -25.9938  -26.8133   19.4980 C   0  0  0  0  0  0
  -24.8520  -27.6448   19.4917 C   0  0  0  0  0  0
  -23.6494  -29.8021   20.1583 C   0  0  0  0  0  0
  -25.4099  -36.3050   24.0337 C   0  0  1  0  0  0
  -20.5891  -28.3687   23.1249 C   0  0  2  0  0  0
  -20.6752  -26.9401   22.5391 C   0  0  0  0  0  0
  -19.5737  -26.6378   21.5187 C   0  0  0  0  0  0
  -18.1923  -26.7899   22.1624 C   0  0  0  0  0  0
  -19.1550  -28.8844   23.2848 C   0  0  0  0  0  0
  -18.9472  -30.1433   23.8876 C   0  0  0  0  0  0
  -17.6471  -30.6568   24.0552 C   0  0  0  0  0  0
  -25.9046  -34.9430   23.5086 C   0  0  0  0  0  0
  -16.5350  -29.9061   23.6350 C   0  0  0  0  0  0
  -16.7277  -28.6479   23.0372 C   0  0  0  0  0  0
  -26.4511  -31.6573   25.0712 C   0  0  0  0  0  0
  -25.3734  -31.3740   26.1457 C   0  0  0  0  0  0
  -27.0355  -30.2989   24.6225 C   0  0  0  0  0  0
  -27.6068  -32.4308   25.7459 C   0  0  0  0  0  0
  -27.5557  -37.1781   24.8475 C   0  0  0  0  0  0
  -21.4220  -29.3043   22.3645 N   0  0  0  0  0  0
  -26.4273  -37.3757   23.9422 N   0  0  0  0  0  0
  -24.7072  -31.0383   22.0907 N   0  0  0  0  0  0
  -23.4208  -28.8143   23.3026 O   0  0  0  0  0  0
  -28.2774  -26.2426   20.2034 O   0  0  0  0  0  0
  -26.5653  -34.8916   22.4680 O   0  0  0  0  0  0
  -23.5511  -32.1333   23.7209 O   0  0  0  0  0  0
  -31.4860  -20.0992   22.4812 C   0  0  0  0  0  0
  -31.4330  -18.5597   20.5961 C   0  0  0  0  0  0
  -32.1603  -19.2328   21.5987 C   0  0  0  0  0  0
  -30.1571  -20.5017   22.2131 C   0  0  0  0  0  0
  -30.0365  -18.7424   20.5174 C   0  0  0  0  0  0
  -29.5456  -20.0657   21.0033 C   0  0  0  0  0  0
  -29.4231  -23.8016   19.7724 C   0  0  0  0  0  0
  -27.5058  -23.5977   20.5471 C   0  0  0  0  0  0
  -28.1772  -24.7764   19.7465 C   0  0  1  0  0  0
  -33.6146  -18.8916   21.8267 C   0  0  0  0  0  0
  -29.4508  -21.3686   23.2523 C   0  0  0  0  0  0
  -29.3978  -17.3329   20.9794 C   0  0  0  0  0  0
  -28.7229  -21.2040   20.1664 C   0  0  0  0  0  0
  -29.6119  -15.8941   20.4337 N   0  0  0  0  0  0
  -28.7391  -22.7306   20.5701 N   0  3  1  0  0  0
  -31.4791  -12.6941   19.1538 H   0  0  0  0  0  0
  -30.4575  -11.5419   19.9868 H   0  0  0  0  0  0
  -29.8126  -11.6691   17.5720 H   0  0  0  0  0  0
  -29.5900  -13.4056   17.6847 H   0  0  0  0  0  0
  -27.9591  -11.2246   19.0124 H   0  0  0  0  0  0
  -27.3764  -12.3744   17.8301 H   0  0  0  0  0  0
  -27.6215  -14.2084   19.4183 H   0  0  0  0  0  0
  -28.7527  -12.1659   21.4074 H   0  0  0  0  0  0
  -28.3906  -13.8329   21.7845 H   0  0  0  0  0  0
  -25.2764   -9.5647   22.4776 H   0  0  0  0  0  0
  -23.9982   -7.4607   22.7496 H   0  0  0  0  0  0
  -21.0794   -8.8779   19.8990 H   0  0  0  0  0  0
  -22.3658  -10.9679   19.6193 H   0  0  0  0  0  0
  -21.1979   -7.6136   23.9707 H   0  0  0  0  0  0
  -21.1496   -6.0525   25.9095 H   0  0  0  0  0  0
  -22.0584   -2.7587   23.2865 H   0  0  0  0  0  0
  -22.4037  -11.9918   22.4823 H   0  0  0  0  0  0
  -21.1087  -13.1317   22.2725 H   0  0  0  0  0  0
  -24.6435  -15.8320   20.5228 H   0  0  0  0  0  0
  -26.2454  -15.6392   20.0286 H   0  0  0  0  0  0
  -26.7246  -32.5340   23.1017 H   0  0  0  0  0  0
  -25.0041  -33.9612   25.0338 H   0  0  0  0  0  0
  -22.7323  -31.2995   21.3934 H   0  0  0  0  0  0
  -23.3744  -35.9594   23.3310 H   0  0  0  0  0  0
  -24.3557  -36.8867   22.2066 H   0  0  0  0  0  0
  -23.7221  -37.6458   23.6657 H   0  0  0  0  0  0
  -26.1211  -31.4942   20.5945 H   0  0  0  0  0  0
  -26.8644  -30.7973   22.0024 H   0  0  0  0  0  0
  -28.1184  -28.8495   21.1993 H   0  0  0  0  0  0
  -25.8924  -25.8533   19.0176 H   0  0  0  0  0  0
  -23.9464  -27.2886   19.0165 H   0  0  0  0  0  0
  -23.7676  -30.5769   19.3971 H   0  0  0  0  0  0
  -22.7615  -29.2404   19.8596 H   0  0  0  0  0  0
  -25.1272  -36.1884   25.0834 H   0  0  0  0  0  0
  -20.9991  -28.3248   24.1361 H   0  0  0  0  0  0
  -20.5582  -26.2311   23.3592 H   0  0  0  0  0  0
  -21.6624  -26.7352   22.1226 H   0  0  0  0  0  0
  -19.6871  -25.6288   21.1205 H   0  0  0  0  0  0
  -19.6643  -27.3200   20.6713 H   0  0  0  0  0  0
  -17.4165  -26.6642   21.4035 H   0  0  0  0  0  0
  -18.0331  -26.0015   22.9008 H   0  0  0  0  0  0
  -19.7948  -30.7258   24.2225 H   0  0  0  0  0  0
  -17.5027  -31.6256   24.5153 H   0  0  0  0  0  0
  -15.5350  -30.2973   23.7654 H   0  0  0  0  0  0
  -15.8676  -28.0788   22.7114 H   0  0  0  0  0  0
  -24.5909  -30.7074   25.7808 H   0  0  0  0  0  0
  -24.8950  -32.2933   26.4857 H   0  0  0  0  0  0
  -25.8086  -30.8956   27.0258 H   0  0  0  0  0  0
  -26.2969  -29.6731   24.1232 H   0  0  0  0  0  0
  -27.4006  -29.7233   25.4737 H   0  0  0  0  0  0
  -27.8840  -30.4224   23.9493 H   0  0  0  0  0  0
  -27.2700  -33.3626   26.2006 H   0  0  0  0  0  0
  -28.3899  -32.6852   25.0298 H   0  0  0  0  0  0
  -28.0745  -31.8476   26.5402 H   0  0  0  0  0  0
  -28.2618  -38.0039   24.7515 H   0  0  0  0  0  0
  -28.1011  -36.2582   24.6308 H   0  0  0  0  0  0
  -27.2292  -37.1444   25.8889 H   0  0  0  0  0  0
  -20.9390  -29.8796   21.6881 H   0  0  0  0  0  0
  -26.0137  -38.2831   24.1457 H   0  0  0  0  0  0
  -31.9997  -20.4918   23.3485 H   0  0  0  0  0  0
  -31.8880  -17.6745   20.1721 H   0  0  0  0  0  0
  -30.2797  -24.2097   20.3037 H   0  0  0  0  0  0
  -29.7153  -23.4766   18.7740 H   0  0  0  0  0  0
  -26.6813  -23.1407   20.0000 H   0  0  0  0  0  0
  -27.1893  -23.8863   21.5478 H   0  0  0  0  0  0
  -27.8032  -24.7846   18.7205 H   0  0  0  0  0  0
  -34.0921  -19.6101   22.4928 H   0  0  0  0  0  0
  -34.1675  -18.9069   20.8854 H   0  0  0  0  0  0
  -33.7145  -17.8971   22.2703 H   0  0  0  0  0  0
  -30.0820  -22.1858   23.6000 H   0  0  0  0  0  0
  -29.2318  -20.7427   24.1215 H   0  0  0  0  0  0
  -28.4902  -21.7698   22.9360 H   0  0  0  0  0  0
  -28.3185  -17.4781   20.9507 H   0  0  0  0  0  0
  -29.6162  -17.2457   22.0434 H   0  0  0  0  0  0
  -27.6821  -20.8771   20.1502 H   0  0  0  0  0  0
  -29.0413  -21.1342   19.1231 H   0  0  0  0  0  0
  -28.7143  -15.4903   20.2200 H   0  0  0  0  0  0
  -29.1023  -22.7623   21.5064 H   0  0  0  0  0  0
  1 25  1  0  0  0
  1 30  2  0  0  0
  1 84  1  0  0  0
  2  3  1  0  0  0
  2 25  1  0  0  0
  2 86  1  0  0  0
  2 87  1  0  0  0
  3  4  1  0  0  0
  3 88  1  0  0  0
  3 89  1  0  0  0
  4  5  1  0  0  0
  4 90  1  0  0  0
  4 91  1  0  0  0
  5  6  1  0  0  0
  5 26  1  0  0  0
  5 92  1  0  0  0
  6 25  1  0  0  0
  6 93  1  0  0  0
  6 94  1  0  0  0
  7  8  2  0  0  0
  7 26  1  0  0  0
  7 29  1  0  0  0
  8  9  1  0  0  0
  8 22  1  0  0  0
  9 10  1  0  0  0
  9 27  2  0  0  0
 10 11  2  0  0  0
 10 15  1  0  0  0
 11 12  1  0  0  0
 11 95  1  0  0  0
 12 13  2  0  0  0
 12 96  1  0  0  0
 13 14  1  0  0  0
 13 31  1  0  0  0
 14 15  2  0  0  0
 14 97  1  0  0  0
 15 98  1  0  0  0
 16 17  2  0  0  0
 16 21  1  0  0  0
 16 31  1  0  0  0
 17 18  1  0  0  0
 17 99  1  0  0  0
 18 19  2  0  0  0
 18100  1  0  0  0
 19 20  1  0  0  0
 19 24  1  0  0  0
 20 21  2  0  0  0
 20101  1  0  0  0
 21 23  1  0  0  0
 22 28  1  0  0  0
 22 32  2  0  0  0
 26 27  1  0  0  0
 28102  1  0  0  0
 28103  1  0  0  0
 29104  1  0  0  0
 29105  1  0  0  0
 33 34  1  0  0  0
 33 66  1  0  0  0
 33 70  2  0  0  0
 34 36  1  0  0  0
 34 59  1  0  0  0
 34106  1  0  0  0
 35 44  2  0  0  0
 35 45  1  0  0  0
 35 68  1  0  0  0
 36 56  1  0  0  0
 36107  1  0  0  0
 37 39  1  0  0  0
 37 47  1  0  0  0
 37 66  1  0  0  0
 37108  1  0  0  0
 38 43  2  0  0  0
 38 46  1  0  0  0
 38 47  1  0  0  0
 39 64  1  0  0  0
 39 67  2  0  0  0
 40 52  1  0  0  0
 40 53  2  0  0  0
 40 58  1  0  0  0
 41109  1  0  0  0
 41110  1  0  0  0
 41111  1  0  0  0
 41 48  1  0  0  0
 42 43  1  0  0  0
 42 66  1  0  0  0
 42112  1  0  0  0
 42113  1  0  0  0
 43 44  1  0  0  0
 44114  1  0  0  0
 45 46  2  0  0  0
 45115  1  0  0  0
 46116  1  0  0  0
 47117  1  0  0  0
 47118  1  0  0  0
 48 56  1  0  0  0
 48 65  1  0  0  0
 48119  1  0  0  0
 49 50  1  0  0  0
 49 53  1  0  0  0
 49 64  1  0  0  0
 49120  1  0  0  0
 50 51  1  0  0  0
 50121  1  0  0  0
 50122  1  0  0  0
 51 52  1  0  0  0
 51123  1  0  0  0
 51124  1  0  0  0
 52125  1  0  0  0
 52126  1  0  0  0
 53 54  1  0  0  0
 54 55  2  0  0  0
 54127  1  0  0  0
 55 57  1  0  0  0
 55128  1  0  0  0
 56 69  2  0  0  0
 57 58  2  0  0  0
 57129  1  0  0  0
 58130  1  0  0  0
 59 60  1  0  0  0
 59 61  1  0  0  0
 59 62  1  0  0  0
 60131  1  0  0  0
 60132  1  0  0  0
 60133  1  0  0  0
 61134  1  0  0  0
 61135  1  0  0  0
 61136  1  0  0  0
 62137  1  0  0  0
 62138  1  0  0  0
 62139  1  0  0  0
 63 65  1  0  0  0
 63140  1  0  0  0
 63141  1  0  0  0
 63142  1  0  0  0
 64143  1  0  0  0
 65144  1  0  0  0
 68 79  1  0  0  0
 71 73  2  0  0  0
 71 74  1  0  0  0
 71145  1  0  0  0
 72 73  1  0  0  0
 72 75  2  0  0  0
 72146  1  0  0  0
 73 80  1  0  0  0
 74 76  2  0  0  0
 74 81  1  0  0  0
 75 76  1  0  0  0
 75 82  1  0  0  0
 76 83  1  0  0  0
 77 79  1  0  0  0
 77 85  1  0  0  0
 77147  1  0  0  0
 77148  1  0  0  0
 78 79  1  0  0  0
 78 85  1  0  0  0
 78149  1  0  0  0
 78150  1  0  0  0
 79151  1  0  0  0
 80152  1  0  0  0
 80153  1  0  0  0
 80154  1  0  0  0
 81155  1  0  0  0
 81156  1  0  0  0
 81157  1  0  0  0
 82 84  1  0  0  0
 82158  1  0  0  0
 82159  1  0  0  0
 83160  1  0  0  0
 83161  1  0  0  0
 83 85  1  0  0  0
 84162  1  0  0  0
 85163  1  0  0  0
M  CHG  1  85   1
M  ISO  4   1 100  68 101  79 101  84 100
M  END
> <chiral flag>
0

> <version>
0

> <s_m_source_file>
/data/baiqing/PycharmProjects/Reinvent-master-3.2/result/LINK_invent/BTK/process_docking_weight1_custom_product_contain_oxygen_bond_distance_aromatic_linkinvent_7_9_3/rearranged_h_0030.sdf

> <i_m_source_file_index>
3

> <r_mmod_Potential_Energy-OPLS-2005>
400.516235351562

> <r_mmod_Stretch_Energy-OPLS-2005>
184.922775268555

> <r_mmod_Bend_Energy-OPLS-2005>
298.025634765625

> <r_mmod_Torsional_Energy-OPLS-2005>
454.091766357422

> <r_mmod_Improper_Torsional_Energy-OPLS-2005>
29.6391048431396

> <r_mmod_Van_der_Waal_Energy-OPLS-2005>
127.518592834473

> <r_mmod_Electrostatic_Energy-OPLS-2005>
-374.034820556641

> <r_mmod_Solvation_Energy-OPLS-2005>
-461.202911376953

> <b_mmod_Minimization_Converged-OPLS-2005>
0

> <r_mmod_RMS_Derivative-OPLS-2005>
7.81531000137329

$$$$
3
                    3D
 Structure written by MMmdl.
181190  0  0  1  0            999 V2000
  -30.5706  -14.8455   20.3535 C   0  0  0  0  0  0
  -30.4560  -12.4979   19.4714 C   0  0  0  0  0  0
  -29.5179  -12.4701   18.2410 C   0  0  0  0  0  0
  -28.0618  -12.2515   18.6822 C   0  0  0  0  0  0
  -27.6382  -13.1841   19.8467 C   0  0  2  0  0  0
  -28.7021  -13.2155   20.9685 C   0  0  0  0  0  0
  -25.2617  -13.7064   20.6526 C   0  0  0  0  0  0
  -24.1804  -12.9683   20.9629 C   0  0  0  0  0  0
  -24.6375  -11.6260   20.8900 C   0  0  0  0  0  0
  -23.9002  -10.3846   21.0413 C   0  0  0  0  0  0
  -24.3546   -9.3817   21.9210 C   0  0  0  0  0  0
  -23.6150   -8.1965   22.0773 C   0  0  0  0  0  0
  -22.4141   -8.0108   21.3531 C   0  0  0  0  0  0
  -21.9790   -9.0072   20.4645 C   0  0  0  0  0  0
  -22.7163  -10.1870   20.3013 C   0  0  0  0  0  0
  -21.6750   -6.0650   22.5295 C   0  0  0  0  0  0
  -21.3923   -6.5582   23.8213 C   0  0  0  0  0  0
  -21.3636   -5.6754   24.9196 C   0  0  0  0  0  0
  -21.6052   -4.3023   24.7247 C   0  0  0  0  0  0
  -21.8833   -3.8102   23.4377 C   0  0  0  0  0  0
  -21.9151   -4.6905   22.3419 C   0  0  0  0  0  0
  -22.7867  -13.4795   21.2037 C   0  0  0  0  0  0
  -22.1666   -4.2103   21.1007 F   0  0  0  0  0  0
  -21.5641   -3.4521   25.7774 F   0  0  0  0  0  0
  -29.9855  -13.5912   20.3608 N   0  0  0  0  0  0
  -26.3032  -12.8608   20.3492 N   0  0  0  0  0  0
  -25.9297  -11.5808   20.5670 N   0  0  0  0  0  0
  -22.0252  -12.8045   22.0490 N   0  0  0  0  0  0
  -25.4213  -15.0434   20.5357 N   0  0  0  0  0  0
  -31.7660  -14.9572   20.0620 O   0  0  0  0  0  0
  -21.6470   -6.8765   21.4241 O   0  0  0  0  0  0
  -22.3957  -14.5235   20.6782 O   0  0  0  0  0  0
  -24.6277  -31.8544   23.1944 C   0  0  0  0  0  0
  -25.9100  -32.4683   23.8322 C   0  0  1  0  0  0
  -27.2601  -27.2646   20.1735 C   0  0  0  0  0  0
  -25.5983  -33.8469   24.2213 N   0  0  0  0  0  0
  -23.4241  -30.4689   21.5362 C   0  0  2  0  0  0
  -24.8831  -28.8919   20.1147 C   0  0  0  0  0  0
  -22.7470  -29.4607   22.5013 C   0  0  0  0  0  0
  -18.0284  -28.1318   22.8550 C   0  0  0  0  0  0
  -24.1494  -36.7183   23.2651 C   0  0  0  0  0  0
  -25.9702  -30.7747   21.3686 C   0  0  0  0  0  0
  -26.0478  -29.3867   20.7159 C   0  0  0  0  0  0
  -27.2342  -28.5846   20.7287 C   0  0  0  0  0  0
  -26.0774  -26.8251   19.5382 C   0  0  0  0  0  0
  -24.9038  -27.6165   19.5089 C   0  0  0  0  0  0
  -23.6367  -29.7726   20.1623 C   0  0  0  0  0  0
  -25.4155  -36.3047   24.0356 C   0  0  1  0  0  0
  -20.5862  -28.3750   23.1387 C   0  0  2  0  0  0
  -20.6726  -26.9397   22.5709 C   0  0  0  0  0  0
  -19.5772  -26.6284   21.5469 C   0  0  0  0  0  0
  -18.1887  -26.7877   22.1718 C   0  0  0  0  0  0
  -19.1496  -28.8871   23.2914 C   0  0  0  0  0  0
  -18.9333  -30.1390   23.9017 C   0  0  0  0  0  0
  -17.6348  -30.6498   24.0586 C   0  0  0  0  0  0
  -25.9117  -34.9431   23.5117 C   0  0  0  0  0  0
  -16.5235  -29.9074   23.6204 C   0  0  0  0  0  0
  -16.7273  -28.6438   23.0333 C   0  0  0  0  0  0
  -26.4472  -31.6524   25.0685 C   0  0  0  0  0  0
  -25.3669  -31.3724   26.1372 C   0  0  0  0  0  0
  -27.0421  -30.3007   24.6191 C   0  0  0  0  0  0
  -27.6054  -32.4248   25.7428 C   0  0  0  0  0  0
  -27.5597  -37.1764   24.8494 C   0  0  0  0  0  0
  -21.4164  -29.3037   22.3678 N   0  0  0  0  0  0
  -26.4328  -37.3781   23.9432 N   0  0  0  0  0  0
  -24.6906  -31.0543   22.0894 N   0  0  0  0  0  0
  -23.4180  -28.8173   23.3192 O   0  0  0  0  0  0
  -28.3994  -26.4240   20.2563 O   0  0  0  0  0  0
  -26.5665  -34.8997   22.4644 O   0  0  0  0  0  0
  -23.5446  -32.1240   23.7344 O   0  0  0  0  0  0
  -28.6374  -19.0907   18.7293 C   0  0  0  0  0  0
  -28.0618  -18.7038   20.9832 C   0  0  0  0  0  0
  -29.4539  -18.4843   21.1346 C   0  0  0  0  0  0
  -27.8726  -19.5254   19.8717 C   0  0  0  0  0  0
  -29.8238  -17.4363   20.1995 C   0  0  0  0  0  0
  -29.4888  -17.9208   18.8796 C   0  0  0  0  0  0
  -29.5420  -22.3818   20.4273 C   0  0  0  0  0  0
  -25.4036  -22.3392   19.7204 C   0  0  0  0  0  0
  -25.1149  -21.6945   21.0777 C   0  0  0  0  0  0
  -26.3678  -21.3915   18.9719 C   0  0  0  0  0  0
  -26.3254  -20.8183   21.3043 C   0  0  0  0  0  0
  -25.5377  -17.9159   17.4577 C   0  0  0  0  0  0
  -24.4652  -17.9156   20.4029 C   0  0  0  0  0  0
  -30.3114  -19.8779   21.0674 C   0  0  0  0  0  0
  -26.9261  -17.6367   21.0881 C   0  0  0  0  0  0
  -29.3432  -23.9189   20.8877 C   0  0  0  0  0  0
  -26.1379  -17.1563   18.6470 C   0  0  0  0  0  0
  -28.2638  -24.9223   20.1858 C   0  0  0  0  0  0
  -26.7700  -20.4073   19.9620 N   0  0  0  0  0  0
  -29.7299  -15.9576   20.5162 N   0  0  0  0  0  0
  -29.7537  -21.3147   21.3018 N   0  0  0  0  0  0
  -25.8878  -17.8037   19.9866 N   0  3  1  0  0  0
  -29.5814  -22.1710   19.2178 O   0  0  0  0  0  0
  -29.7521  -17.1698   17.7883 F   0  0  0  0  0  0
  -31.4889  -12.6422   19.1523 H   0  0  0  0  0  0
  -30.4333  -11.5407   19.9981 H   0  0  0  0  0  0
  -29.8231  -11.6741   17.5578 H   0  0  0  0  0  0
  -29.6050  -13.4060   17.6881 H   0  0  0  0  0  0
  -27.9872  -11.2134   19.0172 H   0  0  0  0  0  0
  -27.3817  -12.3392   17.8436 H   0  0  0  0  0  0
  -27.5896  -14.1819   19.4118 H   0  0  0  0  0  0
  -28.7812  -12.2505   21.4673 H   0  0  0  0  0  0
  -28.4181  -13.9287   21.7432 H   0  0  0  0  0  0
  -25.2665   -9.5283   22.4805 H   0  0  0  0  0  0
  -23.9782   -7.4343   22.7483 H   0  0  0  0  0  0
  -21.0701   -8.8568   19.9002 H   0  0  0  0  0  0
  -22.3632  -10.9435   19.6147 H   0  0  0  0  0  0
  -21.1905   -7.6093   23.9694 H   0  0  0  0  0  0
  -21.1456   -6.0511   25.9093 H   0  0  0  0  0  0
  -22.0649   -2.7568   23.2876 H   0  0  0  0  0  0
  -22.3466  -11.9556   22.4928 H   0  0  0  0  0  0
  -21.0912  -13.1336   22.2491 H   0  0  0  0  0  0
  -24.4662  -15.3726   20.5155 H   0  0  0  0  0  0
  -25.8260  -15.0856   19.6123 H   0  0  0  0  0  0
  -26.7168  -32.5370   23.1078 H   0  0  0  0  0  0
  -25.0210  -33.9621   25.0456 H   0  0  0  0  0  0
  -22.7095  -31.2804   21.3695 H   0  0  0  0  0  0
  -23.3848  -35.9407   23.3317 H   0  0  0  0  0  0
  -24.3556  -36.8796   22.2058 H   0  0  0  0  0  0
  -23.7159  -37.6382   23.6605 H   0  0  0  0  0  0
  -26.1278  -31.5409   20.6055 H   0  0  0  0  0  0
  -26.8309  -30.8022   22.0188 H   0  0  0  0  0  0
  -28.1292  -28.9788   21.1965 H   0  0  0  0  0  0
  -26.0571  -25.8467   19.0774 H   0  0  0  0  0  0
  -24.0280  -27.2271   19.0223 H   0  0  0  0  0  0
  -23.7492  -30.5268   19.3784 H   0  0  0  0  0  0
  -22.7561  -29.1902   19.8933 H   0  0  0  0  0  0
  -25.1350  -36.1939   25.0870 H   0  0  0  0  0  0
  -20.9854  -28.3395   24.1558 H   0  0  0  0  0  0
  -20.5477  -26.2374   23.3952 H   0  0  0  0  0  0
  -21.6573  -26.7377   22.1489 H   0  0  0  0  0  0
  -19.7057  -25.6184   21.1551 H   0  0  0  0  0  0
  -19.6781  -27.3024   20.6991 H   0  0  0  0  0  0
  -17.4300  -26.6660   21.3995 H   0  0  0  0  0  0
  -18.0191  -25.9967   22.9031 H   0  0  0  0  0  0
  -19.7822  -30.7165   24.2527 H   0  0  0  0  0  0
  -17.4944  -31.6168   24.5222 H   0  0  0  0  0  0
  -15.5206  -30.3026   23.7399 H   0  0  0  0  0  0
  -15.8721  -28.0742   22.7055 H   0  0  0  0  0  0
  -24.5795  -30.7080   25.7743 H   0  0  0  0  0  0
  -24.8832  -32.2895   26.4806 H   0  0  0  0  0  0
  -25.7980  -30.8909   27.0153 H   0  0  0  0  0  0
  -26.3077  -29.6733   24.1085 H   0  0  0  0  0  0
  -27.4084  -29.7307   25.4758 H   0  0  0  0  0  0
  -27.8909  -30.4406   23.9447 H   0  0  0  0  0  0
  -27.2655  -33.3550   26.2025 H   0  0  0  0  0  0
  -28.3826  -32.6865   25.0188 H   0  0  0  0  0  0
  -28.0639  -31.8255   26.5321 H   0  0  0  0  0  0
  -28.2703  -38.0003   24.7590 H   0  0  0  0  0  0
  -28.1082  -36.2583   24.6298 H   0  0  0  0  0  0
  -27.2245  -37.1360   25.8883 H   0  0  0  0  0  0
  -20.9364  -29.8435   21.6623 H   0  0  0  0  0  0
  -26.0230  -38.2886   24.1463 H   0  0  0  0  0  0
  -28.3969  -19.4861   17.7473 H   0  0  0  0  0  0
  -24.4851  -22.5618   19.1801 H   0  0  0  0  0  0
  -25.9173  -23.2790   19.9190 H   0  0  0  0  0  0
  -24.2212  -21.0778   21.0393 H   0  0  0  0  0  0
  -24.9941  -22.4298   21.8823 H   0  0  0  0  0  0
  -27.2240  -21.9295   18.5806 H   0  0  0  0  0  0
  -25.8710  -20.9001   18.1355 H   0  0  0  0  0  0
  -26.0431  -19.9879   21.9577 H   0  0  0  0  0  0
  -27.1170  -21.3665   21.8198 H   0  0  0  0  0  0
  -25.8094  -17.4004   16.5342 H   0  0  0  0  0  0
  -25.9002  -18.9366   17.3666 H   0  0  0  0  0  0
  -24.4476  -17.9528   17.4940 H   0  0  0  0  0  0
  -24.3532  -18.3023   21.4106 H   0  0  0  0  0  0
  -23.8914  -16.9941   20.3449 H   0  0  0  0  0  0
  -23.9842  -18.6526   19.7574 H   0  0  0  0  0  0
  -30.8165  -19.9225   20.0994 H   0  0  0  0  0  0
  -31.1270  -19.7536   21.7906 H   0  0  0  0  0  0
  -26.4923  -17.7608   22.0796 H   0  0  0  0  0  0
  -27.3339  -16.6304   21.0730 H   0  0  0  0  0  0
  -30.3066  -24.3767   20.6608 H   0  0  0  0  0  0
  -29.2295  -23.9536   21.9768 H   0  0  0  0  0  0
  -27.1951  -17.0435   18.4595 H   0  0  0  0  0  0
  -25.7981  -16.1358   18.5307 H   0  0  0  0  0  0
  -27.3063  -24.6710   20.6291 H   0  0  0  0  0  0
  -28.1939  -24.6624   19.1315 H   0  0  0  0  0  0
  -28.8028  -15.6651   20.7598 H   0  0  0  0  0  0
  -29.7536  -21.5758   22.2766 H   0  0  0  0  0  0
  -26.0872  -18.7911   19.8028 H   0  0  0  0  0  0
  1 25  1  0  0  0
  1 30  2  0  0  0
  1 90  1  0  0  0
  2  3  1  0  0  0
  2 25  1  0  0  0
  2 95  1  0  0  0
  2 96  1  0  0  0
  3  4  1  0  0  0
  3 97  1  0  0  0
  3 98  1  0  0  0
  4  5  1  0  0  0
  4 99  1  0  0  0
  4100  1  0  0  0
  5  6  1  0  0  0
  5 26  1  0  0  0
  5101  1  0  0  0
  6 25  1  0  0  0
  6102  1  0  0  0
  6103  1  0  0  0
  7  8  2  0  0  0
  7 26  1  0  0  0
  7 29  1  0  0  0
  8  9  1  0  0  0
  8 22  1  0  0  0
  9 10  1  0  0  0
  9 27  2  0  0  0
 10 11  2  0  0  0
 10 15  1  0  0  0
 11 12  1  0  0  0
 11104  1  0  0  0
 12 13  2  0  0  0
 12105  1  0  0  0
 13 14  1  0  0  0
 13 31  1  0  0  0
 14 15  2  0  0  0
 14106  1  0  0  0
 15107  1  0  0  0
 16 17  2  0  0  0
 16 21  1  0  0  0
 16 31  1  0  0  0
 17 18  1  0  0  0
 17108  1  0  0  0
 18 19  2  0  0  0
 18109  1  0  0  0
 19 20  1  0  0  0
 19 24  1  0  0  0
 20 21  2  0  0  0
 20110  1  0  0  0
 21 23  1  0  0  0
 22 28  1  0  0  0
 22 32  2  0  0  0
 26 27  1  0  0  0
 28111  1  0  0  0
 28112  1  0  0  0
 29113  1  0  0  0
 29114  1  0  0  0
 33 34  1  0  0  0
 33 66  1  0  0  0
 33 70  2  0  0  0
 34 36  1  0  0  0
 34 59  1  0  0  0
 34115  1  0  0  0
 35 44  2  0  0  0
 35 45  1  0  0  0
 35 68  1  0  0  0
 36 56  1  0  0  0
 36116  1  0  0  0
 37 39  1  0  0  0
 37 47  1  0  0  0
 37 66  1  0  0  0
 37117  1  0  0  0
 38 43  2  0  0  0
 38 46  1  0  0  0
 38 47  1  0  0  0
 39 64  1  0  0  0
 39 67  2  0  0  0
 40 52  1  0  0  0
 40 53  2  0  0  0
 40 58  1  0  0  0
 41118  1  0  0  0
 41119  1  0  0  0
 41120  1  0  0  0
 41 48  1  0  0  0
 42 43  1  0  0  0
 42 66  1  0  0  0
 42121  1  0  0  0
 42122  1  0  0  0
 43 44  1  0  0  0
 44123  1  0  0  0
 45 46  2  0  0  0
 45124  1  0  0  0
 46125  1  0  0  0
 47126  1  0  0  0
 47127  1  0  0  0
 48 56  1  0  0  0
 48 65  1  0  0  0
 48128  1  0  0  0
 49 50  1  0  0  0
 49 53  1  0  0  0
 49 64  1  0  0  0
 49129  1  0  0  0
 50 51  1  0  0  0
 50130  1  0  0  0
 50131  1  0  0  0
 51 52  1  0  0  0
 51132  1  0  0  0
 51133  1  0  0  0
 52134  1  0  0  0
 52135  1  0  0  0
 53 54  1  0  0  0
 54 55  2  0  0  0
 54136  1  0  0  0
 55 57  1  0  0  0
 55137  1  0  0  0
 56 69  2  0  0  0
 57 58  2  0  0  0
 57138  1  0  0  0
 58139  1  0  0  0
 59 60  1  0  0  0
 59 61  1  0  0  0
 59 62  1  0  0  0
 60140  1  0  0  0
 60141  1  0  0  0
 60142  1  0  0  0
 61143  1  0  0  0
 61144  1  0  0  0
 61145  1  0  0  0
 62146  1  0  0  0
 62147  1  0  0  0
 62148  1  0  0  0
 63 65  1  0  0  0
 63149  1  0  0  0
 63150  1  0  0  0
 63151  1  0  0  0
 64152  1  0  0  0
 65153  1  0  0  0
 68 88  1  0  0  0
 71 74  2  0  0  0
 71 76  1  0  0  0
 71154  1  0  0  0
 72 73  2  0  0  0
 72 74  1  0  0  0
 72 85  1  0  0  0
 73 75  1  0  0  0
 73 84  1  0  0  0
 74 89  1  0  0  0
 75 76  2  0  0  0
 75 90  1  0  0  0
 76 94  1  0  0  0
 77 86  1  0  0  0
 77 91  1  0  0  0
 77 93  2  0  0  0
 78 79  1  0  0  0
 78 80  1  0  0  0
 78155  1  0  0  0
 78156  1  0  0  0
 79 81  1  0  0  0
 79157  1  0  0  0
 79158  1  0  0  0
 80 89  1  0  0  0
 80159  1  0  0  0
 80160  1  0  0  0
 81 89  1  0  0  0
 81161  1  0  0  0
 81162  1  0  0  0
 82 87  1  0  0  0
 82163  1  0  0  0
 82164  1  0  0  0
 82165  1  0  0  0
 83166  1  0  0  0
 83167  1  0  0  0
 83168  1  0  0  0
 83 92  1  0  0  0
 84 91  1  0  0  0
 84169  1  0  0  0
 84170  1  0  0  0
 85 92  1  0  0  0
 85171  1  0  0  0
 85172  1  0  0  0
 86 88  1  0  0  0
 86173  1  0  0  0
 86174  1  0  0  0
 87 92  1  0  0  0
 87175  1  0  0  0
 87176  1  0  0  0
 88177  1  0  0  0
 88178  1  0  0  0
 90179  1  0  0  0
 91180  1  0  0  0
 92181  1  0  0  0
M  CHG  1  92   1
M  ISO  4   1 100  68 101  88 101  90 100
M  END
> <chiral flag>
0

> <version>
0

> <s_m_source_file>
/data/baiqing/PycharmProjects/Reinvent-master-3.2/result/LINK_invent/BTK/process_docking_weight1_custom_product_contain_oxygen_bond_distance_aromatic_linkinvent_7_9_3/rearranged_h_0030.sdf

> <i_m_source_file_index>
4

> <r_mmod_Potential_Energy-OPLS-2005>
669.003234863281

> <r_mmod_Stretch_Energy-OPLS-2005>
194.832778930664

> <r_mmod_Bend_Energy-OPLS-2005>
340.014251708984

> <r_mmod_Torsional_Energy-OPLS-2005>
601.1416015625

> <r_mmod_Improper_Torsional_Energy-OPLS-2005>
71.6564254760742

> <r_mmod_Van_der_Waal_Energy-OPLS-2005>
227.697509765625

> <r_mmod_Electrostatic_Energy-OPLS-2005>
-450.647155761719

> <r_mmod_Solvation_Energy-OPLS-2005>
-442.478149414062

> <b_mmod_Minimization_Converged-OPLS-2005>
0

> <r_mmod_RMS_Derivative-OPLS-2005>
15.1570320129395

$$$$
4
                    3D
 Structure written by MMmdl.
166175  0  0  1  0            999 V2000
  -30.5958  -14.6423   20.5073 C   0  0  0  0  0  0
  -30.4505  -12.3990   19.4437 C   0  0  0  0  0  0
  -29.5148  -12.5314   18.2214 C   0  0  0  0  0  0
  -28.0356  -12.3703   18.6257 C   0  0  0  0  0  0
  -27.6615  -13.2057   19.8776 C   0  0  2  0  0  0
  -28.7086  -13.0330   21.0001 C   0  0  0  0  0  0
  -25.2623  -13.8148   20.5736 C   0  0  0  0  0  0
  -24.1862  -13.0420   20.9158 C   0  0  0  0  0  0
  -24.6397  -11.6892   20.8683 C   0  0  0  0  0  0
  -23.9060  -10.4284   21.0366 C   0  0  0  0  0  0
  -24.3626   -9.4210   21.9151 C   0  0  0  0  0  0
  -23.6302   -8.2248   22.0740 C   0  0  0  0  0  0
  -22.4274   -8.0277   21.3543 C   0  0  0  0  0  0
  -21.9904   -9.0249   20.4643 C   0  0  0  0  0  0
  -22.7232  -10.2127   20.3051 C   0  0  0  0  0  0
  -21.6872   -6.0727   22.5262 C   0  0  0  0  0  0
  -21.4023   -6.5628   23.8195 C   0  0  0  0  0  0
  -21.3658   -5.6783   24.9166 C   0  0  0  0  0  0
  -21.6056   -4.3051   24.7209 C   0  0  0  0  0  0
  -21.8825   -3.8144   23.4326 C   0  0  0  0  0  0
  -21.9193   -4.6960   22.3381 C   0  0  0  0  0  0
  -22.7891  -13.5219   21.1810 C   0  0  0  0  0  0
  -22.1655   -4.2161   21.0956 F   0  0  0  0  0  0
  -21.5629   -3.4529   25.7708 F   0  0  0  0  0  0
  -30.0219  -13.3981   20.4425 N   0  0  0  0  0  0
  -26.3037  -12.9297   20.3381 N   0  0  0  0  0  0
  -25.9326  -11.6460   20.5735 N   0  0  0  0  0  0
  -22.0523  -12.8251   22.0391 N   0  0  0  0  0  0
  -25.4360  -15.1896   20.4275 N   0  0  0  0  0  0
  -31.7404  -14.8486   20.0924 O   0  0  0  0  0  0
  -21.6637   -6.8886   21.4234 O   0  0  0  0  0  0
  -22.3579  -14.5505   20.6633 O   0  0  0  0  0  0
  -24.6232  -31.8613   23.2038 C   0  0  0  0  0  0
  -25.9079  -32.4784   23.8359 C   0  0  1  0  0  0
  -27.2298  -27.3320   20.1029 C   0  0  0  0  0  0
  -25.5905  -33.8587   24.2294 N   0  0  0  0  0  0
  -23.4179  -30.4838   21.5443 C   0  0  2  0  0  0
  -24.8639  -28.9356   20.1083 C   0  0  0  0  0  0
  -22.7458  -29.4628   22.4937 C   0  0  0  0  0  0
  -18.0281  -28.1391   22.8500 C   0  0  0  0  0  0
  -24.1488  -36.7285   23.2641 C   0  0  0  0  0  0
  -25.9570  -30.7897   21.3786 C   0  0  0  0  0  0
  -26.0280  -29.4197   20.7163 C   0  0  0  0  0  0
  -27.2088  -28.6257   20.7087 C   0  0  0  0  0  0
  -26.0401  -26.8829   19.4893 C   0  0  0  0  0  0
  -24.8717  -27.6727   19.4916 C   0  0  0  0  0  0
  -23.6327  -29.8179   20.1584 C   0  0  0  0  0  0
  -25.4118  -36.3097   24.0342 C   0  0  1  0  0  0
  -20.5877  -28.3690   23.1297 C   0  0  2  0  0  0
  -20.6774  -26.9416   22.5419 C   0  0  0  0  0  0
  -19.5752  -26.6387   21.5221 C   0  0  0  0  0  0
  -18.1928  -26.7935   22.1627 C   0  0  0  0  0  0
  -19.1535  -28.8857   23.2892 C   0  0  0  0  0  0
  -18.9455  -30.1461   23.8913 C   0  0  0  0  0  0
  -17.6459  -30.6594   24.0571 C   0  0  0  0  0  0
  -25.9050  -34.9464   23.5115 C   0  0  0  0  0  0
  -16.5352  -29.9106   23.6326 C   0  0  0  0  0  0
  -16.7270  -28.6519   23.0358 C   0  0  0  0  0  0
  -26.4479  -31.6604   25.0738 C   0  0  0  0  0  0
  -25.3712  -31.3745   26.1468 C   0  0  0  0  0  0
  -27.0331  -30.3030   24.6207 C   0  0  0  0  0  0
  -27.6058  -32.4347   25.7484 C   0  0  0  0  0  0
  -27.5599  -37.1785   24.8455 C   0  0  0  0  0  0
  -21.4175  -29.3050   22.3691 N   0  0  0  0  0  0
  -26.4292  -37.3799   23.9424 N   0  0  0  0  0  0
  -24.6839  -31.0623   22.0985 N   0  0  0  0  0  0
  -23.4200  -28.8160   23.3003 O   0  0  0  0  0  0
  -28.3884  -26.5498   20.1736 O   0  0  0  0  0  0
  -26.5634  -34.8931   22.4692 O   0  0  0  0  0  0
  -23.5395  -32.1419   23.7365 O   0  0  0  0  0  0
  -29.7543  -19.3911   21.5897 C   0  0  0  0  0  0
  -30.0998  -18.0093   21.6636 C   0  0  0  0  0  0
  -28.6179  -18.9998   19.5110 C   0  0  0  0  0  0
  -28.9675  -19.9230   20.5345 C   0  0  0  0  0  0
  -28.9692  -17.6131   19.5706 C   0  0  0  0  0  0
  -29.6974  -17.0735   20.6755 C   0  0  0  0  0  0
  -30.7622  -24.1756   18.4937 C   0  0  0  0  0  0
  -29.9417  -23.1660   17.6740 C   0  0  0  0  0  0
  -29.9886  -25.4362   18.9007 C   0  0  0  0  0  0
  -28.8181  -22.4310   18.4405 C   0  0  0  0  0  0
  -28.4516  -23.9355   20.4448 C   0  0  0  0  0  0
  -28.5871  -25.2390   19.5209 C   0  0  1  0  0  0
  -28.4697  -16.7113   18.4567 C   0  0  0  0  0  0
  -28.3343  -21.3679   20.6479 C   0  0  0  0  0  0
  -29.7655  -15.6388   20.9499 N   0  0  0  0  0  0
  -28.9179  -22.5664   19.9174 N   0  3  1  0  0  0
  -31.4890  -12.5452   19.1373 H   0  0  0  0  0  0
  -30.3998  -11.3930   19.8621 H   0  0  0  0  0  0
  -29.7783  -11.7953   17.4602 H   0  0  0  0  0  0
  -29.6579  -13.5087   17.7564 H   0  0  0  0  0  0
  -27.8507  -11.3138   18.8183 H   0  0  0  0  0  0
  -27.3931  -12.6457   17.7903 H   0  0  0  0  0  0
  -27.6888  -14.2467   19.5674 H   0  0  0  0  0  0
  -28.7275  -12.0007   21.3559 H   0  0  0  0  0  0
  -28.4527  -13.6346   21.8729 H   0  0  0  0  0  0
  -25.2787   -9.5693   22.4709 H   0  0  0  0  0  0
  -24.0012   -7.4654   22.7467 H   0  0  0  0  0  0
  -21.0832   -8.8794   19.8956 H   0  0  0  0  0  0
  -22.3701  -10.9670   19.6168 H   0  0  0  0  0  0
  -21.2037   -7.6141   23.9718 H   0  0  0  0  0  0
  -21.1466   -6.0502   25.9073 H   0  0  0  0  0  0
  -22.0614   -2.7610   23.2816 H   0  0  0  0  0  0
  -22.4116  -11.9901   22.4760 H   0  0  0  0  0  0
  -21.1144  -13.1327   22.2572 H   0  0  0  0  0  0
  -24.6794  -15.8484   20.5778 H   0  0  0  0  0  0
  -26.3096  -15.6362   20.1824 H   0  0  0  0  0  0
  -26.7150  -32.5458   23.1103 H   0  0  0  0  0  0
  -25.0037  -33.9750   25.0431 H   0  0  0  0  0  0
  -22.7102  -31.3038   21.4016 H   0  0  0  0  0  0
  -23.3790  -35.9567   23.3243 H   0  0  0  0  0  0
  -24.3595  -36.8969   22.2067 H   0  0  0  0  0  0
  -23.7172  -37.6440   23.6699 H   0  0  0  0  0  0
  -26.1003  -31.5589   20.6176 H   0  0  0  0  0  0
  -26.8319  -30.8297   22.0156 H   0  0  0  0  0  0
  -28.1043  -28.9914   21.1924 H   0  0  0  0  0  0
  -25.9757  -25.9086   19.0276 H   0  0  0  0  0  0
  -23.9759  -27.2945   19.0197 H   0  0  0  0  0  0
  -23.7582  -30.5975   19.4063 H   0  0  0  0  0  0
  -22.7516  -29.2523   19.8508 H   0  0  0  0  0  0
  -25.1286  -36.1951   25.0830 H   0  0  0  0  0  0
  -20.9981  -28.3266   24.1413 H   0  0  0  0  0  0
  -20.5686  -26.2300   23.3620 H   0  0  0  0  0  0
  -21.6640  -26.7453   22.1202 H   0  0  0  0  0  0
  -19.6905  -25.6293   21.1261 H   0  0  0  0  0  0
  -19.6689  -27.3191   20.6751 H   0  0  0  0  0  0
  -17.4196  -26.6705   21.4020 H   0  0  0  0  0  0
  -18.0308  -26.0074   22.9019 H   0  0  0  0  0  0
  -19.7930  -30.7267   24.2298 H   0  0  0  0  0  0
  -17.5014  -31.6272   24.5173 H   0  0  0  0  0  0
  -15.5358  -30.3010   23.7635 H   0  0  0  0  0  0
  -15.8672  -28.0837   22.7073 H   0  0  0  0  0  0
  -24.5824  -30.7187   25.7758 H   0  0  0  0  0  0
  -24.8980  -32.2923   26.4970 H   0  0  0  0  0  0
  -25.8012  -30.8819   27.0194 H   0  0  0  0  0  0
  -26.2907  -29.6767   24.1245 H   0  0  0  0  0  0
  -27.4035  -29.7313   25.4720 H   0  0  0  0  0  0
  -27.8774  -30.4321   23.9436 H   0  0  0  0  0  0
  -27.2684  -33.3659   26.2046 H   0  0  0  0  0  0
  -28.3845  -32.6887   25.0282 H   0  0  0  0  0  0
  -28.0737  -31.8477   26.5393 H   0  0  0  0  0  0
  -28.2561  -38.0147   24.7609 H   0  0  0  0  0  0
  -28.1163  -36.2678   24.6146 H   0  0  0  0  0  0
  -27.2337  -37.1270   25.8864 H   0  0  0  0  0  0
  -20.9348  -29.8801   21.6927 H   0  0  0  0  0  0
  -26.0175  -38.2863   24.1484 H   0  0  0  0  0  0
  -30.0308  -20.0349   22.4146 H   0  0  0  0  0  0
  -30.6198  -17.6538   22.5421 H   0  0  0  0  0  0
  -27.9904  -19.3304   18.6946 H   0  0  0  0  0  0
  -31.6234  -24.4929   17.9034 H   0  0  0  0  0  0
  -31.1977  -23.6962   19.3710 H   0  0  0  0  0  0
  -30.6317  -22.4187   17.2790 H   0  0  0  0  0  0
  -29.5159  -23.6546   16.7964 H   0  0  0  0  0  0
  -29.8767  -26.0760   18.0241 H   0  0  0  0  0  0
  -30.6201  -25.9970   19.5898 H   0  0  0  0  0  0
  -28.8879  -21.3802   18.1609 H   0  0  0  0  0  0
  -27.8336  -22.7530   18.1005 H   0  0  0  0  0  0
  -27.3992  -23.8554   20.7129 H   0  0  0  0  0  0
  -28.9741  -24.1119   21.3845 H   0  0  0  0  0  0
  -27.9036  -25.1229   18.6829 H   0  0  0  0  0  0
  -28.3823  -17.2574   17.5175 H   0  0  0  0  0  0
  -27.4808  -16.3214   18.6930 H   0  0  0  0  0  0
  -29.1494  -15.8771   18.2843 H   0  0  0  0  0  0
  -28.3326  -21.6135   21.7103 H   0  0  0  0  0  0
  -27.2781  -21.2915   20.3860 H   0  0  0  0  0  0
  -28.9286  -15.2651   21.3711 H   0  0  0  0  0  0
  -29.9061  -22.5188   20.1146 H   0  0  0  0  0  0
  1 25  1  0  0  0
  1 30  2  0  0  0
  1 85  1  0  0  0
  2  3  1  0  0  0
  2 25  1  0  0  0
  2 87  1  0  0  0
  2 88  1  0  0  0
  3  4  1  0  0  0
  3 89  1  0  0  0
  3 90  1  0  0  0
  4  5  1  0  0  0
  4 91  1  0  0  0
  4 92  1  0  0  0
  5  6  1  0  0  0
  5 26  1  0  0  0
  5 93  1  0  0  0
  6 25  1  0  0  0
  6 94  1  0  0  0
  6 95  1  0  0  0
  7  8  2  0  0  0
  7 26  1  0  0  0
  7 29  1  0  0  0
  8  9  1  0  0  0
  8 22  1  0  0  0
  9 10  1  0  0  0
  9 27  2  0  0  0
 10 11  2  0  0  0
 10 15  1  0  0  0
 11 12  1  0  0  0
 11 96  1  0  0  0
 12 13  2  0  0  0
 12 97  1  0  0  0
 13 14  1  0  0  0
 13 31  1  0  0  0
 14 15  2  0  0  0
 14 98  1  0  0  0
 15 99  1  0  0  0
 16 17  2  0  0  0
 16 21  1  0  0  0
 16 31  1  0  0  0
 17 18  1  0  0  0
 17100  1  0  0  0
 18 19  2  0  0  0
 18101  1  0  0  0
 19 20  1  0  0  0
 19 24  1  0  0  0
 20 21  2  0  0  0
 20102  1  0  0  0
 21 23  1  0  0  0
 22 28  1  0  0  0
 22 32  2  0  0  0
 26 27  1  0  0  0
 28103  1  0  0  0
 28104  1  0  0  0
 29105  1  0  0  0
 29106  1  0  0  0
 33 34  1  0  0  0
 33 66  1  0  0  0
 33 70  2  0  0  0
 34 36  1  0  0  0
 34 59  1  0  0  0
 34107  1  0  0  0
 35 44  2  0  0  0
 35 45  1  0  0  0
 35 68  1  0  0  0
 36 56  1  0  0  0
 36108  1  0  0  0
 37 39  1  0  0  0
 37 47  1  0  0  0
 37 66  1  0  0  0
 37109  1  0  0  0
 38 43  2  0  0  0
 38 46  1  0  0  0
 38 47  1  0  0  0
 39 64  1  0  0  0
 39 67  2  0  0  0
 40 52  1  0  0  0
 40 53  2  0  0  0
 40 58  1  0  0  0
 41110  1  0  0  0
 41111  1  0  0  0
 41112  1  0  0  0
 41 48  1  0  0  0
 42 43  1  0  0  0
 42 66  1  0  0  0
 42113  1  0  0  0
 42114  1  0  0  0
 43 44  1  0  0  0
 44115  1  0  0  0
 45 46  2  0  0  0
 45116  1  0  0  0
 46117  1  0  0  0
 47118  1  0  0  0
 47119  1  0  0  0
 48 56  1  0  0  0
 48 65  1  0  0  0
 48120  1  0  0  0
 49 50  1  0  0  0
 49 53  1  0  0  0
 49 64  1  0  0  0
 49121  1  0  0  0
 50 51  1  0  0  0
 50122  1  0  0  0
 50123  1  0  0  0
 51 52  1  0  0  0
 51124  1  0  0  0
 51125  1  0  0  0
 52126  1  0  0  0
 52127  1  0  0  0
 53 54  1  0  0  0
 54 55  2  0  0  0
 54128  1  0  0  0
 55 57  1  0  0  0
 55129  1  0  0  0
 56 69  2  0  0  0
 57 58  2  0  0  0
 57130  1  0  0  0
 58131  1  0  0  0
 59 60  1  0  0  0
 59 61  1  0  0  0
 59 62  1  0  0  0
 60132  1  0  0  0
 60133  1  0  0  0
 60134  1  0  0  0
 61135  1  0  0  0
 61136  1  0  0  0
 61137  1  0  0  0
 62138  1  0  0  0
 62139  1  0  0  0
 62140  1  0  0  0
 63 65  1  0  0  0
 63141  1  0  0  0
 63142  1  0  0  0
 63143  1  0  0  0
 64144  1  0  0  0
 65145  1  0  0  0
 68 82  1  0  0  0
 71 72  2  0  0  0
 71 74  1  0  0  0
 71146  1  0  0  0
 72 76  1  0  0  0
 72147  1  0  0  0
 73 74  2  0  0  0
 73 75  1  0  0  0
 73148  1  0  0  0
 74 84  1  0  0  0
 75 76  2  0  0  0
 75 83  1  0  0  0
 76 85  1  0  0  0
 77 78  1  0  0  0
 77 79  1  0  0  0
 77149  1  0  0  0
 77150  1  0  0  0
 78 80  1  0  0  0
 78151  1  0  0  0
 78152  1  0  0  0
 79 82  1  0  0  0
 79153  1  0  0  0
 79154  1  0  0  0
 80 86  1  0  0  0
 80155  1  0  0  0
 80156  1  0  0  0
 81 82  1  0  0  0
 81 86  1  0  0  0
 81157  1  0  0  0
 81158  1  0  0  0
 82159  1  0  0  0
 83160  1  0  0  0
 83161  1  0  0  0
 83162  1  0  0  0
 84163  1  0  0  0
 84164  1  0  0  0
 84 86  1  0  0  0
 85165  1  0  0  0
 86166  1  0  0  0
M  CHG  1  86   1
M  ISO  4   1 100  68 101  82 101  85 100
M  END
> <chiral flag>
0

> <version>
0

> <s_m_source_file>
/data/baiqing/PycharmProjects/Reinvent-master-3.2/result/LINK_invent/BTK/process_docking_weight1_custom_product_contain_oxygen_bond_distance_aromatic_linkinvent_7_9_3/rearranged_h_0030.sdf

> <i_m_source_file_index>
5

> <r_mmod_Potential_Energy-OPLS-2005>
54.8629608154297

> <r_mmod_Stretch_Energy-OPLS-2005>
82.7274475097656

> <r_mmod_Bend_Energy-OPLS-2005>
166.687026977539

> <r_mmod_Torsional_Energy-OPLS-2005>
297.306762695312

> <r_mmod_Improper_Torsional_Energy-OPLS-2005>
7.18963050842285

> <r_mmod_Van_der_Waal_Energy-OPLS-2005>
141.054580688477

> <r_mmod_Electrostatic_Energy-OPLS-2005>
-260.364379882812

> <r_mmod_Solvation_Energy-OPLS-2005>
-424.5693359375

> <b_mmod_Minimization_Converged-OPLS-2005>
0

> <r_mmod_RMS_Derivative-OPLS-2005>
3.54926657676697

$$$$
5
                    3D
 Structure written by MMmdl.
166175  0  0  1  0            999 V2000
  -30.6113  -14.6530   20.4949 C   0  0  0  0  0  0
  -30.4427  -12.4036   19.4479 C   0  0  0  0  0  0
  -29.5100  -12.5197   18.2215 C   0  0  0  0  0  0
  -28.0333  -12.3535   18.6338 C   0  0  0  0  0  0
  -27.6545  -13.2173   19.8651 C   0  0  2  0  0  0
  -28.7008  -13.0694   20.9930 C   0  0  0  0  0  0
  -25.2564  -13.8162   20.5688 C   0  0  0  0  0  0
  -24.1829  -13.0428   20.9183 C   0  0  0  0  0  0
  -24.6398  -11.6900   20.8728 C   0  0  0  0  0  0
  -23.9060  -10.4283   21.0396 C   0  0  0  0  0  0
  -24.3611   -9.4201   21.9181 C   0  0  0  0  0  0
  -23.6285   -8.2242   22.0753 C   0  0  0  0  0  0
  -22.4259   -8.0277   21.3549 C   0  0  0  0  0  0
  -21.9899   -9.0250   20.4655 C   0  0  0  0  0  0
  -22.7231  -10.2127   20.3056 C   0  0  0  0  0  0
  -21.6855   -6.0729   22.5278 C   0  0  0  0  0  0
  -21.4014   -6.5634   23.8210 C   0  0  0  0  0  0
  -21.3662   -5.6789   24.9174 C   0  0  0  0  0  0
  -21.6043   -4.3050   24.7223 C   0  0  0  0  0  0
  -21.8819   -3.8141   23.4345 C   0  0  0  0  0  0
  -21.9193   -4.6960   22.3402 C   0  0  0  0  0  0
  -22.7854  -13.5232   21.1847 C   0  0  0  0  0  0
  -22.1661   -4.2151   21.0981 F   0  0  0  0  0  0
  -21.5635   -3.4532   25.7734 F   0  0  0  0  0  0
  -30.0141  -13.4204   20.4293 N   0  0  0  0  0  0
  -26.2995  -12.9346   20.3315 N   0  0  0  0  0  0
  -25.9325  -11.6502   20.5731 N   0  0  0  0  0  0
  -22.0484  -12.8235   22.0402 N   0  0  0  0  0  0
  -25.4254  -15.1888   20.4127 N   0  0  0  0  0  0
  -31.7721  -14.8243   20.1084 O   0  0  0  0  0  0
  -21.6636   -6.8868   21.4237 O   0  0  0  0  0  0
  -22.3544  -14.5543   20.6694 O   0  0  0  0  0  0
  -24.6278  -31.8605   23.2051 C   0  0  0  0  0  0
  -25.9129  -32.4774   23.8368 C   0  0  1  0  0  0
  -27.2129  -27.3052   20.1131 C   0  0  0  0  0  0
  -25.5950  -33.8574   24.2304 N   0  0  0  0  0  0
  -23.4201  -30.4870   21.5490 C   0  0  2  0  0  0
  -24.8643  -28.9444   20.1166 C   0  0  0  0  0  0
  -22.7482  -29.4630   22.4944 C   0  0  0  0  0  0
  -18.0288  -28.1392   22.8472 C   0  0  0  0  0  0
  -24.1488  -36.7291   23.2631 C   0  0  0  0  0  0
  -25.9637  -30.7845   21.3809 C   0  0  0  0  0  0
  -26.0349  -29.4092   20.7289 C   0  0  0  0  0  0
  -27.2117  -28.5995   20.7244 C   0  0  0  0  0  0
  -26.0291  -26.9220   19.4448 C   0  0  0  0  0  0
  -24.8638  -27.7046   19.4664 C   0  0  0  0  0  0
  -23.6358  -29.8282   20.1636 C   0  0  0  0  0  0
  -25.4103  -36.3077   24.0333 C   0  0  1  0  0  0
  -20.5887  -28.3695   23.1285 C   0  0  2  0  0  0
  -20.6778  -26.9419   22.5406 C   0  0  0  0  0  0
  -19.5752  -26.6393   21.5206 C   0  0  0  0  0  0
  -18.1932  -26.7932   22.1621 C   0  0  0  0  0  0
  -19.1539  -28.8858   23.2871 C   0  0  0  0  0  0
  -18.9458  -30.1459   23.8887 C   0  0  0  0  0  0
  -17.6455  -30.6582   24.0567 C   0  0  0  0  0  0
  -25.9046  -34.9449   23.5112 C   0  0  0  0  0  0
  -16.5347  -29.9083   23.6331 C   0  0  0  0  0  0
  -16.7272  -28.6512   23.0327 C   0  0  0  0  0  0
  -26.4509  -31.6562   25.0726 C   0  0  0  0  0  0
  -25.3751  -31.3706   26.1463 C   0  0  0  0  0  0
  -27.0325  -30.2976   24.6162 C   0  0  0  0  0  0
  -27.6075  -32.4285   25.7497 C   0  0  0  0  0  0
  -27.5574  -37.1801   24.8459 C   0  0  0  0  0  0
  -21.4194  -29.3055   22.3693 N   0  0  0  0  0  0
  -26.4276  -37.3775   23.9416 N   0  0  0  0  0  0
  -24.6896  -31.0607   22.1016 N   0  0  0  0  0  0
  -23.4213  -28.8150   23.3003 O   0  0  0  0  0  0
  -28.3274  -26.4468   20.1154 O   0  0  0  0  0  0
  -26.5604  -34.8912   22.4672 O   0  0  0  0  0  0
  -23.5442  -32.1423   23.7366 O   0  0  0  0  0  0
  -29.5242  -19.2212   19.3952 C   0  0  0  0  0  0
  -29.8776  -20.0778   20.4704 C   0  0  0  0  0  0
  -29.5275  -17.7989   19.5006 C   0  0  0  0  0  0
  -30.2112  -19.4279   21.6999 C   0  0  0  0  0  0
  -30.2499  -17.9894   21.8043 C   0  0  0  0  0  0
  -29.9237  -17.1441   20.7013 C   0  0  0  0  0  0
  -27.3261  -24.0821   19.5533 C   0  0  0  0  0  0
  -27.7770  -22.6180   19.7978 C   0  0  0  0  0  0
  -29.4471  -24.1113   20.5592 C   0  0  0  0  0  0
  -28.1574  -25.0032   20.4738 C   0  0  1  0  0  0
  -29.0814  -16.9822   18.2993 C   0  0  0  0  0  0
  -30.5496  -20.2782   22.9220 C   0  0  0  0  0  0
  -30.6354  -17.3157   23.1190 C   0  0  0  0  0  0
  -30.0802  -21.6275   20.2098 C   0  0  0  0  0  0
  -29.7958  -15.6927   20.8625 N   0  0  0  0  0  0
  -29.0274  -22.6572   20.5849 N   0  3  2  0  0  0
  -31.4828  -12.5360   19.1449 H   0  0  0  0  0  0
  -30.3828  -11.4054   19.8847 H   0  0  0  0  0  0
  -29.7755  -11.7736   17.4713 H   0  0  0  0  0  0
  -29.6497  -13.4920   17.7457 H   0  0  0  0  0  0
  -27.8702  -11.2987   18.8577 H   0  0  0  0  0  0
  -27.3788  -12.5899   17.7940 H   0  0  0  0  0  0
  -27.6712  -14.2530   19.5278 H   0  0  0  0  0  0
  -28.7167  -12.0449   21.3692 H   0  0  0  0  0  0
  -28.4452  -13.6943   21.8496 H   0  0  0  0  0  0
  -25.2754   -9.5690   22.4751 H   0  0  0  0  0  0
  -24.0004   -7.4634   22.7465 H   0  0  0  0  0  0
  -21.0835   -8.8762   19.8961 H   0  0  0  0  0  0
  -22.3679  -10.9662   19.6166 H   0  0  0  0  0  0
  -21.2002   -7.6137   23.9713 H   0  0  0  0  0  0
  -21.1488   -6.0516   25.9078 H   0  0  0  0  0  0
  -22.0595   -2.7604   23.2838 H   0  0  0  0  0  0
  -22.4084  -11.9901   22.4813 H   0  0  0  0  0  0
  -21.1106  -13.1281   22.2592 H   0  0  0  0  0  0
  -24.6533  -15.8368   20.5241 H   0  0  0  0  0  0
  -26.2743  -15.6369   20.0943 H   0  0  0  0  0  0
  -26.7192  -32.5447   23.1111 H   0  0  0  0  0  0
  -25.0128  -33.9722   25.0467 H   0  0  0  0  0  0
  -22.7138  -31.3081   21.4092 H   0  0  0  0  0  0
  -23.3748  -35.9626   23.3278 H   0  0  0  0  0  0
  -24.3588  -36.8920   22.2049 H   0  0  0  0  0  0
  -23.7244  -37.6491   23.6655 H   0  0  0  0  0  0
  -26.0953  -31.5415   20.6064 H   0  0  0  0  0  0
  -26.8458  -30.8376   22.0070 H   0  0  0  0  0  0
  -28.1085  -28.9509   21.2163 H   0  0  0  0  0  0
  -25.9760  -26.0272   18.8527 H   0  0  0  0  0  0
  -23.9777  -27.3571   18.9535 H   0  0  0  0  0  0
  -23.7644  -30.6076   19.4115 H   0  0  0  0  0  0
  -22.7538  -29.2645   19.8545 H   0  0  0  0  0  0
  -25.1277  -36.1927   25.0825 H   0  0  0  0  0  0
  -20.9972  -28.3264   24.1408 H   0  0  0  0  0  0
  -20.5689  -26.2297   23.3599 H   0  0  0  0  0  0
  -21.6645  -26.7457   22.1196 H   0  0  0  0  0  0
  -19.6915  -25.6307   21.1227 H   0  0  0  0  0  0
  -19.6688  -27.3208   20.6737 H   0  0  0  0  0  0
  -17.4202  -26.6668   21.4023 H   0  0  0  0  0  0
  -18.0337  -26.0083   22.9028 H   0  0  0  0  0  0
  -19.7930  -30.7279   24.2253 H   0  0  0  0  0  0
  -17.5006  -31.6253   24.5185 H   0  0  0  0  0  0
  -15.5343  -30.2976   23.7658 H   0  0  0  0  0  0
  -15.8678  -28.0836   22.7022 H   0  0  0  0  0  0
  -24.5929  -30.7041   25.7808 H   0  0  0  0  0  0
  -24.8937  -32.2872   26.4882 H   0  0  0  0  0  0
  -25.8093  -30.8900   27.0240 H   0  0  0  0  0  0
  -26.2879  -29.6742   24.1196 H   0  0  0  0  0  0
  -27.4024  -29.7213   25.4649 H   0  0  0  0  0  0
  -27.8761  -30.4236   23.9374 H   0  0  0  0  0  0
  -27.2698  -33.3603   26.2046 H   0  0  0  0  0  0
  -28.3905  -32.6807   25.0335 H   0  0  0  0  0  0
  -28.0716  -31.8419   26.5435 H   0  0  0  0  0  0
  -28.2577  -38.0110   24.7510 H   0  0  0  0  0  0
  -28.1084  -36.2641   24.6268 H   0  0  0  0  0  0
  -27.2304  -37.1439   25.8865 H   0  0  0  0  0  0
  -20.9373  -29.8810   21.6930 H   0  0  0  0  0  0
  -26.0155  -38.2848   24.1419 H   0  0  0  0  0  0
  -29.2646  -19.6708   18.4461 H   0  0  0  0  0  0
  -26.2567  -24.1609   19.7471 H   0  0  0  0  0  0
  -27.5070  -24.3422   18.5096 H   0  0  0  0  0  0
  -27.9159  -22.1036   18.8462 H   0  0  0  0  0  0
  -27.0265  -22.0617   20.3610 H   0  0  0  0  0  0
  -30.0649  -24.3647   21.4206 H   0  0  0  0  0  0
  -30.0506  -24.2833   19.6666 H   0  0  0  0  0  0
  -27.6926  -24.9868   21.4607 H   0  0  0  0  0  0
  -28.8320  -17.6217   17.4517 H   0  0  0  0  0  0
  -28.1940  -16.4003   18.5471 H   0  0  0  0  0  0
  -29.8669  -16.2966   17.9803 H   0  0  0  0  0  0
  -30.2354  -21.3152   22.8238 H   0  0  0  0  0  0
  -31.6243  -20.2713   23.1049 H   0  0  0  0  0  0
  -30.0443  -19.9022   23.8124 H   0  0  0  0  0  0
  -31.1955  -17.9582   23.7953 H   0  0  0  0  0  0
  -31.2744  -16.4517   22.9370 H   0  0  0  0  0  0
  -29.7429  -16.9686   23.6391 H   0  0  0  0  0  0
  -30.3099  -21.7582   19.1513 H   0  0  0  0  0  0
  -31.0030  -21.9134   20.7163 H   0  0  0  0  0  0
  -28.8906  -15.3881   21.1843 H   0  0  0  0  0  0
  -28.7571  -22.4570   21.5366 H   0  0  0  0  0  0
  1 25  1  0  0  0
  1 30  2  0  0  0
  1 85  1  0  0  0
  2  3  1  0  0  0
  2 25  1  0  0  0
  2 87  1  0  0  0
  2 88  1  0  0  0
  3  4  1  0  0  0
  3 89  1  0  0  0
  3 90  1  0  0  0
  4  5  1  0  0  0
  4 91  1  0  0  0
  4 92  1  0  0  0
  5  6  1  0  0  0
  5 26  1  0  0  0
  5 93  1  0  0  0
  6 25  1  0  0  0
  6 94  1  0  0  0
  6 95  1  0  0  0
  7  8  2  0  0  0
  7 26  1  0  0  0
  7 29  1  0  0  0
  8  9  1  0  0  0
  8 22  1  0  0  0
  9 10  1  0  0  0
  9 27  2  0  0  0
 10 11  2  0  0  0
 10 15  1  0  0  0
 11 12  1  0  0  0
 11 96  1  0  0  0
 12 13  2  0  0  0
 12 97  1  0  0  0
 13 14  1  0  0  0
 13 31  1  0  0  0
 14 15  2  0  0  0
 14 98  1  0  0  0
 15 99  1  0  0  0
 16 17  2  0  0  0
 16 21  1  0  0  0
 16 31  1  0  0  0
 17 18  1  0  0  0
 17100  1  0  0  0
 18 19  2  0  0  0
 18101  1  0  0  0
 19 20  1  0  0  0
 19 24  1  0  0  0
 20 21  2  0  0  0
 20102  1  0  0  0
 21 23  1  0  0  0
 22 28  1  0  0  0
 22 32  2  0  0  0
 26 27  1  0  0  0
 28103  1  0  0  0
 28104  1  0  0  0
 29105  1  0  0  0
 29106  1  0  0  0
 33 34  1  0  0  0
 33 66  1  0  0  0
 33 70  2  0  0  0
 34 36  1  0  0  0
 34 59  1  0  0  0
 34107  1  0  0  0
 35 44  2  0  0  0
 35 45  1  0  0  0
 35 68  1  0  0  0
 36 56  1  0  0  0
 36108  1  0  0  0
 37 39  1  0  0  0
 37 47  1  0  0  0
 37 66  1  0  0  0
 37109  1  0  0  0
 38 43  2  0  0  0
 38 46  1  0  0  0
 38 47  1  0  0  0
 39 64  1  0  0  0
 39 67  2  0  0  0
 40 52  1  0  0  0
 40 53  2  0  0  0
 40 58  1  0  0  0
 41110  1  0  0  0
 41111  1  0  0  0
 41112  1  0  0  0
 41 48  1  0  0  0
 42 43  1  0  0  0
 42 66  1  0  0  0
 42113  1  0  0  0
 42114  1  0  0  0
 43 44  1  0  0  0
 44115  1  0  0  0
 45 46  2  0  0  0
 45116  1  0  0  0
 46117  1  0  0  0
 47118  1  0  0  0
 47119  1  0  0  0
 48 56  1  0  0  0
 48 65  1  0  0  0
 48120  1  0  0  0
 49 50  1  0  0  0
 49 53  1  0  0  0
 49 64  1  0  0  0
 49121  1  0  0  0
 50 51  1  0  0  0
 50122  1  0  0  0
 50123  1  0  0  0
 51 52  1  0  0  0
 51124  1  0  0  0
 51125  1  0  0  0
 52126  1  0  0  0
 52127  1  0  0  0
 53 54  1  0  0  0
 54 55  2  0  0  0
 54128  1  0  0  0
 55 57  1  0  0  0
 55129  1  0  0  0
 56 69  2  0  0  0
 57 58  2  0  0  0
 57130  1  0  0  0
 58131  1  0  0  0
 59 60  1  0  0  0
 59 61  1  0  0  0
 59 62  1  0  0  0
 60132  1  0  0  0
 60133  1  0  0  0
 60134  1  0  0  0
 61135  1  0  0  0
 61136  1  0  0  0
 61137  1  0  0  0
 62138  1  0  0  0
 62139  1  0  0  0
 62140  1  0  0  0
 63 65  1  0  0  0
 63141  1  0  0  0
 63142  1  0  0  0
 63143  1  0  0  0
 64144  1  0  0  0
 65145  1  0  0  0
 68 80  1  0  0  0
 71 72  2  0  0  0
 71 73  1  0  0  0
 71146  1  0  0  0
 72 74  1  0  0  0
 72 84  1  0  0  0
 73 76  2  0  0  0
 73 81  1  0  0  0
 74 75  2  0  0  0
 74 82  1  0  0  0
 75 76  1  0  0  0
 75 83  1  0  0  0
 76 85  1  0  0  0
 77 78  1  0  0  0
 77 80  1  0  0  0
 77147  1  0  0  0
 77148  1  0  0  0
 78 86  1  0  0  0
 78149  1  0  0  0
 78150  1  0  0  0
 79 80  1  0  0  0
 79 86  1  0  0  0
 79151  1  0  0  0
 79152  1  0  0  0
 80153  1  0  0  0
 81154  1  0  0  0
 81155  1  0  0  0
 81156  1  0  0  0
 82157  1  0  0  0
 82158  1  0  0  0
 82159  1  0  0  0
 83160  1  0  0  0
 83161  1  0  0  0
 83162  1  0  0  0
 84163  1  0  0  0
 84164  1  0  0  0
 84 86  1  0  0  0
 85165  1  0  0  0
 86166  1  0  0  0
M  CHG  1  86   1
M  ISO  4   1 100  68 101  80 101  85 100
M  END
> <chiral flag>
0

> <version>
0

> <s_m_source_file>
/data/baiqing/PycharmProjects/Reinvent-master-3.2/result/LINK_invent/BTK/process_docking_weight1_custom_product_contain_oxygen_bond_distance_aromatic_linkinvent_7_9_3/rearranged_h_0030.sdf

> <i_m_source_file_index>
6

> <r_mmod_Potential_Energy-OPLS-2005>
2.91751313209534

> <r_mmod_Stretch_Energy-OPLS-2005>
84.2027740478516

> <r_mmod_Bend_Energy-OPLS-2005>
167.910064697266

> <r_mmod_Torsional_Energy-OPLS-2005>
305.123107910156

> <r_mmod_Improper_Torsional_Energy-OPLS-2005>
5.68570566177368

> <r_mmod_Van_der_Waal_Energy-OPLS-2005>
142.769805908203

> <r_mmod_Electrostatic_Energy-OPLS-2005>
-322.488708496094

> <r_mmod_Solvation_Energy-OPLS-2005>
-433.106506347656

> <b_mmod_Minimization_Converged-OPLS-2005>
0

> <r_mmod_RMS_Derivative-OPLS-2005>
1.57600116729736

$$$$
6
                    3D
 Structure written by MMmdl.
163172  0  0  1  0            999 V2000
  -30.6953  -14.5147   20.5742 C   0  0  0  0  0  0
  -30.4267  -12.3381   19.4268 C   0  0  0  0  0  0
  -29.4946  -12.5076   18.2091 C   0  0  0  0  0  0
  -28.0182  -12.3581   18.6251 C   0  0  0  0  0  0
  -27.6582  -13.2112   19.8708 C   0  0  2  0  0  0
  -28.7020  -13.0178   20.9939 C   0  0  0  0  0  0
  -25.2573  -13.8166   20.5688 C   0  0  0  0  0  0
  -24.1830  -13.0438   20.9185 C   0  0  0  0  0  0
  -24.6390  -11.6907   20.8736 C   0  0  0  0  0  0
  -23.9059  -10.4294   21.0404 C   0  0  0  0  0  0
  -24.3612   -9.4209   21.9182 C   0  0  0  0  0  0
  -23.6290   -8.2243   22.0752 C   0  0  0  0  0  0
  -22.4272   -8.0280   21.3544 C   0  0  0  0  0  0
  -21.9906   -9.0252   20.4646 C   0  0  0  0  0  0
  -22.7232  -10.2133   20.3054 C   0  0  0  0  0  0
  -21.6851   -6.0734   22.5278 C   0  0  0  0  0  0
  -21.4013   -6.5638   23.8212 C   0  0  0  0  0  0
  -21.3660   -5.6792   24.9175 C   0  0  0  0  0  0
  -21.6044   -4.3054   24.7225 C   0  0  0  0  0  0
  -21.8819   -3.8146   23.4347 C   0  0  0  0  0  0
  -21.9193   -4.6963   22.3402 C   0  0  0  0  0  0
  -22.7853  -13.5235   21.1850 C   0  0  0  0  0  0
  -22.1661   -4.2150   21.0980 F   0  0  0  0  0  0
  -21.5630   -3.4538   25.7738 F   0  0  0  0  0  0
  -30.0283  -13.3331   20.4368 N   0  0  0  0  0  0
  -26.3009  -12.9345   20.3354 N   0  0  0  0  0  0
  -25.9320  -11.6501   20.5766 N   0  0  0  0  0  0
  -22.0494  -12.8224   22.0407 N   0  0  0  0  0  0
  -25.4284  -15.1886   20.4109 N   0  0  0  0  0  0
  -31.8260  -14.6936   20.1144 O   0  0  0  0  0  0
  -21.6636   -6.8876   21.4240 O   0  0  0  0  0  0
  -22.3538  -14.5544   20.6707 O   0  0  0  0  0  0
  -24.6198  -31.8663   23.2110 C   0  0  0  0  0  0
  -25.9078  -32.4811   23.8402 C   0  0  1  0  0  0
  -27.2143  -27.3771   20.1066 C   0  0  0  0  0  0
  -25.5917  -33.8611   24.2323 N   0  0  0  0  0  0
  -23.4085  -30.4946   21.5529 C   0  0  2  0  0  0
  -24.8520  -28.9610   20.1160 C   0  0  0  0  0  0
  -22.7434  -29.4662   22.4976 C   0  0  0  0  0  0
  -18.0278  -28.1379   22.8489 C   0  0  0  0  0  0
  -24.1491  -36.7312   23.2637 C   0  0  0  0  0  0
  -25.9458  -30.8121   21.3774 C   0  0  0  0  0  0
  -26.0178  -29.4435   20.7248 C   0  0  0  0  0  0
  -27.2025  -28.6589   20.7211 C   0  0  0  0  0  0
  -26.0394  -26.9568   19.4446 C   0  0  0  0  0  0
  -24.8601  -27.7173   19.4716 C   0  0  0  0  0  0
  -23.6194  -29.8355   20.1662 C   0  0  0  0  0  0
  -25.4112  -36.3101   24.0335 C   0  0  1  0  0  0
  -20.5871  -28.3674   23.1303 C   0  0  2  0  0  0
  -20.6771  -26.9405   22.5412 C   0  0  0  0  0  0
  -19.5747  -26.6385   21.5211 C   0  0  0  0  0  0
  -18.1925  -26.7922   22.1623 C   0  0  0  0  0  0
  -19.1528  -28.8841   23.2894 C   0  0  0  0  0  0
  -18.9456  -30.1445   23.8905 C   0  0  0  0  0  0
  -17.6459  -30.6583   24.0566 C   0  0  0  0  0  0
  -25.9045  -34.9467   23.5125 C   0  0  0  0  0  0
  -16.5350  -29.9084   23.6332 C   0  0  0  0  0  0
  -16.7268  -28.6503   23.0350 C   0  0  0  0  0  0
  -26.4484  -31.6598   25.0743 C   0  0  0  0  0  0
  -25.3733  -31.3715   26.1481 C   0  0  0  0  0  0
  -27.0324  -30.3034   24.6152 C   0  0  0  0  0  0
  -27.6059  -32.4321   25.7498 C   0  0  0  0  0  0
  -27.5580  -37.1806   24.8463 C   0  0  0  0  0  0
  -21.4157  -29.3042   22.3709 N   0  0  0  0  0  0
  -26.4294  -37.3788   23.9406 N   0  0  0  0  0  0
  -24.6765  -31.0728   22.1043 N   0  0  0  0  0  0
  -23.4193  -28.8188   23.3015 O   0  0  0  0  0  0
  -28.3488  -26.5717   20.0953 O   0  0  0  0  0  0
  -26.5608  -34.8918   22.4687 O   0  0  0  0  0  0
  -23.5380  -32.1443   23.7478 O   0  0  0  0  0  0
  -28.8690  -17.7041   19.5284 C   0  0  0  0  0  0
  -28.6274  -20.0413   18.8910 C   0  0  0  0  0  0
  -29.7914  -18.0497   20.5400 C   0  0  0  0  0  0
  -29.5345  -20.4499   19.8945 C   0  0  0  0  0  0
  -30.1097  -19.4384   20.7361 C   0  0  0  0  0  0
  -28.2875  -18.6897   18.7164 C   0  0  0  0  0  0
  -27.2309  -24.2487   20.1125 C   0  0  0  0  0  0
  -27.6855  -22.8665   20.5899 C   0  0  0  0  0  0
  -29.5375  -24.3716   20.5537 C   0  0  0  0  0  0
  -28.2528  -25.2351   20.6933 C   0  0  1  0  0  0
  -31.1080  -19.8331   21.8181 C   0  0  0  0  0  0
  -30.4488  -16.9199   21.3745 C   0  0  0  0  0  0
  -29.9523  -21.9516   19.9015 C   0  0  0  0  0  0
  -29.9972  -15.5277   21.1332 N   0  0  0  0  0  0
  -29.1576  -22.9252   20.7284 N   0  3  2  0  0  0
  -27.1766  -18.2342   17.4777 Cl  0  0  0  0  0  0
  -31.4689  -12.4463   19.1222 H   0  0  0  0  0  0
  -30.3415  -11.3315   19.8394 H   0  0  0  0  0  0
  -29.7415  -11.7736   17.4408 H   0  0  0  0  0  0
  -29.6514  -13.4882   17.7567 H   0  0  0  0  0  0
  -27.8415  -11.3029   18.8377 H   0  0  0  0  0  0
  -27.3631  -12.6124   17.7914 H   0  0  0  0  0  0
  -27.6935  -14.2547   19.5574 H   0  0  0  0  0  0
  -28.6897  -11.9867   21.3501 H   0  0  0  0  0  0
  -28.4567  -13.6292   21.8633 H   0  0  0  0  0  0
  -25.2757   -9.5685   22.4755 H   0  0  0  0  0  0
  -24.0001   -7.4634   22.7470 H   0  0  0  0  0  0
  -21.0838   -8.8768   19.8951 H   0  0  0  0  0  0
  -22.3689  -10.9671   19.6163 H   0  0  0  0  0  0
  -21.2001   -7.6146   23.9716 H   0  0  0  0  0  0
  -21.1484   -6.0521   25.9078 H   0  0  0  0  0  0
  -22.0598   -2.7609   23.2846 H   0  0  0  0  0  0
  -22.4108  -11.9881   22.4791 H   0  0  0  0  0  0
  -21.1112  -13.1249   22.2615 H   0  0  0  0  0  0
  -24.6589  -15.8409   20.5153 H   0  0  0  0  0  0
  -26.2765  -15.6290   20.0801 H   0  0  0  0  0  0
  -26.7143  -32.5506   23.1154 H   0  0  0  0  0  0
  -25.0056  -33.9770   25.0459 H   0  0  0  0  0  0
  -22.6998  -31.3140   21.4160 H   0  0  0  0  0  0
  -23.3743  -35.9655   23.3310 H   0  0  0  0  0  0
  -24.3584  -36.8924   22.2050 H   0  0  0  0  0  0
  -23.7261  -37.6526   23.6650 H   0  0  0  0  0  0
  -26.0710  -31.5753   20.6077 H   0  0  0  0  0  0
  -26.8298  -30.8611   22.0016 H   0  0  0  0  0  0
  -28.0980  -29.0242   21.2043 H   0  0  0  0  0  0
  -26.0101  -26.0463   18.8706 H   0  0  0  0  0  0
  -23.9734  -27.3538   18.9703 H   0  0  0  0  0  0
  -23.7345  -30.6142   19.4112 H   0  0  0  0  0  0
  -22.7403  -29.2630   19.8648 H   0  0  0  0  0  0
  -25.1288  -36.1964   25.0827 H   0  0  0  0  0  0
  -20.9964  -28.3243   24.1424 H   0  0  0  0  0  0
  -20.5681  -26.2280   23.3603 H   0  0  0  0  0  0
  -21.6640  -26.7455   22.1196 H   0  0  0  0  0  0
  -19.6916  -25.6301   21.1228 H   0  0  0  0  0  0
  -19.6686  -27.3203   20.6746 H   0  0  0  0  0  0
  -17.4197  -26.6675   21.4022 H   0  0  0  0  0  0
  -18.0328  -26.0062   22.9016 H   0  0  0  0  0  0
  -19.7935  -30.7257   24.2278 H   0  0  0  0  0  0
  -17.5017  -31.6263   24.5165 H   0  0  0  0  0  0
  -15.5350  -30.2989   23.7648 H   0  0  0  0  0  0
  -15.8668  -28.0824   22.7059 H   0  0  0  0  0  0
  -24.5908  -30.7064   25.7812 H   0  0  0  0  0  0
  -24.8917  -32.2871   26.4921 H   0  0  0  0  0  0
  -25.8064  -30.8885   27.0249 H   0  0  0  0  0  0
  -26.2885  -29.6785   24.1196 H   0  0  0  0  0  0
  -27.4071  -29.7283   25.4630 H   0  0  0  0  0  0
  -27.8730  -30.4342   23.9336 H   0  0  0  0  0  0
  -27.2687  -33.3622   26.2084 H   0  0  0  0  0  0
  -28.3852  -32.6884   25.0306 H   0  0  0  0  0  0
  -28.0743  -31.8441   26.5400 H   0  0  0  0  0  0
  -28.2599  -38.0102   24.7511 H   0  0  0  0  0  0
  -28.1074  -36.2635   24.6286 H   0  0  0  0  0  0
  -27.2297  -37.1459   25.8865 H   0  0  0  0  0  0
  -20.9322  -29.8786   21.6947 H   0  0  0  0  0  0
  -26.0182  -38.2868   24.1398 H   0  0  0  0  0  0
  -28.6064  -16.6738   19.3438 H   0  0  0  0  0  0
  -28.1982  -20.7679   18.2156 H   0  0  0  0  0  0
  -26.2089  -24.4508   20.4320 H   0  0  0  0  0  0
  -27.2708  -24.2701   19.0233 H   0  0  0  0  0  0
  -27.3208  -22.0869   19.9257 H   0  0  0  0  0  0
  -27.2677  -22.6603   21.5762 H   0  0  0  0  0  0
  -30.3069  -24.6698   21.2666 H   0  0  0  0  0  0
  -29.9487  -24.5242   19.5551 H   0  0  0  0  0  0
  -28.0382  -25.3635   21.7559 H   0  0  0  0  0  0
  -31.0099  -19.2139   22.7087 H   0  0  0  0  0  0
  -30.9682  -20.8589   22.1552 H   0  0  0  0  0  0
  -32.1283  -19.7334   21.4464 H   0  0  0  0  0  0
  -30.2520  -17.1198   22.4278 H   0  0  0  0  0  0
  -31.5314  -16.9900   21.2542 H   0  0  0  0  0  0
  -29.9207  -22.2937   18.8658 H   0  0  0  0  0  0
  -31.0028  -22.0336   20.1802 H   0  0  0  0  0  0
  -29.0727  -15.2956   21.4628 H   0  0  0  0  0  0
  -29.3396  -22.6817   21.6917 H   0  0  0  0  0  0
  1 25  1  0  0  0
  1 30  2  0  0  0
  1 84  1  0  0  0
  2  3  1  0  0  0
  2 25  1  0  0  0
  2 87  1  0  0  0
  2 88  1  0  0  0
  3  4  1  0  0  0
  3 89  1  0  0  0
  3 90  1  0  0  0
  4  5  1  0  0  0
  4 91  1  0  0  0
  4 92  1  0  0  0
  5  6  1  0  0  0
  5 26  1  0  0  0
  5 93  1  0  0  0
  6 25  1  0  0  0
  6 94  1  0  0  0
  6 95  1  0  0  0
  7  8  2  0  0  0
  7 26  1  0  0  0
  7 29  1  0  0  0
  8  9  1  0  0  0
  8 22  1  0  0  0
  9 10  1  0  0  0
  9 27  2  0  0  0
 10 11  2  0  0  0
 10 15  1  0  0  0
 11 12  1  0  0  0
 11 96  1  0  0  0
 12 13  2  0  0  0
 12 97  1  0  0  0
 13 14  1  0  0  0
 13 31  1  0  0  0
 14 15  2  0  0  0
 14 98  1  0  0  0
 15 99  1  0  0  0
 16 17  2  0  0  0
 16 21  1  0  0  0
 16 31  1  0  0  0
 17 18  1  0  0  0
 17100  1  0  0  0
 18 19  2  0  0  0
 18101  1  0  0  0
 19 20  1  0  0  0
 19 24  1  0  0  0
 20 21  2  0  0  0
 20102  1  0  0  0
 21 23  1  0  0  0
 22 28  1  0  0  0
 22 32  2  0  0  0
 26 27  1  0  0  0
 28103  1  0  0  0
 28104  1  0  0  0
 29105  1  0  0  0
 29106  1  0  0  0
 33 34  1  0  0  0
 33 66  1  0  0  0
 33 70  2  0  0  0
 34 36  1  0  0  0
 34 59  1  0  0  0
 34107  1  0  0  0
 35 44  2  0  0  0
 35 45  1  0  0  0
 35 68  1  0  0  0
 36 56  1  0  0  0
 36108  1  0  0  0
 37 39  1  0  0  0
 37 47  1  0  0  0
 37 66  1  0  0  0
 37109  1  0  0  0
 38 43  2  0  0  0
 38 46  1  0  0  0
 38 47  1  0  0  0
 39 64  1  0  0  0
 39 67  2  0  0  0
 40 52  1  0  0  0
 40 53  2  0  0  0
 40 58  1  0  0  0
 41110  1  0  0  0
 41111  1  0  0  0
 41112  1  0  0  0
 41 48  1  0  0  0
 42 43  1  0  0  0
 42 66  1  0  0  0
 42113  1  0  0  0
 42114  1  0  0  0
 43 44  1  0  0  0
 44115  1  0  0  0
 45 46  2  0  0  0
 45116  1  0  0  0
 46117  1  0  0  0
 47118  1  0  0  0
 47119  1  0  0  0
 48 56  1  0  0  0
 48 65  1  0  0  0
 48120  1  0  0  0
 49 50  1  0  0  0
 49 53  1  0  0  0
 49 64  1  0  0  0
 49121  1  0  0  0
 50 51  1  0  0  0
 50122  1  0  0  0
 50123  1  0  0  0
 51 52  1  0  0  0
 51124  1  0  0  0
 51125  1  0  0  0
 52126  1  0  0  0
 52127  1  0  0  0
 53 54  1  0  0  0
 54 55  2  0  0  0
 54128  1  0  0  0
 55 57  1  0  0  0
 55129  1  0  0  0
 56 69  2  0  0  0
 57 58  2  0  0  0
 57130  1  0  0  0
 58131  1  0  0  0
 59 60  1  0  0  0
 59 61  1  0  0  0
 59 62  1  0  0  0
 60132  1  0  0  0
 60133  1  0  0  0
 60134  1  0  0  0
 61135  1  0  0  0
 61136  1  0  0  0
 61137  1  0  0  0
 62138  1  0  0  0
 62139  1  0  0  0
 62140  1  0  0  0
 63 65  1  0  0  0
 63141  1  0  0  0
 63142  1  0  0  0
 63143  1  0  0  0
 64144  1  0  0  0
 65145  1  0  0  0
 68 80  1  0  0  0
 71 73  2  0  0  0
 71 76  1  0  0  0
 71146  1  0  0  0
 72 74  1  0  0  0
 72 76  2  0  0  0
 72147  1  0  0  0
 73 75  1  0  0  0
 73 82  1  0  0  0
 74 75  2  0  0  0
 74 83  1  0  0  0
 75 81  1  0  0  0
 76 86  1  0  0  0
 77 78  1  0  0  0
 77 80  1  0  0  0
 77148  1  0  0  0
 77149  1  0  0  0
 78 85  1  0  0  0
 78150  1  0  0  0
 78151  1  0  0  0
 79 80  1  0  0  0
 79 85  1  0  0  0
 79152  1  0  0  0
 79153  1  0  0  0
 80154  1  0  0  0
 81155  1  0  0  0
 81156  1  0  0  0
 81157  1  0  0  0
 82 84  1  0  0  0
 82158  1  0  0  0
 82159  1  0  0  0
 83160  1  0  0  0
 83161  1  0  0  0
 83 85  1  0  0  0
 84162  1  0  0  0
 85163  1  0  0  0
M  CHG  1  85   1
M  ISO  4   1 100  68 101  80 101  84 100
M  END
> <chiral flag>
0

> <version>
0

> <s_m_source_file>
/data/baiqing/PycharmProjects/Reinvent-master-3.2/result/LINK_invent/BTK/process_docking_weight1_custom_product_contain_oxygen_bond_distance_aromatic_linkinvent_7_9_3/rearranged_h_0030.sdf

> <i_m_source_file_index>
7

> <r_mmod_Potential_Energy-OPLS-2005>
-139.369232177734

> <r_mmod_Stretch_Energy-OPLS-2005>
54.7100067138672

> <r_mmod_Bend_Energy-OPLS-2005>
140.988571166992

> <r_mmod_Torsional_Energy-OPLS-2005>
255.558090209961

> <r_mmod_Improper_Torsional_Energy-OPLS-2005>
3.49216890335083

> <r_mmod_Van_der_Waal_Energy-OPLS-2005>
150.447830200195

> <r_mmod_Electrostatic_Energy-OPLS-2005>
-324.157318115234

> <r_mmod_Solvation_Energy-OPLS-2005>
-442.373199462891

> <b_mmod_Minimization_Converged-OPLS-2005>
0

> <r_mmod_RMS_Derivative-OPLS-2005>
0.622341692447662

$$$$
7
                    3D
 Structure written by MMmdl.
164173  0  0  1  0            999 V2000
  -30.6844  -14.4430   20.6265 C   0  0  0  0  0  0
  -30.4264  -12.2996   19.4299 C   0  0  0  0  0  0
  -29.5033  -12.5360   18.2177 C   0  0  0  0  0  0
  -28.0237  -12.3799   18.6203 C   0  0  0  0  0  0
  -27.6657  -13.2014   19.8868 C   0  0  2  0  0  0
  -28.6968  -12.9470   21.0096 C   0  0  0  0  0  0
  -25.2618  -13.8147   20.5707 C   0  0  0  0  0  0
  -24.1847  -13.0432   20.9157 C   0  0  0  0  0  0
  -24.6376  -11.6890   20.8705 C   0  0  0  0  0  0
  -23.9023  -10.4290   21.0380 C   0  0  0  0  0  0
  -24.3589   -9.4218   21.9186 C   0  0  0  0  0  0
  -23.6275   -8.2246   22.0748 C   0  0  0  0  0  0
  -22.4265   -8.0270   21.3542 C   0  0  0  0  0  0
  -21.9880   -9.0236   20.4647 C   0  0  0  0  0  0
  -22.7183  -10.2121   20.3042 C   0  0  0  0  0  0
  -21.6860   -6.0713   22.5272 C   0  0  0  0  0  0
  -21.4032   -6.5626   23.8197 C   0  0  0  0  0  0
  -21.3662   -5.6783   24.9165 C   0  0  0  0  0  0
  -21.6048   -4.3047   24.7219 C   0  0  0  0  0  0
  -21.8825   -3.8125   23.4344 C   0  0  0  0  0  0
  -21.9210   -4.6945   22.3398 C   0  0  0  0  0  0
  -22.7877  -13.5238   21.1825 C   0  0  0  0  0  0
  -22.1667   -4.2126   21.0977 F   0  0  0  0  0  0
  -21.5629   -3.4529   25.7729 F   0  0  0  0  0  0
  -30.0405  -13.2528   20.4822 N   0  0  0  0  0  0
  -26.3043  -12.9290   20.3401 N   0  0  0  0  0  0
  -25.9313  -11.6453   20.5744 N   0  0  0  0  0  0
  -22.0507  -12.8259   22.0388 N   0  0  0  0  0  0
  -25.4408  -15.1866   20.4184 N   0  0  0  0  0  0
  -31.7548  -14.7061   20.0696 O   0  0  0  0  0  0
  -21.6658   -6.8853   21.4223 O   0  0  0  0  0  0
  -22.3556  -14.5520   20.6630 O   0  0  0  0  0  0
  -24.6118  -31.8698   23.2096 C   0  0  0  0  0  0
  -25.9025  -32.4832   23.8356 C   0  0  1  0  0  0
  -27.2212  -27.4311   20.1081 C   0  0  0  0  0  0
  -25.5878  -33.8630   24.2281 N   0  0  0  0  0  0
  -23.3984  -30.4903   21.5562 C   0  0  2  0  0  0
  -24.8440  -28.9575   20.1173 C   0  0  0  0  0  0
  -22.7394  -29.4644   22.5049 C   0  0  0  0  0  0
  -18.0255  -28.1376   22.8509 C   0  0  0  0  0  0
  -24.1498  -36.7316   23.2634 C   0  0  0  0  0  0
  -25.9271  -30.8340   21.3649 C   0  0  0  0  0  0
  -26.0063  -29.4679   20.7119 C   0  0  0  0  0  0
  -27.2028  -28.7133   20.7024 C   0  0  0  0  0  0
  -26.0483  -26.9337   19.5076 C   0  0  0  0  0  0
  -24.8597  -27.6886   19.5102 C   0  0  0  0  0  0
  -23.6068  -29.8269   20.1692 C   0  0  0  0  0  0
  -25.4127  -36.3112   24.0315 C   0  0  1  0  0  0
  -20.5850  -28.3640   23.1376 C   0  0  2  0  0  0
  -20.6773  -26.9393   22.5448 C   0  0  0  0  0  0
  -19.5741  -26.6382   21.5262 C   0  0  0  0  0  0
  -18.1904  -26.7923   22.1648 C   0  0  0  0  0  0
  -19.1507  -28.8827   23.2933 C   0  0  0  0  0  0
  -18.9437  -30.1448   23.8923 C   0  0  0  0  0  0
  -17.6440  -30.6599   24.0552 C   0  0  0  0  0  0
  -25.9055  -34.9484   23.5101 C   0  0  0  0  0  0
  -16.5329  -29.9098   23.6325 C   0  0  0  0  0  0
  -16.7243  -28.6507   23.0354 C   0  0  0  0  0  0
  -26.4435  -31.6596   25.0681 C   0  0  0  0  0  0
  -25.3654  -31.3743   26.1392 C   0  0  0  0  0  0
  -27.0249  -30.3012   24.6092 C   0  0  0  0  0  0
  -27.6015  -32.4296   25.7450 C   0  0  0  0  0  0
  -27.5589  -37.1803   24.8452 C   0  0  0  0  0  0
  -21.4129  -29.2990   22.3771 N   0  0  0  0  0  0
  -26.4309  -37.3797   23.9388 N   0  0  0  0  0  0
  -24.6639  -31.0789   22.1012 N   0  0  0  0  0  0
  -23.4179  -28.8227   23.3110 O   0  0  0  0  0  0
  -28.3439  -26.6373   20.1320 O   0  0  0  0  0  0
  -26.5651  -34.8938   22.4687 O   0  0  0  0  0  0
  -23.5322  -32.1456   23.7504 O   0  0  0  0  0  0
  -28.3951  -18.6776   21.7561 C   0  0  0  0  0  0
  -29.9917  -17.3046   19.8959 C   0  0  0  0  0  0
  -28.8893  -17.3896   22.0685 C   0  0  0  0  0  0
  -28.6877  -19.2818   20.5165 C   0  0  0  0  0  0
  -29.6751  -16.6753   21.1254 C   0  0  0  0  0  0
  -29.5040  -18.5918   19.5946 C   0  0  0  0  0  0
  -28.2549  -23.0785   20.4777 C   0  0  0  0  0  0
  -30.9538  -22.7323   21.6340 C   0  0  0  0  0  0
  -30.0862  -23.9638   21.9526 C   0  0  0  0  0  0
  -30.3322  -21.7702   20.5991 C   0  0  0  0  0  0
  -29.1108  -24.3306   20.8137 C   0  0  2  0  0  0
  -28.5587  -16.7888   23.4245 C   0  0  0  0  0  0
  -28.0928  -20.6440   20.1490 C   0  0  0  0  0  0
  -28.2945  -25.6227   21.1547 C   0  0  0  0  0  0
  -28.8628  -21.8595   20.5030 N   0  0  0  0  0  0
  -30.0474  -15.3248   21.4215 N   0  0  0  0  0  0
  -27.0585  -23.2077   20.2009 O   0  0  0  0  0  0
  -29.8106  -19.1621   18.4058 F   0  0  0  0  0  0
  -31.4727  -12.4025   19.1384 H   0  0  0  0  0  0
  -30.3196  -11.2762   19.7942 H   0  0  0  0  0  0
  -29.7475  -11.8414   17.4142 H   0  0  0  0  0  0
  -29.6735  -13.5378   17.8193 H   0  0  0  0  0  0
  -27.8448  -11.3196   18.8088 H   0  0  0  0  0  0
  -27.3755  -12.6599   17.7886 H   0  0  0  0  0  0
  -27.7206  -14.2566   19.6156 H   0  0  0  0  0  0
  -28.6660  -11.9022   21.3247 H   0  0  0  0  0  0
  -28.4266  -13.5152   21.9006 H   0  0  0  0  0  0
  -25.2723   -9.5728   22.4774 H   0  0  0  0  0  0
  -24.0011   -7.4635   22.7459 H   0  0  0  0  0  0
  -21.0809   -8.8704   19.8959 H   0  0  0  0  0  0
  -22.3603  -10.9648   19.6153 H   0  0  0  0  0  0
  -21.2022   -7.6129   23.9686 H   0  0  0  0  0  0
  -21.1489   -6.0523   25.9066 H   0  0  0  0  0  0
  -22.0610   -2.7587   23.2847 H   0  0  0  0  0  0
  -22.4060  -11.9923   22.4836 H   0  0  0  0  0  0
  -21.1119  -13.1303   22.2509 H   0  0  0  0  0  0
  -24.6851  -15.8514   20.5436 H   0  0  0  0  0  0
  -26.3148  -15.6267   20.1618 H   0  0  0  0  0  0
  -26.7089  -32.5539   23.1116 H   0  0  0  0  0  0
  -24.9872  -33.9784   25.0308 H   0  0  0  0  0  0
  -22.6830  -31.3054   21.4238 H   0  0  0  0  0  0
  -23.3757  -35.9651   23.3309 H   0  0  0  0  0  0
  -24.3582  -36.8931   22.2044 H   0  0  0  0  0  0
  -23.7261  -37.6519   23.6662 H   0  0  0  0  0  0
  -26.0405  -31.6043   20.6007 H   0  0  0  0  0  0
  -26.8122  -30.8830   21.9878 H   0  0  0  0  0  0
  -28.0992  -29.0974   21.1698 H   0  0  0  0  0  0
  -26.0495  -25.9494   19.0617 H   0  0  0  0  0  0
  -23.9657  -27.2838   19.0552 H   0  0  0  0  0  0
  -23.7206  -30.6089   19.4189 H   0  0  0  0  0  0
  -22.7257  -29.2583   19.8664 H   0  0  0  0  0  0
  -25.1330  -36.1953   25.0809 H   0  0  0  0  0  0
  -20.9910  -28.3186   24.1513 H   0  0  0  0  0  0
  -20.5780  -26.2214   23.3606 H   0  0  0  0  0  0
  -21.6630  -26.7513   22.1173 H   0  0  0  0  0  0
  -19.6912  -25.6308   21.1258 H   0  0  0  0  0  0
  -19.6700  -27.3227   20.6825 H   0  0  0  0  0  0
  -17.4205  -26.6696   21.4020 H   0  0  0  0  0  0
  -18.0271  -26.0062   22.9032 H   0  0  0  0  0  0
  -19.7917  -30.7257   24.2294 H   0  0  0  0  0  0
  -17.5000  -31.6297   24.5129 H   0  0  0  0  0  0
  -15.5329  -30.3012   23.7651 H   0  0  0  0  0  0
  -15.8632  -28.0843   22.7060 H   0  0  0  0  0  0
  -24.5839  -30.7098   25.7690 H   0  0  0  0  0  0
  -24.8825  -32.2921   26.4751 H   0  0  0  0  0  0
  -25.7930  -30.8930   27.0191 H   0  0  0  0  0  0
  -26.2819  -29.6810   24.1061 H   0  0  0  0  0  0
  -27.3881  -29.7222   25.4594 H   0  0  0  0  0  0
  -27.8717  -30.4284   23.9344 H   0  0  0  0  0  0
  -27.2633  -33.3584   26.2057 H   0  0  0  0  0  0
  -28.3805  -32.6862   25.0259 H   0  0  0  0  0  0
  -28.0693  -31.8379   26.5325 H   0  0  0  0  0  0
  -28.2614  -38.0095   24.7516 H   0  0  0  0  0  0
  -28.1081  -36.2626   24.6280 H   0  0  0  0  0  0
  -27.2295  -37.1455   25.8851 H   0  0  0  0  0  0
  -20.9295  -29.8591   21.6894 H   0  0  0  0  0  0
  -26.0194  -38.2874   24.1390 H   0  0  0  0  0  0
  -27.7681  -19.1987   22.4678 H   0  0  0  0  0  0
  -30.5889  -16.8006   19.1524 H   0  0  0  0  0  0
  -31.1379  -22.1891   22.5614 H   0  0  0  0  0  0
  -31.9362  -23.0472   21.2767 H   0  0  0  0  0  0
  -30.7302  -24.8129   22.1839 H   0  0  0  0  0  0
  -29.5217  -23.7556   22.8647 H   0  0  0  0  0  0
  -30.6925  -20.7664   20.8229 H   0  0  0  0  0  0
  -30.7223  -22.0093   19.6083 H   0  0  0  0  0  0
  -29.7069  -24.5485   19.9272 H   0  0  0  0  0  0
  -27.9673  -17.4745   24.0333 H   0  0  0  0  0  0
  -29.4766  -16.5651   23.9687 H   0  0  0  0  0  0
  -27.9853  -15.8684   23.3120 H   0  0  0  0  0  0
  -27.0982  -20.6904   20.5993 H   0  0  0  0  0  0
  -27.9216  -20.6566   19.0717 H   0  0  0  0  0  0
  -28.6972  -26.0781   22.0594 H   0  0  0  0  0  0
  -27.2654  -25.3749   21.4231 H   0  0  0  0  0  0
  -29.4293  -14.8721   22.0751 H   0  0  0  0  0  0
  1 25  1  0  0  0
  1 30  2  0  0  0
  1 86  1  0  0  0
  2  3  1  0  0  0
  2 25  1  0  0  0
  2 89  1  0  0  0
  2 90  1  0  0  0
  3  4  1  0  0  0
  3 91  1  0  0  0
  3 92  1  0  0  0
  4  5  1  0  0  0
  4 93  1  0  0  0
  4 94  1  0  0  0
  5  6  1  0  0  0
  5 26  1  0  0  0
  5 95  1  0  0  0
  6 25  1  0  0  0
  6 96  1  0  0  0
  6 97  1  0  0  0
  7  8  2  0  0  0
  7 26  1  0  0  0
  7 29  1  0  0  0
  8  9  1  0  0  0
  8 22  1  0  0  0
  9 10  1  0  0  0
  9 27  2  0  0  0
 10 11  2  0  0  0
 10 15  1  0  0  0
 11 12  1  0  0  0
 11 98  1  0  0  0
 12 13  2  0  0  0
 12 99  1  0  0  0
 13 14  1  0  0  0
 13 31  1  0  0  0
 14 15  2  0  0  0
 14100  1  0  0  0
 15101  1  0  0  0
 16 17  2  0  0  0
 16 21  1  0  0  0
 16 31  1  0  0  0
 17 18  1  0  0  0
 17102  1  0  0  0
 18 19  2  0  0  0
 18103  1  0  0  0
 19 20  1  0  0  0
 19 24  1  0  0  0
 20 21  2  0  0  0
 20104  1  0  0  0
 21 23  1  0  0  0
 22 28  1  0  0  0
 22 32  2  0  0  0
 26 27  1  0  0  0
 28105  1  0  0  0
 28106  1  0  0  0
 29107  1  0  0  0
 29108  1  0  0  0
 33 34  1  0  0  0
 33 66  1  0  0  0
 33 70  2  0  0  0
 34 36  1  0  0  0
 34 59  1  0  0  0
 34109  1  0  0  0
 35 44  2  0  0  0
 35 45  1  0  0  0
 35 68  1  0  0  0
 36 56  1  0  0  0
 36110  1  0  0  0
 37 39  1  0  0  0
 37 47  1  0  0  0
 37 66  1  0  0  0
 37111  1  0  0  0
 38 43  2  0  0  0
 38 46  1  0  0  0
 38 47  1  0  0  0
 39 64  1  0  0  0
 39 67  2  0  0  0
 40 52  1  0  0  0
 40 53  2  0  0  0
 40 58  1  0  0  0
 41112  1  0  0  0
 41113  1  0  0  0
 41114  1  0  0  0
 41 48  1  0  0  0
 42 43  1  0  0  0
 42 66  1  0  0  0
 42115  1  0  0  0
 42116  1  0  0  0
 43 44  1  0  0  0
 44117  1  0  0  0
 45 46  2  0  0  0
 45118  1  0  0  0
 46119  1  0  0  0
 47120  1  0  0  0
 47121  1  0  0  0
 48 56  1  0  0  0
 48 65  1  0  0  0
 48122  1  0  0  0
 49 50  1  0  0  0
 49 53  1  0  0  0
 49 64  1  0  0  0
 49123  1  0  0  0
 50 51  1  0  0  0
 50124  1  0  0  0
 50125  1  0  0  0
 51 52  1  0  0  0
 51126  1  0  0  0
 51127  1  0  0  0
 52128  1  0  0  0
 52129  1  0  0  0
 53 54  1  0  0  0
 54 55  2  0  0  0
 54130  1  0  0  0
 55 57  1  0  0  0
 55131  1  0  0  0
 56 69  2  0  0  0
 57 58  2  0  0  0
 57132  1  0  0  0
 58133  1  0  0  0
 59 60  1  0  0  0
 59 61  1  0  0  0
 59 62  1  0  0  0
 60134  1  0  0  0
 60135  1  0  0  0
 60136  1  0  0  0
 61137  1  0  0  0
 61138  1  0  0  0
 61139  1  0  0  0
 62140  1  0  0  0
 62141  1  0  0  0
 62142  1  0  0  0
 63 65  1  0  0  0
 63143  1  0  0  0
 63144  1  0  0  0
 63145  1  0  0  0
 64146  1  0  0  0
 65147  1  0  0  0
 68 84  1  0  0  0
 71 73  2  0  0  0
 71 74  1  0  0  0
 71148  1  0  0  0
 72 75  2  0  0  0
 72 76  1  0  0  0
 72149  1  0  0  0
 73 75  1  0  0  0
 73 82  1  0  0  0
 74 76  2  0  0  0
 74 83  1  0  0  0
 75 86  1  0  0  0
 76 88  1  0  0  0
 77 81  1  0  0  0
 77 85  1  0  0  0
 77 87  2  0  0  0
 78 79  1  0  0  0
 78 80  1  0  0  0
 78150  1  0  0  0
 78151  1  0  0  0
 79 81  1  0  0  0
 79152  1  0  0  0
 79153  1  0  0  0
 80 85  1  0  0  0
 80154  1  0  0  0
 80155  1  0  0  0
 81 84  1  0  0  0
 81156  1  0  0  0
 82157  1  0  0  0
 82158  1  0  0  0
 82159  1  0  0  0
 83 85  1  0  0  0
 83160  1  0  0  0
 83161  1  0  0  0
 84162  1  0  0  0
 84163  1  0  0  0
 86164  1  0  0  0
M  ISO  4   1 100  68 101  84 101  86 100
M  END
> <chiral flag>
0

> <version>
0

> <s_m_source_file>
/data/baiqing/PycharmProjects/Reinvent-master-3.2/result/LINK_invent/BTK/process_docking_weight1_custom_product_contain_oxygen_bond_distance_aromatic_linkinvent_7_9_3/rearranged_h_0030.sdf

> <i_m_source_file_index>
8

> <r_mmod_Potential_Energy-OPLS-2005>
29.9775066375732

> <r_mmod_Stretch_Energy-OPLS-2005>
42.5772323608398

> <r_mmod_Bend_Energy-OPLS-2005>
100.469879150391

> <r_mmod_Torsional_Energy-OPLS-2005>
291.864166259766

> <r_mmod_Improper_Torsional_Energy-OPLS-2005>
4.7379903793335

> <r_mmod_Van_der_Waal_Energy-OPLS-2005>
168.868225097656

> <r_mmod_Electrostatic_Energy-OPLS-2005>
-375.35888671875

> <r_mmod_Solvation_Energy-OPLS-2005>
-215.764724731445

> <b_mmod_Minimization_Converged-OPLS-2005>
0

> <r_mmod_RMS_Derivative-OPLS-2005>
3.4942147731781

$$$$
8
                    3D
 Structure written by MMmdl.
163172  0  0  1  0            999 V2000
  -30.7292  -14.4902   20.5628 C   0  0  0  0  0  0
  -30.4098  -12.3226   19.4221 C   0  0  0  0  0  0
  -29.4823  -12.4885   18.2025 C   0  0  0  0  0  0
  -28.0088  -12.3454   18.6265 C   0  0  0  0  0  0
  -27.6512  -13.2141   19.8628 C   0  0  2  0  0  0
  -28.6959  -13.0441   20.9880 C   0  0  0  0  0  0
  -25.2538  -13.8172   20.5696 C   0  0  0  0  0  0
  -24.1809  -13.0440   20.9188 C   0  0  0  0  0  0
  -24.6375  -11.6907   20.8740 C   0  0  0  0  0  0
  -23.9061  -10.4296   21.0408 C   0  0  0  0  0  0
  -24.3617   -9.4209   21.9182 C   0  0  0  0  0  0
  -23.6290   -8.2250   22.0758 C   0  0  0  0  0  0
  -22.4275   -8.0282   21.3550 C   0  0  0  0  0  0
  -21.9926   -9.0246   20.4639 C   0  0  0  0  0  0
  -22.7254  -10.2123   20.3037 C   0  0  0  0  0  0
  -21.6845   -6.0732   22.5279 C   0  0  0  0  0  0
  -21.4010   -6.5638   23.8212 C   0  0  0  0  0  0
  -21.3656   -5.6792   24.9172 C   0  0  0  0  0  0
  -21.6049   -4.3060   24.7227 C   0  0  0  0  0  0
  -21.8820   -3.8148   23.4350 C   0  0  0  0  0  0
  -21.9196   -4.6962   22.3401 C   0  0  0  0  0  0
  -22.7832  -13.5218   21.1856 C   0  0  0  0  0  0
  -22.1664   -4.2154   21.0975 F   0  0  0  0  0  0
  -21.5625   -3.4543   25.7737 F   0  0  0  0  0  0
  -30.0208  -13.3347   20.4204 N   0  0  0  0  0  0
  -26.2970  -12.9367   20.3340 N   0  0  0  0  0  0
  -25.9297  -11.6517   20.5775 N   0  0  0  0  0  0
  -22.0470  -12.8178   22.0388 N   0  0  0  0  0  0
  -25.4256  -15.1902   20.4135 N   0  0  0  0  0  0
  -31.8644  -14.6169   20.0972 O   0  0  0  0  0  0
  -21.6640   -6.8877   21.4248 O   0  0  0  0  0  0
  -22.3535  -14.5546   20.6728 O   0  0  0  0  0  0
  -24.6189  -31.8641   23.2060 C   0  0  0  0  0  0
  -25.9057  -32.4813   23.8348 C   0  0  1  0  0  0
  -27.2328  -27.3948   20.1046 C   0  0  0  0  0  0
  -25.5921  -33.8601   24.2313 N   0  0  0  0  0  0
  -23.4109  -30.4860   21.5444 C   0  0  2  0  0  0
  -24.8564  -28.9469   20.1174 C   0  0  0  0  0  0
  -22.7443  -29.4623   22.4947 C   0  0  0  0  0  0
  -18.0293  -28.1364   22.8479 C   0  0  0  0  0  0
  -24.1495  -36.7281   23.2639 C   0  0  0  0  0  0
  -25.9417  -30.8233   21.3601 C   0  0  0  0  0  0
  -26.0176  -29.4510   20.7128 C   0  0  0  0  0  0
  -27.2065  -28.6802   20.7050 C   0  0  0  0  0  0
  -26.0498  -26.9107   19.5083 C   0  0  0  0  0  0
  -24.8679  -27.6763   19.5169 C   0  0  0  0  0  0
  -23.6230  -29.8205   20.1593 C   0  0  0  0  0  0
  -25.4120  -36.3092   24.0339 C   0  0  1  0  0  0
  -20.5887  -28.3642   23.1306 C   0  0  2  0  0  0
  -20.6798  -26.9379   22.5407 C   0  0  0  0  0  0
  -19.5767  -26.6387   21.5215 C   0  0  0  0  0  0
  -18.1938  -26.7924   22.1597 C   0  0  0  0  0  0
  -19.1545  -28.8817   23.2890 C   0  0  0  0  0  0
  -18.9474  -30.1424   23.8891 C   0  0  0  0  0  0
  -17.6475  -30.6574   24.0553 C   0  0  0  0  0  0
  -25.9051  -34.9445   23.5119 C   0  0  0  0  0  0
  -16.5351  -29.9058   23.6345 C   0  0  0  0  0  0
  -16.7284  -28.6479   23.0358 C   0  0  0  0  0  0
  -26.4499  -31.6587   25.0678 C   0  0  0  0  0  0
  -25.3749  -31.3623   26.1413 C   0  0  0  0  0  0
  -27.0386  -30.3078   24.5993 C   0  0  0  0  0  0
  -27.6049  -32.4301   25.7473 C   0  0  0  0  0  0
  -27.5567  -37.1793   24.8469 C   0  0  0  0  0  0
  -21.4162  -29.3012   22.3710 N   0  0  0  0  0  0
  -26.4285  -37.3784   23.9413 N   0  0  0  0  0  0
  -24.6759  -31.0725   22.0957 N   0  0  0  0  0  0
  -23.4205  -28.8160   23.3004 O   0  0  0  0  0  0
  -28.4072  -26.6590   20.1368 O   0  0  0  0  0  0
  -26.5611  -34.8894   22.4688 O   0  0  0  0  0  0
  -23.5374  -32.1402   23.7420 O   0  0  0  0  0  0
  -30.6253  -18.9271   20.2729 C   0  0  0  0  0  0
  -30.3590  -20.3108   20.2015 C   0  0  0  0  0  0
  -30.1717  -18.1494   21.3599 C   0  0  0  0  0  0
  -29.6160  -20.9699   21.2070 C   0  0  0  0  0  0
  -29.3054  -18.7620   22.3088 C   0  0  0  0  0  0
  -29.0179  -20.1646   22.2240 C   0  0  0  0  0  0
  -27.8759  -24.1654   20.5343 C   0  0  0  0  0  0
  -29.7801  -24.6290   19.9537 C   0  0  0  0  0  0
  -28.4372  -25.2968   19.6453 C   0  0  2  0  0  0
  -28.7580  -17.9474   23.4810 C   0  0  0  0  0  0
  -28.1498  -20.8247   23.2919 C   0  0  0  0  0  0
  -30.8221  -16.7625   21.5803 C   0  0  0  0  0  0
  -29.6861  -22.5238   21.2986 C   0  0  0  0  0  0
  -30.1114  -15.5373   21.1548 N   0  0  0  0  0  0
  -29.0732  -23.3615   20.2165 N   0  3  1  0  0  0
  -31.4540  -12.4055   19.1146 H   0  0  0  0  0  0
  -30.3084  -11.3238   19.8475 H   0  0  0  0  0  0
  -29.7241  -11.7434   17.4422 H   0  0  0  0  0  0
  -29.6441  -13.4639   17.7408 H   0  0  0  0  0  0
  -27.8362  -11.2924   18.8538 H   0  0  0  0  0  0
  -27.3503  -12.5863   17.7916 H   0  0  0  0  0  0
  -27.6820  -14.2538   19.5345 H   0  0  0  0  0  0
  -28.6780  -12.0247   21.3752 H   0  0  0  0  0  0
  -28.4576  -13.6862   21.8367 H   0  0  0  0  0  0
  -25.2752   -9.5688   22.4776 H   0  0  0  0  0  0
  -23.9988   -7.4647   22.7480 H   0  0  0  0  0  0
  -21.0866   -8.8758   19.8929 H   0  0  0  0  0  0
  -22.3718  -10.9655   19.6142 H   0  0  0  0  0  0
  -21.2002   -7.6147   23.9719 H   0  0  0  0  0  0
  -21.1472   -6.0518   25.9076 H   0  0  0  0  0  0
  -22.0602   -2.7613   23.2842 H   0  0  0  0  0  0
  -22.4082  -11.9806   22.4718 H   0  0  0  0  0  0
  -21.1077  -13.1177   22.2573 H   0  0  0  0  0  0
  -24.6620  -15.8453   20.5334 H   0  0  0  0  0  0
  -26.2809  -15.6341   20.1056 H   0  0  0  0  0  0
  -26.7099  -32.5526   23.1065 H   0  0  0  0  0  0
  -25.0130  -33.9765   25.0494 H   0  0  0  0  0  0
  -22.7023  -31.3031   21.3954 H   0  0  0  0  0  0
  -23.3773  -35.9596   23.3331 H   0  0  0  0  0  0
  -24.3599  -36.8910   22.2056 H   0  0  0  0  0  0
  -23.7220  -37.6465   23.6664 H   0  0  0  0  0  0
  -26.0535  -31.5860   20.5873 H   0  0  0  0  0  0
  -26.8289  -30.8822   21.9759 H   0  0  0  0  0  0
  -28.1042  -29.0575   21.1733 H   0  0  0  0  0  0
  -26.0132  -25.9353   19.0461 H   0  0  0  0  0  0
  -23.9711  -27.2793   19.0624 H   0  0  0  0  0  0
  -23.7449  -30.5954   19.4020 H   0  0  0  0  0  0
  -22.7466  -29.2483   19.8501 H   0  0  0  0  0  0
  -25.1289  -36.1955   25.0833 H   0  0  0  0  0  0
  -20.9979  -28.3194   24.1427 H   0  0  0  0  0  0
  -20.5794  -26.2191   23.3567 H   0  0  0  0  0  0
  -21.6644  -26.7476   22.1114 H   0  0  0  0  0  0
  -19.6949  -25.6341   21.1175 H   0  0  0  0  0  0
  -19.6730  -27.3239   20.6799 H   0  0  0  0  0  0
  -17.4231  -26.6727   21.3975 H   0  0  0  0  0  0
  -18.0273  -26.0057   22.8971 H   0  0  0  0  0  0
  -19.7948  -30.7243   24.2237 H   0  0  0  0  0  0
  -17.5027  -31.6258   24.5149 H   0  0  0  0  0  0
  -15.5340  -30.2928   23.7716 H   0  0  0  0  0  0
  -15.8696  -28.0789   22.7067 H   0  0  0  0  0  0
  -24.5934  -30.6992   25.7696 H   0  0  0  0  0  0
  -24.8921  -32.2746   26.4904 H   0  0  0  0  0  0
  -25.8088  -30.8720   27.0139 H   0  0  0  0  0  0
  -26.2935  -29.6757   24.1156 H   0  0  0  0  0  0
  -27.4401  -29.7361   25.4368 H   0  0  0  0  0  0
  -27.8628  -30.4515   23.8998 H   0  0  0  0  0  0
  -27.2693  -33.3624   26.2002 H   0  0  0  0  0  0
  -28.3884  -32.6829   25.0316 H   0  0  0  0  0  0
  -28.0674  -31.8443   26.5426 H   0  0  0  0  0  0
  -28.2548  -38.0120   24.7575 H   0  0  0  0  0  0
  -28.1089  -36.2651   24.6241 H   0  0  0  0  0  0
  -27.2275  -37.1394   25.8863 H   0  0  0  0  0  0
  -20.9335  -29.8692   21.6899 H   0  0  0  0  0  0
  -26.0177  -38.2846   24.1464 H   0  0  0  0  0  0
  -31.2804  -18.4840   19.5328 H   0  0  0  0  0  0
  -30.8244  -20.8820   19.4103 H   0  0  0  0  0  0
  -26.9484  -23.7218   20.1698 H   0  0  0  0  0  0
  -27.7990  -24.4515   21.5831 H   0  0  0  0  0  0
  -30.2534  -25.0443   20.8476 H   0  0  0  0  0  0
  -30.4785  -24.5998   19.1180 H   0  0  0  0  0  0
  -28.1755  -25.1985   18.5894 H   0  0  0  0  0  0
  -29.0838  -16.9097   23.4958 H   0  0  0  0  0  0
  -27.6693  -17.9190   23.4558 H   0  0  0  0  0  0
  -29.0645  -18.3923   24.4279 H   0  0  0  0  0  0
  -27.5830  -21.6634   22.8883 H   0  0  0  0  0  0
  -28.7733  -21.1910   24.1082 H   0  0  0  0  0  0
  -27.4063  -20.1492   23.7119 H   0  0  0  0  0  0
  -31.0779  -16.6466   22.6333 H   0  0  0  0  0  0
  -31.8035  -16.8151   21.1054 H   0  0  0  0  0  0
  -30.7558  -22.7330   21.2860 H   0  0  0  0  0  0
  -29.3666  -22.8925   22.2717 H   0  0  0  0  0  0
  -29.1523  -15.4200   21.4445 H   0  0  0  0  0  0
  -28.9599  -22.8435   19.3591 H   0  0  0  0  0  0
  1 25  1  0  0  0
  1 30  2  0  0  0
  1 84  1  0  0  0
  2  3  1  0  0  0
  2 25  1  0  0  0
  2 86  1  0  0  0
  2 87  1  0  0  0
  3  4  1  0  0  0
  3 88  1  0  0  0
  3 89  1  0  0  0
  4  5  1  0  0  0
  4 90  1  0  0  0
  4 91  1  0  0  0
  5  6  1  0  0  0
  5 26  1  0  0  0
  5 92  1  0  0  0
  6 25  1  0  0  0
  6 93  1  0  0  0
  6 94  1  0  0  0
  7  8  2  0  0  0
  7 26  1  0  0  0
  7 29  1  0  0  0
  8  9  1  0  0  0
  8 22  1  0  0  0
  9 10  1  0  0  0
  9 27  2  0  0  0
 10 11  2  0  0  0
 10 15  1  0  0  0
 11 12  1  0  0  0
 11 95  1  0  0  0
 12 13  2  0  0  0
 12 96  1  0  0  0
 13 14  1  0  0  0
 13 31  1  0  0  0
 14 15  2  0  0  0
 14 97  1  0  0  0
 15 98  1  0  0  0
 16 17  2  0  0  0
 16 21  1  0  0  0
 16 31  1  0  0  0
 17 18  1  0  0  0
 17 99  1  0  0  0
 18 19  2  0  0  0
 18100  1  0  0  0
 19 20  1  0  0  0
 19 24  1  0  0  0
 20 21  2  0  0  0
 20101  1  0  0  0
 21 23  1  0  0  0
 22 28  1  0  0  0
 22 32  2  0  0  0
 26 27  1  0  0  0
 28102  1  0  0  0
 28103  1  0  0  0
 29104  1  0  0  0
 29105  1  0  0  0
 33 34  1  0  0  0
 33 66  1  0  0  0
 33 70  2  0  0  0
 34 36  1  0  0  0
 34 59  1  0  0  0
 34106  1  0  0  0
 35 44  2  0  0  0
 35 45  1  0  0  0
 35 68  1  0  0  0
 36 56  1  0  0  0
 36107  1  0  0  0
 37 39  1  0  0  0
 37 47  1  0  0  0
 37 66  1  0  0  0
 37108  1  0  0  0
 38 43  2  0  0  0
 38 46  1  0  0  0
 38 47  1  0  0  0
 39 64  1  0  0  0
 39 67  2  0  0  0
 40 52  1  0  0  0
 40 53  2  0  0  0
 40 58  1  0  0  0
 41109  1  0  0  0
 41110  1  0  0  0
 41111  1  0  0  0
 41 48  1  0  0  0
 42 43  1  0  0  0
 42 66  1  0  0  0
 42112  1  0  0  0
 42113  1  0  0  0
 43 44  1  0  0  0
 44114  1  0  0  0
 45 46  2  0  0  0
 45115  1  0  0  0
 46116  1  0  0  0
 47117  1  0  0  0
 47118  1  0  0  0
 48 56  1  0  0  0
 48 65  1  0  0  0
 48119  1  0  0  0
 49 50  1  0  0  0
 49 53  1  0  0  0
 49 64  1  0  0  0
 49120  1  0  0  0
 50 51  1  0  0  0
 50121  1  0  0  0
 50122  1  0  0  0
 51 52  1  0  0  0
 51123  1  0  0  0
 51124  1  0  0  0
 52125  1  0  0  0
 52126  1  0  0  0
 53 54  1  0  0  0
 54 55  2  0  0  0
 54127  1  0  0  0
 55 57  1  0  0  0
 55128  1  0  0  0
 56 69  2  0  0  0
 57 58  2  0  0  0
 57129  1  0  0  0
 58130  1  0  0  0
 59 60  1  0  0  0
 59 61  1  0  0  0
 59 62  1  0  0  0
 60131  1  0  0  0
 60132  1  0  0  0
 60133  1  0  0  0
 61134  1  0  0  0
 61135  1  0  0  0
 61136  1  0  0  0
 62137  1  0  0  0
 62138  1  0  0  0
 62139  1  0  0  0
 63 65  1  0  0  0
 63140  1  0  0  0
 63141  1  0  0  0
 63142  1  0  0  0
 64143  1  0  0  0
 65144  1  0  0  0
 68 79  1  0  0  0
 71 72  2  0  0  0
 71 73  1  0  0  0
 71145  1  0  0  0
 72 74  1  0  0  0
 72146  1  0  0  0
 73 75  2  0  0  0
 73 82  1  0  0  0
 74 76  2  0  0  0
 74 83  1  0  0  0
 75 76  1  0  0  0
 75 80  1  0  0  0
 76 81  1  0  0  0
 77 79  1  0  0  0
 77 85  1  0  0  0
 77147  1  0  0  0
 77148  1  0  0  0
 78 79  1  0  0  0
 78 85  1  0  0  0
 78149  1  0  0  0
 78150  1  0  0  0
 79151  1  0  0  0
 80152  1  0  0  0
 80153  1  0  0  0
 80154  1  0  0  0
 81155  1  0  0  0
 81156  1  0  0  0
 81157  1  0  0  0
 82 84  1  0  0  0
 82158  1  0  0  0
 82159  1  0  0  0
 83160  1  0  0  0
 83161  1  0  0  0
 83 85  1  0  0  0
 84162  1  0  0  0
 85163  1  0  0  0
M  CHG  1  85   1
M  ISO  4   1 100  68 101  79 101  84 100
M  END
> <chiral flag>
0

> <version>
0

> <s_m_source_file>
/data/baiqing/PycharmProjects/Reinvent-master-3.2/result/LINK_invent/BTK/process_docking_weight1_custom_product_contain_oxygen_bond_distance_aromatic_linkinvent_7_9_3/rearranged_h_0030.sdf

> <i_m_source_file_index>
9

> <r_mmod_Potential_Energy-OPLS-2005>
-244.189468383789

> <r_mmod_Stretch_Energy-OPLS-2005>
50.0838661193848

> <r_mmod_Bend_Energy-OPLS-2005>
137.603912353516

> <r_mmod_Torsional_Energy-OPLS-2005>
227.07600402832

> <r_mmod_Improper_Torsional_Energy-OPLS-2005>
5.21552276611328

> <r_mmod_Van_der_Waal_Energy-OPLS-2005>
160.884613037109

> <r_mmod_Electrostatic_Energy-OPLS-2005>
-386.086364746094

> <r_mmod_Solvation_Energy-OPLS-2005>
-457.791961669922

> <b_mmod_Minimization_Converged-OPLS-2005>
0

> <r_mmod_RMS_Derivative-OPLS-2005>
3.56363892555237

$$$$
9
                    3D
 Structure written by MMmdl.
168177  0  0  1  0            999 V2000
  -30.7569  -14.4483   20.5990 C   0  0  0  0  0  0
  -30.4081  -12.3076   19.4165 C   0  0  0  0  0  0
  -29.4764  -12.4972   18.2051 C   0  0  0  0  0  0
  -28.0060  -12.3432   18.6317 C   0  0  0  0  0  0
  -27.6559  -13.1979   19.8759 C   0  0  2  0  0  0
  -28.7038  -13.0121   20.9975 C   0  0  0  0  0  0
  -25.2577  -13.8153   20.5703 C   0  0  0  0  0  0
  -24.1821  -13.0432   20.9221 C   0  0  0  0  0  0
  -24.6370  -11.6906   20.8774 C   0  0  0  0  0  0
  -23.9031  -10.4284   21.0412 C   0  0  0  0  0  0
  -24.3595   -9.4208   21.9190 C   0  0  0  0  0  0
  -23.6282   -8.2238   22.0755 C   0  0  0  0  0  0
  -22.4266   -8.0275   21.3537 C   0  0  0  0  0  0
  -21.9899   -9.0247   20.4639 C   0  0  0  0  0  0
  -22.7212  -10.2136   20.3055 C   0  0  0  0  0  0
  -21.6838   -6.0748   22.5277 C   0  0  0  0  0  0
  -21.4011   -6.5650   23.8217 C   0  0  0  0  0  0
  -21.3667   -5.6804   24.9182 C   0  0  0  0  0  0
  -21.6045   -4.3067   24.7231 C   0  0  0  0  0  0
  -21.8819   -3.8160   23.4346 C   0  0  0  0  0  0
  -21.9184   -4.6976   22.3399 C   0  0  0  0  0  0
  -22.7854  -13.5239   21.1871 C   0  0  0  0  0  0
  -22.1651   -4.2165   21.0980 F   0  0  0  0  0  0
  -21.5632   -3.4558   25.7753 F   0  0  0  0  0  0
  -30.0335  -13.3044   20.4340 N   0  0  0  0  0  0
  -26.2997  -12.9293   20.3432 N   0  0  0  0  0  0
  -25.9293  -11.6452   20.5826 N   0  0  0  0  0  0
  -22.0494  -12.8221   22.0429 N   0  0  0  0  0  0
  -25.4290  -15.1863   20.4098 N   0  0  0  0  0  0
  -31.8718  -14.6000   20.0914 O   0  0  0  0  0  0
  -21.6620   -6.8888   21.4245 O   0  0  0  0  0  0
  -22.3555  -14.5549   20.6737 O   0  0  0  0  0  0
  -24.6211  -31.8665   23.2138 C   0  0  0  0  0  0
  -25.9094  -32.4817   23.8448 C   0  0  1  0  0  0
  -27.2310  -27.4148   20.1023 C   0  0  0  0  0  0
  -25.5910  -33.8616   24.2342 N   0  0  0  0  0  0
  -23.4080  -30.4945   21.5519 C   0  0  2  0  0  0
  -24.8542  -28.9665   20.1122 C   0  0  0  0  0  0
  -22.7417  -29.4688   22.4989 C   0  0  0  0  0  0
  -18.0256  -28.1401   22.8545 C   0  0  0  0  0  0
  -24.1496  -36.7317   23.2653 C   0  0  0  0  0  0
  -25.9419  -30.8301   21.3700 C   0  0  0  0  0  0
  -26.0179  -29.4656   20.7112 C   0  0  0  0  0  0
  -27.2092  -28.6982   20.7002 C   0  0  0  0  0  0
  -26.0445  -26.9492   19.4820 C   0  0  0  0  0  0
  -24.8654  -27.7100   19.4893 C   0  0  0  0  0  0
  -23.6140  -29.8303   20.1661 C   0  0  0  0  0  0
  -25.4119  -36.3103   24.0334 C   0  0  1  0  0  0
  -20.5854  -28.3718   23.1323 C   0  0  2  0  0  0
  -20.6742  -26.9461   22.5439 C   0  0  0  0  0  0
  -19.5704  -26.6423   21.5246 C   0  0  0  0  0  0
  -18.1884  -26.7959   22.1659 C   0  0  0  0  0  0
  -19.1518  -28.8870   23.2926 C   0  0  0  0  0  0
  -18.9451  -30.1458   23.8960 C   0  0  0  0  0  0
  -17.6464  -30.6624   24.0594 C   0  0  0  0  0  0
  -25.9047  -34.9466   23.5135 C   0  0  0  0  0  0
  -16.5340  -29.9140   23.6344 C   0  0  0  0  0  0
  -16.7248  -28.6527   23.0416 C   0  0  0  0  0  0
  -26.4522  -31.6587   25.0776 C   0  0  0  0  0  0
  -25.3796  -31.3649   26.1501 C   0  0  0  0  0  0
  -27.0332  -30.3006   24.6175 C   0  0  0  0  0  0
  -27.6101  -32.4289   25.7552 C   0  0  0  0  0  0
  -27.5574  -37.1801   24.8479 C   0  0  0  0  0  0
  -21.4139  -29.3056   22.3701 N   0  0  0  0  0  0
  -26.4300  -37.3787   23.9420 N   0  0  0  0  0  0
  -24.6748  -31.0774   22.1028 N   0  0  0  0  0  0
  -23.4180  -28.8207   23.3023 O   0  0  0  0  0  0
  -28.3834  -26.6442   20.1535 O   0  0  0  0  0  0
  -26.5652  -34.8924   22.4719 O   0  0  0  0  0  0
  -23.5390  -32.1429   23.7516 O   0  0  0  0  0  0
  -28.8318  -18.6964   21.7156 C   0  0  0  0  0  0
  -29.5259  -17.8418   20.8334 C   0  0  0  0  0  0
  -30.4531  -18.4159   19.9189 C   0  0  0  0  0  0
  -30.6883  -19.8248   19.9298 C   0  0  0  0  0  0
  -29.9529  -20.6809   20.8005 C   0  0  0  0  0  0
  -29.0147  -20.0936   21.6921 C   0  0  0  0  0  0
  -29.7224  -24.1748   21.8071 C   0  0  0  0  0  0
  -30.5368  -22.8671   21.8820 C   0  0  0  0  0  0
  -29.1654  -22.8439   19.9489 C   0  0  0  0  0  0
  -29.4039  -24.3212   20.3145 C   0  0  1  0  0  0
  -31.1887  -17.5260   18.9174 C   0  0  0  0  0  0
  -31.7365  -20.4214   18.9875 C   0  0  0  0  0  0
  -31.0856  -15.9745   22.4469 C   0  0  0  0  0  0
  -29.1955  -16.3326   20.8740 C   0  0  0  0  0  0
  -28.2060  -25.2285   19.9427 C   0  0  0  0  0  0
  -30.1464  -22.0828   20.7136 N   0  0  0  0  0  0
  -30.2359  -15.4152   21.3918 N   0  0  0  0  0  0
  -28.0265  -21.0485   22.7466 Cl  0  0  0  0  0  0
  -31.4496  -12.3912   19.1038 H   0  0  0  0  0  0
  -30.3045  -11.3021   19.8277 H   0  0  0  0  0  0
  -29.7170  -11.7699   17.4290 H   0  0  0  0  0  0
  -29.6307  -13.4826   17.7622 H   0  0  0  0  0  0
  -27.8341  -11.2882   18.8498 H   0  0  0  0  0  0
  -27.3436  -12.5960   17.8039 H   0  0  0  0  0  0
  -27.6841  -14.2351   19.5538 H   0  0  0  0  0  0
  -28.6876  -11.9883   21.3749 H   0  0  0  0  0  0
  -28.4672  -13.6425   21.8543 H   0  0  0  0  0  0
  -25.2724   -9.5716   22.4775 H   0  0  0  0  0  0
  -24.0002   -7.4649   22.7490 H   0  0  0  0  0  0
  -21.0837   -8.8777   19.8944 H   0  0  0  0  0  0
  -22.3660  -10.9693   19.6189 H   0  0  0  0  0  0
  -21.2002   -7.6155   23.9728 H   0  0  0  0  0  0
  -21.1486   -6.0531   25.9090 H   0  0  0  0  0  0
  -22.0585   -2.7623   23.2844 H   0  0  0  0  0  0
  -22.4089  -11.9844   22.4749 H   0  0  0  0  0  0
  -21.1131  -13.1270   22.2690 H   0  0  0  0  0  0
  -24.6643  -15.8414   20.5278 H   0  0  0  0  0  0
  -26.2775  -15.6260   20.0812 H   0  0  0  0  0  0
  -26.7173  -32.5532   23.1218 H   0  0  0  0  0  0
  -24.9908  -33.9777   25.0371 H   0  0  0  0  0  0
  -22.6997  -31.3137   21.4118 H   0  0  0  0  0  0
  -23.3761  -35.9633   23.3288 H   0  0  0  0  0  0
  -24.3597  -36.9000   22.2071 H   0  0  0  0  0  0
  -23.7233  -37.6497   23.6720 H   0  0  0  0  0  0
  -26.0646  -31.6012   20.6079 H   0  0  0  0  0  0
  -26.8263  -30.8738   21.9942 H   0  0  0  0  0  0
  -28.1079  -29.0761   21.1672 H   0  0  0  0  0  0
  -25.9878  -25.9909   18.9884 H   0  0  0  0  0  0
  -23.9755  -27.3155   19.0164 H   0  0  0  0  0  0
  -23.7170  -30.6042   19.4055 H   0  0  0  0  0  0
  -22.7388  -29.2453   19.8776 H   0  0  0  0  0  0
  -25.1287  -36.1959   25.0820 H   0  0  0  0  0  0
  -20.9940  -28.3337   24.1454 H   0  0  0  0  0  0
  -20.5666  -26.2348   23.3638 H   0  0  0  0  0  0
  -21.6611  -26.7518   22.1222 H   0  0  0  0  0  0
  -19.6880  -25.6341   21.1258 H   0  0  0  0  0  0
  -19.6622  -27.3254   20.6797 H   0  0  0  0  0  0
  -17.4153  -26.6746   21.4064 H   0  0  0  0  0  0
  -18.0274  -26.0084   22.9045 H   0  0  0  0  0  0
  -19.7921  -30.7245   24.2381 H   0  0  0  0  0  0
  -17.5031  -31.6327   24.5172 H   0  0  0  0  0  0
  -15.5344  -30.3087   23.7608 H   0  0  0  0  0  0
  -15.8641  -28.0827   22.7184 H   0  0  0  0  0  0
  -24.5981  -30.7008   25.7804 H   0  0  0  0  0  0
  -24.8983  -32.2776   26.5008 H   0  0  0  0  0  0
  -25.8152  -30.8760   27.0223 H   0  0  0  0  0  0
  -26.2858  -29.6755   24.1268 H   0  0  0  0  0  0
  -27.4102  -29.7254   25.4648 H   0  0  0  0  0  0
  -27.8732  -30.4282   23.9340 H   0  0  0  0  0  0
  -27.2759  -33.3615   26.2115 H   0  0  0  0  0  0
  -28.3949  -32.6778   25.0399 H   0  0  0  0  0  0
  -28.0743  -31.8414   26.5491 H   0  0  0  0  0  0
  -28.2571  -38.0107   24.7532 H   0  0  0  0  0  0
  -28.1075  -36.2637   24.6296 H   0  0  0  0  0  0
  -27.2300  -37.1471   25.8882 H   0  0  0  0  0  0
  -20.9306  -29.8754   21.6896 H   0  0  0  0  0  0
  -26.0184  -38.2858   24.1424 H   0  0  0  0  0  0
  -28.1150  -18.2813   22.4111 H   0  0  0  0  0  0
  -30.2670  -25.0300   22.2092 H   0  0  0  0  0  0
  -28.8005  -24.0616   22.3814 H   0  0  0  0  0  0
  -30.3960  -22.3466   22.8289 H   0  0  0  0  0  0
  -31.6010  -23.0854   21.7986 H   0  0  0  0  0  0
  -29.2604  -22.6657   18.8772 H   0  0  0  0  0  0
  -28.1599  -22.5398   20.2442 H   0  0  0  0  0  0
  -30.2951  -24.6799   19.7955 H   0  0  0  0  0  0
  -30.5877  -16.6754   18.6017 H   0  0  0  0  0  0
  -32.1105  -17.1488   19.3584 H   0  0  0  0  0  0
  -31.4493  -18.0487   17.9971 H   0  0  0  0  0  0
  -32.6157  -19.7789   18.9206 H   0  0  0  0  0  0
  -32.1047  -21.3922   19.3185 H   0  0  0  0  0  0
  -31.3162  -20.5473   17.9891 H   0  0  0  0  0  0
  -30.4826  -16.4523   23.2187 H   0  0  0  0  0  0
  -31.7793  -16.7120   22.0402 H   0  0  0  0  0  0
  -31.6775  -15.1951   22.9310 H   0  0  0  0  0  0
  -28.8865  -16.0437   19.8692 H   0  0  0  0  0  0
  -28.3074  -16.1713   21.4873 H   0  0  0  0  0  0
  -27.3386  -24.8702   20.4994 H   0  0  0  0  0  0
  -28.0000  -25.0760   18.8821 H   0  0  0  0  0  0
  1 25  1  0  0  0
  1 30  2  0  0  0
  1 87  1  0  0  0
  2  3  1  0  0  0
  2 25  1  0  0  0
  2 89  1  0  0  0
  2 90  1  0  0  0
  3  4  1  0  0  0
  3 91  1  0  0  0
  3 92  1  0  0  0
  4  5  1  0  0  0
  4 93  1  0  0  0
  4 94  1  0  0  0
  5  6  1  0  0  0
  5 26  1  0  0  0
  5 95  1  0  0  0
  6 25  1  0  0  0
  6 96  1  0  0  0
  6 97  1  0  0  0
  7  8  2  0  0  0
  7 26  1  0  0  0
  7 29  1  0  0  0
  8  9  1  0  0  0
  8 22  1  0  0  0
  9 10  1  0  0  0
  9 27  2  0  0  0
 10 11  2  0  0  0
 10 15  1  0  0  0
 11 12  1  0  0  0
 11 98  1  0  0  0
 12 13  2  0  0  0
 12 99  1  0  0  0
 13 14  1  0  0  0
 13 31  1  0  0  0
 14 15  2  0  0  0
 14100  1  0  0  0
 15101  1  0  0  0
 16 17  2  0  0  0
 16 21  1  0  0  0
 16 31  1  0  0  0
 17 18  1  0  0  0
 17102  1  0  0  0
 18 19  2  0  0  0
 18103  1  0  0  0
 19 20  1  0  0  0
 19 24  1  0  0  0
 20 21  2  0  0  0
 20104  1  0  0  0
 21 23  1  0  0  0
 22 28  1  0  0  0
 22 32  2  0  0  0
 26 27  1  0  0  0
 28105  1  0  0  0
 28106  1  0  0  0
 29107  1  0  0  0
 29108  1  0  0  0
 33 34  1  0  0  0
 33 66  1  0  0  0
 33 70  2  0  0  0
 34 36  1  0  0  0
 34 59  1  0  0  0
 34109  1  0  0  0
 35 44  2  0  0  0
 35 45  1  0  0  0
 35 68  1  0  0  0
 36 56  1  0  0  0
 36110  1  0  0  0
 37 39  1  0  0  0
 37 47  1  0  0  0
 37 66  1  0  0  0
 37111  1  0  0  0
 38 43  2  0  0  0
 38 46  1  0  0  0
 38 47  1  0  0  0
 39 64  1  0  0  0
 39 67  2  0  0  0
 40 52  1  0  0  0
 40 53  2  0  0  0
 40 58  1  0  0  0
 41112  1  0  0  0
 41113  1  0  0  0
 41114  1  0  0  0
 41 48  1  0  0  0
 42 43  1  0  0  0
 42 66  1  0  0  0
 42115  1  0  0  0
 42116  1  0  0  0
 43 44  1  0  0  0
 44117  1  0  0  0
 45 46  2  0  0  0
 45118  1  0  0  0
 46119  1  0  0  0
 47120  1  0  0  0
 47121  1  0  0  0
 48 56  1  0  0  0
 48 65  1  0  0  0
 48122  1  0  0  0
 49 50  1  0  0  0
 49 53  1  0  0  0
 49 64  1  0  0  0
 49123  1  0  0  0
 50 51  1  0  0  0
 50124  1  0  0  0
 50125  1  0  0  0
 51 52  1  0  0  0
 51126  1  0  0  0
 51127  1  0  0  0
 52128  1  0  0  0
 52129  1  0  0  0
 53 54  1  0  0  0
 54 55  2  0  0  0
 54130  1  0  0  0
 55 57  1  0  0  0
 55131  1  0  0  0
 56 69  2  0  0  0
 57 58  2  0  0  0
 57132  1  0  0  0
 58133  1  0  0  0
 59 60  1  0  0  0
 59 61  1  0  0  0
 59 62  1  0  0  0
 60134  1  0  0  0
 60135  1  0  0  0
 60136  1  0  0  0
 61137  1  0  0  0
 61138  1  0  0  0
 61139  1  0  0  0
 62140  1  0  0  0
 62141  1  0  0  0
 62142  1  0  0  0
 63 65  1  0  0  0
 63143  1  0  0  0
 63144  1  0  0  0
 63145  1  0  0  0
 64146  1  0  0  0
 65147  1  0  0  0
 68 85  1  0  0  0
 71 72  2  0  0  0
 71 76  1  0  0  0
 71148  1  0  0  0
 72 73  1  0  0  0
 72 84  1  0  0  0
 73 74  2  0  0  0
 73 81  1  0  0  0
 74 75  1  0  0  0
 74 82  1  0  0  0
 75 76  2  0  0  0
 75 86  1  0  0  0
 76 88  1  0  0  0
 77 78  1  0  0  0
 77 80  1  0  0  0
 77149  1  0  0  0
 77150  1  0  0  0
 78 86  1  0  0  0
 78151  1  0  0  0
 78152  1  0  0  0
 79 80  1  0  0  0
 79 86  1  0  0  0
 79153  1  0  0  0
 79154  1  0  0  0
 80 85  1  0  0  0
 80155  1  0  0  0
 81156  1  0  0  0
 81157  1  0  0  0
 81158  1  0  0  0
 82159  1  0  0  0
 82160  1  0  0  0
 82161  1  0  0  0
 83 87  1  0  0  0
 83162  1  0  0  0
 83163  1  0  0  0
 83164  1  0  0  0
 84 87  1  0  0  0
 84165  1  0  0  0
 84166  1  0  0  0
 85167  1  0  0  0
 85168  1  0  0  0
M  ISO  4   1 100  68 101  85 101  87 100
M  END
> <chiral flag>
0

> <version>
0

> <s_m_source_file>
/data/baiqing/PycharmProjects/Reinvent-master-3.2/result/LINK_invent/BTK/process_docking_weight1_custom_product_contain_oxygen_bond_distance_aromatic_linkinvent_7_9_3/rearranged_h_0030.sdf

> <i_m_source_file_index>
10

> <r_mmod_Potential_Energy-OPLS-2005>
219.09846496582

> <r_mmod_Stretch_Energy-OPLS-2005>
45.2558746337891

> <r_mmod_Bend_Energy-OPLS-2005>
142.609909057617

> <r_mmod_Torsional_Energy-OPLS-2005>
342.879821777344

> <r_mmod_Improper_Torsional_Energy-OPLS-2005>
7.96279954910278

> <r_mmod_Van_der_Waal_Energy-OPLS-2005>
160.283981323242

> <r_mmod_Electrostatic_Energy-OPLS-2005>
-298.460693359375

> <r_mmod_Solvation_Energy-OPLS-2005>
-197.159286499023

> <b_mmod_Minimization_Converged-OPLS-2005>
0

> <r_mmod_RMS_Derivative-OPLS-2005>
3.69332599639893

$$$$
10
                    3D
 Structure written by MMmdl.
167176  0  0  1  0            999 V2000
  -30.7000  -14.5777   20.4623 C   0  0  0  0  0  0
  -30.4287  -12.3456   19.4373 C   0  0  0  0  0  0
  -29.4939  -12.4496   18.2146 C   0  0  0  0  0  0
  -28.0190  -12.2975   18.6422 C   0  0  0  0  0  0
  -27.6432  -13.1859   19.8569 C   0  0  2  0  0  0
  -28.7061  -13.0982   20.9779 C   0  0  0  0  0  0
  -25.2587  -13.8070   20.5749 C   0  0  0  0  0  0
  -24.1822  -13.0381   20.9228 C   0  0  0  0  0  0
  -24.6360  -11.6850   20.8794 C   0  0  0  0  0  0
  -23.9023  -10.4267   21.0446 C   0  0  0  0  0  0
  -24.3588   -9.4182   21.9211 C   0  0  0  0  0  0
  -23.6273   -8.2218   22.0765 C   0  0  0  0  0  0
  -22.4257   -8.0267   21.3550 C   0  0  0  0  0  0
  -21.9893   -9.0247   20.4655 C   0  0  0  0  0  0
  -22.7210  -10.2128   20.3084 C   0  0  0  0  0  0
  -21.6846   -6.0727   22.5287 C   0  0  0  0  0  0
  -21.4007   -6.5635   23.8215 C   0  0  0  0  0  0
  -21.3659   -5.6794   24.9181 C   0  0  0  0  0  0
  -21.6045   -4.3056   24.7236 C   0  0  0  0  0  0
  -21.8818   -3.8143   23.4361 C   0  0  0  0  0  0
  -21.9190   -4.6955   22.3413 C   0  0  0  0  0  0
  -22.7853  -13.5218   21.1851 C   0  0  0  0  0  0
  -22.1654   -4.2137   21.0987 F   0  0  0  0  0  0
  -21.5640   -3.4542   25.7744 F   0  0  0  0  0  0
  -30.0189  -13.3941   20.3845 N   0  0  0  0  0  0
  -26.2964  -12.9172   20.3398 N   0  0  0  0  0  0
  -25.9281  -11.6372   20.5866 N   0  0  0  0  0  0
  -22.0472  -12.8240   22.0412 N   0  0  0  0  0  0
  -25.4315  -15.1791   20.4149 N   0  0  0  0  0  0
  -31.9026  -14.6576   20.1991 O   0  0  0  0  0  0
  -21.6631   -6.8866   21.4244 O   0  0  0  0  0  0
  -22.3557  -14.5521   20.6675 O   0  0  0  0  0  0
  -24.6195  -31.8650   23.2088 C   0  0  0  0  0  0
  -25.9074  -32.4808   23.8387 C   0  0  1  0  0  0
  -27.2280  -27.3894   20.0978 C   0  0  0  0  0  0
  -25.5921  -33.8608   24.2320 N   0  0  0  0  0  0
  -23.4088  -30.4908   21.5510 C   0  0  2  0  0  0
  -24.8548  -28.9609   20.1099 C   0  0  0  0  0  0
  -22.7436  -29.4646   22.4972 C   0  0  0  0  0  0
  -18.0275  -28.1375   22.8485 C   0  0  0  0  0  0
  -24.1488  -36.7307   23.2632 C   0  0  0  0  0  0
  -25.9441  -30.8190   21.3682 C   0  0  0  0  0  0
  -26.0206  -29.4528   20.7100 C   0  0  0  0  0  0
  -27.2106  -28.6774   20.6980 C   0  0  0  0  0  0
  -26.0433  -26.9456   19.4610 C   0  0  0  0  0  0
  -24.8644  -27.7087   19.4804 C   0  0  0  0  0  0
  -23.6184  -29.8296   20.1640 C   0  0  0  0  0  0
  -25.4105  -36.3099   24.0334 C   0  0  1  0  0  0
  -20.5871  -28.3671   23.1303 C   0  0  2  0  0  0
  -20.6765  -26.9403   22.5417 C   0  0  0  0  0  0
  -19.5748  -26.6382   21.5207 C   0  0  0  0  0  0
  -18.1923  -26.7922   22.1612 C   0  0  0  0  0  0
  -19.1528  -28.8838   23.2890 C   0  0  0  0  0  0
  -18.9453  -30.1441   23.8907 C   0  0  0  0  0  0
  -17.6457  -30.6582   24.0564 C   0  0  0  0  0  0
  -25.9042  -34.9466   23.5121 C   0  0  0  0  0  0
  -16.5346  -29.9084   23.6331 C   0  0  0  0  0  0
  -16.7265  -28.6500   23.0352 C   0  0  0  0  0  0
  -26.4495  -31.6590   25.0720 C   0  0  0  0  0  0
  -25.3767  -31.3713   26.1476 C   0  0  0  0  0  0
  -27.0313  -30.3019   24.6112 C   0  0  0  0  0  0
  -27.6074  -32.4307   25.7476 C   0  0  0  0  0  0
  -27.5592  -37.1781   24.8450 C   0  0  0  0  0  0
  -21.4160  -29.3035   22.3708 N   0  0  0  0  0  0
  -26.4281  -37.3796   23.9432 N   0  0  0  0  0  0
  -24.6762  -31.0723   22.1008 N   0  0  0  0  0  0
  -23.4190  -28.8180   23.3019 O   0  0  0  0  0  0
  -28.3593  -26.5756   20.1671 O   0  0  0  0  0  0
  -26.5602  -34.8924   22.4680 O   0  0  0  0  0  0
  -23.5377  -32.1416   23.7464 O   0  0  0  0  0  0
  -31.8688  -19.7501   19.5988 C   0  0  0  0  0  0
  -31.5663  -18.4603   20.0677 C   0  0  0  0  0  0
  -31.2182  -20.8739   20.1383 C   0  0  0  0  0  0
  -30.5611  -18.2542   21.0367 C   0  0  0  0  0  0
  -30.2185  -20.7307   21.1246 C   0  0  0  0  0  0
  -29.8456  -19.3994   21.5280 C   0  0  0  0  0  0
  -27.5452  -23.3691   21.8795 C   0  0  0  0  0  0
  -26.8381  -22.6538   22.7725 C   0  0  0  0  0  0
  -27.2441  -24.7983   21.4794 C   0  0  0  0  0  0
  -29.3260  -24.1832   20.5216 C   0  0  0  0  0  0
  -28.1249  -25.1332   20.2725 C   0  0  2  0  0  0
  -28.6854  -19.2012   22.4918 C   0  0  0  0  0  0
  -29.1715  -16.1959   19.4730 C   0  0  0  0  0  0
  -30.3688  -16.7987   21.5669 C   0  0  0  0  0  0
  -29.7283  -22.0309   21.8309 C   0  0  0  0  0  0
  -29.9655  -15.7202   20.6183 N   0  0  0  0  0  0
  -28.7527  -22.9197   21.1021 N   0  3  2  0  0  0
  -31.4709  -12.4478   19.1270 H   0  0  0  0  0  0
  -30.3500  -11.3636   19.9071 H   0  0  0  0  0  0
  -29.7482  -11.6789   17.4854 H   0  0  0  0  0  0
  -29.6408  -13.4043   17.7094 H   0  0  0  0  0  0
  -27.8574  -11.2489   18.8952 H   0  0  0  0  0  0
  -27.3569  -12.5062   17.8015 H   0  0  0  0  0  0
  -27.6129  -14.1975   19.4790 H   0  0  0  0  0  0
  -28.7174  -12.1022   21.4225 H   0  0  0  0  0  0
  -28.4756  -13.7909   21.7883 H   0  0  0  0  0  0
  -25.2732   -9.5662   22.4777 H   0  0  0  0  0  0
  -23.9983   -7.4608   22.7485 H   0  0  0  0  0  0
  -21.0830   -8.8782   19.8953 H   0  0  0  0  0  0
  -22.3685  -10.9683   19.6203 H   0  0  0  0  0  0
  -21.1994   -7.6139   23.9718 H   0  0  0  0  0  0
  -21.1477   -6.0524   25.9084 H   0  0  0  0  0  0
  -22.0595   -2.7603   23.2876 H   0  0  0  0  0  0
  -22.4069  -11.9891   22.4799 H   0  0  0  0  0  0
  -21.1106  -13.1306   22.2630 H   0  0  0  0  0  0
  -24.6673  -15.8364   20.5246 H   0  0  0  0  0  0
  -26.2922  -15.6137   20.1102 H   0  0  0  0  0  0
  -26.7143  -32.5508   23.1146 H   0  0  0  0  0  0
  -25.0096  -33.9770   25.0482 H   0  0  0  0  0  0
  -22.6993  -31.3094   21.4133 H   0  0  0  0  0  0
  -23.3756  -35.9631   23.3266 H   0  0  0  0  0  0
  -24.3598  -36.8951   22.2054 H   0  0  0  0  0  0
  -23.7223  -37.6495   23.6666 H   0  0  0  0  0  0
  -26.0609  -31.5861   20.6012 H   0  0  0  0  0  0
  -26.8294  -30.8703   21.9896 H   0  0  0  0  0  0
  -28.1042  -29.0488   21.1802 H   0  0  0  0  0  0
  -25.9931  -25.9971   18.9493 H   0  0  0  0  0  0
  -23.9709  -27.3302   19.0033 H   0  0  0  0  0  0
  -23.7279  -30.6077   19.4076 H   0  0  0  0  0  0
  -22.7417  -29.2522   19.8654 H   0  0  0  0  0  0
  -25.1271  -36.1950   25.0823 H   0  0  0  0  0  0
  -20.9955  -28.3238   24.1426 H   0  0  0  0  0  0
  -20.5651  -26.2283   23.3609 H   0  0  0  0  0  0
  -21.6637  -26.7430   22.1221 H   0  0  0  0  0  0
  -19.6911  -25.6294   21.1233 H   0  0  0  0  0  0
  -19.6694  -27.3198   20.6741 H   0  0  0  0  0  0
  -17.4198  -26.6679   21.4010 H   0  0  0  0  0  0
  -18.0317  -26.0054   22.8996 H   0  0  0  0  0  0
  -19.7931  -30.7246   24.2287 H   0  0  0  0  0  0
  -17.5017  -31.6265   24.5158 H   0  0  0  0  0  0
  -15.5352  -30.2991   23.7646 H   0  0  0  0  0  0
  -15.8662  -28.0821   22.7069 H   0  0  0  0  0  0
  -24.5948  -30.7040   25.7834 H   0  0  0  0  0  0
  -24.8957  -32.2877   26.4905 H   0  0  0  0  0  0
  -25.8134  -30.8913   27.0244 H   0  0  0  0  0  0
  -26.2848  -29.6775   24.1189 H   0  0  0  0  0  0
  -27.4093  -29.7261   25.4571 H   0  0  0  0  0  0
  -27.8691  -30.4316   23.9254 H   0  0  0  0  0  0
  -27.2696  -33.3596   26.2082 H   0  0  0  0  0  0
  -28.3869  -32.6880   25.0291 H   0  0  0  0  0  0
  -28.0764  -31.8415   26.5368 H   0  0  0  0  0  0
  -28.2557  -38.0131   24.7580 H   0  0  0  0  0  0
  -28.1138  -36.2668   24.6154 H   0  0  0  0  0  0
  -27.2335  -37.1285   25.8855 H   0  0  0  0  0  0
  -20.9317  -29.8787   21.6958 H   0  0  0  0  0  0
  -26.0161  -38.2855   24.1503 H   0  0  0  0  0  0
  -32.6428  -19.8824   18.8550 H   0  0  0  0  0  0
  -32.1186  -17.6141   19.6801 H   0  0  0  0  0  0
  -31.5298  -21.8577   19.8139 H   0  0  0  0  0  0
  -25.9839  -23.1017   23.2601 H   0  0  0  0  0  0
  -27.0728  -21.6445   23.0570 H   0  0  0  0  0  0
  -27.4878  -25.4470   22.3218 H   0  0  0  0  0  0
  -26.1824  -24.9207   21.2637 H   0  0  0  0  0  0
  -29.9967  -24.6513   21.2432 H   0  0  0  0  0  0
  -29.8996  -23.9919   19.6148 H   0  0  0  0  0  0
  -27.6545  -24.7698   19.3595 H   0  0  0  0  0  0
  -28.1958  -18.2354   22.3744 H   0  0  0  0  0  0
  -27.9030  -19.9192   22.2729 H   0  0  0  0  0  0
  -29.0024  -19.3156   23.5285 H   0  0  0  0  0  0
  -29.1293  -15.4697   18.6612 H   0  0  0  0  0  0
  -29.5765  -17.0913   19.0073 H   0  0  0  0  0  0
  -28.1539  -16.4222   19.7890 H   0  0  0  0  0  0
  -29.6835  -16.7564   22.4091 H   0  0  0  0  0  0
  -31.3263  -16.5274   22.0173 H   0  0  0  0  0  0
  -30.6140  -22.6172   22.0750 H   0  0  0  0  0  0
  -29.3431  -21.7651   22.8126 H   0  0  0  0  0  0
  -28.4250  -22.3618   20.3258 H   0  0  0  0  0  0
  1 25  1  0  0  0
  1 30  2  0  0  0
  1 86  1  0  0  0
  2  3  1  0  0  0
  2 25  1  0  0  0
  2 88  1  0  0  0
  2 89  1  0  0  0
  3  4  1  0  0  0
  3 90  1  0  0  0
  3 91  1  0  0  0
  4  5  1  0  0  0
  4 92  1  0  0  0
  4 93  1  0  0  0
  5  6  1  0  0  0
  5 26  1  0  0  0
  5 94  1  0  0  0
  6 25  1  0  0  0
  6 95  1  0  0  0
  6 96  1  0  0  0
  7  8  2  0  0  0
  7 26  1  0  0  0
  7 29  1  0  0  0
  8  9  1  0  0  0
  8 22  1  0  0  0
  9 10  1  0  0  0
  9 27  2  0  0  0
 10 11  2  0  0  0
 10 15  1  0  0  0
 11 12  1  0  0  0
 11 97  1  0  0  0
 12 13  2  0  0  0
 12 98  1  0  0  0
 13 14  1  0  0  0
 13 31  1  0  0  0
 14 15  2  0  0  0
 14 99  1  0  0  0
 15100  1  0  0  0
 16 17  2  0  0  0
 16 21  1  0  0  0
 16 31  1  0  0  0
 17 18  1  0  0  0
 17101  1  0  0  0
 18 19  2  0  0  0
 18102  1  0  0  0
 19 20  1  0  0  0
 19 24  1  0  0  0
 20 21  2  0  0  0
 20103  1  0  0  0
 21 23  1  0  0  0
 22 28  1  0  0  0
 22 32  2  0  0  0
 26 27  1  0  0  0
 28104  1  0  0  0
 28105  1  0  0  0
 29106  1  0  0  0
 29107  1  0  0  0
 33 34  1  0  0  0
 33 66  1  0  0  0
 33 70  2  0  0  0
 34 36  1  0  0  0
 34 59  1  0  0  0
 34108  1  0  0  0
 35 44  2  0  0  0
 35 45  1  0  0  0
 35 68  1  0  0  0
 36 56  1  0  0  0
 36109  1  0  0  0
 37 39  1  0  0  0
 37 47  1  0  0  0
 37 66  1  0  0  0
 37110  1  0  0  0
 38 43  2  0  0  0
 38 46  1  0  0  0
 38 47  1  0  0  0
 39 64  1  0  0  0
 39 67  2  0  0  0
 40 52  1  0  0  0
 40 53  2  0  0  0
 40 58  1  0  0  0
 41111  1  0  0  0
 41112  1  0  0  0
 41113  1  0  0  0
 41 48  1  0  0  0
 42 43  1  0  0  0
 42 66  1  0  0  0
 42114  1  0  0  0
 42115  1  0  0  0
 43 44  1  0  0  0
 44116  1  0  0  0
 45 46  2  0  0  0
 45117  1  0  0  0
 46118  1  0  0  0
 47119  1  0  0  0
 47120  1  0  0  0
 48 56  1  0  0  0
 48 65  1  0  0  0
 48121  1  0  0  0
 49 50  1  0  0  0
 49 53  1  0  0  0
 49 64  1  0  0  0
 49122  1  0  0  0
 50 51  1  0  0  0
 50123  1  0  0  0
 50124  1  0  0  0
 51 52  1  0  0  0
 51125  1  0  0  0
 51126  1  0  0  0
 52127  1  0  0  0
 52128  1  0  0  0
 53 54  1  0  0  0
 54 55  2  0  0  0
 54129  1  0  0  0
 55 57  1  0  0  0
 55130  1  0  0  0
 56 69  2  0  0  0
 57 58  2  0  0  0
 57131  1  0  0  0
 58132  1  0  0  0
 59 60  1  0  0  0
 59 61  1  0  0  0
 59 62  1  0  0  0
 60133  1  0  0  0
 60134  1  0  0  0
 60135  1  0  0  0
 61136  1  0  0  0
 61137  1  0  0  0
 61138  1  0  0  0
 62139  1  0  0  0
 62140  1  0  0  0
 62141  1  0  0  0
 63 65  1  0  0  0
 63142  1  0  0  0
 63143  1  0  0  0
 63144  1  0  0  0
 64145  1  0  0  0
 65146  1  0  0  0
 68 81  1  0  0  0
 71 72  2  0  0  0
 71 73  1  0  0  0
 71147  1  0  0  0
 72 74  1  0  0  0
 72148  1  0  0  0
 73 75  2  0  0  0
 73149  1  0  0  0
 74 76  2  0  0  0
 74 84  1  0  0  0
 75 76  1  0  0  0
 75 85  1  0  0  0
 76 82  1  0  0  0
 77 78  2  0  0  0
 77 79  1  0  0  0
 77 87  1  0  0  0
 78150  1  0  0  0
 78151  1  0  0  0
 79 81  1  0  0  0
 79152  1  0  0  0
 79153  1  0  0  0
 80 81  1  0  0  0
 80 87  1  0  0  0
 80154  1  0  0  0
 80155  1  0  0  0
 81156  1  0  0  0
 82157  1  0  0  0
 82158  1  0  0  0
 82159  1  0  0  0
 83 86  1  0  0  0
 83160  1  0  0  0
 83161  1  0  0  0
 83162  1  0  0  0
 84 86  1  0  0  0
 84163  1  0  0  0
 84164  1  0  0  0
 85165  1  0  0  0
 85166  1  0  0  0
 85 87  1  0  0  0
 87167  1  0  0  0
M  CHG  1  87   1
M  ISO  4   1 100  68 101  81 101  86 100
M  END
> <chiral flag>
0

> <version>
0

> <s_m_source_file>
/data/baiqing/PycharmProjects/Reinvent-master-3.2/result/LINK_invent/BTK/process_docking_weight1_custom_product_contain_oxygen_bond_distance_aromatic_linkinvent_7_9_3/rearranged_h_0030.sdf

> <i_m_source_file_index>
11

> <r_mmod_Potential_Energy-OPLS-2005>
95.7223281860352

> <r_mmod_Stretch_Energy-OPLS-2005>
61.2147979736328

> <r_mmod_Bend_Energy-OPLS-2005>
154.126937866211

> <r_mmod_Torsional_Energy-OPLS-2005>
311.473846435547

> <r_mmod_Improper_Torsional_Energy-OPLS-2005>
7.47601795196533

> <r_mmod_Van_der_Waal_Energy-OPLS-2005>
160.533645629883

> <r_mmod_Electrostatic_Energy-OPLS-2005>
-225.76985168457

> <r_mmod_Solvation_Energy-OPLS-2005>
-410.514526367188

> <b_mmod_Minimization_Converged-OPLS-2005>
0

> <r_mmod_RMS_Derivative-OPLS-2005>
1.58734011650085

$$$$
11
                    3D
 Structure written by MMmdl.
167176  0  0  1  0            999 V2000
  -30.7109  -14.5039   20.6370 C   0  0  0  0  0  0
  -30.4271  -12.3483   19.4318 C   0  0  0  0  0  0
  -29.4960  -12.5146   18.2148 C   0  0  0  0  0  0
  -28.0180  -12.3632   18.6309 C   0  0  0  0  0  0
  -27.6629  -13.2102   19.8821 C   0  0  2  0  0  0
  -28.7051  -13.0057   21.0044 C   0  0  0  0  0  0
  -25.2597  -13.8165   20.5710 C   0  0  0  0  0  0
  -24.1832  -13.0453   20.9211 C   0  0  0  0  0  0
  -24.6373  -11.6910   20.8757 C   0  0  0  0  0  0
  -23.9015  -10.4310   21.0414 C   0  0  0  0  0  0
  -24.3584   -9.4226   21.9193 C   0  0  0  0  0  0
  -23.6280   -8.2252   22.0747 C   0  0  0  0  0  0
  -22.4261   -8.0277   21.3528 C   0  0  0  0  0  0
  -21.9887   -9.0243   20.4635 C   0  0  0  0  0  0
  -22.7195  -10.2145   20.3044 C   0  0  0  0  0  0
  -21.6855   -6.0722   22.5281 C   0  0  0  0  0  0
  -21.3998   -6.5614   23.8221 C   0  0  0  0  0  0
  -21.3658   -5.6758   24.9183 C   0  0  0  0  0  0
  -21.6059   -4.3029   24.7228 C   0  0  0  0  0  0
  -21.8810   -3.8128   23.4339 C   0  0  0  0  0  0
  -21.9195   -4.6945   22.3412 C   0  0  0  0  0  0
  -22.7859  -13.5279   21.1860 C   0  0  0  0  0  0
  -22.1664   -4.2142   21.0975 F   0  0  0  0  0  0
  -21.5637   -3.4517   25.7734 F   0  0  0  0  0  0
  -30.0313  -13.3338   20.4550 N   0  0  0  0  0  0
  -26.3027  -12.9338   20.3416 N   0  0  0  0  0  0
  -25.9299  -11.6487   20.5774 N   0  0  0  0  0  0
  -22.0432  -12.8300   22.0382 N   0  0  0  0  0  0
  -25.4311  -15.1888   20.4113 N   0  0  0  0  0  0
  -31.8076  -14.7035   20.1063 O   0  0  0  0  0  0
  -21.6630   -6.8864   21.4238 O   0  0  0  0  0  0
  -22.3582  -14.5594   20.6692 O   0  0  0  0  0  0
  -24.6217  -31.8629   23.2054 C   0  0  0  0  0  0
  -25.9096  -32.4779   23.8355 C   0  0  1  0  0  0
  -27.2335  -27.3686   20.1088 C   0  0  0  0  0  0
  -25.5959  -33.8580   24.2309 N   0  0  0  0  0  0
  -23.4121  -30.4858   21.5494 C   0  0  2  0  0  0
  -24.8587  -28.9516   20.1067 C   0  0  0  0  0  0
  -22.7459  -29.4626   22.4971 C   0  0  0  0  0  0
  -18.0280  -28.1371   22.8489 C   0  0  0  0  0  0
  -24.1492  -36.7276   23.2632 C   0  0  0  0  0  0
  -25.9472  -30.8074   21.3693 C   0  0  0  0  0  0
  -26.0233  -29.4389   20.7141 C   0  0  0  0  0  0
  -27.2110  -28.6567   20.7121 C   0  0  0  0  0  0
  -26.0555  -26.9395   19.4519 C   0  0  0  0  0  0
  -24.8760  -27.7047   19.4659 C   0  0  0  0  0  0
  -23.6216  -29.8211   20.1633 C   0  0  0  0  0  0
  -25.4103  -36.3072   24.0339 C   0  0  1  0  0  0
  -20.5874  -28.3673   23.1286 C   0  0  2  0  0  0
  -20.6758  -26.9397   22.5406 C   0  0  0  0  0  0
  -19.5736  -26.6372   21.5202 C   0  0  0  0  0  0
  -18.1915  -26.7923   22.1614 C   0  0  0  0  0  0
  -19.1537  -28.8832   23.2875 C   0  0  0  0  0  0
  -18.9458  -30.1445   23.8864 C   0  0  0  0  0  0
  -17.6461  -30.6583   24.0550 C   0  0  0  0  0  0
  -25.9048  -34.9453   23.5116 C   0  0  0  0  0  0
  -16.5356  -29.9070   23.6326 C   0  0  0  0  0  0
  -16.7283  -28.6496   23.0340 C   0  0  0  0  0  0
  -26.4508  -31.6566   25.0703 C   0  0  0  0  0  0
  -25.3779  -31.3701   26.1467 C   0  0  0  0  0  0
  -27.0307  -30.2986   24.6102 C   0  0  0  0  0  0
  -27.6069  -32.4284   25.7483 C   0  0  0  0  0  0
  -27.5590  -37.1768   24.8449 C   0  0  0  0  0  0
  -21.4184  -29.3033   22.3713 N   0  0  0  0  0  0
  -26.4260  -37.3782   23.9447 N   0  0  0  0  0  0
  -24.6785  -31.0684   22.0985 N   0  0  0  0  0  0
  -23.4208  -28.8146   23.3020 O   0  0  0  0  0  0
  -28.3634  -26.5457   20.1895 O   0  0  0  0  0  0
  -26.5586  -34.8928   22.4665 O   0  0  0  0  0  0
  -23.5413  -32.1405   23.7437 O   0  0  0  0  0  0
  -31.5616  -19.2245   22.7425 C   0  0  0  0  0  0
  -32.3177  -18.0461   22.8692 C   0  0  0  0  0  0
  -30.2928  -19.2210   22.1227 C   0  0  0  0  0  0
  -29.7769  -17.9651   21.6463 C   0  0  0  0  0  0
  -30.5579  -16.7615   21.7488 C   0  0  0  0  0  0
  -31.8239  -16.8248   22.3860 C   0  0  0  0  0  0
  -28.5411  -22.6153   20.8973 C   0  0  0  0  0  0
  -27.2307  -22.3072   20.9934 C   0  0  0  0  0  0
  -31.4337  -23.0833   20.8485 C   0  0  0  0  0  0
  -30.5473  -24.1763   20.2523 C   0  0  0  0  0  0
  -30.9116  -21.7222   20.3833 C   0  0  0  0  0  0
  -29.1065  -24.0859   20.7931 C   0  0  1  0  0  0
  -28.3683  -17.8754   21.0728 C   0  0  0  0  0  0
  -29.5123  -20.5735   22.1274 C   0  0  0  0  0  0
  -28.1491  -25.1020   20.0456 C   0  0  0  0  0  0
  -30.0535  -15.4795   21.3179 N   0  0  0  0  0  0
  -29.5411  -21.4395   20.8901 N   0  3  1  0  0  0
  -32.5529  -15.7031   22.6046 F   0  0  0  0  0  0
  -31.4677  -12.4602   19.1254 H   0  0  0  0  0  0
  -30.3464  -11.3395   19.8396 H   0  0  0  0  0  0
  -29.7484  -11.7763   17.4506 H   0  0  0  0  0  0
  -29.6543  -13.4942   17.7597 H   0  0  0  0  0  0
  -27.8373  -11.3078   18.8390 H   0  0  0  0  0  0
  -27.3632  -12.6228   17.7994 H   0  0  0  0  0  0
  -27.7061  -14.2571   19.5779 H   0  0  0  0  0  0
  -28.6981  -11.9696   21.3463 H   0  0  0  0  0  0
  -28.4547  -13.5999   21.8842 H   0  0  0  0  0  0
  -25.2723   -9.5744   22.4771 H   0  0  0  0  0  0
  -24.0010   -7.4655   22.7463 H   0  0  0  0  0  0
  -21.0813   -8.8747   19.8956 H   0  0  0  0  0  0
  -22.3631  -10.9676   19.6134 H   0  0  0  0  0  0
  -21.1957   -7.6108   23.9723 H   0  0  0  0  0  0
  -21.1482   -6.0472   25.9085 H   0  0  0  0  0  0
  -22.0576   -2.7582   23.2837 H   0  0  0  0  0  0
  -22.3963  -11.9965   22.4854 H   0  0  0  0  0  0
  -21.1040  -13.1369   22.2489 H   0  0  0  0  0  0
  -24.6561  -15.8353   20.5129 H   0  0  0  0  0  0
  -26.2648  -15.6226   20.0374 H   0  0  0  0  0  0
  -26.7162  -32.5471   23.1107 H   0  0  0  0  0  0
  -25.0229  -33.9734   25.0543 H   0  0  0  0  0  0
  -22.7001  -31.3027   21.4134 H   0  0  0  0  0  0
  -23.3771  -35.9584   23.3228 H   0  0  0  0  0  0
  -24.3621  -36.8941   22.2058 H   0  0  0  0  0  0
  -23.7204  -37.6450   23.6683 H   0  0  0  0  0  0
  -26.0710  -31.5687   20.5973 H   0  0  0  0  0  0
  -26.8304  -30.8587   21.9928 H   0  0  0  0  0  0
  -28.1018  -29.0263   21.2000 H   0  0  0  0  0  0
  -26.0228  -25.9992   18.9210 H   0  0  0  0  0  0
  -23.9937  -27.3282   18.9654 H   0  0  0  0  0  0
  -23.7282  -30.5968   19.4044 H   0  0  0  0  0  0
  -22.7424  -29.2438   19.8706 H   0  0  0  0  0  0
  -25.1263  -36.1904   25.0823 H   0  0  0  0  0  0
  -20.9979  -28.3245   24.1403 H   0  0  0  0  0  0
  -20.5635  -26.2290   23.3610 H   0  0  0  0  0  0
  -21.6630  -26.7412   22.1215 H   0  0  0  0  0  0
  -19.6886  -25.6281   21.1216 H   0  0  0  0  0  0
  -19.6659  -27.3174   20.6720 H   0  0  0  0  0  0
  -17.4199  -26.6700   21.3991 H   0  0  0  0  0  0
  -18.0290  -26.0053   22.8996 H   0  0  0  0  0  0
  -19.7936  -30.7265   24.2212 H   0  0  0  0  0  0
  -17.5021  -31.6247   24.5162 H   0  0  0  0  0  0
  -15.5346  -30.2943   23.7668 H   0  0  0  0  0  0
  -15.8690  -28.0789   22.7044 H   0  0  0  0  0  0
  -24.5989  -30.6981   25.7866 H   0  0  0  0  0  0
  -24.8943  -32.2861   26.4868 H   0  0  0  0  0  0
  -25.8174  -30.8959   27.0252 H   0  0  0  0  0  0
  -26.2833  -29.6763   24.1172 H   0  0  0  0  0  0
  -27.4055  -29.7212   25.4560 H   0  0  0  0  0  0
  -27.8695  -30.4250   23.9250 H   0  0  0  0  0  0
  -27.2684  -33.3594   26.2045 H   0  0  0  0  0  0
  -28.3915  -32.6812   25.0340 H   0  0  0  0  0  0
  -28.0707  -31.8417   26.5425 H   0  0  0  0  0  0
  -28.2522  -38.0152   24.7620 H   0  0  0  0  0  0
  -28.1158  -36.2684   24.6080 H   0  0  0  0  0  0
  -27.2348  -37.1212   25.8859 H   0  0  0  0  0  0
  -20.9362  -29.8802   21.6965 H   0  0  0  0  0  0
  -26.0124  -38.2833   24.1513 H   0  0  0  0  0  0
  -31.9624  -20.1355   23.1637 H   0  0  0  0  0  0
  -33.2747  -18.0747   23.3687 H   0  0  0  0  0  0
  -26.4591  -23.0603   21.0345 H   0  0  0  0  0  0
  -26.8862  -21.2851   21.0625 H   0  0  0  0  0  0
  -31.4474  -23.1446   21.9384 H   0  0  0  0  0  0
  -32.4692  -23.2122   20.5263 H   0  0  0  0  0  0
  -30.5526  -24.0946   19.1622 H   0  0  0  0  0  0
  -30.9682  -25.1573   20.4794 H   0  0  0  0  0  0
  -31.6189  -20.9376   20.6456 H   0  0  0  0  0  0
  -30.8758  -21.7032   19.2916 H   0  0  0  0  0  0
  -29.1454  -24.4230   21.8303 H   0  0  0  0  0  0
  -27.9729  -18.8376   20.7540 H   0  0  0  0  0  0
  -27.6898  -17.4651   21.8223 H   0  0  0  0  0  0
  -28.3417  -17.2182   20.2063 H   0  0  0  0  0  0
  -29.8991  -21.1897   22.9391 H   0  0  0  0  0  0
  -28.4856  -20.3607   22.4211 H   0  0  0  0  0  0
  -27.1545  -24.9022   20.4261 H   0  0  0  0  0  0
  -28.1286  -24.8598   18.9805 H   0  0  0  0  0  0
  -29.1025  -15.2638   21.5725 H   0  0  0  0  0  0
  -29.2019  -20.8024   20.1864 H   0  0  0  0  0  0
  1 25  1  0  0  0
  1 30  2  0  0  0
  1 86  1  0  0  0
  2  3  1  0  0  0
  2 25  1  0  0  0
  2 89  1  0  0  0
  2 90  1  0  0  0
  3  4  1  0  0  0
  3 91  1  0  0  0
  3 92  1  0  0  0
  4  5  1  0  0  0
  4 93  1  0  0  0
  4 94  1  0  0  0
  5  6  1  0  0  0
  5 26  1  0  0  0
  5 95  1  0  0  0
  6 25  1  0  0  0
  6 96  1  0  0  0
  6 97  1  0  0  0
  7  8  2  0  0  0
  7 26  1  0  0  0
  7 29  1  0  0  0
  8  9  1  0  0  0
  8 22  1  0  0  0
  9 10  1  0  0  0
  9 27  2  0  0  0
 10 11  2  0  0  0
 10 15  1  0  0  0
 11 12  1  0  0  0
 11 98  1  0  0  0
 12 13  2  0  0  0
 12 99  1  0  0  0
 13 14  1  0  0  0
 13 31  1  0  0  0
 14 15  2  0  0  0
 14100  1  0  0  0
 15101  1  0  0  0
 16 17  2  0  0  0
 16 21  1  0  0  0
 16 31  1  0  0  0
 17 18  1  0  0  0
 17102  1  0  0  0
 18 19  2  0  0  0
 18103  1  0  0  0
 19 20  1  0  0  0
 19 24  1  0  0  0
 20 21  2  0  0  0
 20104  1  0  0  0
 21 23  1  0  0  0
 22 28  1  0  0  0
 22 32  2  0  0  0
 26 27  1  0  0  0
 28105  1  0  0  0
 28106  1  0  0  0
 29107  1  0  0  0
 29108  1  0  0  0
 33 34  1  0  0  0
 33 66  1  0  0  0
 33 70  2  0  0  0
 34 36  1  0  0  0
 34 59  1  0  0  0
 34109  1  0  0  0
 35 44  2  0  0  0
 35 45  1  0  0  0
 35 68  1  0  0  0
 36 56  1  0  0  0
 36110  1  0  0  0
 37 39  1  0  0  0
 37 47  1  0  0  0
 37 66  1  0  0  0
 37111  1  0  0  0
 38 43  2  0  0  0
 38 46  1  0  0  0
 38 47  1  0  0  0
 39 64  1  0  0  0
 39 67  2  0  0  0
 40 52  1  0  0  0
 40 53  2  0  0  0
 40 58  1  0  0  0
 41112  1  0  0  0
 41113  1  0  0  0
 41114  1  0  0  0
 41 48  1  0  0  0
 42 43  1  0  0  0
 42 66  1  0  0  0
 42115  1  0  0  0
 42116  1  0  0  0
 43 44  1  0  0  0
 44117  1  0  0  0
 45 46  2  0  0  0
 45118  1  0  0  0
 46119  1  0  0  0
 47120  1  0  0  0
 47121  1  0  0  0
 48 56  1  0  0  0
 48 65  1  0  0  0
 48122  1  0  0  0
 49 50  1  0  0  0
 49 53  1  0  0  0
 49 64  1  0  0  0
 49123  1  0  0  0
 50 51  1  0  0  0
 50124  1  0  0  0
 50125  1  0  0  0
 51 52  1  0  0  0
 51126  1  0  0  0
 51127  1  0  0  0
 52128  1  0  0  0
 52129  1  0  0  0
 53 54  1  0  0  0
 54 55  2  0  0  0
 54130  1  0  0  0
 55 57  1  0  0  0
 55131  1  0  0  0
 56 69  2  0  0  0
 57 58  2  0  0  0
 57132  1  0  0  0
 58133  1  0  0  0
 59 60  1  0  0  0
 59 61  1  0  0  0
 59 62  1  0  0  0
 60134  1  0  0  0
 60135  1  0  0  0
 60136  1  0  0  0
 61137  1  0  0  0
 61138  1  0  0  0
 61139  1  0  0  0
 62140  1  0  0  0
 62141  1  0  0  0
 62142  1  0  0  0
 63 65  1  0  0  0
 63143  1  0  0  0
 63144  1  0  0  0
 63145  1  0  0  0
 64146  1  0  0  0
 65147  1  0  0  0
 68 85  1  0  0  0
 71 72  2  0  0  0
 71 73  1  0  0  0
 71148  1  0  0  0
 72 76  1  0  0  0
 72149  1  0  0  0
 73 74  2  0  0  0
 73 84  1  0  0  0
 74 75  1  0  0  0
 74 83  1  0  0  0
 75 76  2  0  0  0
 75 86  1  0  0  0
 76 88  1  0  0  0
 77 78  2  0  0  0
 77 82  1  0  0  0
 77 87  1  0  0  0
 78150  1  0  0  0
 78151  1  0  0  0
 79 80  1  0  0  0
 79 81  1  0  0  0
 79152  1  0  0  0
 79153  1  0  0  0
 80 82  1  0  0  0
 80154  1  0  0  0
 80155  1  0  0  0
 81 87  1  0  0  0
 81156  1  0  0  0
 81157  1  0  0  0
 82 85  1  0  0  0
 82158  1  0  0  0
 83159  1  0  0  0
 83160  1  0  0  0
 83161  1  0  0  0
 84162  1  0  0  0
 84163  1  0  0  0
 84 87  1  0  0  0
 85164  1  0  0  0
 85165  1  0  0  0
 86166  1  0  0  0
 87167  1  0  0  0
M  CHG  1  87   1
M  ISO  4   1 100  68 101  85 101  86 100
M  END
> <chiral flag>
0

> <version>
0

> <s_m_source_file>
/data/baiqing/PycharmProjects/Reinvent-master-3.2/result/LINK_invent/BTK/process_docking_weight1_custom_product_contain_oxygen_bond_distance_aromatic_linkinvent_7_9_3/rearranged_h_0030.sdf

> <i_m_source_file_index>
12

> <r_mmod_Potential_Energy-OPLS-2005>
-93.5485610961914

> <r_mmod_Stretch_Energy-OPLS-2005>
71.4820251464844

> <r_mmod_Bend_Energy-OPLS-2005>
137.120574951172

> <r_mmod_Torsional_Energy-OPLS-2005>
229.722015380859

> <r_mmod_Improper_Torsional_Energy-OPLS-2005>
3.74396586418152

> <r_mmod_Van_der_Waal_Energy-OPLS-2005>
165.969573974609

> <r_mmod_Electrostatic_Energy-OPLS-2005>
-269.604675292969

> <r_mmod_Solvation_Energy-OPLS-2005>
-456.144470214844

> <b_mmod_Minimization_Converged-OPLS-2005>
0

> <r_mmod_RMS_Derivative-OPLS-2005>
4.04225254058838

$$$$
12
                    3D
 Structure written by MMmdl.
159168  0  0  1  0            999 V2000
  -30.5925  -14.7308   20.4846 C   0  0  0  0  0  0
  -30.4490  -12.4496   19.4908 C   0  0  0  0  0  0
  -29.5358  -12.5159   18.2472 C   0  0  0  0  0  0
  -28.0508  -12.3529   18.6335 C   0  0  0  0  0  0
  -27.6483  -13.2305   19.8503 C   0  0  2  0  0  0
  -28.6815  -13.1325   20.9944 C   0  0  0  0  0  0
  -25.2520  -13.8174   20.5649 C   0  0  0  0  0  0
  -24.1811  -13.0446   20.9178 C   0  0  0  0  0  0
  -24.6382  -11.6904   20.8651 C   0  0  0  0  0  0
  -23.9040  -10.4296   21.0332 C   0  0  0  0  0  0
  -24.3602   -9.4230   21.9126 C   0  0  0  0  0  0
  -23.6304   -8.2251   22.0728 C   0  0  0  0  0  0
  -22.4280   -8.0257   21.3534 C   0  0  0  0  0  0
  -21.9893   -9.0220   20.4631 C   0  0  0  0  0  0
  -22.7192  -10.2116   20.3021 C   0  0  0  0  0  0
  -21.6874   -6.0710   22.5272 C   0  0  0  0  0  0
  -21.4006   -6.5617   23.8198 C   0  0  0  0  0  0
  -21.3669   -5.6777   24.9171 C   0  0  0  0  0  0
  -21.6063   -4.3044   24.7226 C   0  0  0  0  0  0
  -21.8822   -3.8131   23.4348 C   0  0  0  0  0  0
  -21.9207   -4.6941   22.3399 C   0  0  0  0  0  0
  -22.7821  -13.5215   21.1849 C   0  0  0  0  0  0
  -22.1674   -4.2116   21.0981 F   0  0  0  0  0  0
  -21.5643   -3.4538   25.7749 F   0  0  0  0  0  0
  -29.9948  -13.4914   20.4426 N   0  0  0  0  0  0
  -26.2947  -12.9387   20.3177 N   0  0  0  0  0  0
  -25.9308  -11.6530   20.5622 N   0  0  0  0  0  0
  -22.0457  -12.8229   22.0410 N   0  0  0  0  0  0
  -25.4238  -15.1921   20.4107 N   0  0  0  0  0  0
  -31.7560  -14.8618   20.0926 O   0  0  0  0  0  0
  -21.6659   -6.8848   21.4235 O   0  0  0  0  0  0
  -22.3478  -14.5498   20.6659 O   0  0  0  0  0  0
  -24.6294  -31.8562   23.1988 C   0  0  0  0  0  0
  -25.9136  -32.4743   23.8323 C   0  0  1  0  0  0
  -27.2073  -27.2564   20.1297 C   0  0  0  0  0  0
  -25.5956  -33.8548   24.2224 N   0  0  0  0  0  0
  -23.4235  -30.4798   21.5450 C   0  0  2  0  0  0
  -24.8670  -28.9299   20.1100 C   0  0  0  0  0  0
  -22.7492  -29.4594   22.4930 C   0  0  0  0  0  0
  -18.0267  -28.1436   22.8460 C   0  0  0  0  0  0
  -24.1481  -36.7282   23.2641 C   0  0  0  0  0  0
  -25.9707  -30.7695   21.3792 C   0  0  0  0  0  0
  -26.0397  -29.3923   20.7209 C   0  0  0  0  0  0
  -27.2088  -28.5647   20.7253 C   0  0  0  0  0  0
  -26.0224  -26.8828   19.4596 C   0  0  0  0  0  0
  -24.8614  -27.6788   19.4771 C   0  0  0  0  0  0
  -23.6403  -29.8223   20.1572 C   0  0  0  0  0  0
  -25.4108  -36.3038   24.0311 C   0  0  1  0  0  0
  -20.5876  -28.3702   23.1296 C   0  0  2  0  0  0
  -20.6765  -26.9429   22.5417 C   0  0  0  0  0  0
  -19.5752  -26.6411   21.5215 C   0  0  0  0  0  0
  -18.1922  -26.7979   22.1610 C   0  0  0  0  0  0
  -19.1522  -28.8891   23.2867 C   0  0  0  0  0  0
  -18.9458  -30.1508   23.8857 C   0  0  0  0  0  0
  -17.6455  -30.6618   24.0577 C   0  0  0  0  0  0
  -25.9069  -34.9424   23.5062 C   0  0  0  0  0  0
  -16.5339  -29.9120   23.6361 C   0  0  0  0  0  0
  -16.7255  -28.6566   23.0331 C   0  0  0  0  0  0
  -26.4498  -31.6591   25.0727 C   0  0  0  0  0  0
  -25.3719  -31.3792   26.1455 C   0  0  0  0  0  0
  -27.0391  -30.3003   24.6275 C   0  0  0  0  0  0
  -27.6071  -32.4360   25.7475 C   0  0  0  0  0  0
  -27.5565  -37.1780   24.8465 C   0  0  0  0  0  0
  -21.4199  -29.3034   22.3675 N   0  0  0  0  0  0
  -26.4265  -37.3753   23.9417 N   0  0  0  0  0  0
  -24.6937  -31.0536   22.0964 N   0  0  0  0  0  0
  -23.4211  -28.8132   23.3016 O   0  0  0  0  0  0
  -28.2934  -26.3522   20.2383 O   0  0  0  0  0  0
  -26.5630  -34.8897   22.4627 O   0  0  0  0  0  0
  -23.5452  -32.1394   23.7294 O   0  0  0  0  0  0
  -29.9853  -21.3085   21.9100 C   0  0  0  0  0  0
  -30.4312  -20.1642   22.6015 C   0  0  0  0  0  0
  -29.3083  -19.8659   20.0751 C   0  0  0  0  0  0
  -29.7950  -18.6604   20.7601 C   0  0  0  0  0  0
  -29.3819  -21.2172   20.6399 C   0  0  0  0  0  0
  -30.3359  -18.8679   22.0552 C   0  0  0  0  0  0
  -27.0632  -24.0084   20.4509 C   0  0  0  0  0  0
  -27.4186  -22.5771   19.9611 C   0  0  0  0  0  0
  -29.3475  -23.8581   20.2453 C   0  0  0  0  0  0
  -28.1885  -24.8910   19.8641 C   0  0  2  0  0  0
  -28.7392  -19.6925   18.6733 C   0  0  0  0  0  0
  -29.8742  -17.2143   20.0567 C   0  0  0  0  0  0
  -28.8718  -22.4399   20.0275 N   0  0  0  0  0  0
  -29.7951  -15.8370   20.7260 N   0  0  0  0  0  0
  -30.9448  -17.5637   23.0124 Cl  0  0  0  0  0  0
  -31.4885  -12.5930   19.1904 H   0  0  0  0  0  0
  -30.4165  -11.4633   19.9564 H   0  0  0  0  0  0
  -29.8265  -11.7479   17.5283 H   0  0  0  0  0  0
  -29.6843  -13.4766   17.7512 H   0  0  0  0  0  0
  -27.8818  -11.2990   18.8564 H   0  0  0  0  0  0
  -27.4207  -12.5911   17.7762 H   0  0  0  0  0  0
  -27.6536  -14.2615   19.4901 H   0  0  0  0  0  0
  -28.7022  -12.1206   21.4025 H   0  0  0  0  0  0
  -28.4031  -13.7907   21.8177 H   0  0  0  0  0  0
  -25.2757   -9.5733   22.4675 H   0  0  0  0  0  0
  -24.0034   -7.4656   22.7450 H   0  0  0  0  0  0
  -21.0824   -8.8711   19.8941 H   0  0  0  0  0  0
  -22.3621  -10.9630   19.6122 H   0  0  0  0  0  0
  -21.1979   -7.6123   23.9693 H   0  0  0  0  0  0
  -21.1490   -6.0505   25.9066 H   0  0  0  0  0  0
  -22.0602   -2.7587   23.2868 H   0  0  0  0  0  0
  -22.4091  -11.9958   22.4913 H   0  0  0  0  0  0
  -21.1027  -13.1187   22.2492 H   0  0  0  0  0  0
  -24.6635  -15.8500   20.5423 H   0  0  0  0  0  0
  -26.2717  -15.6310   20.0776 H   0  0  0  0  0  0
  -26.7214  -32.5345   23.1075 H   0  0  0  0  0  0
  -25.0114  -33.9701   25.0369 H   0  0  0  0  0  0
  -22.7165  -31.3004   21.4055 H   0  0  0  0  0  0
  -23.3715  -35.9648   23.3298 H   0  0  0  0  0  0
  -24.3575  -36.8917   22.2062 H   0  0  0  0  0  0
  -23.7270  -37.6496   23.6673 H   0  0  0  0  0  0
  -26.1180  -31.5345   20.6153 H   0  0  0  0  0  0
  -26.8465  -30.8093   22.0138 H   0  0  0  0  0  0
  -28.1030  -28.9113   21.2241 H   0  0  0  0  0  0
  -25.9593  -25.9508   18.9236 H   0  0  0  0  0  0
  -23.9641  -27.3196   18.9918 H   0  0  0  0  0  0
  -23.7778  -30.6103   19.4155 H   0  0  0  0  0  0
  -22.7518  -29.2746   19.8356 H   0  0  0  0  0  0
  -25.1280  -36.1869   25.0802 H   0  0  0  0  0  0
  -20.9942  -28.3271   24.1433 H   0  0  0  0  0  0
  -20.5711  -26.2290   23.3604 H   0  0  0  0  0  0
  -21.6630  -26.7505   22.1183 H   0  0  0  0  0  0
  -19.6918  -25.6324   21.1258 H   0  0  0  0  0  0
  -19.6720  -27.3205   20.6736 H   0  0  0  0  0  0
  -17.4201  -26.6722   21.3997 H   0  0  0  0  0  0
  -18.0306  -26.0142   22.9022 H   0  0  0  0  0  0
  -19.7927  -30.7360   24.2176 H   0  0  0  0  0  0
  -17.5002  -31.6281   24.5220 H   0  0  0  0  0  0
  -15.5342  -30.3008   23.7745 H   0  0  0  0  0  0
  -15.8650  -28.0913   22.7021 H   0  0  0  0  0  0
  -24.5885  -30.7137   25.7793 H   0  0  0  0  0  0
  -24.8915  -32.2996   26.4803 H   0  0  0  0  0  0
  -25.8025  -30.9028   27.0276 H   0  0  0  0  0  0
  -26.3015  -29.6699   24.1293 H   0  0  0  0  0  0
  -27.4065  -29.7312   25.4831 H   0  0  0  0  0  0
  -27.8874  -30.4270   23.9543 H   0  0  0  0  0  0
  -27.2692  -33.3693   26.1985 H   0  0  0  0  0  0
  -28.3881  -32.6881   25.0290 H   0  0  0  0  0  0
  -28.0731  -31.8541   26.5433 H   0  0  0  0  0  0
  -28.2573  -38.0081   24.7491 H   0  0  0  0  0  0
  -28.1061  -36.2609   24.6282 H   0  0  0  0  0  0
  -27.2299  -37.1431   25.8875 H   0  0  0  0  0  0
  -20.9394  -29.8746   21.6867 H   0  0  0  0  0  0
  -26.0121  -38.2813   24.1440 H   0  0  0  0  0  0
  -30.0946  -22.2621   22.4016 H   0  0  0  0  0  0
  -30.8703  -20.2873   23.5812 H   0  0  0  0  0  0
  -27.0839  -24.0442   21.5427 H   0  0  0  0  0  0
  -26.0544  -24.2742   20.1471 H   0  0  0  0  0  0
  -27.1287  -22.4825   18.9130 H   0  0  0  0  0  0
  -26.8951  -21.7996   20.5179 H   0  0  0  0  0  0
  -29.6066  -24.0052   21.2938 H   0  0  0  0  0  0
  -30.2426  -24.0603   19.6563 H   0  0  0  0  0  0
  -28.0901  -24.8795   18.7763 H   0  0  0  0  0  0
  -29.4915  -19.2620   18.0117 H   0  0  0  0  0  0
  -28.4143  -20.6267   18.2230 H   0  0  0  0  0  0
  -27.8752  -19.0281   18.6977 H   0  0  0  0  0  0
  -29.0711  -17.1691   19.3248 H   0  0  0  0  0  0
  -30.7845  -17.2340   19.4559 H   0  0  0  0  0  0
  -28.8891  -15.6174   21.1154 H   0  0  0  0  0  0
  1 25  1  0  0  0
  1 30  2  0  0  0
  1 84  1  0  0  0
  2  3  1  0  0  0
  2 25  1  0  0  0
  2 86  1  0  0  0
  2 87  1  0  0  0
  3  4  1  0  0  0
  3 88  1  0  0  0
  3 89  1  0  0  0
  4  5  1  0  0  0
  4 90  1  0  0  0
  4 91  1  0  0  0
  5  6  1  0  0  0
  5 26  1  0  0  0
  5 92  1  0  0  0
  6 25  1  0  0  0
  6 93  1  0  0  0
  6 94  1  0  0  0
  7  8  2  0  0  0
  7 26  1  0  0  0
  7 29  1  0  0  0
  8  9  1  0  0  0
  8 22  1  0  0  0
  9 10  1  0  0  0
  9 27  2  0  0  0
 10 11  2  0  0  0
 10 15  1  0  0  0
 11 12  1  0  0  0
 11 95  1  0  0  0
 12 13  2  0  0  0
 12 96  1  0  0  0
 13 14  1  0  0  0
 13 31  1  0  0  0
 14 15  2  0  0  0
 14 97  1  0  0  0
 15 98  1  0  0  0
 16 17  2  0  0  0
 16 21  1  0  0  0
 16 31  1  0  0  0
 17 18  1  0  0  0
 17 99  1  0  0  0
 18 19  2  0  0  0
 18100  1  0  0  0
 19 20  1  0  0  0
 19 24  1  0  0  0
 20 21  2  0  0  0
 20101  1  0  0  0
 21 23  1  0  0  0
 22 28  1  0  0  0
 22 32  2  0  0  0
 26 27  1  0  0  0
 28102  1  0  0  0
 28103  1  0  0  0
 29104  1  0  0  0
 29105  1  0  0  0
 33 34  1  0  0  0
 33 66  1  0  0  0
 33 70  2  0  0  0
 34 36  1  0  0  0
 34 59  1  0  0  0
 34106  1  0  0  0
 35 44  2  0  0  0
 35 45  1  0  0  0
 35 68  1  0  0  0
 36 56  1  0  0  0
 36107  1  0  0  0
 37 39  1  0  0  0
 37 47  1  0  0  0
 37 66  1  0  0  0
 37108  1  0  0  0
 38 43  2  0  0  0
 38 46  1  0  0  0
 38 47  1  0  0  0
 39 64  1  0  0  0
 39 67  2  0  0  0
 40 52  1  0  0  0
 40 53  2  0  0  0
 40 58  1  0  0  0
 41109  1  0  0  0
 41110  1  0  0  0
 41111  1  0  0  0
 41 48  1  0  0  0
 42 43  1  0  0  0
 42 66  1  0  0  0
 42112  1  0  0  0
 42113  1  0  0  0
 43 44  1  0  0  0
 44114  1  0  0  0
 45 46  2  0  0  0
 45115  1  0  0  0
 46116  1  0  0  0
 47117  1  0  0  0
 47118  1  0  0  0
 48 56  1  0  0  0
 48 65  1  0  0  0
 48119  1  0  0  0
 49 50  1  0  0  0
 49 53  1  0  0  0
 49 64  1  0  0  0
 49120  1  0  0  0
 50 51  1  0  0  0
 50121  1  0  0  0
 50122  1  0  0  0
 51 52  1  0  0  0
 51123  1  0  0  0
 51124  1  0  0  0
 52125  1  0  0  0
 52126  1  0  0  0
 53 54  1  0  0  0
 54 55  2  0  0  0
 54127  1  0  0  0
 55 57  1  0  0  0
 55128  1  0  0  0
 56 69  2  0  0  0
 57 58  2  0  0  0
 57129  1  0  0  0
 58130  1  0  0  0
 59 60  1  0  0  0
 59 61  1  0  0  0
 59 62  1  0  0  0
 60131  1  0  0  0
 60132  1  0  0  0
 60133  1  0  0  0
 61134  1  0  0  0
 61135  1  0  0  0
 61136  1  0  0  0
 62137  1  0  0  0
 62138  1  0  0  0
 62139  1  0  0  0
 63 65  1  0  0  0
 63140  1  0  0  0
 63141  1  0  0  0
 63142  1  0  0  0
 64143  1  0  0  0
 65144  1  0  0  0
 68 80  1  0  0  0
 71 72  2  0  0  0
 71 75  1  0  0  0
 71145  1  0  0  0
 72 76  1  0  0  0
 72146  1  0  0  0
 73 74  1  0  0  0
 73 75  2  0  0  0
 73 81  1  0  0  0
 74 76  2  0  0  0
 74 82  1  0  0  0
 75 83  1  0  0  0
 76 85  1  0  0  0
 77 78  1  0  0  0
 77 80  1  0  0  0
 77147  1  0  0  0
 77148  1  0  0  0
 78 83  1  0  0  0
 78149  1  0  0  0
 78150  1  0  0  0
 79 80  1  0  0  0
 79 83  1  0  0  0
 79151  1  0  0  0
 79152  1  0  0  0
 80153  1  0  0  0
 81154  1  0  0  0
 81155  1  0  0  0
 81156  1  0  0  0
 82 84  1  0  0  0
 82157  1  0  0  0
 82158  1  0  0  0
 84159  1  0  0  0
M  ISO  4   1 100  68 101  80 101  84 100
M  END
> <chiral flag>
0

> <version>
0

> <s_m_source_file>
/data/baiqing/PycharmProjects/Reinvent-master-3.2/result/LINK_invent/BTK/process_docking_weight1_custom_product_contain_oxygen_bond_distance_aromatic_linkinvent_7_9_3/rearranged_h_0030.sdf

> <i_m_source_file_index>
13

> <r_mmod_Potential_Energy-OPLS-2005>
220.901397705078

> <r_mmod_Stretch_Energy-OPLS-2005>
127.714668273926

> <r_mmod_Bend_Energy-OPLS-2005>
232.206024169922

> <r_mmod_Torsional_Energy-OPLS-2005>
262.229736328125

> <r_mmod_Improper_Torsional_Energy-OPLS-2005>
11.9944772720337

> <r_mmod_Van_der_Waal_Energy-OPLS-2005>
143.201889038086

> <r_mmod_Electrostatic_Energy-OPLS-2005>
-417.284057617188

> <r_mmod_Solvation_Energy-OPLS-2005>
-224.573135375977

> <b_mmod_Minimization_Converged-OPLS-2005>
0

> <r_mmod_RMS_Derivative-OPLS-2005>
4.08622169494629

$$$$
13
                    3D
 Structure written by MMmdl.
154163  0  0  1  0            999 V2000
  -30.6270  -14.7285   20.4733 C   0  0  0  0  0  0
  -30.4264  -12.4387   19.4869 C   0  0  0  0  0  0
  -29.5139  -12.5133   18.2433 C   0  0  0  0  0  0
  -28.0375  -12.3408   18.6476 C   0  0  0  0  0  0
  -27.6429  -13.2372   19.8516 C   0  0  2  0  0  0
  -28.6822  -13.1679   20.9895 C   0  0  0  0  0  0
  -25.2512  -13.8213   20.5699 C   0  0  0  0  0  0
  -24.1800  -13.0450   20.9187 C   0  0  0  0  0  0
  -24.6396  -11.6928   20.8729 C   0  0  0  0  0  0
  -23.9073  -10.4301   21.0398 C   0  0  0  0  0  0
  -24.3623   -9.4216   21.9177 C   0  0  0  0  0  0
  -23.6297   -8.2251   22.0751 C   0  0  0  0  0  0
  -22.4278   -8.0285   21.3543 C   0  0  0  0  0  0
  -21.9914   -9.0257   20.4644 C   0  0  0  0  0  0
  -22.7243  -10.2136   20.3050 C   0  0  0  0  0  0
  -21.6856   -6.0737   22.5278 C   0  0  0  0  0  0
  -21.4018   -6.5640   23.8212 C   0  0  0  0  0  0
  -21.3661   -5.6793   24.9173 C   0  0  0  0  0  0
  -21.6044   -4.3055   24.7225 C   0  0  0  0  0  0
  -21.8819   -3.8147   23.4347 C   0  0  0  0  0  0
  -21.9195   -4.6964   22.3402 C   0  0  0  0  0  0
  -22.7821  -13.5224   21.1861 C   0  0  0  0  0  0
  -22.1661   -4.2149   21.0980 F   0  0  0  0  0  0
  -21.5629   -3.4539   25.7738 F   0  0  0  0  0  0
  -29.9939  -13.5045   20.4231 N   0  0  0  0  0  0
  -26.2942  -12.9430   20.3279 N   0  0  0  0  0  0
  -25.9327  -11.6562   20.5729 N   0  0  0  0  0  0
  -22.0477  -12.8207   22.0421 N   0  0  0  0  0  0
  -25.4229  -15.1937   20.4166 N   0  0  0  0  0  0
  -31.7973  -14.7846   20.0869 O   0  0  0  0  0  0
  -21.6643   -6.8881   21.4240 O   0  0  0  0  0  0
  -22.3495  -14.5529   20.6718 O   0  0  0  0  0  0
  -24.6306  -31.8556   23.1984 C   0  0  0  0  0  0
  -25.9133  -32.4757   23.8331 C   0  0  1  0  0  0
  -27.2175  -27.2700   20.1332 C   0  0  0  0  0  0
  -25.5931  -33.8559   24.2255 N   0  0  0  0  0  0
  -23.4272  -30.4781   21.5417 C   0  0  2  0  0  0
  -24.8748  -28.9261   20.1089 C   0  0  0  0  0  0
  -22.7499  -29.4604   22.4914 C   0  0  0  0  0  0
  -18.0292  -28.1387   22.8488 C   0  0  0  0  0  0
  -24.1491  -36.7283   23.2640 C   0  0  0  0  0  0
  -25.9722  -30.7726   21.3757 C   0  0  0  0  0  0
  -26.0465  -29.3963   20.7166 C   0  0  0  0  0  0
  -27.2237  -28.5819   20.7141 C   0  0  0  0  0  0
  -26.0272  -26.8672   19.4907 C   0  0  0  0  0  0
  -24.8702  -27.6700   19.4828 C   0  0  0  0  0  0
  -23.6447  -29.8117   20.1576 C   0  0  0  0  0  0
  -25.4117  -36.3069   24.0326 C   0  0  1  0  0  0
  -20.5896  -28.3698   23.1271 C   0  0  2  0  0  0
  -20.6780  -26.9417   22.5409 C   0  0  0  0  0  0
  -19.5755  -26.6384   21.5214 C   0  0  0  0  0  0
  -18.1934  -26.7929   22.1625 C   0  0  0  0  0  0
  -19.1546  -28.8860   23.2873 C   0  0  0  0  0  0
  -18.9466  -30.1460   23.8893 C   0  0  0  0  0  0
  -17.6465  -30.6589   24.0563 C   0  0  0  0  0  0
  -25.9056  -34.9440   23.5092 C   0  0  0  0  0  0
  -16.5356  -29.9087   23.6332 C   0  0  0  0  0  0
  -16.7279  -28.6503   23.0357 C   0  0  0  0  0  0
  -26.4501  -31.6580   25.0719 C   0  0  0  0  0  0
  -25.3723  -31.3725   26.1437 C   0  0  0  0  0  0
  -27.0353  -30.3000   24.6201 C   0  0  0  0  0  0
  -27.6054  -32.4324   25.7492 C   0  0  0  0  0  0
  -27.5578  -37.1797   24.8465 C   0  0  0  0  0  0
  -21.4207  -29.3043   22.3657 N   0  0  0  0  0  0
  -26.4291  -37.3769   23.9407 N   0  0  0  0  0  0
  -24.6959  -31.0531   22.0952 N   0  0  0  0  0  0
  -23.4202  -28.8148   23.3014 O   0  0  0  0  0  0
  -28.2986  -26.3642   20.1981 O   0  0  0  0  0  0
  -26.5632  -34.8917   22.4664 O   0  0  0  0  0  0
  -23.5458  -32.1374   23.7285 O   0  0  0  0  0  0
  -28.8752  -20.6706   19.2113 C   0  0  0  0  0  0
  -29.2035  -20.6639   21.5345 C   0  0  0  0  0  0
  -29.5976  -18.5051   20.2978 C   0  0  0  0  0  0
  -29.2377  -19.2797   19.1432 C   0  0  0  0  0  0
  -28.8341  -21.4520   20.4010 C   0  0  0  0  0  0
  -29.5598  -19.2689   21.5058 C   0  0  0  0  0  0
  -30.1050  -17.0246   20.1683 C   0  0  0  0  0  0
  -28.0951  -23.7868   19.3641 C   0  0  0  0  0  0
  -28.9583  -23.9632   21.2399 C   0  0  0  0  0  0
  -27.9785  -24.9148   20.4563 C   0  0  0  0  0  0
  -29.2185  -18.6265   17.7671 C   0  0  0  0  0  0
  -29.8555  -15.8978   20.8096 N   0  0  0  0  0  0
  -28.3452  -22.8535   20.4829 N   0  0  0  0  0  0
  -29.9918  -18.5300   23.0092 Cl  0  0  0  0  0  0
  -31.4720  -12.5339   19.1902 H   0  0  0  0  0  0
  -30.3451  -11.4604   19.9638 H   0  0  0  0  0  0
  -29.7958  -11.7467   17.5204 H   0  0  0  0  0  0
  -29.6499  -13.4734   17.7427 H   0  0  0  0  0  0
  -27.8887  -11.2914   18.9043 H   0  0  0  0  0  0
  -27.3852  -12.5409   17.7968 H   0  0  0  0  0  0
  -27.6421  -14.2620   19.4792 H   0  0  0  0  0  0
  -28.7036  -12.1730   21.4369 H   0  0  0  0  0  0
  -28.4156  -13.8578   21.7919 H   0  0  0  0  0  0
  -25.2767   -9.5694   22.4751 H   0  0  0  0  0  0
  -24.0007   -7.4643   22.7472 H   0  0  0  0  0  0
  -21.0845   -8.8776   19.8950 H   0  0  0  0  0  0
  -22.3699  -10.9674   19.6159 H   0  0  0  0  0  0
  -21.2010   -7.6148   23.9716 H   0  0  0  0  0  0
  -21.1483   -6.0522   25.9077 H   0  0  0  0  0  0
  -22.0597   -2.7609   23.2846 H   0  0  0  0  0  0
  -22.4105  -11.9869   22.4802 H   0  0  0  0  0  0
  -21.1097  -13.1226   22.2641 H   0  0  0  0  0  0
  -24.6690  -15.8588   20.5487 H   0  0  0  0  0  0
  -26.2997  -15.6300   20.1591 H   0  0  0  0  0  0
  -26.7202  -32.5411   23.1076 H   0  0  0  0  0  0
  -25.0073  -33.9698   25.0397 H   0  0  0  0  0  0
  -22.7233  -31.3001   21.3959 H   0  0  0  0  0  0
  -23.3755  -35.9613   23.3301 H   0  0  0  0  0  0
  -24.3580  -36.8909   22.2055 H   0  0  0  0  0  0
  -23.7244  -37.6482   23.6669 H   0  0  0  0  0  0
  -26.1095  -31.5347   20.6074 H   0  0  0  0  0  0
  -26.8499  -30.8213   22.0085 H   0  0  0  0  0  0
  -28.1197  -28.9345   21.2054 H   0  0  0  0  0  0
  -25.9740  -25.9028   19.0064 H   0  0  0  0  0  0
  -23.9740  -27.3058   18.9992 H   0  0  0  0  0  0
  -23.7671  -30.5879   19.4014 H   0  0  0  0  0  0
  -22.7633  -29.2438   19.8539 H   0  0  0  0  0  0
  -25.1301  -36.1915   25.0819 H   0  0  0  0  0  0
  -20.9990  -28.3279   24.1391 H   0  0  0  0  0  0
  -20.5682  -26.2310   23.3615 H   0  0  0  0  0  0
  -21.6647  -26.7442   22.1202 H   0  0  0  0  0  0
  -19.6917  -25.6293   21.1247 H   0  0  0  0  0  0
  -19.6691  -27.3192   20.6742 H   0  0  0  0  0  0
  -17.4204  -26.6680   21.4026 H   0  0  0  0  0  0
  -18.0333  -26.0070   22.9021 H   0  0  0  0  0  0
  -19.7941  -30.7277   24.2260 H   0  0  0  0  0  0
  -17.5020  -31.6269   24.5164 H   0  0  0  0  0  0
  -15.5356  -30.2988   23.7658 H   0  0  0  0  0  0
  -15.8678  -28.0820   22.7077 H   0  0  0  0  0  0
  -24.5910  -30.7062   25.7762 H   0  0  0  0  0  0
  -24.8901  -32.2891   26.4843 H   0  0  0  0  0  0
  -25.8040  -30.8917   27.0225 H   0  0  0  0  0  0
  -26.2937  -29.6740   24.1224 H   0  0  0  0  0  0
  -27.4036  -29.7267   25.4719 H   0  0  0  0  0  0
  -27.8813  -30.4276   23.9445 H   0  0  0  0  0  0
  -27.2664  -33.3633   26.2050 H   0  0  0  0  0  0
  -28.3873  -32.6871   25.0324 H   0  0  0  0  0  0
  -28.0714  -31.8463   26.5423 H   0  0  0  0  0  0
  -28.2594  -38.0095   24.7513 H   0  0  0  0  0  0
  -28.1076  -36.2625   24.6294 H   0  0  0  0  0  0
  -27.2295  -37.1448   25.8868 H   0  0  0  0  0  0
  -20.9393  -29.8762   21.6858 H   0  0  0  0  0  0
  -26.0168  -38.2843   24.1409 H   0  0  0  0  0  0
  -28.5940  -21.1644   18.2914 H   0  0  0  0  0  0
  -29.1922  -21.1470   22.5003 H   0  0  0  0  0  0
  -30.8125  -16.9646   19.3353 H   0  0  0  0  0  0
  -28.9538  -23.8994   18.6994 H   0  0  0  0  0  0
  -27.1716  -23.5948   18.8166 H   0  0  0  0  0  0
  -28.7832  -23.9276   22.3160 H   0  0  0  0  0  0
  -30.0126  -24.1142   20.9989 H   0  0  0  0  0  0
  -27.0036  -24.8587   20.9489 H   0  0  0  0  0  0
  -28.7720  -19.2795   17.0168 H   0  0  0  0  0  0
  -28.6340  -17.7057   17.7800 H   0  0  0  0  0  0
  -30.2307  -18.3910   17.4372 H   0  0  0  0  0  0
  1 25  1  0  0  0
  1 30  2  0  0  0
  1 82  1  0  0  0
  2  3  1  0  0  0
  2 25  1  0  0  0
  2 85  1  0  0  0
  2 86  1  0  0  0
  3  4  1  0  0  0
  3 87  1  0  0  0
  3 88  1  0  0  0
  4  5  1  0  0  0
  4 89  1  0  0  0
  4 90  1  0  0  0
  5  6  1  0  0  0
  5 26  1  0  0  0
  5 91  1  0  0  0
  6 25  1  0  0  0
  6 92  1  0  0  0
  6 93  1  0  0  0
  7  8  2  0  0  0
  7 26  1  0  0  0
  7 29  1  0  0  0
  8  9  1  0  0  0
  8 22  1  0  0  0
  9 10  1  0  0  0
  9 27  2  0  0  0
 10 11  2  0  0  0
 10 15  1  0  0  0
 11 12  1  0  0  0
 11 94  1  0  0  0
 12 13  2  0  0  0
 12 95  1  0  0  0
 13 14  1  0  0  0
 13 31  1  0  0  0
 14 15  2  0  0  0
 14 96  1  0  0  0
 15 97  1  0  0  0
 16 17  2  0  0  0
 16 21  1  0  0  0
 16 31  1  0  0  0
 17 18  1  0  0  0
 17 98  1  0  0  0
 18 19  2  0  0  0
 18 99  1  0  0  0
 19 20  1  0  0  0
 19 24  1  0  0  0
 20 21  2  0  0  0
 20100  1  0  0  0
 21 23  1  0  0  0
 22 28  1  0  0  0
 22 32  2  0  0  0
 26 27  1  0  0  0
 28101  1  0  0  0
 28102  1  0  0  0
 29103  1  0  0  0
 29104  1  0  0  0
 33 34  1  0  0  0
 33 66  1  0  0  0
 33 70  2  0  0  0
 34 36  1  0  0  0
 34 59  1  0  0  0
 34105  1  0  0  0
 35 44  2  0  0  0
 35 45  1  0  0  0
 35 68  1  0  0  0
 36 56  1  0  0  0
 36106  1  0  0  0
 37 39  1  0  0  0
 37 47  1  0  0  0
 37 66  1  0  0  0
 37107  1  0  0  0
 38 43  2  0  0  0
 38 46  1  0  0  0
 38 47  1  0  0  0
 39 64  1  0  0  0
 39 67  2  0  0  0
 40 52  1  0  0  0
 40 53  2  0  0  0
 40 58  1  0  0  0
 41108  1  0  0  0
 41109  1  0  0  0
 41110  1  0  0  0
 41 48  1  0  0  0
 42 43  1  0  0  0
 42 66  1  0  0  0
 42111  1  0  0  0
 42112  1  0  0  0
 43 44  1  0  0  0
 44113  1  0  0  0
 45 46  2  0  0  0
 45114  1  0  0  0
 46115  1  0  0  0
 47116  1  0  0  0
 47117  1  0  0  0
 48 56  1  0  0  0
 48 65  1  0  0  0
 48118  1  0  0  0
 49 50  1  0  0  0
 49 53  1  0  0  0
 49 64  1  0  0  0
 49119  1  0  0  0
 50 51  1  0  0  0
 50120  1  0  0  0
 50121  1  0  0  0
 51 52  1  0  0  0
 51122  1  0  0  0
 51123  1  0  0  0
 52124  1  0  0  0
 52125  1  0  0  0
 53 54  1  0  0  0
 54 55  2  0  0  0
 54126  1  0  0  0
 55 57  1  0  0  0
 55127  1  0  0  0
 56 69  2  0  0  0
 57 58  2  0  0  0
 57128  1  0  0  0
 58129  1  0  0  0
 59 60  1  0  0  0
 59 61  1  0  0  0
 59 62  1  0  0  0
 60130  1  0  0  0
 60131  1  0  0  0
 60132  1  0  0  0
 61133  1  0  0  0
 61134  1  0  0  0
 61135  1  0  0  0
 62136  1  0  0  0
 62137  1  0  0  0
 62138  1  0  0  0
 63 65  1  0  0  0
 63139  1  0  0  0
 63140  1  0  0  0
 63141  1  0  0  0
 64142  1  0  0  0
 65143  1  0  0  0
 68 80  1  0  0  0
 71 74  2  0  0  0
 71 75  1  0  0  0
 71144  1  0  0  0
 72 75  2  0  0  0
 72 76  1  0  0  0
 72145  1  0  0  0
 73 74  1  0  0  0
 73 76  2  0  0  0
 73 77  1  0  0  0
 74 81  1  0  0  0
 75 83  1  0  0  0
 76 84  1  0  0  0
 77 82  2  0  0  0
 77146  1  0  0  0
 78 80  1  0  0  0
 78 83  1  0  0  0
 78147  1  0  0  0
 78148  1  0  0  0
 79 80  1  0  0  0
 79 83  1  0  0  0
 79149  1  0  0  0
 79150  1  0  0  0
 80151  1  0  0  0
 81152  1  0  0  0
 81153  1  0  0  0
 81154  1  0  0  0
M  ISO  4   1 100  68 101  80 101  82 100
M  END
> <chiral flag>
0

> <version>
0

> <s_m_source_file>
/data/baiqing/PycharmProjects/Reinvent-master-3.2/result/LINK_invent/BTK/process_docking_weight1_custom_product_contain_oxygen_bond_distance_aromatic_linkinvent_7_9_3/rearranged_h_0030.sdf

> <i_m_source_file_index>
14

> <r_mmod_Potential_Energy-OPLS-2005>
297.334686279297

> <r_mmod_Stretch_Energy-OPLS-2005>
115.826690673828

> <r_mmod_Bend_Energy-OPLS-2005>
227.291107177734

> <r_mmod_Torsional_Energy-OPLS-2005>
214.218063354492

> <r_mmod_Improper_Torsional_Energy-OPLS-2005>
10.1505327224731

> <r_mmod_Van_der_Waal_Energy-OPLS-2005>
150.531372070312

> <r_mmod_Electrostatic_Energy-OPLS-2005>
-295.679077148438

> <r_mmod_Solvation_Energy-OPLS-2005>
-204.344818115234

> <b_mmod_Minimization_Converged-OPLS-2005>
0

> <r_mmod_RMS_Derivative-OPLS-2005>
0.304306477308273

$$$$
14
                    3D
 Structure written by MMmdl.
160168  0  0  1  0            999 V2000
  -30.5231  -14.9431   20.3721 C   0  0  0  0  0  0
  -30.4401  -12.5704   19.5095 C   0  0  0  0  0  0
  -29.5244  -12.5158   18.2619 C   0  0  0  0  0  0
  -28.0505  -12.3287   18.6690 C   0  0  0  0  0  0
  -27.6276  -13.2534   19.8411 C   0  0  2  0  0  0
  -28.6694  -13.2694   20.9819 C   0  0  0  0  0  0
  -25.2434  -13.8256   20.5671 C   0  0  0  0  0  0
  -24.1719  -13.0483   20.9216 C   0  0  0  0  0  0
  -24.6376  -11.6956   20.8715 C   0  0  0  0  0  0
  -23.9049  -10.4299   21.0361 C   0  0  0  0  0  0
  -24.3577   -9.4187   21.9143 C   0  0  0  0  0  0
  -23.6260   -8.2212   22.0752 C   0  0  0  0  0  0
  -22.4236   -8.0244   21.3545 C   0  0  0  0  0  0
  -21.9876   -9.0255   20.4664 C   0  0  0  0  0  0
  -22.7231  -10.2117   20.3033 C   0  0  0  0  0  0
  -21.6836   -6.0704   22.5270 C   0  0  0  0  0  0
  -21.4041   -6.5607   23.8227 C   0  0  0  0  0  0
  -21.3648   -5.6771   24.9182 C   0  0  0  0  0  0
  -21.6016   -4.3023   24.7209 C   0  0  0  0  0  0
  -21.8832   -3.8116   23.4353 C   0  0  0  0  0  0
  -21.9191   -4.6931   22.3399 C   0  0  0  0  0  0
  -22.7685  -13.5204   21.1849 C   0  0  0  0  0  0
  -22.1632   -4.2073   21.0978 F   0  0  0  0  0  0
  -21.5633   -3.4535   25.7749 F   0  0  0  0  0  0
  -29.9497  -13.6728   20.3872 N   0  0  0  0  0  0
  -26.2864  -12.9499   20.3286 N   0  0  0  0  0  0
  -25.9292  -11.6613   20.5683 N   0  0  0  0  0  0
  -22.0318  -12.8244   22.0438 N   0  0  0  0  0  0
  -25.4083  -15.1966   20.3955 N   0  0  0  0  0  0
  -31.7141  -15.0141   20.0701 O   0  0  0  0  0  0
  -21.6622   -6.8814   21.4214 O   0  0  0  0  0  0
  -22.3275  -14.5503   20.6719 O   0  0  0  0  0  0
  -24.6451  -31.8435   23.1861 C   0  0  0  0  0  0
  -25.9231  -32.4674   23.8264 C   0  0  1  0  0  0
  -27.2271  -27.1107   20.1418 C   0  0  0  0  0  0
  -25.6014  -33.8480   24.2229 N   0  0  0  0  0  0
  -23.4504  -30.4597   21.5277 C   0  0  2  0  0  0
  -24.9064  -28.8814   20.1090 C   0  0  0  0  0  0
  -22.7608  -29.4530   22.4798 C   0  0  0  0  0  0
  -18.0334  -28.1380   22.8516 C   0  0  0  0  0  0
  -24.1515  -36.7213   23.2642 C   0  0  0  0  0  0
  -26.0074  -30.7059   21.3951 C   0  0  0  0  0  0
  -26.0812  -29.3086   20.7425 C   0  0  0  0  0  0
  -27.2361  -28.4365   20.7527 C   0  0  0  0  0  0
  -26.0348  -26.8084   19.4485 C   0  0  0  0  0  0
  -24.8963  -27.6434   19.4491 C   0  0  0  0  0  0
  -23.6841  -29.7851   20.1480 C   0  0  0  0  0  0
  -25.4127  -36.2999   24.0341 C   0  0  1  0  0  0
  -20.5955  -28.3714   23.1234 C   0  0  2  0  0  0
  -20.6821  -26.9406   22.5404 C   0  0  0  0  0  0
  -19.5773  -26.6404   21.5226 C   0  0  0  0  0  0
  -18.1975  -26.7939   22.1664 C   0  0  0  0  0  0
  -19.1590  -28.8850   23.2887 C   0  0  0  0  0  0
  -18.9503  -30.1452   23.8893 C   0  0  0  0  0  0
  -17.6496  -30.6586   24.0549 C   0  0  0  0  0  0
  -25.9070  -34.9382   23.5060 C   0  0  0  0  0  0
  -16.5383  -29.9056   23.6315 C   0  0  0  0  0  0
  -16.7327  -28.6475   23.0361 C   0  0  0  0  0  0
  -26.4601  -31.6471   25.0641 C   0  0  0  0  0  0
  -25.3814  -31.3603   26.1351 C   0  0  0  0  0  0
  -27.0426  -30.2863   24.6163 C   0  0  0  0  0  0
  -27.6177  -32.4179   25.7393 C   0  0  0  0  0  0
  -27.5582  -37.1763   24.8475 C   0  0  0  0  0  0
  -21.4293  -29.3041   22.3591 N   0  0  0  0  0  0
  -26.4284  -37.3707   23.9432 N   0  0  0  0  0  0
  -24.7198  -31.0276   22.0900 N   0  0  0  0  0  0
  -23.4252  -28.8116   23.2982 O   0  0  0  0  0  0
  -28.2748  -26.1115   20.1548 O   0  0  0  0  0  0
  -26.5661  -34.8880   22.4631 O   0  0  0  0  0  0
  -23.5563  -32.1333   23.7041 O   0  0  0  0  0  0
  -28.9255  -23.3181   19.9197 C   0  0  0  0  0  0
  -28.8745  -19.1959   17.4045 C   0  0  0  0  0  0
  -30.1201  -18.2877   17.3001 C   0  0  0  0  0  0
  -29.0353  -20.5367   18.1557 C   0  0  0  0  0  0
  -30.6810  -17.7210   18.6326 C   0  0  0  0  0  0
  -29.1759  -19.0300   20.4615 C   0  0  2  0  0  0
  -29.3306  -20.5589   19.6892 C   0  0  2  0  0  0
  -29.6355  -17.5299   19.7654 C   0  0  2  0  0  0
  -27.7588  -18.9040   21.0927 C   0  0  0  0  0  0
  -27.9666  -24.5915   20.4229 C   0  0  0  0  0  0
  -28.7196  -21.9350   20.2351 N   0  0  0  0  0  0
  -29.7034  -16.1061   20.4810 N   0  0  0  0  0  0
  -29.8770  -23.6096   19.1925 O   0  0  0  0  0  0
  -31.4788  -12.7145   19.2091 H   0  0  0  0  0  0
  -30.4239  -11.6208   20.0417 H   0  0  0  0  0  0
  -29.8342  -11.7125   17.5914 H   0  0  0  0  0  0
  -29.6336  -13.4440   17.6984 H   0  0  0  0  0  0
  -27.9332  -11.2820   18.9589 H   0  0  0  0  0  0
  -27.3937  -12.4827   17.8140 H   0  0  0  0  0  0
  -27.5998  -14.2555   19.4117 H   0  0  0  0  0  0
  -28.7415  -12.2887   21.4548 H   0  0  0  0  0  0
  -28.3804  -13.9675   21.7655 H   0  0  0  0  0  0
  -25.2695   -9.5657   22.4728 H   0  0  0  0  0  0
  -23.9929   -7.4583   22.7518 H   0  0  0  0  0  0
  -21.0762   -8.8804   19.8985 H   0  0  0  0  0  0
  -22.3677  -10.9625   19.6122 H   0  0  0  0  0  0
  -21.2095   -7.6131   23.9717 H   0  0  0  0  0  0
  -21.1418   -6.0493   25.9093 H   0  0  0  0  0  0
  -22.0632   -2.7577   23.2883 H   0  0  0  0  0  0
  -22.3934  -11.9961   22.4917 H   0  0  0  0  0  0
  -21.0983  -13.1317   22.2766 H   0  0  0  0  0  0
  -24.6161  -15.8303   20.4339 H   0  0  0  0  0  0
  -26.2779  -15.6482   20.1308 H   0  0  0  0  0  0
  -26.7268  -32.5307   23.0967 H   0  0  0  0  0  0
  -25.0212  -33.9573   25.0429 H   0  0  0  0  0  0
  -22.7521  -31.2838   21.3658 H   0  0  0  0  0  0
  -23.3773  -35.9523   23.3239 H   0  0  0  0  0  0
  -24.3630  -36.8887   22.2060 H   0  0  0  0  0  0
  -23.7252  -37.6403   23.6688 H   0  0  0  0  0  0
  -26.1683  -31.4566   20.6201 H   0  0  0  0  0  0
  -26.8774  -30.7599   22.0366 H   0  0  0  0  0  0
  -28.1243  -28.7494   21.2868 H   0  0  0  0  0  0
  -25.9673  -25.8891   18.8878 H   0  0  0  0  0  0
  -24.0103  -27.3274   18.9205 H   0  0  0  0  0  0
  -23.8220  -30.5559   19.3872 H   0  0  0  0  0  0
  -22.7997  -29.2249   19.8378 H   0  0  0  0  0  0
  -25.1291  -36.1815   25.0828 H   0  0  0  0  0  0
  -21.0088  -28.3313   24.1337 H   0  0  0  0  0  0
  -20.5742  -26.2323   23.3625 H   0  0  0  0  0  0
  -21.6688  -26.7437   22.1173 H   0  0  0  0  0  0
  -19.6931  -25.6315   21.1241 H   0  0  0  0  0  0
  -19.6691  -27.3221   20.6751 H   0  0  0  0  0  0
  -17.4256  -26.6699   21.4059 H   0  0  0  0  0  0
  -18.0352  -26.0051   22.9031 H   0  0  0  0  0  0
  -19.7948  -30.7294   24.2282 H   0  0  0  0  0  0
  -17.5010  -31.6257   24.5163 H   0  0  0  0  0  0
  -15.5353  -30.2952   23.7615 H   0  0  0  0  0  0
  -15.8755  -28.0772   22.7069 H   0  0  0  0  0  0
  -24.6087  -30.6839   25.7703 H   0  0  0  0  0  0
  -24.8881  -32.2718   26.4724 H   0  0  0  0  0  0
  -25.8175  -30.8875   27.0165 H   0  0  0  0  0  0
  -26.2983  -29.6589   24.1254 H   0  0  0  0  0  0
  -27.4163  -29.7172   25.4698 H   0  0  0  0  0  0
  -27.8877  -30.4112   23.9371 H   0  0  0  0  0  0
  -27.2884  -33.3564   26.1891 H   0  0  0  0  0  0
  -28.4039  -32.6601   25.0203 H   0  0  0  0  0  0
  -28.0791  -31.8304   26.5361 H   0  0  0  0  0  0
  -28.2570  -38.0103   24.7542 H   0  0  0  0  0  0
  -28.1124  -36.2621   24.6255 H   0  0  0  0  0  0
  -27.2315  -37.1341   25.8892 H   0  0  0  0  0  0
  -20.9511  -29.8710   21.6728 H   0  0  0  0  0  0
  -26.0145  -38.2778   24.1405 H   0  0  0  0  0  0
  -28.0075  -18.6607   17.7882 H   0  0  0  0  0  0
  -28.5876  -19.4301   16.3763 H   0  0  0  0  0  0
  -30.9133  -18.7892   16.7399 H   0  0  0  0  0  0
  -29.8411  -17.4412   16.6641 H   0  0  0  0  0  0
  -28.1031  -21.0750   17.9815 H   0  0  0  0  0  0
  -29.7844  -21.1445   17.6374 H   0  0  0  0  0  0
  -31.5101  -18.3364   18.9762 H   0  0  0  0  0  0
  -31.1451  -16.7731   18.3684 H   0  0  0  0  0  0
  -29.8414  -19.1210   21.3238 H   0  0  0  0  0  0
  -30.4096  -20.7319   19.7463 H   0  0  0  0  0  0
  -28.7385  -17.2590   19.2108 H   0  0  0  0  0  0
  -26.9819  -18.8119   20.3280 H   0  0  0  0  0  0
  -27.4969  -19.7635   21.7183 H   0  0  0  0  0  0
  -27.6602  -18.0354   21.7472 H   0  0  0  0  0  0
  -27.9114  -24.4930   21.5067 H   0  0  0  0  0  0
  -26.9615  -24.3574   20.0770 H   0  0  0  0  0  0
  -27.9343  -21.8047   20.8565 H   0  0  0  0  0  0
  -28.8205  -15.8644   20.9048 H   0  0  0  0  0  0
  1 25  1  0  0  0
  1 30  2  0  0  0
  1 82  1  0  0  0
  2  3  1  0  0  0
  2 25  1  0  0  0
  2 84  1  0  0  0
  2 85  1  0  0  0
  3  4  1  0  0  0
  3 86  1  0  0  0
  3 87  1  0  0  0
  4  5  1  0  0  0
  4 88  1  0  0  0
  4 89  1  0  0  0
  5  6  1  0  0  0
  5 26  1  0  0  0
  5 90  1  0  0  0
  6 25  1  0  0  0
  6 91  1  0  0  0
  6 92  1  0  0  0
  7  8  2  0  0  0
  7 26  1  0  0  0
  7 29  1  0  0  0
  8  9  1  0  0  0
  8 22  1  0  0  0
  9 10  1  0  0  0
  9 27  2  0  0  0
 10 11  2  0  0  0
 10 15  1  0  0  0
 11 12  1  0  0  0
 11 93  1  0  0  0
 12 13  2  0  0  0
 12 94  1  0  0  0
 13 14  1  0  0  0
 13 31  1  0  0  0
 14 15  2  0  0  0
 14 95  1  0  0  0
 15 96  1  0  0  0
 16 17  2  0  0  0
 16 21  1  0  0  0
 16 31  1  0  0  0
 17 18  1  0  0  0
 17 97  1  0  0  0
 18 19  2  0  0  0
 18 98  1  0  0  0
 19 20  1  0  0  0
 19 24  1  0  0  0
 20 21  2  0  0  0
 20 99  1  0  0  0
 21 23  1  0  0  0
 22 28  1  0  0  0
 22 32  2  0  0  0
 26 27  1  0  0  0
 28100  1  0  0  0
 28101  1  0  0  0
 29102  1  0  0  0
 29103  1  0  0  0
 33 34  1  0  0  0
 33 66  1  0  0  0
 33 70  2  0  0  0
 34 36  1  0  0  0
 34 59  1  0  0  0
 34104  1  0  0  0
 35 44  2  0  0  0
 35 45  1  0  0  0
 35 68  1  0  0  0
 36 56  1  0  0  0
 36105  1  0  0  0
 37 39  1  0  0  0
 37 47  1  0  0  0
 37 66  1  0  0  0
 37106  1  0  0  0
 38 43  2  0  0  0
 38 46  1  0  0  0
 38 47  1  0  0  0
 39 64  1  0  0  0
 39 67  2  0  0  0
 40 52  1  0  0  0
 40 53  2  0  0  0
 40 58  1  0  0  0
 41107  1  0  0  0
 41108  1  0  0  0
 41109  1  0  0  0
 41 48  1  0  0  0
 42 43  1  0  0  0
 42 66  1  0  0  0
 42110  1  0  0  0
 42111  1  0  0  0
 43 44  1  0  0  0
 44112  1  0  0  0
 45 46  2  0  0  0
 45113  1  0  0  0
 46114  1  0  0  0
 47115  1  0  0  0
 47116  1  0  0  0
 48 56  1  0  0  0
 48 65  1  0  0  0
 48117  1  0  0  0
 49 50  1  0  0  0
 49 53  1  0  0  0
 49 64  1  0  0  0
 49118  1  0  0  0
 50 51  1  0  0  0
 50119  1  0  0  0
 50120  1  0  0  0
 51 52  1  0  0  0
 51121  1  0  0  0
 51122  1  0  0  0
 52123  1  0  0  0
 52124  1  0  0  0
 53 54  1  0  0  0
 54 55  2  0  0  0
 54125  1  0  0  0
 55 57  1  0  0  0
 55126  1  0  0  0
 56 69  2  0  0  0
 57 58  2  0  0  0
 57127  1  0  0  0
 58128  1  0  0  0
 59 60  1  0  0  0
 59 61  1  0  0  0
 59 62  1  0  0  0
 60129  1  0  0  0
 60130  1  0  0  0
 60131  1  0  0  0
 61132  1  0  0  0
 61133  1  0  0  0
 61134  1  0  0  0
 62135  1  0  0  0
 62136  1  0  0  0
 62137  1  0  0  0
 63 65  1  0  0  0
 63138  1  0  0  0
 63139  1  0  0  0
 63140  1  0  0  0
 64141  1  0  0  0
 65142  1  0  0  0
 68 80  1  0  0  0
 71 80  1  0  0  0
 71 81  1  0  0  0
 71 83  2  0  0  0
 72 73  1  0  0  0
 72 74  1  0  0  0
 72143  1  0  0  0
 72144  1  0  0  0
 73 75  1  0  0  0
 73145  1  0  0  0
 73146  1  0  0  0
 74 77  1  0  0  0
 74147  1  0  0  0
 74148  1  0  0  0
 75 78  1  0  0  0
 75149  1  0  0  0
 75150  1  0  0  0
 76 77  1  0  0  0
 76 78  1  0  0  0
 76 79  1  0  0  0
 76151  1  0  0  0
 77 81  1  0  0  0
 77152  1  0  0  0
 78 82  1  0  0  0
 78153  1  0  0  0
 79154  1  0  0  0
 79155  1  0  0  0
 79156  1  0  0  0
 80157  1  0  0  0
 80158  1  0  0  0
 81159  1  0  0  0
 82160  1  0  0  0
M  ISO  4   1 100  68 101  80 101  82 100
M  END
> <chiral flag>
0

> <version>
0

> <s_m_source_file>
/data/baiqing/PycharmProjects/Reinvent-master-3.2/result/LINK_invent/BTK/process_docking_weight1_custom_product_contain_oxygen_bond_distance_aromatic_linkinvent_7_9_3/rearranged_h_0030.sdf

> <i_m_source_file_index>
15

> <r_mmod_Potential_Energy-OPLS-2005>
608.174682617188

> <r_mmod_Stretch_Energy-OPLS-2005>
316.403045654297

> <r_mmod_Bend_Energy-OPLS-2005>
309.057952880859

> <r_mmod_Torsional_Energy-OPLS-2005>
294.003112792969

> <r_mmod_Improper_Torsional_Energy-OPLS-2005>
6.32923221588135

> <r_mmod_Van_der_Waal_Energy-OPLS-2005>
111.580238342285

> <r_mmod_Electrostatic_Energy-OPLS-2005>
-383.843383789062

> <r_mmod_Solvation_Energy-OPLS-2005>
-246.189788818359

> <b_mmod_Minimization_Converged-OPLS-2005>
0

> <r_mmod_RMS_Derivative-OPLS-2005>
8.94136619567871

$$$$
15
                    3D
 Structure written by MMmdl.
170180  0  0  1  0            999 V2000
  -30.7590  -14.6039   20.4909 C   0  0  0  0  0  0
  -30.4165  -12.3714   19.4440 C   0  0  0  0  0  0
  -29.4867  -12.3941   18.2149 C   0  0  0  0  0  0
  -28.0090  -12.3039   18.6415 C   0  0  0  0  0  0
  -27.6398  -13.2098   19.8490 C   0  0  2  0  0  0
  -28.7057  -13.1742   20.9657 C   0  0  0  0  0  0
  -25.2561  -13.8148   20.5710 C   0  0  0  0  0  0
  -24.1817  -13.0436   20.9223 C   0  0  0  0  0  0
  -24.6364  -11.6915   20.8821 C   0  0  0  0  0  0
  -23.9039  -10.4302   21.0417 C   0  0  0  0  0  0
  -24.3602   -9.4240   21.9197 C   0  0  0  0  0  0
  -23.6289   -8.2269   22.0763 C   0  0  0  0  0  0
  -22.4279   -8.0279   21.3541 C   0  0  0  0  0  0
  -21.9910   -9.0263   20.4661 C   0  0  0  0  0  0
  -22.7218  -10.2148   20.3063 C   0  0  0  0  0  0
  -21.6855   -6.0721   22.5275 C   0  0  0  0  0  0
  -21.4024   -6.5637   23.8202 C   0  0  0  0  0  0
  -21.3671   -5.6785   24.9162 C   0  0  0  0  0  0
  -21.6038   -4.3047   24.7216 C   0  0  0  0  0  0
  -21.8833   -3.8148   23.4341 C   0  0  0  0  0  0
  -21.9199   -4.6954   22.3391 C   0  0  0  0  0  0
  -22.7847  -13.5269   21.1858 C   0  0  0  0  0  0
  -22.1662   -4.2131   21.0968 F   0  0  0  0  0  0
  -21.5628   -3.4538   25.7739 F   0  0  0  0  0  0
  -30.0104  -13.4632   20.3501 N   0  0  0  0  0  0
  -26.2965  -12.9321   20.3416 N   0  0  0  0  0  0
  -25.9298  -11.6508   20.5914 N   0  0  0  0  0  0
  -22.0464  -12.8241   22.0385 N   0  0  0  0  0  0
  -25.4352  -15.1851   20.4088 N   0  0  0  0  0  0
  -31.9553  -14.6191   20.1952 O   0  0  0  0  0  0
  -21.6665   -6.8854   21.4232 O   0  0  0  0  0  0
  -22.3549  -14.5593   20.6739 O   0  0  0  0  0  0
  -24.6246  -31.8630   23.2004 C   0  0  0  0  0  0
  -25.9056  -32.4802   23.8344 C   0  0  1  0  0  0
  -27.1996  -27.3141   20.1041 C   0  0  0  0  0  0
  -25.5896  -33.8587   24.2282 N   0  0  0  0  0  0
  -23.4227  -30.4899   21.5462 C   0  0  2  0  0  0
  -24.8606  -28.9548   20.1121 C   0  0  0  0  0  0
  -22.7484  -29.4645   22.4874 C   0  0  0  0  0  0
  -18.0348  -28.1483   22.8324 C   0  0  0  0  0  0
  -24.1467  -36.7291   23.2629 C   0  0  0  0  0  0
  -25.9617  -30.8013   21.3718 C   0  0  0  0  0  0
  -26.0326  -29.4262   20.7171 C   0  0  0  0  0  0
  -27.2050  -28.6112   20.7160 C   0  0  0  0  0  0
  -25.9968  -26.9104   19.4794 C   0  0  0  0  0  0
  -24.8412  -27.7012   19.4940 C   0  0  0  0  0  0
  -23.6312  -29.8344   20.1575 C   0  0  0  0  0  0
  -25.4101  -36.3106   24.0314 C   0  0  1  0  0  0
  -20.5948  -28.3661   23.1103 C   0  0  2  0  0  0
  -20.6898  -26.9349   22.5356 C   0  0  0  0  0  0
  -19.5762  -26.6182   21.5281 C   0  0  0  0  0  0
  -18.1889  -26.8068   22.1373 C   0  0  0  0  0  0
  -19.1645  -28.8885   23.2732 C   0  0  0  0  0  0
  -18.9670  -30.1464   23.8829 C   0  0  0  0  0  0
  -17.6690  -30.6547   24.0751 C   0  0  0  0  0  0
  -25.9053  -34.9472   23.5102 C   0  0  0  0  0  0
  -16.5544  -29.9182   23.6376 C   0  0  0  0  0  0
  -16.7388  -28.6653   23.0210 C   0  0  0  0  0  0
  -26.4499  -31.6632   25.0715 C   0  0  0  0  0  0
  -25.3785  -31.3741   26.1477 C   0  0  0  0  0  0
  -27.0342  -30.3064   24.6166 C   0  0  0  0  0  0
  -27.6058  -32.4363   25.7554 C   0  0  0  0  0  0
  -27.5569  -37.1801   24.8457 C   0  0  0  0  0  0
  -21.4282  -29.2845   22.3348 N   0  0  0  0  0  0
  -26.4288  -37.3806   23.9405 N   0  0  0  0  0  0
  -24.6872  -31.0704   22.0977 N   0  0  0  0  0  0
  -23.4171  -28.8353   23.3135 O   0  0  0  0  0  0
  -28.3085  -26.4508   20.1484 O   0  0  0  0  0  0
  -26.5629  -34.8961   22.4688 O   0  0  0  0  0  0
  -23.5372  -32.1360   23.7354 O   0  0  0  0  0  0
  -27.0649  -17.2818   18.2538 C   0  0  0  0  0  0
  -29.0990  -16.0080   18.4986 C   0  0  0  0  0  0
  -27.3421  -17.9641   19.4573 C   0  0  0  0  0  0
  -28.5845  -17.7572   20.1280 C   0  0  0  0  0  0
  -29.3014  -16.5467   19.7894 C   0  0  0  0  0  0
  -27.9864  -16.3689   17.7296 C   0  0  0  0  0  0
  -27.2937  -21.9816   22.1620 C   0  0  0  0  0  0
  -27.2503  -24.3450   21.0943 C   0  0  0  0  0  0
  -29.2172  -23.9453   19.8582 C   0  0  0  0  0  0
  -28.4419  -20.9648   22.2917 C   0  0  0  0  0  0
  -29.2811  -21.1798   20.0656 C   0  0  0  0  0  0
  -27.2974  -22.8108   20.8538 C   0  0  1  0  0  0
  -28.4821  -22.5508   19.8829 C   0  0  1  0  0  0
  -28.0647  -24.9954   19.9572 C   0  0  2  0  0  0
  -26.2182  -18.7901   20.0679 C   0  0  0  0  0  0
  -29.0735  -18.7885   21.1895 C   0  0  0  0  0  0
  -30.1613  -15.8167   20.7030 N   0  0  0  0  0  0
  -28.6017  -20.2313   21.0189 N   0  3  1  0  0  0
  -27.6873  -15.5723   16.2302 Cl  0  0  0  0  0  0
  -31.4565  -12.4459   19.1225 H   0  0  0  0  0  0
  -30.3373  -11.4135   19.9589 H   0  0  0  0  0  0
  -29.7177  -11.5482   17.5662 H   0  0  0  0  0  0
  -29.6563  -13.2714   17.5992 H   0  0  0  0  0  0
  -27.8143  -11.2599   18.8979 H   0  0  0  0  0  0
  -27.3573  -12.5286   17.7960 H   0  0  0  0  0  0
  -27.6098  -14.2206   19.4642 H   0  0  0  0  0  0
  -28.7290  -12.2034   21.4640 H   0  0  0  0  0  0
  -28.4751  -13.9121   21.7346 H   0  0  0  0  0  0
  -25.2728   -9.5743   22.4792 H   0  0  0  0  0  0
  -24.0003   -7.4666   22.7476 H   0  0  0  0  0  0
  -21.0852   -8.8800   19.8944 H   0  0  0  0  0  0
  -22.3681  -10.9710   19.6190 H   0  0  0  0  0  0
  -21.2037   -7.6153   23.9688 H   0  0  0  0  0  0
  -21.1462   -6.0526   25.9047 H   0  0  0  0  0  0
  -22.0601   -2.7611   23.2860 H   0  0  0  0  0  0
  -22.4079  -11.9894   22.4770 H   0  0  0  0  0  0
  -21.1075  -13.1256   22.2573 H   0  0  0  0  0  0
  -24.6729  -15.8470   20.4894 H   0  0  0  0  0  0
  -26.2907  -15.6053   20.0686 H   0  0  0  0  0  0
  -26.7118  -32.5454   23.1074 H   0  0  0  0  0  0
  -25.0072  -33.9790   25.0438 H   0  0  0  0  0  0
  -22.7203  -31.3064   21.4047 H   0  0  0  0  0  0
  -23.3769  -35.9596   23.3339 H   0  0  0  0  0  0
  -24.3515  -36.8877   22.2040 H   0  0  0  0  0  0
  -23.7221  -37.6487   23.6655 H   0  0  0  0  0  0
  -26.0867  -31.5750   20.6079 H   0  0  0  0  0  0
  -26.8449  -30.8489   21.9971 H   0  0  0  0  0  0
  -28.1002  -28.9580   21.2116 H   0  0  0  0  0  0
  -25.8955  -25.9546   18.9901 H   0  0  0  0  0  0
  -23.9345  -27.3404   19.0273 H   0  0  0  0  0  0
  -23.7420  -30.6034   19.3948 H   0  0  0  0  0  0
  -22.7502  -29.2593   19.8552 H   0  0  0  0  0  0
  -25.1312  -36.1988   25.0816 H   0  0  0  0  0  0
  -21.0011  -28.3190   24.1223 H   0  0  0  0  0  0
  -20.6158  -26.2240   23.3603 H   0  0  0  0  0  0
  -21.6692  -26.7604   22.0997 H   0  0  0  0  0  0
  -19.6663  -25.5994   21.1599 H   0  0  0  0  0  0
  -19.6956  -27.2633   20.6624 H   0  0  0  0  0  0
  -17.4384  -26.7052   21.3500 H   0  0  0  0  0  0
  -17.9762  -26.0278   22.8721 H   0  0  0  0  0  0
  -19.8207  -30.7211   24.2178 H   0  0  0  0  0  0
  -17.5313  -31.6085   24.5637 H   0  0  0  0  0  0
  -15.5550  -30.3115   23.7749 H   0  0  0  0  0  0
  -15.8794  -28.1120   22.6723 H   0  0  0  0  0  0
  -24.5942  -30.7122   25.7814 H   0  0  0  0  0  0
  -24.9021  -32.2902   26.4988 H   0  0  0  0  0  0
  -25.8126  -30.8870   27.0230 H   0  0  0  0  0  0
  -26.2886  -29.6840   24.1221 H   0  0  0  0  0  0
  -27.4064  -29.7297   25.4662 H   0  0  0  0  0  0
  -27.8766  -30.4348   23.9355 H   0  0  0  0  0  0
  -27.2641  -33.3620   26.2221 H   0  0  0  0  0  0
  -28.3893  -32.6999   25.0434 H   0  0  0  0  0  0
  -28.0752  -31.8450   26.5450 H   0  0  0  0  0  0
  -28.2616  -38.0071   24.7533 H   0  0  0  0  0  0
  -28.1034  -36.2621   24.6293 H   0  0  0  0  0  0
  -27.2262  -37.1465   25.8842 H   0  0  0  0  0  0
  -20.9799  -29.7584   21.5615 H   0  0  0  0  0  0
  -26.0172  -38.2870   24.1467 H   0  0  0  0  0  0
  -26.1329  -17.4480   17.7321 H   0  0  0  0  0  0
  -29.7481  -15.2415   18.1150 H   0  0  0  0  0  0
  -27.2963  -22.6263   23.0450 H   0  0  0  0  0  0
  -26.3505  -21.4338   22.2199 H   0  0  0  0  0  0
  -27.7456  -24.5915   22.0365 H   0  0  0  0  0  0
  -26.2272  -24.7230   21.1702 H   0  0  0  0  0  0
  -29.8272  -24.0766   18.9623 H   0  0  0  0  0  0
  -29.8812  -24.0154   20.7241 H   0  0  0  0  0  0
  -28.2490  -20.3113   23.1422 H   0  0  0  0  0  0
  -29.3780  -21.4723   22.5224 H   0  0  0  0  0  0
  -30.2924  -21.3843   20.4181 H   0  0  0  0  0  0
  -29.4097  -20.6848   19.0993 H   0  0  0  0  0  0
  -26.3868  -22.5565   20.3029 H   0  0  0  0  0  0
  -28.0267  -22.4571   18.8962 H   0  0  0  0  0  0
  -27.5643  -24.8552   18.9991 H   0  0  0  0  0  0
  -25.2473  -18.4718   19.6801 H   0  0  0  0  0  0
  -26.3076  -19.8541   19.8702 H   0  0  0  0  0  0
  -26.1737  -18.6198   21.1469 H   0  0  0  0  0  0
  -30.1587  -18.7622   21.2810 H   0  0  0  0  0  0
  -28.6820  -18.3998   22.1284 H   0  0  0  0  0  0
  -30.7648  -16.4214   21.2409 H   0  0  0  0  0  0
  -27.6718  -20.1100   20.6523 H   0  0  0  0  0  0
  1 25  1  0  0  0
  1 30  2  0  0  0
  1 87  1  0  0  0
  2  3  1  0  0  0
  2 25  1  0  0  0
  2 90  1  0  0  0
  2 91  1  0  0  0
  3  4  1  0  0  0
  3 92  1  0  0  0
  3 93  1  0  0  0
  4  5  1  0  0  0
  4 94  1  0  0  0
  4 95  1  0  0  0
  5  6  1  0  0  0
  5 26  1  0  0  0
  5 96  1  0  0  0
  6 25  1  0  0  0
  6 97  1  0  0  0
  6 98  1  0  0  0
  7  8  2  0  0  0
  7 26  1  0  0  0
  7 29  1  0  0  0
  8  9  1  0  0  0
  8 22  1  0  0  0
  9 10  1  0  0  0
  9 27  2  0  0  0
 10 11  2  0  0  0
 10 15  1  0  0  0
 11 12  1  0  0  0
 11 99  1  0  0  0
 12 13  2  0  0  0
 12100  1  0  0  0
 13 14  1  0  0  0
 13 31  1  0  0  0
 14 15  2  0  0  0
 14101  1  0  0  0
 15102  1  0  0  0
 16 17  2  0  0  0
 16 21  1  0  0  0
 16 31  1  0  0  0
 17 18  1  0  0  0
 17103  1  0  0  0
 18 19  2  0  0  0
 18104  1  0  0  0
 19 20  1  0  0  0
 19 24  1  0  0  0
 20 21  2  0  0  0
 20105  1  0  0  0
 21 23  1  0  0  0
 22 28  1  0  0  0
 22 32  2  0  0  0
 26 27  1  0  0  0
 28106  1  0  0  0
 28107  1  0  0  0
 29108  1  0  0  0
 29109  1  0  0  0
 33 34  1  0  0  0
 33 66  1  0  0  0
 33 70  2  0  0  0
 34 36  1  0  0  0
 34 59  1  0  0  0
 34110  1  0  0  0
 35 44  2  0  0  0
 35 45  1  0  0  0
 35 68  1  0  0  0
 36 56  1  0  0  0
 36111  1  0  0  0
 37 39  1  0  0  0
 37 47  1  0  0  0
 37 66  1  0  0  0
 37112  1  0  0  0
 38 43  2  0  0  0
 38 46  1  0  0  0
 38 47  1  0  0  0
 39 64  1  0  0  0
 39 67  2  0  0  0
 40 52  1  0  0  0
 40 53  2  0  0  0
 40 58  1  0  0  0
 41113  1  0  0  0
 41114  1  0  0  0
 41115  1  0  0  0
 41 48  1  0  0  0
 42 43  1  0  0  0
 42 66  1  0  0  0
 42116  1  0  0  0
 42117  1  0  0  0
 43 44  1  0  0  0
 44118  1  0  0  0
 45 46  2  0  0  0
 45119  1  0  0  0
 46120  1  0  0  0
 47121  1  0  0  0
 47122  1  0  0  0
 48 56  1  0  0  0
 48 65  1  0  0  0
 48123  1  0  0  0
 49 50  1  0  0  0
 49 53  1  0  0  0
 49 64  1  0  0  0
 49124  1  0  0  0
 50 51  1  0  0  0
 50125  1  0  0  0
 50126  1  0  0  0
 51 52  1  0  0  0
 51127  1  0  0  0
 51128  1  0  0  0
 52129  1  0  0  0
 52130  1  0  0  0
 53 54  1  0  0  0
 54 55  2  0  0  0
 54131  1  0  0  0
 55 57  1  0  0  0
 55132  1  0  0  0
 56 69  2  0  0  0
 57 58  2  0  0  0
 57133  1  0  0  0
 58134  1  0  0  0
 59 60  1  0  0  0
 59 61  1  0  0  0
 59 62  1  0  0  0
 60135  1  0  0  0
 60136  1  0  0  0
 60137  1  0  0  0
 61138  1  0  0  0
 61139  1  0  0  0
 61140  1  0  0  0
 62141  1  0  0  0
 62142  1  0  0  0
 62143  1  0  0  0
 63 65  1  0  0  0
 63144  1  0  0  0
 63145  1  0  0  0
 63146  1  0  0  0
 64147  1  0  0  0
 65148  1  0  0  0
 68 84  1  0  0  0
 71 73  2  0  0  0
 71 76  1  0  0  0
 71149  1  0  0  0
 72 75  1  0  0  0
 72 76  2  0  0  0
 72150  1  0  0  0
 73 74  1  0  0  0
 73 85  1  0  0  0
 74 75  2  0  0  0
 74 86  1  0  0  0
 75 87  1  0  0  0
 76 89  1  0  0  0
 77 80  1  0  0  0
 77151  1  0  0  0
 77152  1  0  0  0
 77 82  1  0  0  0
 78 82  1  0  0  0
 78 84  1  0  0  0
 78153  1  0  0  0
 78154  1  0  0  0
 79 84  1  0  0  0
 79155  1  0  0  0
 79156  1  0  0  0
 79 83  1  0  0  0
 80 88  1  0  0  0
 80157  1  0  0  0
 80158  1  0  0  0
 81 83  1  0  0  0
 81 88  1  0  0  0
 81159  1  0  0  0
 81160  1  0  0  0
 82 83  1  0  0  0
 82161  1  0  0  0
 83162  1  0  0  0
 84163  1  0  0  0
 85164  1  0  0  0
 85165  1  0  0  0
 85166  1  0  0  0
 86167  1  0  0  0
 86168  1  0  0  0
 86 88  1  0  0  0
 87169  1  0  0  0
 88170  1  0  0  0
M  CHG  1  88   1
M  ISO  4   1 100  68 101  84 101  87 100
M  END
> <chiral flag>
0

> <version>
0

> <s_m_source_file>
/data/baiqing/PycharmProjects/Reinvent-master-3.2/result/LINK_invent/BTK/process_docking_weight1_custom_product_contain_oxygen_bond_distance_aromatic_linkinvent_7_9_3/rearranged_h_0030.sdf

> <i_m_source_file_index>
16

> <r_mmod_Potential_Energy-OPLS-2005>
246.829620361328

> <r_mmod_Stretch_Energy-OPLS-2005>
78.8735885620117

> <r_mmod_Bend_Energy-OPLS-2005>
206.270767211914

> <r_mmod_Torsional_Energy-OPLS-2005>
412.462768554688

> <r_mmod_Improper_Torsional_Energy-OPLS-2005>
9.6761531829834

> <r_mmod_Van_der_Waal_Energy-OPLS-2005>
151.551391601562

> <r_mmod_Electrostatic_Energy-OPLS-2005>
-218.575302124023

> <r_mmod_Solvation_Energy-OPLS-2005>
-453.492828369141

> <b_mmod_Minimization_Converged-OPLS-2005>
0

> <r_mmod_RMS_Derivative-OPLS-2005>
9.56659603118896

$$$$
16
                    3D
 Structure written by MMmdl.
160169  0  0  1  0            999 V2000
  -30.6533  -14.5075   20.5511 C   0  0  0  0  0  0
  -30.4254  -12.3057   19.4612 C   0  0  0  0  0  0
  -29.5010  -12.4470   18.2313 C   0  0  0  0  0  0
  -28.0103  -12.3689   18.6245 C   0  0  0  0  0  0
  -27.6584  -13.2119   19.8816 C   0  0  2  0  0  0
  -28.6958  -13.0094   21.0046 C   0  0  0  0  0  0
  -25.2567  -13.8246   20.5696 C   0  0  0  0  0  0
  -24.1837  -13.0470   20.9313 C   0  0  0  0  0  0
  -24.6440  -11.6953   20.8820 C   0  0  0  0  0  0
  -23.9101  -10.4321   21.0452 C   0  0  0  0  0  0
  -24.3637   -9.4217   21.9190 C   0  0  0  0  0  0
  -23.6327   -8.2238   22.0731 C   0  0  0  0  0  0
  -22.4304   -8.0273   21.3508 C   0  0  0  0  0  0
  -21.9942   -9.0271   20.4603 C   0  0  0  0  0  0
  -22.7282  -10.2177   20.3064 C   0  0  0  0  0  0
  -21.6854   -6.0748   22.5270 C   0  0  0  0  0  0
  -21.3975   -6.5656   23.8196 C   0  0  0  0  0  0
  -21.3695   -5.6838   24.9158 C   0  0  0  0  0  0
  -21.6079   -4.3094   24.7215 C   0  0  0  0  0  0
  -21.8821   -3.8163   23.4317 C   0  0  0  0  0  0
  -21.9185   -4.6965   22.3369 C   0  0  0  0  0  0
  -22.7862  -13.5262   21.2038 C   0  0  0  0  0  0
  -22.1625   -4.2157   21.0953 F   0  0  0  0  0  0
  -21.5662   -3.4575   25.7729 F   0  0  0  0  0  0
  -30.0198  -13.3087   20.4592 N   0  0  0  0  0  0
  -26.3007  -12.9407   20.3410 N   0  0  0  0  0  0
  -25.9347  -11.6549   20.5813 N   0  0  0  0  0  0
  -22.0500  -12.8206   22.0571 N   0  0  0  0  0  0
  -25.4240  -15.1957   20.3907 N   0  0  0  0  0  0
  -31.8069  -14.6537   20.1350 O   0  0  0  0  0  0
  -21.6650   -6.8863   21.4203 O   0  0  0  0  0  0
  -22.3535  -14.5567   20.6921 O   0  0  0  0  0  0
  -24.6227  -31.8639   23.2065 C   0  0  0  0  0  0
  -25.9121  -32.4793   23.8379 C   0  0  1  0  0  0
  -27.2065  -27.3665   20.0967 C   0  0  0  0  0  0
  -25.5944  -33.8583   24.2336 N   0  0  0  0  0  0
  -23.4115  -30.4920   21.5472 C   0  0  2  0  0  0
  -24.8477  -28.9511   20.1088 C   0  0  0  0  0  0
  -22.7449  -29.4673   22.4957 C   0  0  0  0  0  0
  -18.0285  -28.1383   22.8485 C   0  0  0  0  0  0
  -24.1486  -36.7301   23.2641 C   0  0  0  0  0  0
  -25.9484  -30.8028   21.3725 C   0  0  0  0  0  0
  -26.0154  -29.4339   20.7152 C   0  0  0  0  0  0
  -27.1964  -28.6489   20.7072 C   0  0  0  0  0  0
  -26.0184  -26.9167   19.4754 C   0  0  0  0  0  0
  -24.8489  -27.6953   19.4852 C   0  0  0  0  0  0
  -23.6190  -29.8301   20.1590 C   0  0  0  0  0  0
  -25.4105  -36.3102   24.0347 C   0  0  1  0  0  0
  -20.5878  -28.3684   23.1275 C   0  0  2  0  0  0
  -20.6772  -26.9422   22.5398 C   0  0  0  0  0  0
  -19.5747  -26.6393   21.5193 C   0  0  0  0  0  0
  -18.1921  -26.7933   22.1617 C   0  0  0  0  0  0
  -19.1540  -28.8844   23.2877 C   0  0  0  0  0  0
  -18.9482  -30.1443   23.8900 C   0  0  0  0  0  0
  -17.6485  -30.6583   24.0568 C   0  0  0  0  0  0
  -25.9041  -34.9462   23.5142 C   0  0  0  0  0  0
  -16.5370  -29.9093   23.6316 C   0  0  0  0  0  0
  -16.7278  -28.6507   23.0342 C   0  0  0  0  0  0
  -26.4502  -31.6581   25.0740 C   0  0  0  0  0  0
  -25.3745  -31.3724   26.1492 C   0  0  0  0  0  0
  -27.0339  -30.2999   24.6208 C   0  0  0  0  0  0
  -27.6066  -32.4301   25.7532 C   0  0  0  0  0  0
  -27.5585  -37.1812   24.8477 C   0  0  0  0  0  0
  -21.4173  -29.3060   22.3692 N   0  0  0  0  0  0
  -26.4296  -37.3784   23.9426 N   0  0  0  0  0  0
  -24.6791  -31.0715   22.0973 N   0  0  0  0  0  0
  -23.4200  -28.8218   23.3017 O   0  0  0  0  0  0
  -28.3483  -26.5788   20.1467 O   0  0  0  0  0  0
  -26.5594  -34.8925   22.4697 O   0  0  0  0  0  0
  -23.5403  -32.1422   23.7422 O   0  0  0  0  0  0
  -26.9990  -19.0343   22.1948 C   0  0  0  0  0  0
  -27.8666  -18.0636   21.6491 C   0  0  0  0  0  0
  -27.2679  -20.4217   22.0858 C   0  0  0  0  0  0
  -28.4492  -20.8520   21.4178 C   0  0  0  0  0  0
  -29.0165  -18.4652   20.9387 C   0  0  0  0  0  0
  -29.2872  -19.8644   20.8085 C   0  0  0  0  0  0
  -27.4530  -24.1709   20.4326 C   0  0  0  0  0  0
  -29.4731  -24.3418   20.0825 C   0  0  0  0  0  0
  -28.2863  -25.2102   19.6545 C   0  0  2  0  0  0
  -26.2695  -21.4143   22.6766 C   0  0  0  0  0  0
  -28.8801  -22.3432   21.4671 C   0  0  0  0  0  0
  -29.8935  -15.6343   20.9409 N   0  0  0  0  0  0
  -28.5569  -23.2068   20.2888 N   0  3  1  0  0  0
  -31.4969  -17.5984   20.4059 O   0  0  0  0  0  0
  -29.6577  -17.0281   18.7635 O   0  0  0  0  0  0
  -30.1008  -17.1969   20.1587 S   0  0  0  0  0  0
  -30.6298  -20.4183   19.8599 Cl  0  0  0  0  0  0
  -31.4748  -12.4070   19.1723 H   0  0  0  0  0  0
  -30.3456  -11.3038   19.8913 H   0  0  0  0  0  0
  -29.7218  -11.6477   17.5217 H   0  0  0  0  0  0
  -29.7119  -13.3871   17.7166 H   0  0  0  0  0  0
  -27.7710  -11.3169   18.8032 H   0  0  0  0  0  0
  -27.3703  -12.6841   17.7973 H   0  0  0  0  0  0
  -27.7032  -14.2552   19.5766 H   0  0  0  0  0  0
  -28.6826  -11.9787   21.3689 H   0  0  0  0  0  0
  -28.4824  -13.6475   21.8639 H   0  0  0  0  0  0
  -25.2813   -9.5692   22.4715 H   0  0  0  0  0  0
  -24.0099   -7.4651   22.7471 H   0  0  0  0  0  0
  -21.0892   -8.8870   19.8863 H   0  0  0  0  0  0
  -22.3827  -10.9754   19.6139 H   0  0  0  0  0  0
  -21.1877   -7.6145   23.9673 H   0  0  0  0  0  0
  -21.1547   -6.0549   25.9078 H   0  0  0  0  0  0
  -22.0548   -2.7632   23.2847 H   0  0  0  0  0  0
  -22.4126  -11.9848   22.4893 H   0  0  0  0  0  0
  -21.1050  -13.1000   22.2819 H   0  0  0  0  0  0
  -24.6076  -15.7994   20.3470 H   0  0  0  0  0  0
  -26.1890  -15.5499   19.8307 H   0  0  0  0  0  0
  -26.7208  -32.5460   23.1133 H   0  0  0  0  0  0
  -25.0122  -33.9720   25.0517 H   0  0  0  0  0  0
  -22.7043  -31.3117   21.4053 H   0  0  0  0  0  0
  -23.3734  -35.9646   23.3313 H   0  0  0  0  0  0
  -24.3593  -36.8890   22.2055 H   0  0  0  0  0  0
  -23.7232  -37.6516   23.6623 H   0  0  0  0  0  0
  -26.0817  -31.5595   20.5995 H   0  0  0  0  0  0
  -26.8317  -30.8479   21.9990 H   0  0  0  0  0  0
  -28.0920  -29.0073   21.1969 H   0  0  0  0  0  0
  -25.9572  -25.9567   18.9842 H   0  0  0  0  0  0
  -23.9564  -27.3190   19.0031 H   0  0  0  0  0  0
  -23.7380  -30.6040   19.3984 H   0  0  0  0  0  0
  -22.7385  -29.2556   19.8605 H   0  0  0  0  0  0
  -25.1266  -36.1972   25.0828 H   0  0  0  0  0  0
  -20.9978  -28.3256   24.1390 H   0  0  0  0  0  0
  -20.5626  -26.2320   23.3601 H   0  0  0  0  0  0
  -21.6645  -26.7427   22.1220 H   0  0  0  0  0  0
  -19.6907  -25.6296   21.1221 H   0  0  0  0  0  0
  -19.6665  -27.3195   20.6705 H   0  0  0  0  0  0
  -17.4195  -26.6658   21.4024 H   0  0  0  0  0  0
  -18.0345  -26.0066   22.9005 H   0  0  0  0  0  0
  -19.7965  -30.7238   24.2289 H   0  0  0  0  0  0
  -17.5053  -31.6269   24.5179 H   0  0  0  0  0  0
  -15.5376  -30.3013   23.7629 H   0  0  0  0  0  0
  -15.8675  -28.0829   22.7060 H   0  0  0  0  0  0
  -24.5961  -30.7003   25.7877 H   0  0  0  0  0  0
  -24.8882  -32.2873   26.4887 H   0  0  0  0  0  0
  -25.8101  -30.8979   27.0305 H   0  0  0  0  0  0
  -26.2914  -29.6748   24.1242 H   0  0  0  0  0  0
  -27.4030  -29.7276   25.4739 H   0  0  0  0  0  0
  -27.8792  -30.4287   23.9443 H   0  0  0  0  0  0
  -27.2694  -33.3609   26.2132 H   0  0  0  0  0  0
  -28.3902  -32.6853   25.0373 H   0  0  0  0  0  0
  -28.0727  -31.8406   26.5457 H   0  0  0  0  0  0
  -28.2614  -38.0104   24.7507 H   0  0  0  0  0  0
  -28.1067  -36.2625   24.6301 H   0  0  0  0  0  0
  -27.2317  -37.1479   25.8891 H   0  0  0  0  0  0
  -20.9343  -29.8829   21.6946 H   0  0  0  0  0  0
  -26.0185  -38.2874   24.1380 H   0  0  0  0  0  0
  -26.1121  -18.7039   22.7139 H   0  0  0  0  0  0
  -27.6326  -17.0136   21.7512 H   0  0  0  0  0  0
  -26.5432  -23.8493   19.9243 H   0  0  0  0  0  0
  -27.2542  -24.4643   21.4617 H   0  0  0  0  0  0
  -29.9333  -24.6769   21.0145 H   0  0  0  0  0  0
  -30.2223  -24.1677   19.3090 H   0  0  0  0  0  0
  -28.1318  -25.1570   18.5775 H   0  0  0  0  0  0
  -26.7191  -22.0512   23.4368 H   0  0  0  0  0  0
  -25.4267  -20.9254   23.1661 H   0  0  0  0  0  0
  -25.8499  -22.0512   21.8973 H   0  0  0  0  0  0
  -29.9599  -22.3592   21.6153 H   0  0  0  0  0  0
  -28.5056  -22.8176   22.3710 H   0  0  0  0  0  0
  -28.9127  -15.4741   21.1488 H   0  0  0  0  0  0
  -28.4692  -22.6725   19.4397 H   0  0  0  0  0  0
  1 25  1  0  0  0
  1 30  2  0  0  0
  1 82  1  0  0  0
  2  3  1  0  0  0
  2 25  1  0  0  0
  2 88  1  0  0  0
  2 89  1  0  0  0
  3  4  1  0  0  0
  3 90  1  0  0  0
  3 91  1  0  0  0
  4  5  1  0  0  0
  4 92  1  0  0  0
  4 93  1  0  0  0
  5  6  1  0  0  0
  5 26  1  0  0  0
  5 94  1  0  0  0
  6 25  1  0  0  0
  6 95  1  0  0  0
  6 96  1  0  0  0
  7  8  2  0  0  0
  7 26  1  0  0  0
  7 29  1  0  0  0
  8  9  1  0  0  0
  8 22  1  0  0  0
  9 10  1  0  0  0
  9 27  2  0  0  0
 10 11  2  0  0  0
 10 15  1  0  0  0
 11 12  1  0  0  0
 11 97  1  0  0  0
 12 13  2  0  0  0
 12 98  1  0  0  0
 13 14  1  0  0  0
 13 31  1  0  0  0
 14 15  2  0  0  0
 14 99  1  0  0  0
 15100  1  0  0  0
 16 17  2  0  0  0
 16 21  1  0  0  0
 16 31  1  0  0  0
 17 18  1  0  0  0
 17101  1  0  0  0
 18 19  2  0  0  0
 18102  1  0  0  0
 19 20  1  0  0  0
 19 24  1  0  0  0
 20 21  2  0  0  0
 20103  1  0  0  0
 21 23  1  0  0  0
 22 28  1  0  0  0
 22 32  2  0  0  0
 26 27  1  0  0  0
 28104  1  0  0  0
 28105  1  0  0  0
 29106  1  0  0  0
 29107  1  0  0  0
 33 34  1  0  0  0
 33 66  1  0  0  0
 33 70  2  0  0  0
 34 36  1  0  0  0
 34 59  1  0  0  0
 34108  1  0  0  0
 35 44  2  0  0  0
 35 45  1  0  0  0
 35 68  1  0  0  0
 36 56  1  0  0  0
 36109  1  0  0  0
 37 39  1  0  0  0
 37 47  1  0  0  0
 37 66  1  0  0  0
 37110  1  0  0  0
 38 43  2  0  0  0
 38 46  1  0  0  0
 38 47  1  0  0  0
 39 64  1  0  0  0
 39 67  2  0  0  0
 40 52  1  0  0  0
 40 53  2  0  0  0
 40 58  1  0  0  0
 41111  1  0  0  0
 41112  1  0  0  0
 41113  1  0  0  0
 41 48  1  0  0  0
 42 43  1  0  0  0
 42 66  1  0  0  0
 42114  1  0  0  0
 42115  1  0  0  0
 43 44  1  0  0  0
 44116  1  0  0  0
 45 46  2  0  0  0
 45117  1  0  0  0
 46118  1  0  0  0
 47119  1  0  0  0
 47120  1  0  0  0
 48 56  1  0  0  0
 48 65  1  0  0  0
 48121  1  0  0  0
 49 50  1  0  0  0
 49 53  1  0  0  0
 49 64  1  0  0  0
 49122  1  0  0  0
 50 51  1  0  0  0
 50123  1  0  0  0
 50124  1  0  0  0
 51 52  1  0  0  0
 51125  1  0  0  0
 51126  1  0  0  0
 52127  1  0  0  0
 52128  1  0  0  0
 53 54  1  0  0  0
 54 55  2  0  0  0
 54129  1  0  0  0
 55 57  1  0  0  0
 55130  1  0  0  0
 56 69  2  0  0  0
 57 58  2  0  0  0
 57131  1  0  0  0
 58132  1  0  0  0
 59 60  1  0  0  0
 59 61  1  0  0  0
 59 62  1  0  0  0
 60133  1  0  0  0
 60134  1  0  0  0
 60135  1  0  0  0
 61136  1  0  0  0
 61137  1  0  0  0
 61138  1  0  0  0
 62139  1  0  0  0
 62140  1  0  0  0
 62141  1  0  0  0
 63 65  1  0  0  0
 63142  1  0  0  0
 63143  1  0  0  0
 63144  1  0  0  0
 64145  1  0  0  0
 65146  1  0  0  0
 68 79  1  0  0  0
 71 72  2  0  0  0
 71 73  1  0  0  0
 71147  1  0  0  0
 72 75  1  0  0  0
 72148  1  0  0  0
 73 74  2  0  0  0
 73 80  1  0  0  0
 74 76  1  0  0  0
 74 81  1  0  0  0
 75 76  2  0  0  0
 75 86  1  0  0  0
 76 87  1  0  0  0
 77 79  1  0  0  0
 77 83  1  0  0  0
 77149  1  0  0  0
 77150  1  0  0  0
 78 79  1  0  0  0
 78 83  1  0  0  0
 78151  1  0  0  0
 78152  1  0  0  0
 79153  1  0  0  0
 80154  1  0  0  0
 80155  1  0  0  0
 80156  1  0  0  0
 81157  1  0  0  0
 81158  1  0  0  0
 81 83  1  0  0  0
 82159  1  0  0  0
 82 86  1  0  0  0
 83160  1  0  0  0
 84 86  2  0  0  0
 85 86  2  0  0  0
M  CHG  1  83   1
M  ISO  4   1 100  68 101  79 101  82 100
M  END
> <chiral flag>
0

> <version>
0

> <s_m_source_file>
/data/baiqing/PycharmProjects/Reinvent-master-3.2/result/LINK_invent/BTK/process_docking_weight1_custom_product_contain_oxygen_bond_distance_aromatic_linkinvent_7_9_3/rearranged_h_0030.sdf

> <i_m_source_file_index>
17

> <r_mmod_Potential_Energy-OPLS-2005>
-322.431457519531

> <r_mmod_Stretch_Energy-OPLS-2005>
52.4176368713379

> <r_mmod_Bend_Energy-OPLS-2005>
124.982482910156

> <r_mmod_Torsional_Energy-OPLS-2005>
216.018218994141

> <r_mmod_Improper_Torsional_Energy-OPLS-2005>
10.5984897613525

> <r_mmod_Van_der_Waal_Energy-OPLS-2005>
139.891967773438

> <r_mmod_Electrostatic_Energy-OPLS-2005>
-369.102355957031

> <r_mmod_Solvation_Energy-OPLS-2005>
-522.864440917969

> <b_mmod_Minimization_Converged-OPLS-2005>
0

> <r_mmod_RMS_Derivative-OPLS-2005>
8.2283935546875

$$$$
17
                    3D
 Structure written by MMmdl.
162171  0  0  1  0            999 V2000
  -30.6144  -14.8478   20.4679 C   0  0  0  0  0  0
  -30.4290  -12.5252   19.4969 C   0  0  0  0  0  0
  -29.5053  -12.5220   18.2564 C   0  0  0  0  0  0
  -28.0422  -12.3066   18.6806 C   0  0  0  0  0  0
  -27.6344  -13.2382   19.8490 C   0  0  2  0  0  0
  -28.6741  -13.2218   20.9885 C   0  0  0  0  0  0
  -25.2482  -13.8223   20.5697 C   0  0  0  0  0  0
  -24.1780  -13.0465   20.9200 C   0  0  0  0  0  0
  -24.6389  -11.6943   20.8764 C   0  0  0  0  0  0
  -23.9072  -10.4309   21.0431 C   0  0  0  0  0  0
  -24.3624   -9.4233   21.9204 C   0  0  0  0  0  0
  -23.6287   -8.2258   22.0793 C   0  0  0  0  0  0
  -22.4271   -8.0308   21.3553 C   0  0  0  0  0  0
  -21.9916   -9.0288   20.4665 C   0  0  0  0  0  0
  -22.7255  -10.2149   20.3071 C   0  0  0  0  0  0
  -21.6856   -6.0757   22.5281 C   0  0  0  0  0  0
  -21.4020   -6.5646   23.8213 C   0  0  0  0  0  0
  -21.3649   -5.6791   24.9177 C   0  0  0  0  0  0
  -21.6047   -4.3068   24.7220 C   0  0  0  0  0  0
  -21.8814   -3.8153   23.4339 C   0  0  0  0  0  0
  -21.9185   -4.6978   22.3400 C   0  0  0  0  0  0
  -22.7796  -13.5232   21.1859 C   0  0  0  0  0  0
  -22.1650   -4.2162   21.0986 F   0  0  0  0  0  0
  -21.5624   -3.4558   25.7733 F   0  0  0  0  0  0
  -29.9727  -13.6119   20.4106 N   0  0  0  0  0  0
  -26.2899  -12.9435   20.3290 N   0  0  0  0  0  0
  -25.9316  -11.6569   20.5801 N   0  0  0  0  0  0
  -22.0458  -12.8208   22.0411 N   0  0  0  0  0  0
  -25.4236  -15.1964   20.4202 N   0  0  0  0  0  0
  -31.7669  -14.9144   20.0288 O   0  0  0  0  0  0
  -21.6643   -6.8905   21.4246 O   0  0  0  0  0  0
  -22.3488  -14.5568   20.6761 O   0  0  0  0  0  0
  -24.6359  -31.8467   23.1932 C   0  0  0  0  0  0
  -25.9161  -32.4680   23.8292 C   0  0  1  0  0  0
  -27.2247  -27.1999   20.1443 C   0  0  0  0  0  0
  -25.5960  -33.8513   24.2215 N   0  0  0  0  0  0
  -23.4336  -30.4665   21.5371 C   0  0  2  0  0  0
  -24.8882  -28.9093   20.1072 C   0  0  0  0  0  0
  -22.7539  -29.4530   22.4870 C   0  0  0  0  0  0
  -18.0265  -28.1387   22.8420 C   0  0  0  0  0  0
  -24.1497  -36.7257   23.2635 C   0  0  0  0  0  0
  -25.9841  -30.7473   21.3785 C   0  0  0  0  0  0
  -26.0589  -29.3608   20.7265 C   0  0  0  0  0  0
  -27.2276  -28.5198   20.7371 C   0  0  0  0  0  0
  -26.0315  -26.8408   19.4741 C   0  0  0  0  0  0
  -24.8817  -27.6593   19.4721 C   0  0  0  0  0  0
  -23.6559  -29.8017   20.1525 C   0  0  0  0  0  0
  -25.4109  -36.3023   24.0328 C   0  0  1  0  0  0
  -20.5887  -28.3693   23.1244 C   0  0  2  0  0  0
  -20.6804  -26.9402   22.5399 C   0  0  0  0  0  0
  -19.5794  -26.6359   21.5189 C   0  0  0  0  0  0
  -18.1943  -26.7899   22.1568 C   0  0  0  0  0  0
  -19.1531  -28.8837   23.2802 C   0  0  0  0  0  0
  -18.9486  -30.1434   23.8838 C   0  0  0  0  0  0
  -17.6505  -30.6592   24.0536 C   0  0  0  0  0  0
  -25.9069  -34.9413   23.5080 C   0  0  0  0  0  0
  -16.5388  -29.9084   23.6359 C   0  0  0  0  0  0
  -16.7271  -28.6517   23.0344 C   0  0  0  0  0  0
  -26.4562  -31.6516   25.0685 C   0  0  0  0  0  0
  -25.3782  -31.3673   26.1395 C   0  0  0  0  0  0
  -27.0473  -30.2962   24.6166 C   0  0  0  0  0  0
  -27.6085  -32.4286   25.7466 C   0  0  0  0  0  0
  -27.5572  -37.1740   24.8455 C   0  0  0  0  0  0
  -21.4233  -29.3032   22.3643 N   0  0  0  0  0  0
  -26.4258  -37.3742   23.9443 N   0  0  0  0  0  0
  -24.7037  -31.0386   22.0929 N   0  0  0  0  0  0
  -23.4221  -28.8067   23.2991 O   0  0  0  0  0  0
  -28.3157  -26.2772   20.2157 O   0  0  0  0  0  0
  -26.5636  -34.8903   22.4645 O   0  0  0  0  0  0
  -23.5503  -32.1338   23.7184 O   0  0  0  0  0  0
  -31.9895  -20.4464   20.7474 C   0  0  0  0  0  0
  -29.3239  -20.0754   20.2855 C   0  0  0  0  0  0
  -31.5348  -19.1226   20.5806 C   0  0  0  0  0  0
  -31.1567  -21.5876   20.6537 C   0  0  0  0  0  0
  -30.1646  -18.8619   20.3566 C   0  0  0  0  0  0
  -29.7462  -21.4900   20.4110 C   0  0  0  0  0  0
  -28.6025  -23.7569   21.2797 C   0  0  0  0  0  0
  -29.0983  -23.8281   19.3157 C   0  0  0  0  0  0
  -28.1252  -24.7539   20.1458 C   0  0  0  0  0  0
  -32.5769  -18.0153   20.5578 C   0  0  0  0  0  0
  -31.8999  -22.9165   20.7686 C   0  0  0  0  0  0
  -29.7340  -16.3019   22.2403 C   0  0  0  0  0  0
  -29.6902  -17.3430   19.9962 C   0  0  0  0  0  0
  -28.8314  -22.6933   20.2503 N   0  0  0  0  0  0
  -29.9256  -16.0351   20.8145 N   0  0  0  0  0  0
  -31.4681  -12.6467   19.1833 H   0  0  0  0  0  0
  -30.3940  -11.5616   20.0071 H   0  0  0  0  0  0
  -29.8104  -11.7435   17.5555 H   0  0  0  0  0  0
  -29.5938  -13.4729   17.7281 H   0  0  0  0  0  0
  -27.9412  -11.2660   18.9923 H   0  0  0  0  0  0
  -27.3687  -12.4381   17.8330 H   0  0  0  0  0  0
  -27.6176  -14.2486   19.4388 H   0  0  0  0  0  0
  -28.7337  -12.2344   21.4490 H   0  0  0  0  0  0
  -28.3534  -13.9006   21.7746 H   0  0  0  0  0  0
  -25.2764   -9.5707   22.4784 H   0  0  0  0  0  0
  -23.9996   -7.4671   22.7519 H   0  0  0  0  0  0
  -21.0842   -8.8802   19.8967 H   0  0  0  0  0  0
  -22.3725  -10.9696   19.6177 H   0  0  0  0  0  0
  -21.2026   -7.6151   23.9720 H   0  0  0  0  0  0
  -21.1466   -6.0532   25.9072 H   0  0  0  0  0  0
  -22.0597   -2.7621   23.2839 H   0  0  0  0  0  0
  -22.4064  -11.9797   22.4659 H   0  0  0  0  0  0
  -21.1123  -13.1292   22.2759 H   0  0  0  0  0  0
  -24.6687  -15.8597   20.5564 H   0  0  0  0  0  0
  -26.2938  -15.6343   20.1442 H   0  0  0  0  0  0
  -26.7227  -32.5357   23.1030 H   0  0  0  0  0  0
  -25.0215  -33.9700   25.0424 H   0  0  0  0  0  0
  -22.7284  -31.2880   21.3884 H   0  0  0  0  0  0
  -23.3798  -35.9546   23.3224 H   0  0  0  0  0  0
  -24.3591  -36.8961   22.2063 H   0  0  0  0  0  0
  -23.7241  -37.6428   23.6723 H   0  0  0  0  0  0
  -26.1119  -31.5067   20.6042 H   0  0  0  0  0  0
  -26.8618  -30.8070   22.0080 H   0  0  0  0  0  0
  -28.1119  -28.8553   21.2615 H   0  0  0  0  0  0
  -25.9493  -25.9047   18.9456 H   0  0  0  0  0  0
  -23.9893  -27.3113   18.9742 H   0  0  0  0  0  0
  -23.7742  -30.5853   19.4024 H   0  0  0  0  0  0
  -22.7750  -29.2356   19.8443 H   0  0  0  0  0  0
  -25.1278  -36.1835   25.0814 H   0  0  0  0  0  0
  -20.9901  -28.3292   24.1394 H   0  0  0  0  0  0
  -20.5781  -26.2288   23.3612 H   0  0  0  0  0  0
  -21.6661  -26.7492   22.1140 H   0  0  0  0  0  0
  -19.7036  -25.6270   21.1217 H   0  0  0  0  0  0
  -19.6776  -27.3179   20.6730 H   0  0  0  0  0  0
  -17.4236  -26.6601   21.3953 H   0  0  0  0  0  0
  -18.0339  -26.0039   22.8973 H   0  0  0  0  0  0
  -19.7995  -30.7199   24.2193 H   0  0  0  0  0  0
  -17.5107  -31.6271   24.5133 H   0  0  0  0  0  0
  -15.5394  -30.3011   23.7732 H   0  0  0  0  0  0
  -15.8637  -28.0855   22.7090 H   0  0  0  0  0  0
  -24.5971  -30.7019   25.7732 H   0  0  0  0  0  0
  -24.8986  -32.2850   26.4810 H   0  0  0  0  0  0
  -25.8074  -30.8871   27.0189 H   0  0  0  0  0  0
  -26.3108  -29.6625   24.1241 H   0  0  0  0  0  0
  -27.4295  -29.7284   25.4657 H   0  0  0  0  0  0
  -27.8878  -30.4313   23.9354 H   0  0  0  0  0  0
  -27.2707  -33.3649   26.1923 H   0  0  0  0  0  0
  -28.3954  -32.6721   25.0313 H   0  0  0  0  0  0
  -28.0685  -31.8484   26.5473 H   0  0  0  0  0  0
  -28.2469  -38.0140   24.7595 H   0  0  0  0  0  0
  -28.1161  -36.2671   24.6136 H   0  0  0  0  0  0
  -27.2289  -37.1211   25.8844 H   0  0  0  0  0  0
  -20.9437  -29.8777   21.6849 H   0  0  0  0  0  0
  -26.0120  -38.2773   24.1562 H   0  0  0  0  0  0
  -33.0496  -20.5976   20.9021 H   0  0  0  0  0  0
  -28.2737  -19.9125   20.0865 H   0  0  0  0  0  0
  -27.8248  -23.5023   22.0007 H   0  0  0  0  0  0
  -29.4914  -24.1112   21.7945 H   0  0  0  0  0  0
  -30.1184  -24.2103   19.3283 H   0  0  0  0  0  0
  -28.7687  -23.6467   18.2924 H   0  0  0  0  0  0
  -27.0902  -24.4966   19.9258 H   0  0  0  0  0  0
  -33.5821  -18.4016   20.7356 H   0  0  0  0  0  0
  -32.5846  -17.5222   19.5849 H   0  0  0  0  0  0
  -32.3814  -17.2740   21.3289 H   0  0  0  0  0  0
  -32.9074  -22.7765   21.1672 H   0  0  0  0  0  0
  -31.4185  -23.6196   21.4380 H   0  0  0  0  0  0
  -32.0270  -23.3797   19.7913 H   0  0  0  0  0  0
  -29.0344  -17.1252   22.3955 H   0  0  0  0  0  0
  -30.6786  -16.5687   22.7156 H   0  0  0  0  0  0
  -29.3424  -15.4455   22.7828 H   0  0  0  0  0  0
  -30.0609  -17.1495   18.9897 H   0  0  0  0  0  0
  -28.6102  -17.4007   19.8683 H   0  0  0  0  0  0
  1 25  1  0  0  0
  1 30  2  0  0  0
  1 85  1  0  0  0
  2  3  1  0  0  0
  2 25  1  0  0  0
  2 86  1  0  0  0
  2 87  1  0  0  0
  3  4  1  0  0  0
  3 88  1  0  0  0
  3 89  1  0  0  0
  4  5  1  0  0  0
  4 90  1  0  0  0
  4 91  1  0  0  0
  5  6  1  0  0  0
  5 26  1  0  0  0
  5 92  1  0  0  0
  6 25  1  0  0  0
  6 93  1  0  0  0
  6 94  1  0  0  0
  7  8  2  0  0  0
  7 26  1  0  0  0
  7 29  1  0  0  0
  8  9  1  0  0  0
  8 22  1  0  0  0
  9 10  1  0  0  0
  9 27  2  0  0  0
 10 11  2  0  0  0
 10 15  1  0  0  0
 11 12  1  0  0  0
 11 95  1  0  0  0
 12 13  2  0  0  0
 12 96  1  0  0  0
 13 14  1  0  0  0
 13 31  1  0  0  0
 14 15  2  0  0  0
 14 97  1  0  0  0
 15 98  1  0  0  0
 16 17  2  0  0  0
 16 21  1  0  0  0
 16 31  1  0  0  0
 17 18  1  0  0  0
 17 99  1  0  0  0
 18 19  2  0  0  0
 18100  1  0  0  0
 19 20  1  0  0  0
 19 24  1  0  0  0
 20 21  2  0  0  0
 20101  1  0  0  0
 21 23  1  0  0  0
 22 28  1  0  0  0
 22 32  2  0  0  0
 26 27  1  0  0  0
 28102  1  0  0  0
 28103  1  0  0  0
 29104  1  0  0  0
 29105  1  0  0  0
 33 34  1  0  0  0
 33 66  1  0  0  0
 33 70  2  0  0  0
 34 36  1  0  0  0
 34 59  1  0  0  0
 34106  1  0  0  0
 35 44  2  0  0  0
 35 45  1  0  0  0
 35 68  1  0  0  0
 36 56  1  0  0  0
 36107  1  0  0  0
 37 39  1  0  0  0
 37 47  1  0  0  0
 37 66  1  0  0  0
 37108  1  0  0  0
 38 43  2  0  0  0
 38 46  1  0  0  0
 38 47  1  0  0  0
 39 64  1  0  0  0
 39 67  2  0  0  0
 40 52  1  0  0  0
 40 53  2  0  0  0
 40 58  1  0  0  0
 41109  1  0  0  0
 41110  1  0  0  0
 41111  1  0  0  0
 41 48  1  0  0  0
 42 43  1  0  0  0
 42 66  1  0  0  0
 42112  1  0  0  0
 42113  1  0  0  0
 43 44  1  0  0  0
 44114  1  0  0  0
 45 46  2  0  0  0
 45115  1  0  0  0
 46116  1  0  0  0
 47117  1  0  0  0
 47118  1  0  0  0
 48 56  1  0  0  0
 48 65  1  0  0  0
 48119  1  0  0  0
 49 50  1  0  0  0
 49 53  1  0  0  0
 49 64  1  0  0  0
 49120  1  0  0  0
 50 51  1  0  0  0
 50121  1  0  0  0
 50122  1  0  0  0
 51 52  1  0  0  0
 51123  1  0  0  0
 51124  1  0  0  0
 52125  1  0  0  0
 52126  1  0  0  0
 53 54  1  0  0  0
 54 55  2  0  0  0
 54127  1  0  0  0
 55 57  1  0  0  0
 55128  1  0  0  0
 56 69  2  0  0  0
 57 58  2  0  0  0
 57129  1  0  0  0
 58130  1  0  0  0
 59 60  1  0  0  0
 59 61  1  0  0  0
 59 62  1  0  0  0
 60131  1  0  0  0
 60132  1  0  0  0
 60133  1  0  0  0
 61134  1  0  0  0
 61135  1  0  0  0
 61136  1  0  0  0
 62137  1  0  0  0
 62138  1  0  0  0
 62139  1  0  0  0
 63 65  1  0  0  0
 63140  1  0  0  0
 63141  1  0  0  0
 63142  1  0  0  0
 64143  1  0  0  0
 65144  1  0  0  0
 68 79  1  0  0  0
 71 73  2  0  0  0
 71 74  1  0  0  0
 71145  1  0  0  0
 72 75  2  0  0  0
 72 76  1  0  0  0
 72146  1  0  0  0
 73 75  1  0  0  0
 73 80  1  0  0  0
 74 76  2  0  0  0
 74 81  1  0  0  0
 75 83  1  0  0  0
 76 84  1  0  0  0
 77 79  1  0  0  0
 77 84  1  0  0  0
 77147  1  0  0  0
 77148  1  0  0  0
 78 79  1  0  0  0
 78 84  1  0  0  0
 78149  1  0  0  0
 78150  1  0  0  0
 79151  1  0  0  0
 80152  1  0  0  0
 80153  1  0  0  0
 80154  1  0  0  0
 81155  1  0  0  0
 81156  1  0  0  0
 81157  1  0  0  0
 82 85  1  0  0  0
 82158  1  0  0  0
 82159  1  0  0  0
 82160  1  0  0  0
 83 85  1  0  0  0
 83161  1  0  0  0
 83162  1  0  0  0
M  ISO  4   1 100  68 101  79 101  85 100
M  END
> <chiral flag>
0

> <version>
0

> <s_m_source_file>
/data/baiqing/PycharmProjects/Reinvent-master-3.2/result/LINK_invent/BTK/process_docking_weight1_custom_product_contain_oxygen_bond_distance_aromatic_linkinvent_7_9_3/rearranged_h_0030.sdf

> <i_m_source_file_index>
18

> <r_mmod_Potential_Energy-OPLS-2005>
509.72314453125

> <r_mmod_Stretch_Energy-OPLS-2005>
189.417999267578

> <r_mmod_Bend_Energy-OPLS-2005>
270.299926757812

> <r_mmod_Torsional_Energy-OPLS-2005>
315.419128417969

> <r_mmod_Improper_Torsional_Energy-OPLS-2005>
13.7474393844604

> <r_mmod_Van_der_Waal_Energy-OPLS-2005>
143.500259399414

> <r_mmod_Electrostatic_Energy-OPLS-2005>
-337.283538818359

> <r_mmod_Solvation_Energy-OPLS-2005>
-213.729248046875

> <b_mmod_Minimization_Converged-OPLS-2005>
0

> <r_mmod_RMS_Derivative-OPLS-2005>
4.67903804779053

$$$$
18
                    3D
 Structure written by MMmdl.
160169  0  0  1  0            999 V2000
  -30.5871  -14.7199   20.4775 C   0  0  0  0  0  0
  -30.4431  -12.4394   19.4682 C   0  0  0  0  0  0
  -29.5141  -12.5166   18.2348 C   0  0  0  0  0  0
  -28.0386  -12.3410   18.6456 C   0  0  0  0  0  0
  -27.6503  -13.2238   19.8612 C   0  0  2  0  0  0
  -28.6941  -13.1115   20.9951 C   0  0  0  0  0  0
  -25.2548  -13.8181   20.5692 C   0  0  0  0  0  0
  -24.1820  -13.0439   20.9189 C   0  0  0  0  0  0
  -24.6398  -11.6912   20.8737 C   0  0  0  0  0  0
  -23.9068  -10.4293   21.0403 C   0  0  0  0  0  0
  -24.3619   -9.4209   21.9183 C   0  0  0  0  0  0
  -23.6292   -8.2245   22.0755 C   0  0  0  0  0  0
  -22.4274   -8.0283   21.3544 C   0  0  0  0  0  0
  -21.9909   -9.0258   20.4647 C   0  0  0  0  0  0
  -22.7240  -10.2135   20.3055 C   0  0  0  0  0  0
  -21.6854   -6.0734   22.5279 C   0  0  0  0  0  0
  -21.4016   -6.5639   23.8212 C   0  0  0  0  0  0
  -21.3659   -5.6792   24.9174 C   0  0  0  0  0  0
  -21.6045   -4.3055   24.7225 C   0  0  0  0  0  0
  -21.8820   -3.8145   23.4347 C   0  0  0  0  0  0
  -21.9193   -4.6962   22.3402 C   0  0  0  0  0  0
  -22.7843  -13.5229   21.1853 C   0  0  0  0  0  0
  -22.1662   -4.2148   21.0980 F   0  0  0  0  0  0
  -21.5626   -3.4539   25.7738 F   0  0  0  0  0  0
  -30.0023  -13.4748   20.4294 N   0  0  0  0  0  0
  -26.2978  -12.9374   20.3312 N   0  0  0  0  0  0
  -25.9331  -11.6522   20.5754 N   0  0  0  0  0  0
  -22.0486  -12.8223   22.0411 N   0  0  0  0  0  0
  -25.4257  -15.1906   20.4122 N   0  0  0  0  0  0
  -31.7512  -14.8770   20.0950 O   0  0  0  0  0  0
  -21.6640   -6.8879   21.4241 O   0  0  0  0  0  0
  -22.3529  -14.5537   20.6704 O   0  0  0  0  0  0
  -24.6301  -31.8555   23.1985 C   0  0  0  0  0  0
  -25.9131  -32.4755   23.8331 C   0  0  1  0  0  0
  -27.2234  -27.2736   20.1313 C   0  0  0  0  0  0
  -25.5932  -33.8558   24.2258 N   0  0  0  0  0  0
  -23.4267  -30.4776   21.5414 C   0  0  2  0  0  0
  -24.8754  -28.9253   20.1096 C   0  0  0  0  0  0
  -22.7497  -29.4600   22.4912 C   0  0  0  0  0  0
  -18.0290  -28.1387   22.8482 C   0  0  0  0  0  0
  -24.1490  -36.7285   23.2639 C   0  0  0  0  0  0
  -25.9712  -30.7730   21.3762 C   0  0  0  0  0  0
  -26.0459  -29.3962   20.7186 C   0  0  0  0  0  0
  -27.2237  -28.5836   20.7161 C   0  0  0  0  0  0
  -26.0338  -26.8707   19.4849 C   0  0  0  0  0  0
  -24.8744  -27.6706   19.4807 C   0  0  0  0  0  0
  -23.6448  -29.8103   20.1577 C   0  0  0  0  0  0
  -25.4116  -36.3071   24.0326 C   0  0  1  0  0  0
  -20.5893  -28.3696   23.1270 C   0  0  2  0  0  0
  -20.6777  -26.9414   22.5408 C   0  0  0  0  0  0
  -19.5754  -26.6382   21.5210 C   0  0  0  0  0  0
  -18.1934  -26.7929   22.1623 C   0  0  0  0  0  0
  -19.1543  -28.8858   23.2872 C   0  0  0  0  0  0
  -18.9466  -30.1458   23.8890 C   0  0  0  0  0  0
  -17.6465  -30.6588   24.0561 C   0  0  0  0  0  0
  -25.9055  -34.9440   23.5095 C   0  0  0  0  0  0
  -16.5356  -29.9085   23.6330 C   0  0  0  0  0  0
  -16.7276  -28.6503   23.0350 C   0  0  0  0  0  0
  -26.4504  -31.6579   25.0717 C   0  0  0  0  0  0
  -25.3728  -31.3729   26.1439 C   0  0  0  0  0  0
  -27.0353  -30.2997   24.6199 C   0  0  0  0  0  0
  -27.6056  -32.4322   25.7493 C   0  0  0  0  0  0
  -27.5577  -37.1800   24.8467 C   0  0  0  0  0  0
  -21.4204  -29.3043   22.3659 N   0  0  0  0  0  0
  -26.4292  -37.3768   23.9405 N   0  0  0  0  0  0
  -24.6950  -31.0530   22.0954 N   0  0  0  0  0  0
  -23.4200  -28.8139   23.3007 O   0  0  0  0  0  0
  -28.3191  -26.3840   20.1892 O   0  0  0  0  0  0
  -26.5627  -34.8914   22.4663 O   0  0  0  0  0  0
  -23.5454  -32.1371   23.7287 O   0  0  0  0  0  0
  -29.8561  -19.3411   19.2738 C   0  0  0  0  0  0
  -29.5581  -19.5562   21.6316 C   0  0  0  0  0  0
  -29.6809  -20.2237   20.3811 C   0  0  0  0  0  0
  -29.9255  -17.9089   19.3944 C   0  0  0  0  0  0
  -29.6174  -18.1260   21.7691 C   0  0  0  0  0  0
  -29.8356  -17.2492   20.6597 C   0  0  0  0  0  0
  -28.9789  -24.0429   21.2464 C   0  0  0  0  0  0
  -28.5332  -23.8634   19.2955 C   0  0  0  0  0  0
  -28.0484  -24.9109   20.3473 C   0  0  2  0  0  0
  -30.0725  -17.0892   18.1244 C   0  0  0  0  0  0
  -29.4538  -17.5309   23.1572 C   0  0  0  0  0  0
  -29.8658  -21.8108   20.2415 C   0  0  0  0  0  0
  -29.7710  -15.7765   20.8377 N   0  0  0  0  0  0
  -28.7397  -22.8484   20.3775 N   0  3  1  0  0  0
  -31.4826  -12.5764   19.1655 H   0  0  0  0  0  0
  -30.3941  -11.4510   19.9278 H   0  0  0  0  0  0
  -29.7917  -11.7556   17.5044 H   0  0  0  0  0  0
  -29.6436  -13.4794   17.7376 H   0  0  0  0  0  0
  -27.8890  -11.2890   18.8919 H   0  0  0  0  0  0
  -27.3826  -12.5508   17.8000 H   0  0  0  0  0  0
  -27.6580  -14.2538   19.5041 H   0  0  0  0  0  0
  -28.7227  -12.0963   21.3935 H   0  0  0  0  0  0
  -28.4269  -13.7538   21.8355 H   0  0  0  0  0  0
  -25.2765   -9.5683   22.4756 H   0  0  0  0  0  0
  -24.0000   -7.4637   22.7476 H   0  0  0  0  0  0
  -21.0838   -8.8779   19.8956 H   0  0  0  0  0  0
  -22.3699  -10.9674   19.6163 H   0  0  0  0  0  0
  -21.2011   -7.6148   23.9715 H   0  0  0  0  0  0
  -21.1479   -6.0522   25.9077 H   0  0  0  0  0  0
  -22.0598   -2.7607   23.2850 H   0  0  0  0  0  0
  -22.4100  -11.9884   22.4799 H   0  0  0  0  0  0
  -21.1105  -13.1251   22.2618 H   0  0  0  0  0  0
  -24.6581  -15.8442   20.5231 H   0  0  0  0  0  0
  -26.2749  -15.6317   20.0828 H   0  0  0  0  0  0
  -26.7195  -32.5412   23.1073 H   0  0  0  0  0  0
  -25.0076  -33.9695   25.0402 H   0  0  0  0  0  0
  -22.7226  -31.2993   21.3950 H   0  0  0  0  0  0
  -23.3749  -35.9622   23.3307 H   0  0  0  0  0  0
  -24.3578  -36.8903   22.2053 H   0  0  0  0  0  0
  -23.7248  -37.6489   23.6661 H   0  0  0  0  0  0
  -26.1075  -31.5341   20.6067 H   0  0  0  0  0  0
  -26.8495  -30.8229   22.0082 H   0  0  0  0  0  0
  -28.1193  -28.9383   21.2070 H   0  0  0  0  0  0
  -25.9820  -25.9135   18.9865 H   0  0  0  0  0  0
  -23.9799  -27.3074   18.9933 H   0  0  0  0  0  0
  -23.7678  -30.5863   19.4014 H   0  0  0  0  0  0
  -22.7637  -29.2426   19.8533 H   0  0  0  0  0  0
  -25.1298  -36.1918   25.0819 H   0  0  0  0  0  0
  -20.9985  -28.3276   24.1391 H   0  0  0  0  0  0
  -20.5673  -26.2306   23.3612 H   0  0  0  0  0  0
  -21.6646  -26.7435   22.1205 H   0  0  0  0  0  0
  -19.6917  -25.6291   21.1243 H   0  0  0  0  0  0
  -19.6693  -27.3189   20.6738 H   0  0  0  0  0  0
  -17.4201  -26.6669   21.4028 H   0  0  0  0  0  0
  -18.0339  -26.0073   22.9023 H   0  0  0  0  0  0
  -19.7942  -30.7276   24.2258 H   0  0  0  0  0  0
  -17.5020  -31.6267   24.5165 H   0  0  0  0  0  0
  -15.5356  -30.2985   23.7659 H   0  0  0  0  0  0
  -15.8676  -28.0821   22.7069 H   0  0  0  0  0  0
  -24.5908  -30.7071   25.7771 H   0  0  0  0  0  0
  -24.8916  -32.2899   26.4849 H   0  0  0  0  0  0
  -25.8048  -30.8920   27.0224 H   0  0  0  0  0  0
  -26.2936  -29.6738   24.1221 H   0  0  0  0  0  0
  -27.4037  -29.7264   25.4717 H   0  0  0  0  0  0
  -27.8813  -30.4274   23.9441 H   0  0  0  0  0  0
  -27.2662  -33.3626   26.2057 H   0  0  0  0  0  0
  -28.3876  -32.6872   25.0329 H   0  0  0  0  0  0
  -28.0713  -31.8455   26.5422 H   0  0  0  0  0  0
  -28.2599  -38.0091   24.7501 H   0  0  0  0  0  0
  -28.1068  -36.2621   24.6311 H   0  0  0  0  0  0
  -27.2292  -37.1469   25.8870 H   0  0  0  0  0  0
  -20.9387  -29.8770   21.6869 H   0  0  0  0  0  0
  -26.0171  -38.2843   24.1398 H   0  0  0  0  0  0
  -29.9762  -19.7783   18.2918 H   0  0  0  0  0  0
  -29.4481  -20.1589   22.5230 H   0  0  0  0  0  0
  -28.6247  -23.9131   22.2693 H   0  0  0  0  0  0
  -30.0173  -24.3816   21.2345 H   0  0  0  0  0  0
  -29.4608  -24.1570   18.7991 H   0  0  0  0  0  0
  -27.7769  -23.5729   18.5664 H   0  0  0  0  0  0
  -27.0138  -24.7222   20.6431 H   0  0  0  0  0  0
  -29.9151  -17.6976   17.2336 H   0  0  0  0  0  0
  -29.3440  -16.2783   18.1006 H   0  0  0  0  0  0
  -31.0716  -16.6579   18.0637 H   0  0  0  0  0  0
  -29.4117  -18.3027   23.9259 H   0  0  0  0  0  0
  -30.2910  -16.8735   23.3934 H   0  0  0  0  0  0
  -28.5335  -16.9494   23.2162 H   0  0  0  0  0  0
  -30.3499  -21.9879   19.2811 H   0  0  0  0  0  0
  -30.6290  -22.0763   20.9732 H   0  0  0  0  0  0
  -28.9182  -15.4598   21.2724 H   0  0  0  0  0  0
  -27.8681  -22.4041   20.6199 H   0  0  0  0  0  0
  1 25  1  0  0  0
  1 30  2  0  0  0
  1 83  1  0  0  0
  2  3  1  0  0  0
  2 25  1  0  0  0
  2 85  1  0  0  0
  2 86  1  0  0  0
  3  4  1  0  0  0
  3 87  1  0  0  0
  3 88  1  0  0  0
  4  5  1  0  0  0
  4 89  1  0  0  0
  4 90  1  0  0  0
  5  6  1  0  0  0
  5 26  1  0  0  0
  5 91  1  0  0  0
  6 25  1  0  0  0
  6 92  1  0  0  0
  6 93  1  0  0  0
  7  8  2  0  0  0
  7 26  1  0  0  0
  7 29  1  0  0  0
  8  9  1  0  0  0
  8 22  1  0  0  0
  9 10  1  0  0  0
  9 27  2  0  0  0
 10 11  2  0  0  0
 10 15  1  0  0  0
 11 12  1  0  0  0
 11 94  1  0  0  0
 12 13  2  0  0  0
 12 95  1  0  0  0
 13 14  1  0  0  0
 13 31  1  0  0  0
 14 15  2  0  0  0
 14 96  1  0  0  0
 15 97  1  0  0  0
 16 17  2  0  0  0
 16 21  1  0  0  0
 16 31  1  0  0  0
 17 18  1  0  0  0
 17 98  1  0  0  0
 18 19  2  0  0  0
 18 99  1  0  0  0
 19 20  1  0  0  0
 19 24  1  0  0  0
 20 21  2  0  0  0
 20100  1  0  0  0
 21 23  1  0  0  0
 22 28  1  0  0  0
 22 32  2  0  0  0
 26 27  1  0  0  0
 28101  1  0  0  0
 28102  1  0  0  0
 29103  1  0  0  0
 29104  1  0  0  0
 33 34  1  0  0  0
 33 66  1  0  0  0
 33 70  2  0  0  0
 34 36  1  0  0  0
 34 59  1  0  0  0
 34105  1  0  0  0
 35 44  2  0  0  0
 35 45  1  0  0  0
 35 68  1  0  0  0
 36 56  1  0  0  0
 36106  1  0  0  0
 37 39  1  0  0  0
 37 47  1  0  0  0
 37 66  1  0  0  0
 37107  1  0  0  0
 38 43  2  0  0  0
 38 46  1  0  0  0
 38 47  1  0  0  0
 39 64  1  0  0  0
 39 67  2  0  0  0
 40 52  1  0  0  0
 40 53  2  0  0  0
 40 58  1  0  0  0
 41108  1  0  0  0
 41109  1  0  0  0
 41110  1  0  0  0
 41 48  1  0  0  0
 42 43  1  0  0  0
 42 66  1  0  0  0
 42111  1  0  0  0
 42112  1  0  0  0
 43 44  1  0  0  0
 44113  1  0  0  0
 45 46  2  0  0  0
 45114  1  0  0  0
 46115  1  0  0  0
 47116  1  0  0  0
 47117  1  0  0  0
 48 56  1  0  0  0
 48 65  1  0  0  0
 48118  1  0  0  0
 49 50  1  0  0  0
 49 53  1  0  0  0
 49 64  1  0  0  0
 49119  1  0  0  0
 50 51  1  0  0  0
 50120  1  0  0  0
 50121  1  0  0  0
 51 52  1  0  0  0
 51122  1  0  0  0
 51123  1  0  0  0
 52124  1  0  0  0
 52125  1  0  0  0
 53 54  1  0  0  0
 54 55  2  0  0  0
 54126  1  0  0  0
 55 57  1  0  0  0
 55127  1  0  0  0
 56 69  2  0  0  0
 57 58  2  0  0  0
 57128  1  0  0  0
 58129  1  0  0  0
 59 60  1  0  0  0
 59 61  1  0  0  0
 59 62  1  0  0  0
 60130  1  0  0  0
 60131  1  0  0  0
 60132  1  0  0  0
 61133  1  0  0  0
 61134  1  0  0  0
 61135  1  0  0  0
 62136  1  0  0  0
 62137  1  0  0  0
 62138  1  0  0  0
 63 65  1  0  0  0
 63139  1  0  0  0
 63140  1  0  0  0
 63141  1  0  0  0
 64142  1  0  0  0
 65143  1  0  0  0
 68 79  1  0  0  0
 71 73  2  0  0  0
 71 74  1  0  0  0
 71144  1  0  0  0
 72 73  1  0  0  0
 72 75  2  0  0  0
 72145  1  0  0  0
 73 82  1  0  0  0
 74 76  2  0  0  0
 74 80  1  0  0  0
 75 76  1  0  0  0
 75 81  1  0  0  0
 76 83  1  0  0  0
 77 79  1  0  0  0
 77 84  1  0  0  0
 77146  1  0  0  0
 77147  1  0  0  0
 78 79  1  0  0  0
 78 84  1  0  0  0
 78148  1  0  0  0
 78149  1  0  0  0
 79150  1  0  0  0
 80151  1  0  0  0
 80152  1  0  0  0
 80153  1  0  0  0
 81154  1  0  0  0
 81155  1  0  0  0
 81156  1  0  0  0
 82157  1  0  0  0
 82158  1  0  0  0
 82 84  1  0  0  0
 83159  1  0  0  0
 84160  1  0  0  0
M  CHG  1  84   1
M  ISO  4   1 100  68 101  79 101  83 100
M  END
> <chiral flag>
0

> <version>
0

> <s_m_source_file>
/data/baiqing/PycharmProjects/Reinvent-master-3.2/result/LINK_invent/BTK/process_docking_weight1_custom_product_contain_oxygen_bond_distance_aromatic_linkinvent_7_9_3/rearranged_h_0030.sdf

> <i_m_source_file_index>
19

> <r_mmod_Potential_Energy-OPLS-2005>
-62.9767608642578

> <r_mmod_Stretch_Energy-OPLS-2005>
107.707534790039

> <r_mmod_Bend_Energy-OPLS-2005>
185.062194824219

> <r_mmod_Torsional_Energy-OPLS-2005>
257.676422119141

> <r_mmod_Improper_Torsional_Energy-OPLS-2005>
5.30210494995117

> <r_mmod_Van_der_Waal_Energy-OPLS-2005>
138.017517089844

> <r_mmod_Electrostatic_Energy-OPLS-2005>
-358.46240234375

> <r_mmod_Solvation_Energy-OPLS-2005>
-474.075897216797

> <b_mmod_Minimization_Converged-OPLS-2005>
0

> <r_mmod_RMS_Derivative-OPLS-2005>
0.302443861961365

$$$$
19
                    3D
 Structure written by MMmdl.
157166  0  0  1  0            999 V2000
  -30.5889  -14.7258   20.4747 C   0  0  0  0  0  0
  -30.4457  -12.4418   19.4687 C   0  0  0  0  0  0
  -29.5136  -12.5053   18.2369 C   0  0  0  0  0  0
  -28.0373  -12.3329   18.6484 C   0  0  0  0  0  0
  -27.6497  -13.2210   19.8598 C   0  0  2  0  0  0
  -28.6939  -13.1150   20.9925 C   0  0  0  0  0  0
  -25.2553  -13.8176   20.5684 C   0  0  0  0  0  0
  -24.1828  -13.0446   20.9193 C   0  0  0  0  0  0
  -24.6407  -11.6922   20.8749 C   0  0  0  0  0  0
  -23.9073  -10.4308   21.0417 C   0  0  0  0  0  0
  -24.3620   -9.4214   21.9181 C   0  0  0  0  0  0
  -23.6293   -8.2257   22.0746 C   0  0  0  0  0  0
  -22.4268   -8.0307   21.3547 C   0  0  0  0  0  0
  -21.9907   -9.0284   20.4648 C   0  0  0  0  0  0
  -22.7246  -10.2159   20.3063 C   0  0  0  0  0  0
  -21.6856   -6.0745   22.5282 C   0  0  0  0  0  0
  -21.4024   -6.5651   23.8214 C   0  0  0  0  0  0
  -21.3656   -5.6795   24.9176 C   0  0  0  0  0  0
  -21.6026   -4.3056   24.7228 C   0  0  0  0  0  0
  -21.8823   -3.8159   23.4345 C   0  0  0  0  0  0
  -21.9193   -4.6972   22.3404 C   0  0  0  0  0  0
  -22.7856  -13.5254   21.1856 C   0  0  0  0  0  0
  -22.1667   -4.2164   21.0977 F   0  0  0  0  0  0
  -21.5611   -3.4544   25.7737 F   0  0  0  0  0  0
  -30.0029  -13.4797   20.4273 N   0  0  0  0  0  0
  -26.2977  -12.9364   20.3312 N   0  0  0  0  0  0
  -25.9323  -11.6512   20.5753 N   0  0  0  0  0  0
  -22.0474  -12.8272   22.0406 N   0  0  0  0  0  0
  -25.4260  -15.1891   20.4103 N   0  0  0  0  0  0
  -31.7493  -14.8849   20.0880 O   0  0  0  0  0  0
  -21.6635   -6.8900   21.4246 O   0  0  0  0  0  0
  -22.3558  -14.5568   20.6707 O   0  0  0  0  0  0
  -24.6330  -31.8554   23.1993 C   0  0  0  0  0  0
  -25.9164  -32.4751   23.8327 C   0  0  1  0  0  0
  -27.2192  -27.2523   20.1146 C   0  0  0  0  0  0
  -25.5959  -33.8544   24.2259 N   0  0  0  0  0  0
  -23.4285  -30.4808   21.5438 C   0  0  2  0  0  0
  -24.8732  -28.9286   20.1129 C   0  0  0  0  0  0
  -22.7498  -29.4607   22.4896 C   0  0  0  0  0  0
  -18.0299  -28.1387   22.8478 C   0  0  0  0  0  0
  -24.1493  -36.7271   23.2622 C   0  0  0  0  0  0
  -25.9768  -30.7631   21.3838 C   0  0  0  0  0  0
  -26.0478  -29.3857   20.7241 C   0  0  0  0  0  0
  -27.2196  -28.5597   20.7151 C   0  0  0  0  0  0
  -26.0111  -26.8671   19.4832 C   0  0  0  0  0  0
  -24.8611  -27.6759   19.4872 C   0  0  0  0  0  0
  -23.6476  -29.8193   20.1592 C   0  0  0  0  0  0
  -25.4114  -36.3057   24.0320 C   0  0  1  0  0  0
  -20.5896  -28.3704   23.1254 C   0  0  2  0  0  0
  -20.6785  -26.9414   22.5401 C   0  0  0  0  0  0
  -19.5768  -26.6384   21.5195 C   0  0  0  0  0  0
  -18.1946  -26.7931   22.1608 C   0  0  0  0  0  0
  -19.1549  -28.8860   23.2864 C   0  0  0  0  0  0
  -18.9471  -30.1461   23.8896 C   0  0  0  0  0  0
  -17.6470  -30.6586   24.0564 C   0  0  0  0  0  0
  -25.9069  -34.9430   23.5092 C   0  0  0  0  0  0
  -16.5364  -29.9088   23.6318 C   0  0  0  0  0  0
  -16.7284  -28.6495   23.0350 C   0  0  0  0  0  0
  -26.4529  -31.6565   25.0709 C   0  0  0  0  0  0
  -25.3754  -31.3772   26.1439 C   0  0  0  0  0  0
  -27.0350  -30.2962   24.6208 C   0  0  0  0  0  0
  -27.6101  -32.4294   25.7478 C   0  0  0  0  0  0
  -27.5588  -37.1776   24.8449 C   0  0  0  0  0  0
  -21.4199  -29.3053   22.3644 N   0  0  0  0  0  0
  -26.4284  -37.3759   23.9415 N   0  0  0  0  0  0
  -24.6990  -31.0507   22.0990 N   0  0  0  0  0  0
  -23.4196  -28.8130   23.2977 O   0  0  0  0  0  0
  -28.3381  -26.3798   20.1449 O   0  0  0  0  0  0
  -26.5614  -34.8910   22.4649 O   0  0  0  0  0  0
  -23.5483  -32.1382   23.7273 O   0  0  0  0  0  0
  -30.5966  -19.4227   19.7165 C   0  0  0  0  0  0
  -30.6460  -17.9891   19.7944 C   0  0  0  0  0  0
  -29.7494  -20.2370   20.5353 C   0  0  0  0  0  0
  -28.9163  -19.4927   21.4299 C   0  0  0  0  0  0
  -29.8335  -17.2524   20.6963 C   0  0  0  0  0  0
  -28.9518  -18.0525   21.4820 C   0  0  0  0  0  0
  -28.2428  -23.8185   20.9797 C   0  0  0  0  0  0
  -29.4746  -24.0938   19.4153 C   0  0  0  0  0  0
  -28.2159  -24.9013   19.8473 C   0  0  2  0  0  0
  -27.9829  -20.2209   22.3882 C   0  0  0  0  0  0
  -29.9369  -21.8313   20.5897 C   0  0  0  0  0  0
  -29.7759  -15.7794   20.8431 N   0  0  0  0  0  0
  -28.9250  -22.8581   20.0546 N   0  3  1  0  0  0
  -28.1194  -17.4082   22.3364 F   0  0  0  0  0  0
  -31.4826  -12.5838   19.1603 H   0  0  0  0  0  0
  -30.4070  -11.4569   19.9354 H   0  0  0  0  0  0
  -29.7901  -11.7346   17.5148 H   0  0  0  0  0  0
  -29.6427  -13.4624   17.7291 H   0  0  0  0  0  0
  -27.8872  -11.2824   18.8990 H   0  0  0  0  0  0
  -27.3840  -12.5406   17.8007 H   0  0  0  0  0  0
  -27.6568  -14.2484   19.4952 H   0  0  0  0  0  0
  -28.7235  -12.1010   21.3938 H   0  0  0  0  0  0
  -28.4235  -13.7590   21.8309 H   0  0  0  0  0  0
  -25.2762   -9.5695   22.4767 H   0  0  0  0  0  0
  -24.0003   -7.4641   22.7469 H   0  0  0  0  0  0
  -21.0825   -8.8822   19.8957 H   0  0  0  0  0  0
  -22.3700  -10.9711   19.6196 H   0  0  0  0  0  0
  -21.2030   -7.6156   23.9733 H   0  0  0  0  0  0
  -21.1456   -6.0516   25.9075 H   0  0  0  0  0  0
  -22.0595   -2.7620   23.2843 H   0  0  0  0  0  0
  -22.4060  -11.9944   22.4828 H   0  0  0  0  0  0
  -21.1097  -13.1337   22.2591 H   0  0  0  0  0  0
  -24.6614  -15.8446   20.5300 H   0  0  0  0  0  0
  -26.2772  -15.6327   20.0903 H   0  0  0  0  0  0
  -26.7211  -32.5405   23.1045 H   0  0  0  0  0  0
  -25.0144  -33.9688   25.0434 H   0  0  0  0  0  0
  -22.7256  -31.3035   21.3978 H   0  0  0  0  0  0
  -23.3744  -35.9617   23.3310 H   0  0  0  0  0  0
  -24.3578  -36.8855   22.2027 H   0  0  0  0  0  0
  -23.7260  -37.6494   23.6620 H   0  0  0  0  0  0
  -26.1173  -31.5238   20.6154 H   0  0  0  0  0  0
  -26.8540  -30.8096   22.0166 H   0  0  0  0  0  0
  -28.1190  -28.9057   21.2048 H   0  0  0  0  0  0
  -25.8981  -25.9270   18.9717 H   0  0  0  0  0  0
  -23.9602  -27.3209   19.0040 H   0  0  0  0  0  0
  -23.7803  -30.5977   19.4071 H   0  0  0  0  0  0
  -22.7646  -29.2576   19.8482 H   0  0  0  0  0  0
  -25.1283  -36.1902   25.0806 H   0  0  0  0  0  0
  -20.9995  -28.3296   24.1372 H   0  0  0  0  0  0
  -20.5655  -26.2310   23.3606 H   0  0  0  0  0  0
  -21.6660  -26.7427   22.1214 H   0  0  0  0  0  0
  -19.6931  -25.6289   21.1233 H   0  0  0  0  0  0
  -19.6711  -27.3185   20.6717 H   0  0  0  0  0  0
  -17.4204  -26.6655   21.4026 H   0  0  0  0  0  0
  -18.0372  -26.0083   22.9015 H   0  0  0  0  0  0
  -19.7954  -30.7271   24.2265 H   0  0  0  0  0  0
  -17.5031  -31.6273   24.5160 H   0  0  0  0  0  0
  -15.5364  -30.2994   23.7648 H   0  0  0  0  0  0
  -15.8680  -28.0817   22.7076 H   0  0  0  0  0  0
  -24.5922  -30.7109   25.7799 H   0  0  0  0  0  0
  -24.8964  -32.2972   26.4798 H   0  0  0  0  0  0
  -25.8073  -30.9007   27.0244 H   0  0  0  0  0  0
  -26.2927  -29.6721   24.1211 H   0  0  0  0  0  0
  -27.3982  -29.7214   25.4735 H   0  0  0  0  0  0
  -27.8836  -30.4196   23.9477 H   0  0  0  0  0  0
  -27.2711  -33.3568   26.2095 H   0  0  0  0  0  0
  -28.3900  -32.6876   25.0308 H   0  0  0  0  0  0
  -28.0778  -31.8386   26.5359 H   0  0  0  0  0  0
  -28.2586  -38.0098   24.7528 H   0  0  0  0  0  0
  -28.1112  -36.2627   24.6227 H   0  0  0  0  0  0
  -27.2321  -37.1377   25.8858 H   0  0  0  0  0  0
  -20.9370  -29.8808   21.6889 H   0  0  0  0  0  0
  -26.0168  -38.2825   24.1460 H   0  0  0  0  0  0
  -31.2765  -19.9051   19.0286 H   0  0  0  0  0  0
  -31.3285  -17.4574   19.1472 H   0  0  0  0  0  0
  -27.2597  -23.4815   21.3103 H   0  0  0  0  0  0
  -28.8606  -24.1049   21.8347 H   0  0  0  0  0  0
  -30.3973  -24.4451   19.8833 H   0  0  0  0  0  0
  -29.6010  -23.9978   18.3356 H   0  0  0  0  0  0
  -27.4498  -24.6728   19.1099 H   0  0  0  0  0  0
  -26.9912  -20.3198   21.9467 H   0  0  0  0  0  0
  -28.3494  -21.2117   22.6493 H   0  0  0  0  0  0
  -27.8897  -19.6671   23.3219 H   0  0  0  0  0  0
  -30.8577  -22.0213   20.0377 H   0  0  0  0  0  0
  -30.1976  -22.1010   21.6128 H   0  0  0  0  0  0
  -28.9212  -15.4673   21.2774 H   0  0  0  0  0  0
  -28.2611  -22.4175   19.4356 H   0  0  0  0  0  0
  1 25  1  0  0  0
  1 30  2  0  0  0
  1 82  1  0  0  0
  2  3  1  0  0  0
  2 25  1  0  0  0
  2 85  1  0  0  0
  2 86  1  0  0  0
  3  4  1  0  0  0
  3 87  1  0  0  0
  3 88  1  0  0  0
  4  5  1  0  0  0
  4 89  1  0  0  0
  4 90  1  0  0  0
  5  6  1  0  0  0
  5 26  1  0  0  0
  5 91  1  0  0  0
  6 25  1  0  0  0
  6 92  1  0  0  0
  6 93  1  0  0  0
  7  8  2  0  0  0
  7 26  1  0  0  0
  7 29  1  0  0  0
  8  9  1  0  0  0
  8 22  1  0  0  0
  9 10  1  0  0  0
  9 27  2  0  0  0
 10 11  2  0  0  0
 10 15  1  0  0  0
 11 12  1  0  0  0
 11 94  1  0  0  0
 12 13  2  0  0  0
 12 95  1  0  0  0
 13 14  1  0  0  0
 13 31  1  0  0  0
 14 15  2  0  0  0
 14 96  1  0  0  0
 15 97  1  0  0  0
 16 17  2  0  0  0
 16 21  1  0  0  0
 16 31  1  0  0  0
 17 18  1  0  0  0
 17 98  1  0  0  0
 18 19  2  0  0  0
 18 99  1  0  0  0
 19 20  1  0  0  0
 19 24  1  0  0  0
 20 21  2  0  0  0
 20100  1  0  0  0
 21 23  1  0  0  0
 22 28  1  0  0  0
 22 32  2  0  0  0
 26 27  1  0  0  0
 28101  1  0  0  0
 28102  1  0  0  0
 29103  1  0  0  0
 29104  1  0  0  0
 33 34  1  0  0  0
 33 66  1  0  0  0
 33 70  2  0  0  0
 34 36  1  0  0  0
 34 59  1  0  0  0
 34105  1  0  0  0
 35 44  2  0  0  0
 35 45  1  0  0  0
 35 68  1  0  0  0
 36 56  1  0  0  0
 36106  1  0  0  0
 37 39  1  0  0  0
 37 47  1  0  0  0
 37 66  1  0  0  0
 37107  1  0  0  0
 38 43  2  0  0  0
 38 46  1  0  0  0
 38 47  1  0  0  0
 39 64  1  0  0  0
 39 67  2  0  0  0
 40 52  1  0  0  0
 40 53  2  0  0  0
 40 58  1  0  0  0
 41108  1  0  0  0
 41109  1  0  0  0
 41110  1  0  0  0
 41 48  1  0  0  0
 42 43  1  0  0  0
 42 66  1  0  0  0
 42111  1  0  0  0
 42112  1  0  0  0
 43 44  1  0  0  0
 44113  1  0  0  0
 45 46  2  0  0  0
 45114  1  0  0  0
 46115  1  0  0  0
 47116  1  0  0  0
 47117  1  0  0  0
 48 56  1  0  0  0
 48 65  1  0  0  0
 48118  1  0  0  0
 49 50  1  0  0  0
 49 53  1  0  0  0
 49 64  1  0  0  0
 49119  1  0  0  0
 50 51  1  0  0  0
 50120  1  0  0  0
 50121  1  0  0  0
 51 52  1  0  0  0
 51122  1  0  0  0
 51123  1  0  0  0
 52124  1  0  0  0
 52125  1  0  0  0
 53 54  1  0  0  0
 54 55  2  0  0  0
 54126  1  0  0  0
 55 57  1  0  0  0
 55127  1  0  0  0
 56 69  2  0  0  0
 57 58  2  0  0  0
 57128  1  0  0  0
 58129  1  0  0  0
 59 60  1  0  0  0
 59 61  1  0  0  0
 59 62  1  0  0  0
 60130  1  0  0  0
 60131  1  0  0  0
 60132  1  0  0  0
 61133  1  0  0  0
 61134  1  0  0  0
 61135  1  0  0  0
 62136  1  0  0  0
 62137  1  0  0  0
 62138  1  0  0  0
 63 65  1  0  0  0
 63139  1  0  0  0
 63140  1  0  0  0
 63141  1  0  0  0
 64142  1  0  0  0
 65143  1  0  0  0
 68 79  1  0  0  0
 71 72  2  0  0  0
 71 73  1  0  0  0
 71144  1  0  0  0
 72 75  1  0  0  0
 72145  1  0  0  0
 73 74  2  0  0  0
 73 81  1  0  0  0
 74 76  1  0  0  0
 74 80  1  0  0  0
 75 76  2  0  0  0
 75 82  1  0  0  0
 76 84  1  0  0  0
 77 79  1  0  0  0
 77 83  1  0  0  0
 77146  1  0  0  0
 77147  1  0  0  0
 78 79  1  0  0  0
 78 83  1  0  0  0
 78148  1  0  0  0
 78149  1  0  0  0
 79150  1  0  0  0
 80151  1  0  0  0
 80152  1  0  0  0
 80153  1  0  0  0
 81154  1  0  0  0
 81155  1  0  0  0
 81 83  1  0  0  0
 82156  1  0  0  0
 83157  1  0  0  0
M  CHG  1  83   1
M  ISO  4   1 100  68 101  79 101  82 100
M  END
> <chiral flag>
0

> <version>
0

> <s_m_source_file>
/data/baiqing/PycharmProjects/Reinvent-master-3.2/result/LINK_invent/BTK/process_docking_weight1_custom_product_contain_oxygen_bond_distance_aromatic_linkinvent_7_9_3/rearranged_h_0030.sdf

> <i_m_source_file_index>
20

> <r_mmod_Potential_Energy-OPLS-2005>
-50.6030693054199

> <r_mmod_Stretch_Energy-OPLS-2005>
112.136833190918

> <r_mmod_Bend_Energy-OPLS-2005>
201.007476806641

> <r_mmod_Torsional_Energy-OPLS-2005>
224.497589111328

> <r_mmod_Improper_Torsional_Energy-OPLS-2005>
4.41736459732056

> <r_mmod_Van_der_Waal_Energy-OPLS-2005>
143.307708740234

> <r_mmod_Electrostatic_Energy-OPLS-2005>
-336.325927734375

> <r_mmod_Solvation_Energy-OPLS-2005>
-478.787719726562

> <b_mmod_Minimization_Converged-OPLS-2005>
0

> <r_mmod_RMS_Derivative-OPLS-2005>
3.63812637329102

$$$$
20
                    3D
 Structure written by MMmdl.
166175  0  0  1  0            999 V2000
  -30.5900  -14.7783   20.4661 C   0  0  0  0  0  0
  -30.4447  -12.4783   19.4840 C   0  0  0  0  0  0
  -29.5213  -12.5210   18.2471 C   0  0  0  0  0  0
  -28.0482  -12.3267   18.6587 C   0  0  0  0  0  0
  -27.6459  -13.2314   19.8533 C   0  0  2  0  0  0
  -28.6873  -13.1764   20.9928 C   0  0  0  0  0  0
  -25.2493  -13.8150   20.5625 C   0  0  0  0  0  0
  -24.1793  -13.0425   20.9194 C   0  0  0  0  0  0
  -24.6395  -11.6920   20.8740 C   0  0  0  0  0  0
  -23.9059  -10.4314   21.0431 C   0  0  0  0  0  0
  -24.3603   -9.4231   21.9212 C   0  0  0  0  0  0
  -23.6277   -8.2266   22.0780 C   0  0  0  0  0  0
  -22.4266   -8.0284   21.3569 C   0  0  0  0  0  0
  -21.9902   -9.0259   20.4673 C   0  0  0  0  0  0
  -22.7232  -10.2145   20.3086 C   0  0  0  0  0  0
  -21.6879   -6.0700   22.5271 C   0  0  0  0  0  0
  -21.4021   -6.5620   23.8192 C   0  0  0  0  0  0
  -21.3673   -5.6791   24.9165 C   0  0  0  0  0  0
  -21.6040   -4.3045   24.7228 C   0  0  0  0  0  0
  -21.8836   -3.8121   23.4361 C   0  0  0  0  0  0
  -21.9211   -4.6924   22.3406 C   0  0  0  0  0  0
  -22.7836  -13.5245   21.1870 C   0  0  0  0  0  0
  -22.1682   -4.2096   21.0987 F   0  0  0  0  0  0
  -21.5614   -3.4550   25.7756 F   0  0  0  0  0  0
  -29.9921  -13.5366   20.4179 N   0  0  0  0  0  0
  -26.2957  -12.9389   20.3280 N   0  0  0  0  0  0
  -25.9331  -11.6541   20.5752 N   0  0  0  0  0  0
  -22.0466  -12.8234   22.0414 N   0  0  0  0  0  0
  -25.4073  -15.1845   20.3955 N   0  0  0  0  0  0
  -31.7660  -14.9104   20.1195 O   0  0  0  0  0  0
  -21.6667   -6.8856   21.4240 O   0  0  0  0  0  0
  -22.3558  -14.5576   20.6748 O   0  0  0  0  0  0
  -24.6382  -31.8537   23.1955 C   0  0  0  0  0  0
  -25.9214  -32.4731   23.8293 C   0  0  1  0  0  0
  -27.2124  -27.2244   20.1310 C   0  0  0  0  0  0
  -25.6009  -33.8521   24.2238 N   0  0  0  0  0  0
  -23.4342  -30.4779   21.5422 C   0  0  2  0  0  0
  -24.8774  -28.9197   20.1141 C   0  0  0  0  0  0
  -22.7534  -29.4626   22.4927 C   0  0  0  0  0  0
  -18.0314  -28.1374   22.8470 C   0  0  0  0  0  0
  -24.1511  -36.7253   23.2629 C   0  0  0  0  0  0
  -25.9851  -30.7562   21.3801 C   0  0  0  0  0  0
  -26.0560  -29.3779   20.7155 C   0  0  0  0  0  0
  -27.2279  -28.5465   20.7051 C   0  0  0  0  0  0
  -26.0006  -26.8402   19.5129 C   0  0  0  0  0  0
  -24.8555  -27.6593   19.5024 C   0  0  0  0  0  0
  -23.6535  -29.8143   20.1592 C   0  0  0  0  0  0
  -25.4138  -36.3035   24.0313 C   0  0  1  0  0  0
  -20.5928  -28.3698   23.1267 C   0  0  2  0  0  0
  -20.6822  -26.9403   22.5436 C   0  0  0  0  0  0
  -19.5813  -26.6381   21.5207 C   0  0  0  0  0  0
  -18.1985  -26.7917   22.1602 C   0  0  0  0  0  0
  -19.1565  -28.8850   23.2866 C   0  0  0  0  0  0
  -18.9481  -30.1449   23.8871 C   0  0  0  0  0  0
  -17.6475  -30.6556   24.0556 C   0  0  0  0  0  0
  -25.9080  -34.9412   23.5068 C   0  0  0  0  0  0
  -16.5375  -29.9044   23.6339 C   0  0  0  0  0  0
  -16.7299  -28.6478   23.0345 C   0  0  0  0  0  0
  -26.4545  -31.6569   25.0706 C   0  0  0  0  0  0
  -25.3733  -31.3771   26.1406 C   0  0  0  0  0  0
  -27.0417  -30.2970   24.6265 C   0  0  0  0  0  0
  -27.6100  -32.4314   25.7486 C   0  0  0  0  0  0
  -27.5587  -37.1794   24.8460 C   0  0  0  0  0  0
  -21.4245  -29.3035   22.3640 N   0  0  0  0  0  0
  -26.4307  -37.3744   23.9395 N   0  0  0  0  0  0
  -24.7048  -31.0478   22.0955 N   0  0  0  0  0  0
  -23.4213  -28.8206   23.3075 O   0  0  0  0  0  0
  -28.3009  -26.3060   20.1825 O   0  0  0  0  0  0
  -26.5624  -34.8904   22.4619 O   0  0  0  0  0  0
  -23.5532  -32.1379   23.7235 O   0  0  0  0  0  0
  -26.5163  -18.0595   22.1750 C   0  0  0  0  0  0
  -27.5984  -17.5548   21.4561 C   0  0  0  0  0  0
  -26.5642  -19.3632   22.6669 C   0  0  0  0  0  0
  -28.7211  -18.3350   21.0811 C   0  0  0  0  0  0
  -27.6370  -20.2077   22.3014 C   0  0  0  0  0  0
  -28.6188  -19.8029   21.3304 C   0  0  0  0  0  0
  -28.0418  -24.1303   18.7503 C   0  0  0  0  0  0
  -28.2867  -22.5894   18.9303 C   0  0  0  0  0  0
  -29.0097  -23.7250   20.8560 C   0  0  0  0  0  0
  -28.0601  -24.7992   20.1449 C   0  0  1  0  0  0
  -25.4459  -19.8242   23.5913 C   0  0  0  0  0  0
  -27.7409  -21.5382   23.0442 C   0  0  0  0  0  0
  -29.9131  -17.4077   20.5346 C   0  0  0  0  0  0
  -29.4285  -21.0292   20.6822 C   0  0  0  0  0  0
  -29.7716  -15.8749   20.7089 N   0  0  0  0  0  0
  -28.6212  -22.3293   20.3538 N   0  3  2  0  0  0
  -31.4835  -12.6155   19.1802 H   0  0  0  0  0  0
  -30.4004  -11.4998   19.9647 H   0  0  0  0  0  0
  -29.8137  -11.7548   17.5283 H   0  0  0  0  0  0
  -29.6368  -13.4790   17.7385 H   0  0  0  0  0  0
  -27.9148  -11.2784   18.9230 H   0  0  0  0  0  0
  -27.3904  -12.5070   17.8092 H   0  0  0  0  0  0
  -27.6362  -14.2504   19.4678 H   0  0  0  0  0  0
  -28.7265  -12.1823   21.4389 H   0  0  0  0  0  0
  -28.4076  -13.8610   21.7972 H   0  0  0  0  0  0
  -25.2744   -9.5703   22.4786 H   0  0  0  0  0  0
  -23.9973   -7.4672   22.7519 H   0  0  0  0  0  0
  -21.0838   -8.8802   19.8984 H   0  0  0  0  0  0
  -22.3698  -10.9672   19.6184 H   0  0  0  0  0  0
  -21.2028   -7.6134   23.9670 H   0  0  0  0  0  0
  -21.1470   -6.0534   25.9064 H   0  0  0  0  0  0
  -22.0609   -2.7577   23.2899 H   0  0  0  0  0  0
  -22.4071  -11.9884   22.4790 H   0  0  0  0  0  0
  -21.1088  -13.1269   22.2636 H   0  0  0  0  0  0
  -24.6284  -15.8264   20.4943 H   0  0  0  0  0  0
  -26.2358  -15.6226   20.0180 H   0  0  0  0  0  0
  -26.7293  -32.5353   23.1031 H   0  0  0  0  0  0
  -25.0252  -33.9659   25.0454 H   0  0  0  0  0  0
  -22.7302  -31.3007   21.3936 H   0  0  0  0  0  0
  -23.3781  -35.9579   23.3294 H   0  0  0  0  0  0
  -24.3582  -36.8871   22.2039 H   0  0  0  0  0  0
  -23.7273  -37.6453   23.6661 H   0  0  0  0  0  0
  -26.1354  -31.5197   20.6157 H   0  0  0  0  0  0
  -26.8563  -30.7916   22.0234 H   0  0  0  0  0  0
  -28.1317  -28.8974   21.1829 H   0  0  0  0  0  0
  -25.8935  -25.8736   19.0495 H   0  0  0  0  0  0
  -23.9493  -27.2994   19.0331 H   0  0  0  0  0  0
  -23.7845  -30.5873   19.4017 H   0  0  0  0  0  0
  -22.7720  -29.2521   19.8497 H   0  0  0  0  0  0
  -25.1334  -36.1871   25.0809 H   0  0  0  0  0  0
  -21.0015  -28.3266   24.1397 H   0  0  0  0  0  0
  -21.6678  -26.7421   22.1215 H   0  0  0  0  0  0
  -20.5729  -26.2307   23.3654 H   0  0  0  0  0  0
  -19.7010  -25.6295   21.1216 H   0  0  0  0  0  0
  -19.6755  -27.3207   20.6742 H   0  0  0  0  0  0
  -17.4263  -26.6640   21.4004 H   0  0  0  0  0  0
  -18.0391  -26.0056   22.8999 H   0  0  0  0  0  0
  -19.7963  -30.7279   24.2208 H   0  0  0  0  0  0
  -17.4993  -31.6212   24.5207 H   0  0  0  0  0  0
  -15.5369  -30.2914   23.7705 H   0  0  0  0  0  0
  -15.8686  -28.0820   22.7065 H   0  0  0  0  0  0
  -24.5917  -30.7115   25.7732 H   0  0  0  0  0  0
  -24.8922  -32.2971   26.4738 H   0  0  0  0  0  0
  -25.8005  -30.9005   27.0239 H   0  0  0  0  0  0
  -26.3041  -29.6676   24.1275 H   0  0  0  0  0  0
  -27.4062  -29.7272   25.4826 H   0  0  0  0  0  0
  -27.8929  -30.4218   23.9563 H   0  0  0  0  0  0
  -27.2721  -33.3639   26.2012 H   0  0  0  0  0  0
  -28.3934  -32.6828   25.0325 H   0  0  0  0  0  0
  -28.0744  -31.8469   26.5438 H   0  0  0  0  0  0
  -28.2603  -38.0093   24.7500 H   0  0  0  0  0  0
  -28.1090  -36.2620   24.6311 H   0  0  0  0  0  0
  -27.2284  -37.1452   25.8856 H   0  0  0  0  0  0
  -20.9452  -29.8669   21.6757 H   0  0  0  0  0  0
  -26.0173  -38.2818   24.1387 H   0  0  0  0  0  0
  -25.6938  -17.4023   22.4220 H   0  0  0  0  0  0
  -27.5299  -16.5068   21.2220 H   0  0  0  0  0  0
  -27.1225  -24.3153   18.1958 H   0  0  0  0  0  0
  -28.8477  -24.5486   18.1470 H   0  0  0  0  0  0
  -29.1123  -22.2814   18.2878 H   0  0  0  0  0  0
  -27.4173  -21.9999   18.6353 H   0  0  0  0  0  0
  -28.9500  -23.8064   21.9396 H   0  0  0  0  0  0
  -30.0467  -23.9208   20.5816 H   0  0  0  0  0  0
  -27.0800  -24.6402   20.5992 H   0  0  0  0  0  0
  -24.6053  -19.1315   23.5747 H   0  0  0  0  0  0
  -25.0621  -20.8013   23.2948 H   0  0  0  0  0  0
  -25.7998  -19.8844   24.6210 H   0  0  0  0  0  0
  -27.4119  -21.4438   24.0790 H   0  0  0  0  0  0
  -27.1266  -22.3093   22.5805 H   0  0  0  0  0  0
  -28.7739  -21.8740   23.1217 H   0  0  0  0  0  0
  -30.8354  -17.7137   21.0303 H   0  0  0  0  0  0
  -30.0562  -17.6153   19.4738 H   0  0  0  0  0  0
  -29.9232  -20.6675   19.7794 H   0  0  0  0  0  0
  -30.2374  -21.2884   21.3655 H   0  0  0  0  0  0
  -28.8488  -15.5924   20.9892 H   0  0  0  0  0  0
  -27.7293  -22.1339   20.7861 H   0  0  0  0  0  0
  1 25  1  0  0  0
  1 30  2  0  0  0
  1 85  1  0  0  0
  2  3  1  0  0  0
  2 25  1  0  0  0
  2 87  1  0  0  0
  2 88  1  0  0  0
  3  4  1  0  0  0
  3 89  1  0  0  0
  3 90  1  0  0  0
  4  5  1  0  0  0
  4 91  1  0  0  0
  4 92  1  0  0  0
  5  6  1  0  0  0
  5 26  1  0  0  0
  5 93  1  0  0  0
  6 25  1  0  0  0
  6 94  1  0  0  0
  6 95  1  0  0  0
  7  8  2  0  0  0
  7 26  1  0  0  0
  7 29  1  0  0  0
  8  9  1  0  0  0
  8 22  1  0  0  0
  9 10  1  0  0  0
  9 27  2  0  0  0
 10 11  2  0  0  0
 10 15  1  0  0  0
 11 12  1  0  0  0
 11 96  1  0  0  0
 12 13  2  0  0  0
 12 97  1  0  0  0
 13 14  1  0  0  0
 13 31  1  0  0  0
 14 15  2  0  0  0
 14 98  1  0  0  0
 15 99  1  0  0  0
 16 17  2  0  0  0
 16 21  1  0  0  0
 16 31  1  0  0  0
 17 18  1  0  0  0
 17100  1  0  0  0
 18 19  2  0  0  0
 18101  1  0  0  0
 19 20  1  0  0  0
 19 24  1  0  0  0
 20 21  2  0  0  0
 20102  1  0  0  0
 21 23  1  0  0  0
 22 28  1  0  0  0
 22 32  2  0  0  0
 26 27  1  0  0  0
 28103  1  0  0  0
 28104  1  0  0  0
 29105  1  0  0  0
 29106  1  0  0  0
 33 34  1  0  0  0
 33 66  1  0  0  0
 33 70  2  0  0  0
 34 36  1  0  0  0
 34 59  1  0  0  0
 34107  1  0  0  0
 35 44  2  0  0  0
 35 45  1  0  0  0
 35 68  1  0  0  0
 36 56  1  0  0  0
 36108  1  0  0  0
 37 39  1  0  0  0
 37 47  1  0  0  0
 37 66  1  0  0  0
 37109  1  0  0  0
 38 43  2  0  0  0
 38 46  1  0  0  0
 38 47  1  0  0  0
 39 64  1  0  0  0
 39 67  2  0  0  0
 40 52  1  0  0  0
 40 53  2  0  0  0
 40 58  1  0  0  0
 41110  1  0  0  0
 41111  1  0  0  0
 41112  1  0  0  0
 41 48  1  0  0  0
 42 43  1  0  0  0
 42 66  1  0  0  0
 42113  1  0  0  0
 42114  1  0  0  0
 43 44  1  0  0  0
 44115  1  0  0  0
 45 46  2  0  0  0
 45116  1  0  0  0
 46117  1  0  0  0
 47118  1  0  0  0
 47119  1  0  0  0
 48 56  1  0  0  0
 48 65  1  0  0  0
 48120  1  0  0  0
 49 50  1  0  0  0
 49 53  1  0  0  0
 49 64  1  0  0  0
 49121  1  0  0  0
 50 51  1  0  0  0
 50122  1  0  0  0
 50123  1  0  0  0
 51 52  1  0  0  0
 51124  1  0  0  0
 51125  1  0  0  0
 52126  1  0  0  0
 52127  1  0  0  0
 53 54  1  0  0  0
 54 55  2  0  0  0
 54128  1  0  0  0
 55 57  1  0  0  0
 55129  1  0  0  0
 56 69  2  0  0  0
 57 58  2  0  0  0
 57130  1  0  0  0
 58131  1  0  0  0
 59 60  1  0  0  0
 59 61  1  0  0  0
 59 62  1  0  0  0
 60132  1  0  0  0
 60133  1  0  0  0
 60134  1  0  0  0
 61135  1  0  0  0
 61136  1  0  0  0
 61137  1  0  0  0
 62138  1  0  0  0
 62139  1  0  0  0
 62140  1  0  0  0
 63 65  1  0  0  0
 63141  1  0  0  0
 63142  1  0  0  0
 63143  1  0  0  0
 64144  1  0  0  0
 65145  1  0  0  0
 68 80  1  0  0  0
 71 72  2  0  0  0
 71 73  1  0  0  0
 71146  1  0  0  0
 72 74  1  0  0  0
 72147  1  0  0  0
 73 75  2  0  0  0
 73 81  1  0  0  0
 74 76  2  0  0  0
 74 83  1  0  0  0
 75 76  1  0  0  0
 75 82  1  0  0  0
 76 84  1  0  0  0
 77 78  1  0  0  0
 77 80  1  0  0  0
 77148  1  0  0  0
 77149  1  0  0  0
 78 86  1  0  0  0
 78150  1  0  0  0
 78151  1  0  0  0
 79 80  1  0  0  0
 79 86  1  0  0  0
 79152  1  0  0  0
 79153  1  0  0  0
 80154  1  0  0  0
 81155  1  0  0  0
 81156  1  0  0  0
 81157  1  0  0  0
 82158  1  0  0  0
 82159  1  0  0  0
 82160  1  0  0  0
 83 85  1  0  0  0
 83161  1  0  0  0
 83162  1  0  0  0
 84163  1  0  0  0
 84164  1  0  0  0
 84 86  1  0  0  0
 85165  1  0  0  0
 86166  1  0  0  0
M  CHG  1  86   1
M  ISO  4   1 100  68 101  80 101  85 100
M  END
> <chiral flag>
0

> <version>
0

> <s_m_source_file>
/data/baiqing/PycharmProjects/Reinvent-master-3.2/result/LINK_invent/BTK/process_docking_weight1_custom_product_contain_oxygen_bond_distance_aromatic_linkinvent_7_9_3/rearranged_h_0030.sdf

> <i_m_source_file_index>
21

> <r_mmod_Potential_Energy-OPLS-2005>
189.830627441406

> <r_mmod_Stretch_Energy-OPLS-2005>
159.458526611328

> <r_mmod_Bend_Energy-OPLS-2005>
234.187118530273

> <r_mmod_Torsional_Energy-OPLS-2005>
299.837890625

> <r_mmod_Improper_Torsional_Energy-OPLS-2005>
5.24162578582764

> <r_mmod_Van_der_Waal_Energy-OPLS-2005>
149.977096557617

> <r_mmod_Electrostatic_Energy-OPLS-2005>
-335.250152587891

> <r_mmod_Solvation_Energy-OPLS-2005>
-428.523742675781

> <b_mmod_Minimization_Converged-OPLS-2005>
0

> <r_mmod_RMS_Derivative-OPLS-2005>
3.32239151000977

$$$$
21
                    3D
 Structure written by MMmdl.
159168  0  0  1  0            999 V2000
  -30.6411  -14.6592   20.4901 C   0  0  0  0  0  0
  -30.4272  -12.4084   19.4506 C   0  0  0  0  0  0
  -29.5009  -12.4994   18.2198 C   0  0  0  0  0  0
  -28.0256  -12.3378   18.6363 C   0  0  0  0  0  0
  -27.6441  -13.2244   19.8525 C   0  0  2  0  0  0
  -28.6902  -13.1195   20.9825 C   0  0  0  0  0  0
  -25.2524  -13.8188   20.5694 C   0  0  0  0  0  0
  -24.1806  -13.0440   20.9203 C   0  0  0  0  0  0
  -24.6389  -11.6915   20.8745 C   0  0  0  0  0  0
  -23.9065  -10.4294   21.0407 C   0  0  0  0  0  0
  -24.3618   -9.4209   21.9184 C   0  0  0  0  0  0
  -23.6294   -8.2243   22.0755 C   0  0  0  0  0  0
  -22.4276   -8.0281   21.3545 C   0  0  0  0  0  0
  -21.9911   -9.0255   20.4647 C   0  0  0  0  0  0
  -22.7239  -10.2134   20.3055 C   0  0  0  0  0  0
  -21.6853   -6.0736   22.5279 C   0  0  0  0  0  0
  -21.4013   -6.5640   23.8212 C   0  0  0  0  0  0
  -21.3659   -5.6792   24.9175 C   0  0  0  0  0  0
  -21.6044   -4.3055   24.7224 C   0  0  0  0  0  0
  -21.8820   -3.8147   23.4346 C   0  0  0  0  0  0
  -21.9193   -4.6963   22.3402 C   0  0  0  0  0  0
  -22.7829  -13.5226   21.1864 C   0  0  0  0  0  0
  -22.1662   -4.2150   21.0979 F   0  0  0  0  0  0
  -21.5629   -3.4538   25.7736 F   0  0  0  0  0  0
  -29.9953  -13.4539   20.3999 N   0  0  0  0  0  0
  -26.2946  -12.9383   20.3290 N   0  0  0  0  0  0
  -25.9315  -11.6530   20.5752 N   0  0  0  0  0  0
  -22.0476  -12.8212   22.0418 N   0  0  0  0  0  0
  -25.4218  -15.1911   20.4123 N   0  0  0  0  0  0
  -31.8280  -14.7613   20.1704 O   0  0  0  0  0  0
  -21.6641   -6.8878   21.4242 O   0  0  0  0  0  0
  -22.3512  -14.5533   20.6716 O   0  0  0  0  0  0
  -24.6264  -31.8575   23.1989 C   0  0  0  0  0  0
  -25.9109  -32.4761   23.8322 C   0  0  1  0  0  0
  -27.2312  -27.3146   20.1054 C   0  0  0  0  0  0
  -25.5926  -33.8563   24.2254 N   0  0  0  0  0  0
  -23.4191  -30.4793   21.5421 C   0  0  2  0  0  0
  -24.8627  -28.9251   20.1120 C   0  0  0  0  0  0
  -22.7468  -29.4615   22.4937 C   0  0  0  0  0  0
  -18.0285  -28.1384   22.8487 C   0  0  0  0  0  0
  -24.1487  -36.7280   23.2638 C   0  0  0  0  0  0
  -25.9586  -30.7879   21.3654 C   0  0  0  0  0  0
  -26.0310  -29.4138   20.7069 C   0  0  0  0  0  0
  -27.2138  -28.6201   20.6895 C   0  0  0  0  0  0
  -26.0250  -26.8541   19.5361 C   0  0  0  0  0  0
  -24.8606  -27.6499   19.5214 C   0  0  0  0  0  0
  -23.6313  -29.8070   20.1592 C   0  0  0  0  0  0
  -25.4113  -36.3072   24.0327 C   0  0  1  0  0  0
  -20.5885  -28.3684   23.1290 C   0  0  2  0  0  0
  -20.6771  -26.9406   22.5419 C   0  0  0  0  0  0
  -19.5751  -26.6384   21.5215 C   0  0  0  0  0  0
  -18.1928  -26.7931   22.1619 C   0  0  0  0  0  0
  -19.1538  -28.8851   23.2885 C   0  0  0  0  0  0
  -18.9461  -30.1454   23.8898 C   0  0  0  0  0  0
  -17.6462  -30.6586   24.0566 C   0  0  0  0  0  0
  -25.9054  -34.9444   23.5093 C   0  0  0  0  0  0
  -16.5352  -29.9086   23.6331 C   0  0  0  0  0  0
  -16.7273  -28.6505   23.0348 C   0  0  0  0  0  0
  -26.4490  -31.6581   25.0703 C   0  0  0  0  0  0
  -25.3721  -31.3735   26.1433 C   0  0  0  0  0  0
  -27.0322  -30.3000   24.6160 C   0  0  0  0  0  0
  -27.6051  -32.4312   25.7476 C   0  0  0  0  0  0
  -27.5582  -37.1790   24.8461 C   0  0  0  0  0  0
  -21.4183  -29.3034   22.3681 N   0  0  0  0  0  0
  -26.4284  -37.3774   23.9419 N   0  0  0  0  0  0
  -24.6872  -31.0587   22.0927 N   0  0  0  0  0  0
  -23.4195  -28.8165   23.3026 O   0  0  0  0  0  0
  -28.3987  -26.5377   20.1556 O   0  0  0  0  0  0
  -26.5625  -34.8920   22.4661 O   0  0  0  0  0  0
  -23.5430  -32.1369   23.7327 O   0  0  0  0  0  0
  -30.6344  -19.2866   19.6979 C   0  0  0  0  0  0
  -28.3660  -20.5306   20.7406 C   0  0  0  0  0  0
  -29.8494  -18.5152   20.5901 C   0  0  0  0  0  0
  -29.1630  -21.3056   19.8509 C   0  0  0  0  0  0
  -30.3183  -20.6297   19.3446 C   0  0  0  0  0  0
  -28.6940  -19.1793   21.1019 C   0  0  0  0  0  0
  -28.9738  -23.9727   17.3175 C   0  0  0  0  0  0
  -28.3835  -25.2263   17.9839 C   0  0  0  0  0  0
  -28.4518  -22.6831   17.9736 C   0  0  0  0  0  0
  -28.2940  -23.8066   20.1810 C   0  0  0  0  0  0
  -28.6455  -25.2238   19.5082 C   0  0  2  0  0  0
  -30.4197  -17.1439   21.1380 C   0  0  0  0  0  0
  -28.8148  -22.6358   19.3915 N   0  0  0  0  0  0
  -29.8935  -15.7767   20.7771 N   0  0  0  0  0  0
  -31.4319  -21.4448   18.2988 Cl  0  0  0  0  0  0
  -27.6716  -18.3565   22.2248 Cl  0  0  0  0  0  0
  -31.4688  -12.5263   19.1465 H   0  0  0  0  0  0
  -30.3603  -11.4231   19.9144 H   0  0  0  0  0  0
  -29.7686  -11.7357   17.4883 H   0  0  0  0  0  0
  -29.6400  -13.4611   17.7232 H   0  0  0  0  0  0
  -27.8679  -11.2871   18.8821 H   0  0  0  0  0  0
  -27.3691  -12.5525   17.7923 H   0  0  0  0  0  0
  -27.6506  -14.2531   19.4919 H   0  0  0  0  0  0
  -28.7096  -12.1124   21.4014 H   0  0  0  0  0  0
  -28.4389  -13.7869   21.8084 H   0  0  0  0  0  0
  -25.2763   -9.5685   22.4759 H   0  0  0  0  0  0
  -24.0003   -7.4634   22.7472 H   0  0  0  0  0  0
  -21.0843   -8.8772   19.8951 H   0  0  0  0  0  0
  -22.3698  -10.9672   19.6164 H   0  0  0  0  0  0
  -21.2005   -7.6148   23.9716 H   0  0  0  0  0  0
  -21.1480   -6.0522   25.9077 H   0  0  0  0  0  0
  -22.0600   -2.7609   23.2845 H   0  0  0  0  0  0
  -22.4094  -11.9871   22.4798 H   0  0  0  0  0  0
  -21.1092  -13.1233   22.2624 H   0  0  0  0  0  0
  -24.6571  -15.8447   20.5394 H   0  0  0  0  0  0
  -26.2722  -15.6376   20.0954 H   0  0  0  0  0  0
  -26.7176  -32.5420   23.1066 H   0  0  0  0  0  0
  -25.0083  -33.9702   25.0406 H   0  0  0  0  0  0
  -22.7136  -31.2999   21.3968 H   0  0  0  0  0  0
  -23.3756  -35.9604   23.3291 H   0  0  0  0  0  0
  -24.3580  -36.8908   22.2054 H   0  0  0  0  0  0
  -23.7228  -37.6474   23.6666 H   0  0  0  0  0  0
  -26.0892  -31.5517   20.5978 H   0  0  0  0  0  0
  -26.8392  -30.8358   21.9946 H   0  0  0  0  0  0
  -28.1162  -28.9978   21.1497 H   0  0  0  0  0  0
  -25.9428  -25.8561   19.1398 H   0  0  0  0  0  0
  -23.9548  -27.2572   19.0802 H   0  0  0  0  0  0
  -23.7502  -30.5797   19.3988 H   0  0  0  0  0  0
  -22.7504  -29.2356   19.8609 H   0  0  0  0  0  0
  -25.1294  -36.1913   25.0818 H   0  0  0  0  0  0
  -20.9979  -28.3257   24.1410 H   0  0  0  0  0  0
  -20.5659  -26.2295   23.3618 H   0  0  0  0  0  0
  -21.6642  -26.7427   22.1222 H   0  0  0  0  0  0
  -19.6915  -25.6298   21.1239 H   0  0  0  0  0  0
  -19.6696  -27.3199   20.6750 H   0  0  0  0  0  0
  -17.4205  -26.6686   21.4014 H   0  0  0  0  0  0
  -18.0318  -26.0068   22.9007 H   0  0  0  0  0  0
  -19.7938  -30.7271   24.2263 H   0  0  0  0  0  0
  -17.5017  -31.6266   24.5170 H   0  0  0  0  0  0
  -15.5353  -30.2988   23.7659 H   0  0  0  0  0  0
  -15.8673  -28.0830   22.7056 H   0  0  0  0  0  0
  -24.5932  -30.7028   25.7787 H   0  0  0  0  0  0
  -24.8864  -32.2900   26.4793 H   0  0  0  0  0  0
  -25.8051  -30.8988   27.0245 H   0  0  0  0  0  0
  -26.2891  -29.6759   24.1184 H   0  0  0  0  0  0
  -27.4014  -29.7253   25.4666 H   0  0  0  0  0  0
  -27.8763  -30.4280   23.9379 H   0  0  0  0  0  0
  -27.2676  -33.3635   26.2016 H   0  0  0  0  0  0
  -28.3885  -32.6826   25.0314 H   0  0  0  0  0  0
  -28.0686  -31.8451   26.5422 H   0  0  0  0  0  0
  -28.2585  -38.0102   24.7530 H   0  0  0  0  0  0
  -28.1089  -36.2634   24.6249 H   0  0  0  0  0  0
  -27.2308  -37.1393   25.8865 H   0  0  0  0  0  0
  -20.9361  -29.8749   21.6885 H   0  0  0  0  0  0
  -26.0160  -38.2841   24.1444 H   0  0  0  0  0  0
  -31.5467  -18.8613   19.3060 H   0  0  0  0  0  0
  -27.4709  -20.9705   21.1536 H   0  0  0  0  0  0
  -30.0631  -24.0009   17.3702 H   0  0  0  0  0  0
  -28.7212  -23.9713   16.2565 H   0  0  0  0  0  0
  -27.3243  -25.2518   17.7477 H   0  0  0  0  0  0
  -28.8207  -26.1184   17.5346 H   0  0  0  0  0  0
  -28.8325  -21.8179   17.4283 H   0  0  0  0  0  0
  -27.3651  -22.6347   17.8831 H   0  0  0  0  0  0
  -27.2129  -23.7100   20.2872 H   0  0  0  0  0  0
  -28.7085  -23.7683   21.1891 H   0  0  0  0  0  0
  -29.7351  -25.2209   19.5647 H   0  0  0  0  0  0
  -30.3562  -17.2039   22.2252 H   0  0  0  0  0  0
  -31.4933  -17.1568   20.9443 H   0  0  0  0  0  0
  -28.9107  -15.6213   20.9391 H   0  0  0  0  0  0
  1 25  1  0  0  0
  1 30  2  0  0  0
  1 84  1  0  0  0
  2  3  1  0  0  0
  2 25  1  0  0  0
  2 87  1  0  0  0
  2 88  1  0  0  0
  3  4  1  0  0  0
  3 89  1  0  0  0
  3 90  1  0  0  0
  4  5  1  0  0  0
  4 91  1  0  0  0
  4 92  1  0  0  0
  5  6  1  0  0  0
  5 26  1  0  0  0
  5 93  1  0  0  0
  6 25  1  0  0  0
  6 94  1  0  0  0
  6 95  1  0  0  0
  7  8  2  0  0  0
  7 26  1  0  0  0
  7 29  1  0  0  0
  8  9  1  0  0  0
  8 22  1  0  0  0
  9 10  1  0  0  0
  9 27  2  0  0  0
 10 11  2  0  0  0
 10 15  1  0  0  0
 11 12  1  0  0  0
 11 96  1  0  0  0
 12 13  2  0  0  0
 12 97  1  0  0  0
 13 14  1  0  0  0
 13 31  1  0  0  0
 14 15  2  0  0  0
 14 98  1  0  0  0
 15 99  1  0  0  0
 16 17  2  0  0  0
 16 21  1  0  0  0
 16 31  1  0  0  0
 17 18  1  0  0  0
 17100  1  0  0  0
 18 19  2  0  0  0
 18101  1  0  0  0
 19 20  1  0  0  0
 19 24  1  0  0  0
 20 21  2  0  0  0
 20102  1  0  0  0
 21 23  1  0  0  0
 22 28  1  0  0  0
 22 32  2  0  0  0
 26 27  1  0  0  0
 28103  1  0  0  0
 28104  1  0  0  0
 29105  1  0  0  0
 29106  1  0  0  0
 33 34  1  0  0  0
 33 66  1  0  0  0
 33 70  2  0  0  0
 34 36  1  0  0  0
 34 59  1  0  0  0
 34107  1  0  0  0
 35 44  2  0  0  0
 35 45  1  0  0  0
 35 68  1  0  0  0
 36 56  1  0  0  0
 36108  1  0  0  0
 37 39  1  0  0  0
 37 47  1  0  0  0
 37 66  1  0  0  0
 37109  1  0  0  0
 38 43  2  0  0  0
 38 46  1  0  0  0
 38 47  1  0  0  0
 39 64  1  0  0  0
 39 67  2  0  0  0
 40 52  1  0  0  0
 40 53  2  0  0  0
 40 58  1  0  0  0
 41110  1  0  0  0
 41111  1  0  0  0
 41112  1  0  0  0
 41 48  1  0  0  0
 42 43  1  0  0  0
 42 66  1  0  0  0
 42113  1  0  0  0
 42114  1  0  0  0
 43 44  1  0  0  0
 44115  1  0  0  0
 45 46  2  0  0  0
 45116  1  0  0  0
 46117  1  0  0  0
 47118  1  0  0  0
 47119  1  0  0  0
 48 56  1  0  0  0
 48 65  1  0  0  0
 48120  1  0  0  0
 49 50  1  0  0  0
 49 53  1  0  0  0
 49 64  1  0  0  0
 49121  1  0  0  0
 50 51  1  0  0  0
 50122  1  0  0  0
 50123  1  0  0  0
 51 52  1  0  0  0
 51124  1  0  0  0
 51125  1  0  0  0
 52126  1  0  0  0
 52127  1  0  0  0
 53 54  1  0  0  0
 54 55  2  0  0  0
 54128  1  0  0  0
 55 57  1  0  0  0
 55129  1  0  0  0
 56 69  2  0  0  0
 57 58  2  0  0  0
 57130  1  0  0  0
 58131  1  0  0  0
 59 60  1  0  0  0
 59 61  1  0  0  0
 59 62  1  0  0  0
 60132  1  0  0  0
 60133  1  0  0  0
 60134  1  0  0  0
 61135  1  0  0  0
 61136  1  0  0  0
 61137  1  0  0  0
 62138  1  0  0  0
 62139  1  0  0  0
 62140  1  0  0  0
 63 65  1  0  0  0
 63141  1  0  0  0
 63142  1  0  0  0
 63143  1  0  0  0
 64144  1  0  0  0
 65145  1  0  0  0
 68 81  1  0  0  0
 71 73  2  0  0  0
 71 75  1  0  0  0
 71146  1  0  0  0
 72 74  1  0  0  0
 72 76  2  0  0  0
 72147  1  0  0  0
 73 76  1  0  0  0
 73 82  1  0  0  0
 74 75  2  0  0  0
 74 83  1  0  0  0
 75 85  1  0  0  0
 76 86  1  0  0  0
 77 78  1  0  0  0
 77 79  1  0  0  0
 77148  1  0  0  0
 77149  1  0  0  0
 78 81  1  0  0  0
 78150  1  0  0  0
 78151  1  0  0  0
 79 83  1  0  0  0
 79152  1  0  0  0
 79153  1  0  0  0
 80 81  1  0  0  0
 80 83  1  0  0  0
 80154  1  0  0  0
 80155  1  0  0  0
 81156  1  0  0  0
 82 84  1  0  0  0
 82157  1  0  0  0
 82158  1  0  0  0
 84159  1  0  0  0
M  ISO  4   1 100  68 101  81 101  84 100
M  END
> <chiral flag>
0

> <version>
0

> <s_m_source_file>
/data/baiqing/PycharmProjects/Reinvent-master-3.2/result/LINK_invent/BTK/process_docking_weight1_custom_product_contain_oxygen_bond_distance_aromatic_linkinvent_7_9_3/rearranged_h_0030.sdf

> <i_m_source_file_index>
22

> <r_mmod_Potential_Energy-OPLS-2005>
156.634918212891

> <r_mmod_Stretch_Energy-OPLS-2005>
88.5060119628906

> <r_mmod_Bend_Energy-OPLS-2005>
198.271026611328

> <r_mmod_Torsional_Energy-OPLS-2005>
243.729278564453

> <r_mmod_Improper_Torsional_Energy-OPLS-2005>
7.14806747436523

> <r_mmod_Van_der_Waal_Energy-OPLS-2005>
142.007080078125

> <r_mmod_Electrostatic_Energy-OPLS-2005>
-362.933746337891

> <r_mmod_Solvation_Energy-OPLS-2005>
-211.773788452148

> <b_mmod_Minimization_Converged-OPLS-2005>
0

> <r_mmod_RMS_Derivative-OPLS-2005>
0.38298311829567

$$$$
22
                    3D
 Structure written by MMmdl.
153162  0  0  1  0            999 V2000
  -30.4758  -15.1637   20.3566 C   0  0  0  0  0  0
  -30.4349  -12.7322   19.5159 C   0  0  0  0  0  0
  -29.5279  -12.5584   18.2741 C   0  0  0  0  0  0
  -28.0704  -12.3058   18.6987 C   0  0  0  0  0  0
  -27.6143  -13.2696   19.8236 C   0  0  2  0  0  0
  -28.6516  -13.4040   20.9576 C   0  0  0  0  0  0
  -25.2399  -13.8247   20.5730 C   0  0  0  0  0  0
  -24.1750  -13.0441   20.9256 C   0  0  0  0  0  0
  -24.6399  -11.6936   20.8764 C   0  0  0  0  0  0
  -23.9092  -10.4295   21.0410 C   0  0  0  0  0  0
  -24.3638   -9.4207   21.9185 C   0  0  0  0  0  0
  -23.6305   -8.2244   22.0756 C   0  0  0  0  0  0
  -22.4286   -8.0286   21.3546 C   0  0  0  0  0  0
  -21.9928   -9.0259   20.4646 C   0  0  0  0  0  0
  -22.7265  -10.2134   20.3055 C   0  0  0  0  0  0
  -21.6859   -6.0740   22.5280 C   0  0  0  0  0  0
  -21.4014   -6.5643   23.8213 C   0  0  0  0  0  0
  -21.3659   -5.6795   24.9174 C   0  0  0  0  0  0
  -21.6043   -4.3058   24.7224 C   0  0  0  0  0  0
  -21.8819   -3.8150   23.4346 C   0  0  0  0  0  0
  -21.9191   -4.6966   22.3402 C   0  0  0  0  0  0
  -22.7766  -13.5193   21.1902 C   0  0  0  0  0  0
  -22.1661   -4.2153   21.0979 F   0  0  0  0  0  0
  -21.5627   -3.4540   25.7736 F   0  0  0  0  0  0
  -29.8976  -13.8735   20.3342 N   0  0  0  0  0  0
  -26.2822  -12.9514   20.3210 N   0  0  0  0  0  0
  -25.9332  -11.6624   20.5724 N   0  0  0  0  0  0
  -22.0427  -12.8169   22.0455 N   0  0  0  0  0  0
  -25.4033  -15.1978   20.4145 N   0  0  0  0  0  0
  -31.7015  -15.1452   20.1904 O   0  0  0  0  0  0
  -21.6646   -6.8885   21.4243 O   0  0  0  0  0  0
  -22.3440  -14.5495   20.6748 O   0  0  0  0  0  0
  -24.6558  -31.8299   23.1742 C   0  0  0  0  0  0
  -25.9266  -32.4618   23.8187 C   0  0  1  0  0  0
  -27.2188  -26.9956   20.1818 C   0  0  0  0  0  0
  -25.5961  -33.8430   24.2101 N   0  0  0  0  0  0
  -23.4666  -30.4423   21.5222 C   0  0  2  0  0  0
  -24.9185  -28.8359   20.1156 C   0  0  0  0  0  0
  -22.7628  -29.4478   22.4810 C   0  0  0  0  0  0
  -18.0316  -28.1411   22.8477 C   0  0  0  0  0  0
  -24.1487  -36.7217   23.2646 C   0  0  0  0  0  0
  -26.0310  -30.6601   21.3908 C   0  0  0  0  0  0
  -26.1007  -29.2546   20.7391 C   0  0  0  0  0  0
  -27.2503  -28.3553   20.7433 C   0  0  0  0  0  0
  -26.0064  -26.7042   19.5215 C   0  0  0  0  0  0
  -24.8917  -27.5794   19.4875 C   0  0  0  0  0  0
  -23.7020  -29.7566   20.1483 C   0  0  0  0  0  0
  -25.4127  -36.2984   24.0303 C   0  0  1  0  0  0
  -20.5934  -28.3742   23.1213 C   0  0  2  0  0  0
  -20.6794  -26.9430   22.5408 C   0  0  0  0  0  0
  -19.5767  -26.6387   21.5215 C   0  0  0  0  0  0
  -18.1951  -26.7947   22.1625 C   0  0  0  0  0  0
  -19.1576  -28.8898   23.2834 C   0  0  0  0  0  0
  -18.9490  -30.1494   23.8862 C   0  0  0  0  0  0
  -17.6487  -30.6604   24.0561 C   0  0  0  0  0  0
  -25.9088  -34.9364   23.5022 C   0  0  0  0  0  0
  -16.5375  -29.9094   23.6345 C   0  0  0  0  0  0
  -16.7299  -28.6513   23.0364 C   0  0  0  0  0  0
  -26.4539  -31.6538   25.0687 C   0  0  0  0  0  0
  -25.3687  -31.3784   26.1361 C   0  0  0  0  0  0
  -27.0414  -30.2912   24.6357 C   0  0  0  0  0  0
  -27.6051  -32.4322   25.7481 C   0  0  0  0  0  0
  -27.5567  -37.1768   24.8468 C   0  0  0  0  0  0
  -21.4304  -29.3045   22.3567 N   0  0  0  0  0  0
  -26.4276  -37.3714   23.9411 N   0  0  0  0  0  0
  -24.7387  -31.0031   22.0834 N   0  0  0  0  0  0
  -23.4208  -28.8046   23.3026 O   0  0  0  0  0  0
  -28.2550  -25.9485   20.2232 O   0  0  0  0  0  0
  -26.5694  -34.8891   22.4615 O   0  0  0  0  0  0
  -23.5646  -32.1236   23.6884 O   0  0  0  0  0  0
  -30.3266  -20.7810   19.1671 C   0  0  0  0  0  0
  -31.0549  -19.6763   18.6757 C   0  0  0  0  0  0
  -29.1059  -19.2120   20.5036 C   0  0  0  0  0  0
  -29.2569  -20.6858   20.0801 C   0  0  0  0  0  0
  -29.8863  -17.9673   20.0499 C   0  0  0  0  0  0
  -30.8358  -18.3314   19.0502 C   0  0  0  0  0  0
  -28.1645  -23.1317   19.3298 C   0  0  0  0  0  0
  -29.0777  -23.2910   21.0664 C   0  0  0  0  0  0
  -28.0324  -24.3478   20.3971 C   0  0  0  0  0  0
  -28.0026  -18.9403   21.5055 C   0  0  0  0  0  0
  -28.5029  -22.0614   20.3728 N   0  0  0  0  0  0
  -29.7061  -16.4166   20.4265 N   0  0  0  0  0  0
  -31.7228  -17.1773   18.1195 Cl  0  0  0  0  0  0
  -31.4610  -12.9123   19.1924 H   0  0  0  0  0  0
  -30.4692  -11.8137   20.1040 H   0  0  0  0  0  0
  -29.8863  -11.7379   17.6511 H   0  0  0  0  0  0
  -29.5791  -13.4576   17.6579 H   0  0  0  0  0  0
  -28.0053  -11.2756   19.0502 H   0  0  0  0  0  0
  -27.4035  -12.3773   17.8385 H   0  0  0  0  0  0
  -27.5420  -14.2467   19.3448 H   0  0  0  0  0  0
  -28.7926  -12.4592   21.4844 H   0  0  0  0  0  0
  -28.3123  -14.1277   21.7004 H   0  0  0  0  0  0
  -25.2780   -9.5679   22.4767 H   0  0  0  0  0  0
  -24.0010   -7.4634   22.7478 H   0  0  0  0  0  0
  -21.0861   -8.8782   19.8950 H   0  0  0  0  0  0
  -22.3727  -10.9674   19.6166 H   0  0  0  0  0  0
  -21.2012   -7.6152   23.9717 H   0  0  0  0  0  0
  -21.1480   -6.0525   25.9077 H   0  0  0  0  0  0
  -22.0598   -2.7612   23.2843 H   0  0  0  0  0  0
  -22.4056  -11.9830   22.4830 H   0  0  0  0  0  0
  -21.1039  -13.1171   22.2670 H   0  0  0  0  0  0
  -24.6269  -15.8430   20.5130 H   0  0  0  0  0  0
  -26.2357  -15.6363   20.0436 H   0  0  0  0  0  0
  -26.7331  -32.5178   23.0905 H   0  0  0  0  0  0
  -25.0064  -33.9513   25.0222 H   0  0  0  0  0  0
  -22.7763  -31.2716   21.3540 H   0  0  0  0  0  0
  -23.3757  -35.9540   23.3282 H   0  0  0  0  0  0
  -24.3573  -36.8885   22.2067 H   0  0  0  0  0  0
  -23.7232  -37.6396   23.6713 H   0  0  0  0  0  0
  -26.1988  -31.4030   20.6099 H   0  0  0  0  0  0
  -26.8964  -30.7202   22.0390 H   0  0  0  0  0  0
  -28.1518  -28.6770   21.2454 H   0  0  0  0  0  0
  -25.9000  -25.7409   19.0436 H   0  0  0  0  0  0
  -23.9903  -27.2536   18.9861 H   0  0  0  0  0  0
  -23.8521  -30.5235   19.3876 H   0  0  0  0  0  0
  -22.8136  -29.2062   19.8340 H   0  0  0  0  0  0
  -25.1322  -36.1784   25.0794 H   0  0  0  0  0  0
  -21.0028  -28.3341   24.1334 H   0  0  0  0  0  0
  -20.5676  -26.2357   23.3641 H   0  0  0  0  0  0
  -21.6660  -26.7421   22.1213 H   0  0  0  0  0  0
  -19.6924  -25.6288   21.1269 H   0  0  0  0  0  0
  -19.6705  -27.3181   20.6731 H   0  0  0  0  0  0
  -17.4218  -26.6694   21.4029 H   0  0  0  0  0  0
  -18.0348  -26.0098   22.9031 H   0  0  0  0  0  0
  -19.7966  -30.7327   24.2203 H   0  0  0  0  0  0
  -17.5037  -31.6275   24.5179 H   0  0  0  0  0  0
  -15.5374  -30.2988   23.7693 H   0  0  0  0  0  0
  -15.8696  -28.0825   22.7095 H   0  0  0  0  0  0
  -24.5879  -30.7110   25.7692 H   0  0  0  0  0  0
  -24.8859  -32.2986   26.4663 H   0  0  0  0  0  0
  -25.7940  -30.9047   27.0217 H   0  0  0  0  0  0
  -26.3057  -29.6610   24.1345 H   0  0  0  0  0  0
  -27.3963  -29.7245   25.4975 H   0  0  0  0  0  0
  -27.8992  -30.4112   23.9734 H   0  0  0  0  0  0
  -27.2649  -33.3690   26.1906 H   0  0  0  0  0  0
  -28.3946  -32.6763   25.0360 H   0  0  0  0  0  0
  -28.0610  -31.8529   26.5521 H   0  0  0  0  0  0
  -28.2571  -38.0075   24.7513 H   0  0  0  0  0  0
  -28.1074  -36.2604   24.6294 H   0  0  0  0  0  0
  -27.2288  -37.1410   25.8871 H   0  0  0  0  0  0
  -20.9545  -29.8726   21.6701 H   0  0  0  0  0  0
  -26.0122  -38.2770   24.1428 H   0  0  0  0  0  0
  -30.5922  -21.7503   18.7724 H   0  0  0  0  0  0
  -31.8081  -19.8724   17.9265 H   0  0  0  0  0  0
  -28.9692  -23.2967   18.6101 H   0  0  0  0  0  0
  -27.2337  -22.9284   18.7992 H   0  0  0  0  0  0
  -28.9993  -23.2404   22.1532 H   0  0  0  0  0  0
  -30.1141  -23.4818   20.7777 H   0  0  0  0  0  0
  -27.0774  -24.2413   20.9139 H   0  0  0  0  0  0
  -27.6402  -19.8636   21.9578 H   0  0  0  0  0  0
  -28.3638  -18.2954   22.3063 H   0  0  0  0  0  0
  -27.1614  -18.4474   21.0178 H   0  0  0  0  0  0
  -28.7663  -16.2156   20.7297 H   0  0  0  0  0  0
  1 25  1  0  0  0
  1 30  2  0  0  0
  1 82  1  0  0  0
  2  3  1  0  0  0
  2 25  1  0  0  0
  2 84  1  0  0  0
  2 85  1  0  0  0
  3  4  1  0  0  0
  3 86  1  0  0  0
  3 87  1  0  0  0
  4  5  1  0  0  0
  4 88  1  0  0  0
  4 89  1  0  0  0
  5  6  1  0  0  0
  5 26  1  0  0  0
  5 90  1  0  0  0
  6 25  1  0  0  0
  6 91  1  0  0  0
  6 92  1  0  0  0
  7  8  2  0  0  0
  7 26  1  0  0  0
  7 29  1  0  0  0
  8  9  1  0  0  0
  8 22  1  0  0  0
  9 10  1  0  0  0
  9 27  2  0  0  0
 10 11  2  0  0  0
 10 15  1  0  0  0
 11 12  1  0  0  0
 11 93  1  0  0  0
 12 13  2  0  0  0
 12 94  1  0  0  0
 13 14  1  0  0  0
 13 31  1  0  0  0
 14 15  2  0  0  0
 14 95  1  0  0  0
 15 96  1  0  0  0
 16 17  2  0  0  0
 16 21  1  0  0  0
 16 31  1  0  0  0
 17 18  1  0  0  0
 17 97  1  0  0  0
 18 19  2  0  0  0
 18 98  1  0  0  0
 19 20  1  0  0  0
 19 24  1  0  0  0
 20 21  2  0  0  0
 20 99  1  0  0  0
 21 23  1  0  0  0
 22 28  1  0  0  0
 22 32  2  0  0  0
 26 27  1  0  0  0
 28100  1  0  0  0
 28101  1  0  0  0
 29102  1  0  0  0
 29103  1  0  0  0
 33 34  1  0  0  0
 33 66  1  0  0  0
 33 70  2  0  0  0
 34 36  1  0  0  0
 34 59  1  0  0  0
 34104  1  0  0  0
 35 44  2  0  0  0
 35 45  1  0  0  0
 35 68  1  0  0  0
 36 56  1  0  0  0
 36105  1  0  0  0
 37 39  1  0  0  0
 37 47  1  0  0  0
 37 66  1  0  0  0
 37106  1  0  0  0
 38 43  2  0  0  0
 38 46  1  0  0  0
 38 47  1  0  0  0
 39 64  1  0  0  0
 39 67  2  0  0  0
 40 52  1  0  0  0
 40 53  2  0  0  0
 40 58  1  0  0  0
 41107  1  0  0  0
 41108  1  0  0  0
 41109  1  0  0  0
 41 48  1  0  0  0
 42 43  1  0  0  0
 42 66  1  0  0  0
 42110  1  0  0  0
 42111  1  0  0  0
 43 44  1  0  0  0
 44112  1  0  0  0
 45 46  2  0  0  0
 45113  1  0  0  0
 46114  1  0  0  0
 47115  1  0  0  0
 47116  1  0  0  0
 48 56  1  0  0  0
 48 65  1  0  0  0
 48117  1  0  0  0
 49 50  1  0  0  0
 49 53  1  0  0  0
 49 64  1  0  0  0
 49118  1  0  0  0
 50 51  1  0  0  0
 50119  1  0  0  0
 50120  1  0  0  0
 51 52  1  0  0  0
 51121  1  0  0  0
 51122  1  0  0  0
 52123  1  0  0  0
 52124  1  0  0  0
 53 54  1  0  0  0
 54 55  2  0  0  0
 54125  1  0  0  0
 55 57  1  0  0  0
 55126  1  0  0  0
 56 69  2  0  0  0
 57 58  2  0  0  0
 57127  1  0  0  0
 58128  1  0  0  0
 59 60  1  0  0  0
 59 61  1  0  0  0
 59 62  1  0  0  0
 60129  1  0  0  0
 60130  1  0  0  0
 60131  1  0  0  0
 61132  1  0  0  0
 61133  1  0  0  0
 61134  1  0  0  0
 62135  1  0  0  0
 62136  1  0  0  0
 62137  1  0  0  0
 63 65  1  0  0  0
 63138  1  0  0  0
 63139  1  0  0  0
 63140  1  0  0  0
 64141  1  0  0  0
 65142  1  0  0  0
 68 79  1  0  0  0
 71 72  2  0  0  0
 71 74  1  0  0  0
 71143  1  0  0  0
 72 76  1  0  0  0
 72144  1  0  0  0
 73 74  2  0  0  0
 73 75  1  0  0  0
 73 80  1  0  0  0
 74 81  1  0  0  0
 75 76  2  0  0  0
 75 82  1  0  0  0
 76 83  1  0  0  0
 77 79  1  0  0  0
 77 81  1  0  0  0
 77145  1  0  0  0
 77146  1  0  0  0
 78 79  1  0  0  0
 78 81  1  0  0  0
 78147  1  0  0  0
 78148  1  0  0  0
 79149  1  0  0  0
 80150  1  0  0  0
 80151  1  0  0  0
 80152  1  0  0  0
 82153  1  0  0  0
M  ISO  4   1 100  68 101  79 101  82 100
M  END
> <chiral flag>
0

> <version>
0

> <s_m_source_file>
/data/baiqing/PycharmProjects/Reinvent-master-3.2/result/LINK_invent/BTK/process_docking_weight1_custom_product_contain_oxygen_bond_distance_aromatic_linkinvent_7_9_3/rearranged_h_0030.sdf

> <i_m_source_file_index>
23

> <r_mmod_Potential_Energy-OPLS-2005>
964.466796875

> <r_mmod_Stretch_Energy-OPLS-2005>
427.453796386719

> <r_mmod_Bend_Energy-OPLS-2005>
398.872009277344

> <r_mmod_Torsional_Energy-OPLS-2005>
268.423187255859

> <r_mmod_Improper_Torsional_Energy-OPLS-2005>
11.2913827896118

> <r_mmod_Van_der_Waal_Energy-OPLS-2005>
132.242706298828

> <r_mmod_Electrostatic_Energy-OPLS-2005>
-395.020629882812

> <r_mmod_Solvation_Energy-OPLS-2005>
-233.464950561523

> <b_mmod_Minimization_Converged-OPLS-2005>
0

> <r_mmod_RMS_Derivative-OPLS-2005>
0.757567584514618

$$$$
23
                    3D
 Structure written by MMmdl.
166175  0  0  1  0            999 V2000
  -30.6937  -14.4988   20.6178 C   0  0  0  0  0  0
  -30.4443  -12.3454   19.4296 C   0  0  0  0  0  0
  -29.5131  -12.5071   18.2111 C   0  0  0  0  0  0
  -28.0312  -12.3636   18.6164 C   0  0  0  0  0  0
  -27.6619  -13.2050   19.8702 C   0  0  2  0  0  0
  -28.7004  -12.9935   20.9938 C   0  0  0  0  0  0
  -25.2591  -13.8123   20.5624 C   0  0  0  0  0  0
  -24.1824  -13.0434   20.9100 C   0  0  0  0  0  0
  -24.6346  -11.6899   20.8657 C   0  0  0  0  0  0
  -23.8978  -10.4316   21.0354 C   0  0  0  0  0  0
  -24.3560   -9.4256   21.9133 C   0  0  0  0  0  0
  -23.6278   -8.2257   22.0724 C   0  0  0  0  0  0
  -22.4255   -8.0268   21.3506 C   0  0  0  0  0  0
  -21.9844   -9.0234   20.4614 C   0  0  0  0  0  0
  -22.7141  -10.2130   20.3028 C   0  0  0  0  0  0
  -21.6864   -6.0712   22.5270 C   0  0  0  0  0  0
  -21.4039   -6.5625   23.8191 C   0  0  0  0  0  0
  -21.3659   -5.6769   24.9150 C   0  0  0  0  0  0
  -21.6032   -4.3019   24.7205 C   0  0  0  0  0  0
  -21.8831   -3.8124   23.4324 C   0  0  0  0  0  0
  -21.9206   -4.6947   22.3393 C   0  0  0  0  0  0
  -22.7865  -13.5282   21.1767 C   0  0  0  0  0  0
  -22.1679   -4.2134   21.0966 F   0  0  0  0  0  0
  -21.5609   -3.4517   25.7714 F   0  0  0  0  0  0
  -30.0252  -13.3243   20.4465 N   0  0  0  0  0  0
  -26.3016  -12.9283   20.3279 N   0  0  0  0  0  0
  -25.9273  -11.6442   20.5618 N   0  0  0  0  0  0
  -22.0473  -12.8353   22.0355 N   0  0  0  0  0  0
  -25.4337  -15.1821   20.4098 N   0  0  0  0  0  0
  -31.8141  -14.6973   20.1393 O   0  0  0  0  0  0
  -21.6651   -6.8846   21.4214 O   0  0  0  0  0  0
  -22.3570  -14.5584   20.6593 O   0  0  0  0  0  0
  -24.6139  -31.8647   23.2074 C   0  0  0  0  0  0
  -25.9013  -32.4823   23.8393 C   0  0  1  0  0  0
  -27.2603  -27.4317   20.0983 C   0  0  0  0  0  0
  -25.5845  -33.8619   24.2335 N   0  0  0  0  0  0
  -23.4069  -30.4864   21.5418 C   0  0  2  0  0  0
  -24.8604  -28.9451   20.1122 C   0  0  0  0  0  0
  -22.7413  -29.4650   22.4935 C   0  0  0  0  0  0
  -18.0277  -28.1374   22.8491 C   0  0  0  0  0  0
  -24.1464  -36.7320   23.2649 C   0  0  0  0  0  0
  -25.9337  -30.8258   21.3657 C   0  0  0  0  0  0
  -26.0130  -29.4592   20.7145 C   0  0  0  0  0  0
  -27.2057  -28.7033   20.7136 C   0  0  0  0  0  0
  -26.0867  -26.9285   19.4864 C   0  0  0  0  0  0
  -24.8939  -27.6786   19.4977 C   0  0  0  0  0  0
  -23.6225  -29.8100   20.1581 C   0  0  0  0  0  0
  -25.4092  -36.3131   24.0362 C   0  0  1  0  0  0
  -20.5867  -28.3684   23.1301 C   0  0  2  0  0  0
  -20.6733  -26.9410   22.5432 C   0  0  0  0  0  0
  -19.5731  -26.6387   21.5203 C   0  0  0  0  0  0
  -18.1904  -26.7917   22.1608 C   0  0  0  0  0  0
  -19.1521  -28.8842   23.2889 C   0  0  0  0  0  0
  -18.9455  -30.1426   23.8940 C   0  0  0  0  0  0
  -17.6464  -30.6581   24.0589 C   0  0  0  0  0  0
  -25.9015  -34.9489   23.5163 C   0  0  0  0  0  0
  -16.5364  -29.9097   23.6325 C   0  0  0  0  0  0
  -16.7266  -28.6505   23.0366 C   0  0  0  0  0  0
  -26.4450  -31.6618   25.0742 C   0  0  0  0  0  0
  -25.3733  -31.3702   26.1520 C   0  0  0  0  0  0
  -27.0316  -30.3076   24.6138 C   0  0  0  0  0  0
  -27.6052  -32.4333   25.7470 C   0  0  0  0  0  0
  -27.5584  -37.1811   24.8473 C   0  0  0  0  0  0
  -21.4136  -29.3059   22.3695 N   0  0  0  0  0  0
  -26.4278  -37.3813   23.9427 N   0  0  0  0  0  0
  -24.6699  -31.0734   22.0974 N   0  0  0  0  0  0
  -23.4166  -28.8212   23.3005 O   0  0  0  0  0  0
  -28.4589  -26.7470   20.1871 O   0  0  0  0  0  0
  -26.5599  -34.8942   22.4735 O   0  0  0  0  0  0
  -23.5328  -32.1410   23.7446 O   0  0  0  0  0  0
  -30.7009  -20.3014   20.4270 C   0  0  0  0  0  0
  -31.0801  -19.0047   20.8564 C   0  0  0  0  0  0
  -28.3984  -19.7754   20.9367 C   0  0  0  0  0  0
  -29.3439  -20.7056   20.4329 C   0  0  0  0  0  0
  -30.1298  -18.0680   21.3219 C   0  0  0  0  0  0
  -28.7755  -18.4829   21.3847 C   0  0  0  0  0  0
  -30.1634  -25.3170   17.2023 C   0  0  0  0  0  0
  -30.0865  -23.7985   17.4002 C   0  0  0  0  0  0
  -29.8838  -26.1557   18.4529 C   0  0  0  0  0  0
  -30.7437  -23.2688   18.6925 C   0  0  0  0  0  0
  -29.3616  -24.5361   20.3984 C   0  0  0  0  0  0
  -28.8011  -25.5974   19.3957 C   0  0  1  0  0  0
  -30.6202  -16.7011   21.8527 C   0  0  0  0  0  0
  -28.8503  -22.0709   19.8716 C   0  0  0  0  0  0
  -30.0327  -15.4643   21.2936 N   0  0  0  0  0  0
  -29.8356  -23.2060   19.8781 N   0  3  1  0  0  0
  -27.5589  -17.4415   22.0324 Cl  0  0  0  0  0  0
  -31.4870  -12.4691   19.1299 H   0  0  0  0  0  0
  -30.3807  -11.3375   19.8408 H   0  0  0  0  0  0
  -29.7710  -11.7724   17.4478 H   0  0  0  0  0  0
  -29.6832  -13.4835   17.7544 H   0  0  0  0  0  0
  -27.8395  -11.3074   18.8052 H   0  0  0  0  0  0
  -27.3920  -12.6414   17.7785 H   0  0  0  0  0  0
  -27.7066  -14.2528   19.5735 H   0  0  0  0  0  0
  -28.6886  -11.9537   21.3291 H   0  0  0  0  0  0
  -28.4437  -13.5764   21.8789 H   0  0  0  0  0  0
  -25.2707   -9.5777   22.4690 H   0  0  0  0  0  0
  -24.0012   -7.4661   22.7464 H   0  0  0  0  0  0
  -21.0752   -8.8711   19.8958 H   0  0  0  0  0  0
  -22.3540  -10.9646   19.6141 H   0  0  0  0  0  0
  -21.2055   -7.6136   23.9700 H   0  0  0  0  0  0
  -21.1455   -6.0485   25.9041 H   0  0  0  0  0  0
  -22.0616   -2.7601   23.2813 H   0  0  0  0  0  0
  -22.4090  -12.0129   22.4947 H   0  0  0  0  0  0
  -21.1069  -13.1382   22.2386 H   0  0  0  0  0  0
  -24.6797  -15.8461   20.5454 H   0  0  0  0  0  0
  -26.3053  -15.6264   20.1531 H   0  0  0  0  0  0
  -26.7099  -32.5545   23.1166 H   0  0  0  0  0  0
  -24.9968  -33.9762   25.0469 H   0  0  0  0  0  0
  -22.6976  -31.3041   21.3920 H   0  0  0  0  0  0
  -23.3738  -35.9633   23.3321 H   0  0  0  0  0  0
  -24.3563  -36.8926   22.2063 H   0  0  0  0  0  0
  -23.7188  -37.6516   23.6657 H   0  0  0  0  0  0
  -26.0517  -31.5871   20.5928 H   0  0  0  0  0  0
  -26.8167  -30.8815   21.9888 H   0  0  0  0  0  0
  -28.0918  -29.0936   21.1957 H   0  0  0  0  0  0
  -26.0589  -25.9586   19.0117 H   0  0  0  0  0  0
  -24.0081  -27.2743   19.0285 H   0  0  0  0  0  0
  -23.7347  -30.5780   19.3921 H   0  0  0  0  0  0
  -22.7489  -29.2268   19.8628 H   0  0  0  0  0  0
  -25.1251  -36.2024   25.0851 H   0  0  0  0  0  0
  -20.9975  -28.3267   24.1413 H   0  0  0  0  0  0
  -20.5567  -26.2311   23.3643 H   0  0  0  0  0  0
  -21.6612  -26.7392   22.1292 H   0  0  0  0  0  0
  -19.6892  -25.6295   21.1229 H   0  0  0  0  0  0
  -19.6672  -27.3205   20.6747 H   0  0  0  0  0  0
  -17.4179  -26.6711   21.3995 H   0  0  0  0  0  0
  -18.0293  -26.0037   22.8993 H   0  0  0  0  0  0
  -19.7930  -30.7198   24.2355 H   0  0  0  0  0  0
  -17.5044  -31.6270   24.5174 H   0  0  0  0  0  0
  -15.5377  -30.3042   23.7600 H   0  0  0  0  0  0
  -15.8658  -28.0841   22.7094 H   0  0  0  0  0  0
  -24.5886  -30.7067   25.7869 H   0  0  0  0  0  0
  -24.8938  -32.2839   26.5040 H   0  0  0  0  0  0
  -25.8112  -30.8829   27.0247 H   0  0  0  0  0  0
  -26.2879  -29.6794   24.1227 H   0  0  0  0  0  0
  -27.4142  -29.7365   25.4611 H   0  0  0  0  0  0
  -27.8679  -30.4430   23.9277 H   0  0  0  0  0  0
  -27.2707  -33.3631   26.2078 H   0  0  0  0  0  0
  -28.3806  -32.6895   25.0238 H   0  0  0  0  0  0
  -28.0781  -31.8441   26.5334 H   0  0  0  0  0  0
  -28.2627  -38.0089   24.7520 H   0  0  0  0  0  0
  -28.1046  -36.2628   24.6276 H   0  0  0  0  0  0
  -27.2311  -37.1453   25.8876 H   0  0  0  0  0  0
  -20.9294  -29.8825   21.6967 H   0  0  0  0  0  0
  -26.0200  -38.2899   24.1409 H   0  0  0  0  0  0
  -31.4883  -20.9614   20.0998 H   0  0  0  0  0  0
  -32.1268  -18.7362   20.8402 H   0  0  0  0  0  0
  -27.3533  -20.0435   20.9788 H   0  0  0  0  0  0
  -29.4662  -25.5958   16.4118 H   0  0  0  0  0  0
  -31.1501  -25.5920   16.8229 H   0  0  0  0  0  0
  -30.6132  -23.3530   16.5560 H   0  0  0  0  0  0
  -29.0564  -23.4540   17.3024 H   0  0  0  0  0  0
  -29.6014  -27.1546   18.1186 H   0  0  0  0  0  0
  -30.8147  -26.3020   19.0062 H   0  0  0  0  0  0
  -31.6287  -23.8572   18.9403 H   0  0  0  0  0  0
  -31.1190  -22.2722   18.4730 H   0  0  0  0  0  0
  -28.6306  -24.3782   21.1942 H   0  0  0  0  0  0
  -30.2197  -24.9852   20.8986 H   0  0  0  0  0  0
  -27.9712  -25.1925   18.8212 H   0  0  0  0  0  0
  -30.4293  -16.6841   22.9266 H   0  0  0  0  0  0
  -31.7062  -16.6619   21.7644 H   0  0  0  0  0  0
  -27.9770  -22.3597   20.4564 H   0  0  0  0  0  0
  -28.4734  -21.8976   18.8636 H   0  0  0  0  0  0
  -29.0877  -15.2563   21.5739 H   0  0  0  0  0  0
  -30.4422  -22.9166   20.6311 H   0  0  0  0  0  0
  1 25  1  0  0  0
  1 30  2  0  0  0
  1 85  1  0  0  0
  2  3  1  0  0  0
  2 25  1  0  0  0
  2 88  1  0  0  0
  2 89  1  0  0  0
  3  4  1  0  0  0
  3 90  1  0  0  0
  3 91  1  0  0  0
  4  5  1  0  0  0
  4 92  1  0  0  0
  4 93  1  0  0  0
  5  6  1  0  0  0
  5 26  1  0  0  0
  5 94  1  0  0  0
  6 25  1  0  0  0
  6 95  1  0  0  0
  6 96  1  0  0  0
  7  8  2  0  0  0
  7 26  1  0  0  0
  7 29  1  0  0  0
  8  9  1  0  0  0
  8 22  1  0  0  0
  9 10  1  0  0  0
  9 27  2  0  0  0
 10 11  2  0  0  0
 10 15  1  0  0  0
 11 12  1  0  0  0
 11 97  1  0  0  0
 12 13  2  0  0  0
 12 98  1  0  0  0
 13 14  1  0  0  0
 13 31  1  0  0  0
 14 15  2  0  0  0
 14 99  1  0  0  0
 15100  1  0  0  0
 16 17  2  0  0  0
 16 21  1  0  0  0
 16 31  1  0  0  0
 17 18  1  0  0  0
 17101  1  0  0  0
 18 19  2  0  0  0
 18102  1  0  0  0
 19 20  1  0  0  0
 19 24  1  0  0  0
 20 21  2  0  0  0
 20103  1  0  0  0
 21 23  1  0  0  0
 22 28  1  0  0  0
 22 32  2  0  0  0
 26 27  1  0  0  0
 28104  1  0  0  0
 28105  1  0  0  0
 29106  1  0  0  0
 29107  1  0  0  0
 33 34  1  0  0  0
 33 66  1  0  0  0
 33 70  2  0  0  0
 34 36  1  0  0  0
 34 59  1  0  0  0
 34108  1  0  0  0
 35 44  2  0  0  0
 35 45  1  0  0  0
 35 68  1  0  0  0
 36 56  1  0  0  0
 36109  1  0  0  0
 37 39  1  0  0  0
 37 47  1  0  0  0
 37 66  1  0  0  0
 37110  1  0  0  0
 38 43  2  0  0  0
 38 46  1  0  0  0
 38 47  1  0  0  0
 39 64  1  0  0  0
 39 67  2  0  0  0
 40 52  1  0  0  0
 40 53  2  0  0  0
 40 58  1  0  0  0
 41111  1  0  0  0
 41112  1  0  0  0
 41113  1  0  0  0
 41 48  1  0  0  0
 42 43  1  0  0  0
 42 66  1  0  0  0
 42114  1  0  0  0
 42115  1  0  0  0
 43 44  1  0  0  0
 44116  1  0  0  0
 45 46  2  0  0  0
 45117  1  0  0  0
 46118  1  0  0  0
 47119  1  0  0  0
 47120  1  0  0  0
 48 56  1  0  0  0
 48 65  1  0  0  0
 48121  1  0  0  0
 49 50  1  0  0  0
 49 53  1  0  0  0
 49 64  1  0  0  0
 49122  1  0  0  0
 50 51  1  0  0  0
 50123  1  0  0  0
 50124  1  0  0  0
 51 52  1  0  0  0
 51125  1  0  0  0
 51126  1  0  0  0
 52127  1  0  0  0
 52128  1  0  0  0
 53 54  1  0  0  0
 54 55  2  0  0  0
 54129  1  0  0  0
 55 57  1  0  0  0
 55130  1  0  0  0
 56 69  2  0  0  0
 57 58  2  0  0  0
 57131  1  0  0  0
 58132  1  0  0  0
 59 60  1  0  0  0
 59 61  1  0  0  0
 59 62  1  0  0  0
 60133  1  0  0  0
 60134  1  0  0  0
 60135  1  0  0  0
 61136  1  0  0  0
 61137  1  0  0  0
 61138  1  0  0  0
 62139  1  0  0  0
 62140  1  0  0  0
 62141  1  0  0  0
 63 65  1  0  0  0
 63142  1  0  0  0
 63143  1  0  0  0
 63144  1  0  0  0
 64145  1  0  0  0
 65146  1  0  0  0
 68 82  1  0  0  0
 71 72  2  0  0  0
 71 74  1  0  0  0
 71147  1  0  0  0
 72 75  1  0  0  0
 72148  1  0  0  0
 73 74  2  0  0  0
 73 76  1  0  0  0
 73149  1  0  0  0
 74 84  1  0  0  0
 75 76  2  0  0  0
 75 83  1  0  0  0
 76 87  1  0  0  0
 77 78  1  0  0  0
 77 79  1  0  0  0
 77150  1  0  0  0
 77151  1  0  0  0
 78 80  1  0  0  0
 78152  1  0  0  0
 78153  1  0  0  0
 79 82  1  0  0  0
 79154  1  0  0  0
 79155  1  0  0  0
 80 86  1  0  0  0
 80156  1  0  0  0
 80157  1  0  0  0
 81 82  1  0  0  0
 81 86  1  0  0  0
 81158  1  0  0  0
 81159  1  0  0  0
 82160  1  0  0  0
 83 85  1  0  0  0
 83161  1  0  0  0
 83162  1  0  0  0
 84163  1  0  0  0
 84164  1  0  0  0
 84 86  1  0  0  0
 85165  1  0  0  0
 86166  1  0  0  0
M  CHG  1  86   1
M  ISO  4   1 100  68 101  82 101  85 100
M  END
> <chiral flag>
0

> <version>
0

> <s_m_source_file>
/data/baiqing/PycharmProjects/Reinvent-master-3.2/result/LINK_invent/BTK/process_docking_weight1_custom_product_contain_oxygen_bond_distance_aromatic_linkinvent_7_9_3/rearranged_h_0030.sdf

> <i_m_source_file_index>
24

> <r_mmod_Potential_Energy-OPLS-2005>
-74.6966857910156

> <r_mmod_Stretch_Energy-OPLS-2005>
47.8113136291504

> <r_mmod_Bend_Energy-OPLS-2005>
148.160598754883

> <r_mmod_Torsional_Energy-OPLS-2005>
247.356506347656

> <r_mmod_Improper_Torsional_Energy-OPLS-2005>
2.52004432678223

> <r_mmod_Van_der_Waal_Energy-OPLS-2005>
148.926895141602

> <r_mmod_Electrostatic_Energy-OPLS-2005>
-265.305816650391

> <r_mmod_Solvation_Energy-OPLS-2005>
-421.859344482422

> <b_mmod_Minimization_Converged-OPLS-2005>
0

> <r_mmod_RMS_Derivative-OPLS-2005>
4.96895170211792

$$$$
24
                    3D
 Structure written by MMmdl.
156164  0  0  1  0            999 V2000
  -30.4777  -15.0360   20.4216 C   0  0  0  0  0  0
  -30.4298  -12.6694   19.4731 C   0  0  0  0  0  0
  -29.4949  -12.5545   18.2477 C   0  0  0  0  0  0
  -28.0354  -12.3172   18.6759 C   0  0  0  0  0  0
  -27.6095  -13.2516   19.8353 C   0  0  2  0  0  0
  -28.6564  -13.3042   20.9639 C   0  0  0  0  0  0
  -25.2356  -13.8250   20.5726 C   0  0  0  0  0  0
  -24.1696  -13.0452   20.9244 C   0  0  0  0  0  0
  -24.6331  -11.6936   20.8772 C   0  0  0  0  0  0
  -23.9023  -10.4312   21.0421 C   0  0  0  0  0  0
  -24.3587   -9.4229   21.9200 C   0  0  0  0  0  0
  -23.6288   -8.2249   22.0735 C   0  0  0  0  0  0
  -22.4273   -8.0270   21.3533 C   0  0  0  0  0  0
  -21.9889   -9.0254   20.4644 C   0  0  0  0  0  0
  -22.7192  -10.2144   20.3080 C   0  0  0  0  0  0
  -21.6862   -6.0749   22.5295 C   0  0  0  0  0  0
  -21.4006   -6.5657   23.8221 C   0  0  0  0  0  0
  -21.3657   -5.6803   24.9171 C   0  0  0  0  0  0
  -21.6038   -4.3071   24.7223 C   0  0  0  0  0  0
  -21.8821   -3.8157   23.4344 C   0  0  0  0  0  0
  -21.9197   -4.6975   22.3399 C   0  0  0  0  0  0
  -22.7721  -13.5199   21.1936 C   0  0  0  0  0  0
  -22.1670   -4.2167   21.0979 F   0  0  0  0  0  0
  -21.5622   -3.4546   25.7725 F   0  0  0  0  0  0
  -29.9011  -13.7641   20.3444 N   0  0  0  0  0  0
  -26.2760  -12.9467   20.3284 N   0  0  0  0  0  0
  -25.9261  -11.6591   20.5776 N   0  0  0  0  0  0
  -22.0395  -12.8192   22.0497 N   0  0  0  0  0  0
  -25.4049  -15.1976   20.4088 N   0  0  0  0  0  0
  -31.7034  -15.0668   20.2303 O   0  0  0  0  0  0
  -21.6640   -6.8873   21.4240 O   0  0  0  0  0  0
  -22.3408  -14.5536   20.6796 O   0  0  0  0  0  0
  -24.6455  -31.8400   23.1799 C   0  0  0  0  0  0
  -25.9212  -32.4671   23.8202 C   0  0  1  0  0  0
  -27.2052  -27.0653   20.1983 C   0  0  0  0  0  0
  -25.5954  -33.8472   24.2135 N   0  0  0  0  0  0
  -23.4514  -30.4542   21.5264 C   0  0  2  0  0  0
  -24.9014  -28.8650   20.1053 C   0  0  0  0  0  0
  -22.7573  -29.4517   22.4825 C   0  0  0  0  0  0
  -18.0328  -28.1387   22.8494 C   0  0  0  0  0  0
  -24.1483  -36.7227   23.2640 C   0  0  0  0  0  0
  -26.0069  -30.6934   21.3864 C   0  0  0  0  0  0
  -26.0734  -29.2955   20.7367 C   0  0  0  0  0  0
  -27.2199  -28.4108   20.7665 C   0  0  0  0  0  0
  -26.0155  -26.7487   19.5084 C   0  0  0  0  0  0
  -24.8896  -27.6089   19.4736 C   0  0  0  0  0  0
  -23.6801  -29.7766   20.1461 C   0  0  0  0  0  0
  -25.4127  -36.3006   24.0302 C   0  0  1  0  0  0
  -20.5925  -28.3711   23.1277 C   0  0  2  0  0  0
  -20.6795  -26.9402   22.5447 C   0  0  0  0  0  0
  -19.5777  -26.6354   21.5263 C   0  0  0  0  0  0
  -18.1967  -26.7919   22.1669 C   0  0  0  0  0  0
  -19.1572  -28.8878   23.2873 C   0  0  0  0  0  0
  -18.9469  -30.1475   23.8903 C   0  0  0  0  0  0
  -17.6468  -30.6590   24.0566 C   0  0  0  0  0  0
  -25.9077  -34.9392   23.5028 C   0  0  0  0  0  0
  -16.5371  -29.9080   23.6320 C   0  0  0  0  0  0
  -16.7303  -28.6491   23.0356 C   0  0  0  0  0  0
  -26.4529  -31.6551   25.0661 C   0  0  0  0  0  0
  -25.3695  -31.3754   26.1343 C   0  0  0  0  0  0
  -27.0392  -30.2935   24.6260 C   0  0  0  0  0  0
  -27.6058  -32.4310   25.7459 C   0  0  0  0  0  0
  -27.5568  -37.1783   24.8479 C   0  0  0  0  0  0
  -21.4248  -29.3045   22.3622 N   0  0  0  0  0  0
  -26.4292  -37.3726   23.9395 N   0  0  0  0  0  0
  -24.7213  -31.0201   22.0860 N   0  0  0  0  0  0
  -23.4209  -28.8078   23.2992 O   0  0  0  0  0  0
  -28.2496  -26.0671   20.3734 O   0  0  0  0  0  0
  -26.5689  -34.8914   22.4623 O   0  0  0  0  0  0
  -23.5570  -32.1305   23.7013 O   0  0  0  0  0  0
  -29.1580  -18.9626   23.7690 C   0  0  0  0  0  0
  -29.4045  -17.5960   23.8109 C   0  0  0  0  0  0
  -29.0476  -19.6072   22.5341 C   0  0  0  0  0  0
  -29.5810  -16.8797   22.6211 C   0  0  0  0  0  0
  -29.1747  -18.9604   21.2753 C   0  0  0  0  0  0
  -29.5090  -17.4408   21.3123 C   0  0  0  0  0  0
  -29.3114  -16.5740   18.9344 C   0  0  0  0  0  0
  -28.7774  -20.1342   20.1680 C   0  0  0  0  0  0
  -28.2012  -22.9990   20.6283 C   0  0  0  0  0  0
  -28.3442  -24.5552   19.8886 C   0  0  0  0  0  0
  -29.6970  -16.2646   20.3127 N   0  0  0  0  0  0
  -29.1118  -21.7194   20.2467 N   0  3  0  0  0  0
  -31.4437  -12.8819   19.1240 H   0  0  0  0  0  0
  -30.4904  -11.7266   20.0162 H   0  0  0  0  0  0
  -29.8233  -11.7567   17.5818 H   0  0  0  0  0  0
  -29.5493  -13.4744   17.6653 H   0  0  0  0  0  0
  -27.9398  -11.2738   18.9779 H   0  0  0  0  0  0
  -27.3634  -12.4447   17.8252 H   0  0  0  0  0  0
  -27.5551  -14.2478   19.3965 H   0  0  0  0  0  0
  -28.7832  -12.3288   21.4346 H   0  0  0  0  0  0
  -28.3470  -13.9987   21.7469 H   0  0  0  0  0  0
  -25.2717   -9.5739   22.4791 H   0  0  0  0  0  0
  -24.0035   -7.4619   22.7408 H   0  0  0  0  0  0
  -21.0847   -8.8758   19.8939 H   0  0  0  0  0  0
  -22.3608  -10.9693   19.6225 H   0  0  0  0  0  0
  -21.1982   -7.6162   23.9739 H   0  0  0  0  0  0
  -21.1485   -6.0520   25.9079 H   0  0  0  0  0  0
  -22.0593   -2.7618   23.2831 H   0  0  0  0  0  0
  -22.4005  -11.9832   22.4854 H   0  0  0  0  0  0
  -21.1037  -13.1248   22.2790 H   0  0  0  0  0  0
  -24.6440  -15.8623   20.5042 H   0  0  0  0  0  0
  -26.2679  -15.6312   20.1073 H   0  0  0  0  0  0
  -26.7265  -32.5265   23.0909 H   0  0  0  0  0  0
  -25.0045  -33.9555   25.0248 H   0  0  0  0  0  0
  -22.7552  -31.2812   21.3699 H   0  0  0  0  0  0
  -23.3752  -35.9558   23.3325 H   0  0  0  0  0  0
  -24.3549  -36.8844   22.2049 H   0  0  0  0  0  0
  -23.7250  -37.6431   23.6672 H   0  0  0  0  0  0
  -26.1686  -31.4379   20.6064 H   0  0  0  0  0  0
  -26.8769  -30.7517   22.0274 H   0  0  0  0  0  0
  -28.1037  -28.7283   21.3028 H   0  0  0  0  0  0
  -25.9114  -25.7806   19.0419 H   0  0  0  0  0  0
  -23.9900  -27.2744   18.9749 H   0  0  0  0  0  0
  -23.8229  -30.5523   19.3943 H   0  0  0  0  0  0
  -22.7921  -29.2237   19.8330 H   0  0  0  0  0  0
  -25.1324  -36.1826   25.0799 H   0  0  0  0  0  0
  -21.0042  -28.3327   24.1395 H   0  0  0  0  0  0
  -20.5709  -26.2324   23.3678 H   0  0  0  0  0  0
  -21.6650  -26.7409   22.1250 H   0  0  0  0  0  0
  -19.6912  -25.6245   21.1316 H   0  0  0  0  0  0
  -19.6725  -27.3145   20.6770 H   0  0  0  0  0  0
  -17.4226  -26.6652   21.4092 H   0  0  0  0  0  0
  -18.0375  -26.0092   22.9105 H   0  0  0  0  0  0
  -19.7934  -30.7298   24.2278 H   0  0  0  0  0  0
  -17.4994  -31.6270   24.5158 H   0  0  0  0  0  0
  -15.5358  -30.2973   23.7619 H   0  0  0  0  0  0
  -15.8704  -28.0787   22.7088 H   0  0  0  0  0  0
  -24.5901  -30.7080   25.7650 H   0  0  0  0  0  0
  -24.8852  -32.2938   26.4658 H   0  0  0  0  0  0
  -25.7953  -30.8998   27.0178 H   0  0  0  0  0  0
  -26.2999  -29.6659   24.1272 H   0  0  0  0  0  0
  -27.3997  -29.7241   25.4831 H   0  0  0  0  0  0
  -27.8911  -30.4155   23.9574 H   0  0  0  0  0  0
  -27.2662  -33.3648   26.1941 H   0  0  0  0  0  0
  -28.3924  -32.6801   25.0331 H   0  0  0  0  0  0
  -28.0653  -31.8493   26.5453 H   0  0  0  0  0  0
  -28.2615  -38.0048   24.7472 H   0  0  0  0  0  0
  -28.1032  -36.2576   24.6379 H   0  0  0  0  0  0
  -27.2271  -37.1519   25.8880 H   0  0  0  0  0  0
  -20.9448  -29.8742   21.6790 H   0  0  0  0  0  0
  -26.0154  -38.2798   24.1380 H   0  0  0  0  0  0
  -29.0128  -19.5177   24.6852 H   0  0  0  0  0  0
  -29.4498  -17.0855   24.7641 H   0  0  0  0  0  0
  -28.7984  -20.6575   22.5809 H   0  0  0  0  0  0
  -29.7346  -15.8218   22.7683 H   0  0  0  0  0  0
  -28.2276  -16.5623   18.8206 H   0  0  0  0  0  0
  -29.7045  -15.8588   18.2107 H   0  0  0  0  0  0
  -29.6812  -17.5541   18.6442 H   0  0  0  0  0  0
  -27.7052  -20.0529   19.9928 H   0  0  0  0  0  0
  -29.2304  -19.7859   19.2410 H   0  0  0  0  0  0
  -27.1659  -22.6873   20.4893 H   0  0  0  0  0  0
  -28.2925  -23.1246   21.7085 H   0  0  0  0  0  0
  -27.7609  -24.4954   18.9738 H   0  0  0  0  0  0
  -29.3751  -24.5465   19.5340 H   0  0  0  0  0  0
  -29.3099  -21.9031   19.2775 H   0  0  0  0  0  0
  -30.0042  -21.8193   20.7044 H   0  0  0  0  0  0
  1 25  1  0  0  0
  1 30  2  0  0  0
  1 81  1  0  0  0
  2  3  1  0  0  0
  2 25  1  0  0  0
  2 83  1  0  0  0
  2 84  1  0  0  0
  3  4  1  0  0  0
  3 85  1  0  0  0
  3 86  1  0  0  0
  4  5  1  0  0  0
  4 87  1  0  0  0
  4 88  1  0  0  0
  5  6  1  0  0  0
  5 26  1  0  0  0
  5 89  1  0  0  0
  6 25  1  0  0  0
  6 90  1  0  0  0
  6 91  1  0  0  0
  7  8  2  0  0  0
  7 26  1  0  0  0
  7 29  1  0  0  0
  8  9  1  0  0  0
  8 22  1  0  0  0
  9 10  1  0  0  0
  9 27  2  0  0  0
 10 11  2  0  0  0
 10 15  1  0  0  0
 11 12  1  0  0  0
 11 92  1  0  0  0
 12 13  2  0  0  0
 12 93  1  0  0  0
 13 14  1  0  0  0
 13 31  1  0  0  0
 14 15  2  0  0  0
 14 94  1  0  0  0
 15 95  1  0  0  0
 16 17  2  0  0  0
 16 21  1  0  0  0
 16 31  1  0  0  0
 17 18  1  0  0  0
 17 96  1  0  0  0
 18 19  2  0  0  0
 18 97  1  0  0  0
 19 20  1  0  0  0
 19 24  1  0  0  0
 20 21  2  0  0  0
 20 98  1  0  0  0
 21 23  1  0  0  0
 22 28  1  0  0  0
 22 32  2  0  0  0
 26 27  1  0  0  0
 28 99  1  0  0  0
 28100  1  0  0  0
 29101  1  0  0  0
 29102  1  0  0  0
 33 34  1  0  0  0
 33 66  1  0  0  0
 33 70  2  0  0  0
 34 36  1  0  0  0
 34 59  1  0  0  0
 34103  1  0  0  0
 35 44  2  0  0  0
 35 45  1  0  0  0
 35 68  1  0  0  0
 36 56  1  0  0  0
 36104  1  0  0  0
 37 39  1  0  0  0
 37 47  1  0  0  0
 37 66  1  0  0  0
 37105  1  0  0  0
 38 43  2  0  0  0
 38 46  1  0  0  0
 38 47  1  0  0  0
 39 64  1  0  0  0
 39 67  2  0  0  0
 40 52  1  0  0  0
 40 53  2  0  0  0
 40 58  1  0  0  0
 41106  1  0  0  0
 41107  1  0  0  0
 41108  1  0  0  0
 41 48  1  0  0  0
 42 43  1  0  0  0
 42 66  1  0  0  0
 42109  1  0  0  0
 42110  1  0  0  0
 43 44  1  0  0  0
 44111  1  0  0  0
 45 46  2  0  0  0
 45112  1  0  0  0
 46113  1  0  0  0
 47114  1  0  0  0
 47115  1  0  0  0
 48 56  1  0  0  0
 48 65  1  0  0  0
 48116  1  0  0  0
 49 50  1  0  0  0
 49 53  1  0  0  0
 49 64  1  0  0  0
 49117  1  0  0  0
 50 51  1  0  0  0
 50118  1  0  0  0
 50119  1  0  0  0
 51 52  1  0  0  0
 51120  1  0  0  0
 51121  1  0  0  0
 52122  1  0  0  0
 52123  1  0  0  0
 53 54  1  0  0  0
 54 55  2  0  0  0
 54124  1  0  0  0
 55 57  1  0  0  0
 55125  1  0  0  0
 56 69  2  0  0  0
 57 58  2  0  0  0
 57126  1  0  0  0
 58127  1  0  0  0
 59 60  1  0  0  0
 59 61  1  0  0  0
 59 62  1  0  0  0
 60128  1  0  0  0
 60129  1  0  0  0
 60130  1  0  0  0
 61131  1  0  0  0
 61132  1  0  0  0
 61133  1  0  0  0
 62134  1  0  0  0
 62135  1  0  0  0
 62136  1  0  0  0
 63 65  1  0  0  0
 63137  1  0  0  0
 63138  1  0  0  0
 63139  1  0  0  0
 64140  1  0  0  0
 65141  1  0  0  0
 68 80  1  0  0  0
 71 72  2  0  0  0
 71 73  1  0  0  0
 71142  1  0  0  0
 72 74  1  0  0  0
 72143  1  0  0  0
 73 75  2  0  0  0
 73144  1  0  0  0
 74 76  2  0  0  0
 74145  1  0  0  0
 75 76  1  0  0  0
 75 78  1  0  0  0
 76 81  1  0  0  0
 77 81  1  0  0  0
 77146  1  0  0  0
 77147  1  0  0  0
 77148  1  0  0  0
 78 82  1  0  0  0
 78149  1  0  0  0
 78150  1  0  0  0
 79 80  1  0  0  0
 79 82  1  0  0  0
 79151  1  0  0  0
 79152  1  0  0  0
 80153  1  0  0  0
 80154  1  0  0  0
 82155  1  0  0  0
 82156  1  0  0  0
M  CHG  1  82   1
M  ISO  4   1 100  68 101  80 101  81 100
M  END
> <chiral flag>
0

> <version>
0

> <s_m_source_file>
/data/baiqing/PycharmProjects/Reinvent-master-3.2/result/LINK_invent/BTK/process_docking_weight1_custom_product_contain_oxygen_bond_distance_aromatic_linkinvent_7_9_3/rearranged_h_0030.sdf

> <i_m_source_file_index>
25

> <r_mmod_Potential_Energy-OPLS-2005>
857.167297363281

> <r_mmod_Stretch_Energy-OPLS-2005>
373.870269775391

> <r_mmod_Bend_Energy-OPLS-2005>
428.226318359375

> <r_mmod_Torsional_Energy-OPLS-2005>
300.311828613281

> <r_mmod_Improper_Torsional_Energy-OPLS-2005>
12.7061557769775

> <r_mmod_Van_der_Waal_Energy-OPLS-2005>
129.707809448242

> <r_mmod_Electrostatic_Energy-OPLS-2005>
-189.83219909668

> <r_mmod_Solvation_Energy-OPLS-2005>
-464.797637939453

> <b_mmod_Minimization_Converged-OPLS-2005>
0

> <r_mmod_RMS_Derivative-OPLS-2005>
4.48090744018555

$$$$
25
                    3D
 Structure written by MMmdl.
179189  0  0  1  0            999 V2000
  -30.7081  -14.4879   20.5787 C   0  0  0  0  0  0
  -30.4146  -12.3273   19.4128 C   0  0  0  0  0  0
  -29.4883  -12.5302   18.1976 C   0  0  0  0  0  0
  -28.0140  -12.3702   18.6174 C   0  0  0  0  0  0
  -27.6551  -13.2138   19.8713 C   0  0  2  0  0  0
  -28.7007  -13.0122   20.9887 C   0  0  0  0  0  0
  -25.2529  -13.8183   20.5683 C   0  0  0  0  0  0
  -24.1792  -13.0427   20.9189 C   0  0  0  0  0  0
  -24.6356  -11.6902   20.8729 C   0  0  0  0  0  0
  -23.9014  -10.4282   21.0375 C   0  0  0  0  0  0
  -24.3587   -9.4206   21.9156 C   0  0  0  0  0  0
  -23.6279   -8.2235   22.0749 C   0  0  0  0  0  0
  -22.4250   -8.0277   21.3571 C   0  0  0  0  0  0
  -21.9861   -9.0209   20.4638 C   0  0  0  0  0  0
  -22.7179  -10.2093   20.3016 C   0  0  0  0  0  0
  -21.6841   -6.0722   22.5286 C   0  0  0  0  0  0
  -21.4046   -6.5636   23.8217 C   0  0  0  0  0  0
  -21.3647   -5.6779   24.9162 C   0  0  0  0  0  0
  -21.6014   -4.3045   24.7202 C   0  0  0  0  0  0
  -21.8831   -3.8148   23.4319 C   0  0  0  0  0  0
  -21.9198   -4.6958   22.3378 C   0  0  0  0  0  0
  -22.7818  -13.5237   21.1839 C   0  0  0  0  0  0
  -22.1663   -4.2149   21.0948 F   0  0  0  0  0  0
  -21.5554   -3.4524   25.7709 F   0  0  0  0  0  0
  -30.0278  -13.3163   20.4334 N   0  0  0  0  0  0
  -26.2989  -12.9363   20.3379 N   0  0  0  0  0  0
  -25.9294  -11.6509   20.5768 N   0  0  0  0  0  0
  -22.0442  -12.8232   22.0387 N   0  0  0  0  0  0
  -25.4206  -15.1901   20.4097 N   0  0  0  0  0  0
  -31.8304  -14.6676   20.1035 O   0  0  0  0  0  0
  -21.6623   -6.8878   21.4273 O   0  0  0  0  0  0
  -22.3472  -14.5490   20.6621 O   0  0  0  0  0  0
  -24.6235  -31.8663   23.2127 C   0  0  0  0  0  0
  -25.9113  -32.4812   23.8395 C   0  0  1  0  0  0
  -27.2160  -27.3811   20.0865 C   0  0  0  0  0  0
  -25.5930  -33.8604   24.2310 N   0  0  0  0  0  0
  -23.4095  -30.5006   21.5585 C   0  0  2  0  0  0
  -24.8422  -28.9638   20.1247 C   0  0  0  0  0  0
  -22.7441  -29.4696   22.5010 C   0  0  0  0  0  0
  -18.0288  -28.1405   22.8534 C   0  0  0  0  0  0
  -24.1482  -36.7313   23.2645 C   0  0  0  0  0  0
  -25.9507  -30.8132   21.3774 C   0  0  0  0  0  0
  -26.0175  -29.4465   20.7186 C   0  0  0  0  0  0
  -27.2050  -28.6662   20.6959 C   0  0  0  0  0  0
  -25.9988  -26.9282   19.5109 C   0  0  0  0  0  0
  -24.8308  -27.7006   19.5247 C   0  0  0  0  0  0
  -23.6136  -29.8437   20.1718 C   0  0  0  0  0  0
  -25.4109  -36.3120   24.0339 C   0  0  1  0  0  0
  -20.5884  -28.3705   23.1328 C   0  0  2  0  0  0
  -20.6791  -26.9431   22.5433 C   0  0  0  0  0  0
  -19.5750  -26.6391   21.5266 C   0  0  0  0  0  0
  -18.1935  -26.7937   22.1670 C   0  0  0  0  0  0
  -19.1537  -28.8863   23.2937 C   0  0  0  0  0  0
  -18.9468  -30.1472   23.8943 C   0  0  0  0  0  0
  -17.6484  -30.6609   24.0600 C   0  0  0  0  0  0
  -25.9031  -34.9482   23.5114 C   0  0  0  0  0  0
  -16.5368  -29.9118   23.6369 C   0  0  0  0  0  0
  -16.7276  -28.6537   23.0382 C   0  0  0  0  0  0
  -26.4508  -31.6612   25.0743 C   0  0  0  0  0  0
  -25.3746  -31.3763   26.1478 C   0  0  0  0  0  0
  -27.0355  -30.3045   24.6161 C   0  0  0  0  0  0
  -27.6034  -32.4375   25.7512 C   0  0  0  0  0  0
  -27.5583  -37.1804   24.8465 C   0  0  0  0  0  0
  -21.4158  -29.3068   22.3718 N   0  0  0  0  0  0
  -26.4290  -37.3799   23.9406 N   0  0  0  0  0  0
  -24.6805  -31.0739   22.1060 N   0  0  0  0  0  0
  -23.4192  -28.8167   23.3003 O   0  0  0  0  0  0
  -28.3756  -26.5989   20.0722 O   0  0  0  0  0  0
  -26.5592  -34.8959   22.4683 O   0  0  0  0  0  0
  -23.5435  -32.1418   23.7516 O   0  0  0  0  0  0
  -30.3848  -19.5690   22.7239 C   0  0  0  0  0  0
  -30.1748  -18.2838   22.1973 C   0  0  0  0  0  0
  -30.2893  -20.6999   21.8971 C   0  0  0  0  0  0
  -29.7760  -18.1115   20.8537 C   0  0  0  0  0  0
  -29.9367  -20.5833   20.5350 C   0  0  0  0  0  0
  -29.5662  -19.2822   20.0360 C   0  0  0  0  0  0
  -25.2297  -18.9418   19.5200 C   0  0  0  0  0  0
  -25.2750  -18.2299   18.1625 C   0  0  0  0  0  0
  -27.9365  -23.9440   17.4167 C   0  0  0  0  0  0
  -28.2644  -25.3242   17.9863 C   0  0  0  0  0  0
  -26.6980  -19.1427   19.9070 C   0  0  0  0  0  0
  -26.7353  -18.3277   17.6884 C   0  0  0  0  0  0
  -28.9896  -22.9212   17.8612 C   0  0  0  0  0  0
  -29.3953  -24.2182   19.9406 C   0  0  0  0  0  0
  -28.2857  -25.2483   19.5263 C   0  0  1  0  0  0
  -29.6000  -16.6737   20.2877 C   0  0  0  0  0  0
  -30.2441  -21.8289   19.6545 C   0  0  0  0  0  0
  -28.9245  -19.1161   18.6434 C   0  0  0  0  0  0
  -30.0244  -15.5228   21.1165 N   0  0  0  0  0  0
  -27.4306  -19.2426   18.6229 N   0  3  0  0  0  0
  -29.1712  -22.8405   19.3438 N   0  3  2  0  0  0
  -31.4599  -12.4243   19.1154 H   0  0  0  0  0  0
  -30.3072  -11.3128   19.8030 H   0  0  0  0  0  0
  -29.7286  -11.8175   17.4069 H   0  0  0  0  0  0
  -29.6520  -13.5178   17.7644 H   0  0  0  0  0  0
  -27.8445  -11.3141   18.8324 H   0  0  0  0  0  0
  -27.3601  -12.6207   17.7812 H   0  0  0  0  0  0
  -27.6869  -14.2593   19.5674 H   0  0  0  0  0  0
  -28.6830  -11.9778   21.3320 H   0  0  0  0  0  0
  -28.4679  -13.6243   21.8611 H   0  0  0  0  0  0
  -25.2699   -9.5699   22.4752 H   0  0  0  0  0  0
  -23.9955   -7.4616   22.7484 H   0  0  0  0  0  0
  -21.0766   -8.8701   19.8963 H   0  0  0  0  0  0
  -22.3603  -10.9617   19.6127 H   0  0  0  0  0  0
  -21.2124   -7.6158   23.9719 H   0  0  0  0  0  0
  -21.1448   -6.0509   25.9055 H   0  0  0  0  0  0
  -22.0650   -2.7620   23.2808 H   0  0  0  0  0  0
  -22.4033  -11.9887   22.4795 H   0  0  0  0  0  0
  -21.1069  -13.1306   22.2556 H   0  0  0  0  0  0
  -24.6556  -15.8488   20.5069 H   0  0  0  0  0  0
  -26.2948  -15.6254   20.1553 H   0  0  0  0  0  0
  -26.7152  -32.5504   23.1129 H   0  0  0  0  0  0
  -25.0140  -33.9709   25.0505 H   0  0  0  0  0  0
  -22.7046  -31.3249   21.4259 H   0  0  0  0  0  0
  -23.3751  -35.9631   23.3324 H   0  0  0  0  0  0
  -24.3587  -36.8906   22.2052 H   0  0  0  0  0  0
  -23.7196  -37.6509   23.6652 H   0  0  0  0  0  0
  -26.0839  -31.5746   20.6071 H   0  0  0  0  0  0
  -26.8375  -30.8556   22.0003 H   0  0  0  0  0  0
  -28.1137  -29.0388   21.1527 H   0  0  0  0  0  0
  -25.8917  -25.9660   19.0379 H   0  0  0  0  0  0
  -23.9266  -27.3083   19.0774 H   0  0  0  0  0  0
  -23.7389  -30.6265   19.4239 H   0  0  0  0  0  0
  -22.7300  -29.2816   19.8625 H   0  0  0  0  0  0
  -25.1287  -36.1993   25.0821 H   0  0  0  0  0  0
  -21.0035  -28.3279   24.1439 H   0  0  0  0  0  0
  -20.5783  -26.2304   23.3637 H   0  0  0  0  0  0
  -21.6633  -26.7507   22.1158 H   0  0  0  0  0  0
  -19.6935  -25.6307   21.1297 H   0  0  0  0  0  0
  -19.6682  -27.3217   20.6813 H   0  0  0  0  0  0
  -17.4193  -26.6714   21.4077 H   0  0  0  0  0  0
  -18.0319  -26.0065   22.9052 H   0  0  0  0  0  0
  -19.7958  -30.7280   24.2291 H   0  0  0  0  0  0
  -17.5053  -31.6294   24.5202 H   0  0  0  0  0  0
  -15.5384  -30.3039   23.7698 H   0  0  0  0  0  0
  -15.8671  -28.0888   22.7080 H   0  0  0  0  0  0
  -24.5871  -30.7159   25.7843 H   0  0  0  0  0  0
  -24.9009  -32.2948   26.4936 H   0  0  0  0  0  0
  -25.8077  -30.8909   27.0223 H   0  0  0  0  0  0
  -26.2925  -29.6787   24.1193 H   0  0  0  0  0  0
  -27.4097  -29.7302   25.4645 H   0  0  0  0  0  0
  -27.8786  -30.4374   23.9375 H   0  0  0  0  0  0
  -27.2576  -33.3657   26.2078 H   0  0  0  0  0  0
  -28.3841  -32.6950   25.0347 H   0  0  0  0  0  0
  -28.0700  -31.8511   26.5427 H   0  0  0  0  0  0
  -28.2603  -38.0104   24.7534 H   0  0  0  0  0  0
  -28.1071  -36.2628   24.6281 H   0  0  0  0  0  0
  -27.2303  -37.1453   25.8869 H   0  0  0  0  0  0
  -20.9328  -29.8799   21.6942 H   0  0  0  0  0  0
  -26.0206  -38.2880   24.1410 H   0  0  0  0  0  0
  -30.6858  -19.6850   23.7564 H   0  0  0  0  0  0
  -30.3295  -17.4383   22.8520 H   0  0  0  0  0  0
  -30.5648  -21.6629   22.3069 H   0  0  0  0  0  0
  -24.6788  -18.3782   20.2738 H   0  0  0  0  0  0
  -24.7342  -19.9083   19.4133 H   0  0  0  0  0  0
  -24.5939  -18.6961   17.4505 H   0  0  0  0  0  0
  -24.9732  -17.1864   18.2535 H   0  0  0  0  0  0
  -27.9148  -23.9917   16.3277 H   0  0  0  0  0  0
  -26.9407  -23.6257   17.7267 H   0  0  0  0  0  0
  -27.5507  -26.0502   17.6042 H   0  0  0  0  0  0
  -29.2320  -25.6650   17.6212 H   0  0  0  0  0  0
  -27.0346  -18.2768   20.4756 H   0  0  0  0  0  0
  -26.8377  -20.0217   20.5361 H   0  0  0  0  0  0
  -26.8160  -18.6706   16.6565 H   0  0  0  0  0  0
  -27.1783  -17.3303   17.7314 H   0  0  0  0  0  0
  -29.9439  -23.1891   17.4042 H   0  0  0  0  0  0
  -28.7149  -21.9485   17.4579 H   0  0  0  0  0  0
  -29.4304  -24.1301   21.0281 H   0  0  0  0  0  0
  -30.3674  -24.5994   19.6237 H   0  0  0  0  0  0
  -27.3671  -24.7935   19.8978 H   0  0  0  0  0  0
  -30.1510  -16.6262   19.3458 H   0  0  0  0  0  0
  -28.5503  -16.5145   20.0449 H   0  0  0  0  0  0
  -30.7008  -21.4633   18.7343 H   0  0  0  0  0  0
  -31.0798  -22.3507   20.1208 H   0  0  0  0  0  0
  -29.2053  -18.1638   18.2022 H   0  0  0  0  0  0
  -29.3389  -19.8308   17.9376 H   0  0  0  0  0  0
  -30.4645  -15.8322   21.9689 H   0  0  0  0  0  0
  -27.2255  -20.1673   18.2784 H   0  0  0  0  0  0
  -28.3155  -22.4930   19.7464 H   0  0  0  0  0  0
  1 25  1  0  0  0
  1 30  2  0  0  0
  1 89  1  0  0  0
  2  3  1  0  0  0
  2 25  1  0  0  0
  2 92  1  0  0  0
  2 93  1  0  0  0
  3  4  1  0  0  0
  3 94  1  0  0  0
  3 95  1  0  0  0
  4  5  1  0  0  0
  4 96  1  0  0  0
  4 97  1  0  0  0
  5  6  1  0  0  0
  5 26  1  0  0  0
  5 98  1  0  0  0
  6 25  1  0  0  0
  6 99  1  0  0  0
  6100  1  0  0  0
  7  8  2  0  0  0
  7 26  1  0  0  0
  7 29  1  0  0  0
  8  9  1  0  0  0
  8 22  1  0  0  0
  9 10  1  0  0  0
  9 27  2  0  0  0
 10 11  2  0  0  0
 10 15  1  0  0  0
 11 12  1  0  0  0
 11101  1  0  0  0
 12 13  2  0  0  0
 12102  1  0  0  0
 13 14  1  0  0  0
 13 31  1  0  0  0
 14 15  2  0  0  0
 14103  1  0  0  0
 15104  1  0  0  0
 16 17  2  0  0  0
 16 21  1  0  0  0
 16 31  1  0  0  0
 17 18  1  0  0  0
 17105  1  0  0  0
 18 19  2  0  0  0
 18106  1  0  0  0
 19 20  1  0  0  0
 19 24  1  0  0  0
 20 21  2  0  0  0
 20107  1  0  0  0
 21 23  1  0  0  0
 22 28  1  0  0  0
 22 32  2  0  0  0
 26 27  1  0  0  0
 28108  1  0  0  0
 28109  1  0  0  0
 29110  1  0  0  0
 29111  1  0  0  0
 33 34  1  0  0  0
 33 66  1  0  0  0
 33 70  2  0  0  0
 34 36  1  0  0  0
 34 59  1  0  0  0
 34112  1  0  0  0
 35 44  2  0  0  0
 35 45  1  0  0  0
 35 68  1  0  0  0
 36 56  1  0  0  0
 36113  1  0  0  0
 37 39  1  0  0  0
 37 47  1  0  0  0
 37 66  1  0  0  0
 37114  1  0  0  0
 38 43  2  0  0  0
 38 46  1  0  0  0
 38 47  1  0  0  0
 39 64  1  0  0  0
 39 67  2  0  0  0
 40 52  1  0  0  0
 40 53  2  0  0  0
 40 58  1  0  0  0
 41115  1  0  0  0
 41116  1  0  0  0
 41117  1  0  0  0
 41 48  1  0  0  0
 42 43  1  0  0  0
 42 66  1  0  0  0
 42118  1  0  0  0
 42119  1  0  0  0
 43 44  1  0  0  0
 44120  1  0  0  0
 45 46  2  0  0  0
 45121  1  0  0  0
 46122  1  0  0  0
 47123  1  0  0  0
 47124  1  0  0  0
 48 56  1  0  0  0
 48 65  1  0  0  0
 48125  1  0  0  0
 49 50  1  0  0  0
 49 53  1  0  0  0
 49 64  1  0  0  0
 49126  1  0  0  0
 50 51  1  0  0  0
 50127  1  0  0  0
 50128  1  0  0  0
 51 52  1  0  0  0
 51129  1  0  0  0
 51130  1  0  0  0
 52131  1  0  0  0
 52132  1  0  0  0
 53 54  1  0  0  0
 54 55  2  0  0  0
 54133  1  0  0  0
 55 57  1  0  0  0
 55134  1  0  0  0
 56 69  2  0  0  0
 57 58  2  0  0  0
 57135  1  0  0  0
 58136  1  0  0  0
 59 60  1  0  0  0
 59 61  1  0  0  0
 59 62  1  0  0  0
 60137  1  0  0  0
 60138  1  0  0  0
 60139  1  0  0  0
 61140  1  0  0  0
 61141  1  0  0  0
 61142  1  0  0  0
 62143  1  0  0  0
 62144  1  0  0  0
 62145  1  0  0  0
 63 65  1  0  0  0
 63146  1  0  0  0
 63147  1  0  0  0
 63148  1  0  0  0
 64149  1  0  0  0
 65150  1  0  0  0
 68 85  1  0  0  0
 71 72  2  0  0  0
 71 73  1  0  0  0
 71151  1  0  0  0
 72 74  1  0  0  0
 72152  1  0  0  0
 73 75  2  0  0  0
 73153  1  0  0  0
 74 76  2  0  0  0
 74 86  1  0  0  0
 75 76  1  0  0  0
 75 87  1  0  0  0
 76 88  1  0  0  0
 77 78  1  0  0  0
 77 81  1  0  0  0
 77154  1  0  0  0
 77155  1  0  0  0
 78 82  1  0  0  0
 78156  1  0  0  0
 78157  1  0  0  0
 79 80  1  0  0  0
 79 83  1  0  0  0
 79158  1  0  0  0
 79159  1  0  0  0
 80 85  1  0  0  0
 80160  1  0  0  0
 80161  1  0  0  0
 81 90  1  0  0  0
 81162  1  0  0  0
 81163  1  0  0  0
 82 90  1  0  0  0
 82164  1  0  0  0
 82165  1  0  0  0
 83 91  1  0  0  0
 83166  1  0  0  0
 83167  1  0  0  0
 84 85  1  0  0  0
 84 91  1  0  0  0
 84168  1  0  0  0
 84169  1  0  0  0
 85170  1  0  0  0
 86 89  1  0  0  0
 86171  1  0  0  0
 86172  1  0  0  0
 87173  1  0  0  0
 87174  1  0  0  0
 87 91  1  0  0  0
 88175  1  0  0  0
 88176  1  0  0  0
 88 90  1  0  0  0
 89177  1  0  0  0
 90178  1  0  0  0
 91179  1  0  0  0
M  CHG  2  90   1  91   1
M  ISO  4   1 100  68 101  85 101  89 100
M  END
> <chiral flag>
0

> <version>
0

> <s_m_source_file>
/data/baiqing/PycharmProjects/Reinvent-master-3.2/result/LINK_invent/BTK/process_docking_weight1_custom_product_contain_oxygen_bond_distance_aromatic_linkinvent_7_9_3/rearranged_h_0030.sdf

> <i_m_source_file_index>
26

> <r_mmod_Potential_Energy-OPLS-2005>
-47.0589447021484

> <r_mmod_Stretch_Energy-OPLS-2005>
62.8995819091797

> <r_mmod_Bend_Energy-OPLS-2005>
159.73551940918

> <r_mmod_Torsional_Energy-OPLS-2005>
365.593780517578

> <r_mmod_Improper_Torsional_Energy-OPLS-2005>
9.68143939971924

> <r_mmod_Van_der_Waal_Energy-OPLS-2005>
157.320159912109

> <r_mmod_Electrostatic_Energy-OPLS-2005>
129.809097290039

> <r_mmod_Solvation_Energy-OPLS-2005>
-951.1396484375

> <b_mmod_Minimization_Converged-OPLS-2005>
0

> <r_mmod_RMS_Derivative-OPLS-2005>
4.4610424041748

$$$$
26
                    3D
 Structure written by MMmdl.
160169  0  0  1  0            999 V2000
  -30.5848  -14.8165   20.4074 C   0  0  0  0  0  0
  -30.4437  -12.4686   19.5355 C   0  0  0  0  0  0
  -29.5365  -12.3925   18.2856 C   0  0  0  0  0  0
  -28.0380  -12.3284   18.6528 C   0  0  0  0  0  0
  -27.6378  -13.2420   19.8438 C   0  0  2  0  0  0
  -28.6746  -13.2104   20.9860 C   0  0  0  0  0  0
  -25.2474  -13.8236   20.5805 C   0  0  0  0  0  0
  -24.1750  -13.0453   20.9231 C   0  0  0  0  0  0
  -24.6330  -11.6933   20.8674 C   0  0  0  0  0  0
  -23.8998  -10.4308   21.0324 C   0  0  0  0  0  0
  -24.3551   -9.4252   21.9136 C   0  0  0  0  0  0
  -23.6265   -8.2282   22.0719 C   0  0  0  0  0  0
  -22.4260   -8.0282   21.3533 C   0  0  0  0  0  0
  -21.9853   -9.0213   20.4632 C   0  0  0  0  0  0
  -22.7143  -10.2117   20.3000 C   0  0  0  0  0  0
  -21.6888   -6.0720   22.5276 C   0  0  0  0  0  0
  -21.4031   -6.5605   23.8206 C   0  0  0  0  0  0
  -21.3682   -5.6769   24.9166 C   0  0  0  0  0  0
  -21.6070   -4.3017   24.7230 C   0  0  0  0  0  0
  -21.8814   -3.8119   23.4342 C   0  0  0  0  0  0
  -21.9193   -4.6940   22.3391 C   0  0  0  0  0  0
  -22.7775  -13.5202   21.1937 C   0  0  0  0  0  0
  -22.1664   -4.2130   21.0977 F   0  0  0  0  0  0
  -21.5644   -3.4513   25.7746 F   0  0  0  0  0  0
  -29.9747  -13.5744   20.4051 N   0  0  0  0  0  0
  -26.2901  -12.9469   20.3254 N   0  0  0  0  0  0
  -25.9275  -11.6585   20.5738 N   0  0  0  0  0  0
  -22.0456  -12.8151   22.0512 N   0  0  0  0  0  0
  -25.4168  -15.2000   20.4504 N   0  0  0  0  0  0
  -31.7802  -14.8866   20.1010 O   0  0  0  0  0  0
  -21.6666   -6.8844   21.4232 O   0  0  0  0  0  0
  -22.3428  -14.5529   20.6825 O   0  0  0  0  0  0
  -24.6408  -31.8460   23.1926 C   0  0  0  0  0  0
  -25.9186  -32.4700   23.8297 C   0  0  1  0  0  0
  -27.2258  -27.1927   20.1256 C   0  0  0  0  0  0
  -25.5946  -33.8511   24.2207 N   0  0  0  0  0  0
  -23.4440  -30.4664   21.5354 C   0  0  2  0  0  0
  -24.8889  -28.8961   20.1119 C   0  0  0  0  0  0
  -22.7542  -29.4553   22.4864 C   0  0  0  0  0  0
  -18.0278  -28.1373   22.8521 C   0  0  0  0  0  0
  -24.1484  -36.7281   23.2648 C   0  0  0  0  0  0
  -25.9936  -30.7327   21.3844 C   0  0  0  0  0  0
  -26.0628  -29.3486   20.7255 C   0  0  0  0  0  0
  -27.2309  -28.5095   20.7206 C   0  0  0  0  0  0
  -26.0206  -26.8161   19.4931 C   0  0  0  0  0  0
  -24.8751  -27.6395   19.4868 C   0  0  0  0  0  0
  -23.6671  -29.7963   20.1527 C   0  0  0  0  0  0
  -25.4122  -36.3050   24.0321 C   0  0  1  0  0  0
  -20.5901  -28.3695   23.1256 C   0  0  2  0  0  0
  -20.6763  -26.9390   22.5421 C   0  0  0  0  0  0
  -19.5723  -26.6350   21.5239 C   0  0  0  0  0  0
  -18.1901  -26.7919   22.1643 C   0  0  0  0  0  0
  -19.1544  -28.8854   23.2875 C   0  0  0  0  0  0
  -18.9461  -30.1451   23.8889 C   0  0  0  0  0  0
  -17.6465  -30.6577   24.0570 C   0  0  0  0  0  0
  -25.9068  -34.9414   23.5068 C   0  0  0  0  0  0
  -16.5359  -29.9077   23.6338 C   0  0  0  0  0  0
  -16.7272  -28.6484   23.0393 C   0  0  0  0  0  0
  -26.4527  -31.6594   25.0756 C   0  0  0  0  0  0
  -25.3712  -31.3785   26.1454 C   0  0  0  0  0  0
  -27.0429  -30.3002   24.6350 C   0  0  0  0  0  0
  -27.6025  -32.4404   25.7555 C   0  0  0  0  0  0
  -27.5577  -37.1795   24.8461 C   0  0  0  0  0  0
  -21.4235  -29.3051   22.3643 N   0  0  0  0  0  0
  -26.4288  -37.3767   23.9411 N   0  0  0  0  0  0
  -24.7129  -31.0353   22.0938 N   0  0  0  0  0  0
  -23.4183  -28.8070   23.2998 O   0  0  0  0  0  0
  -28.3210  -26.2782   20.1803 O   0  0  0  0  0  0
  -26.5629  -34.8893   22.4631 O   0  0  0  0  0  0
  -23.5544  -32.1307   23.7177 O   0  0  0  0  0  0
  -29.9673  -18.6186   17.7956 C   0  0  0  0  0  0
  -29.5309  -18.6153   20.5130 C   0  0  0  0  0  0
  -29.6993  -19.8516   18.4239 C   0  0  0  0  0  0
  -30.0122  -17.3851   18.4764 C   0  0  0  0  0  0
  -29.4480  -19.9197   19.8223 C   0  0  0  0  0  0
  -29.8328  -17.3181   19.8859 C   0  0  0  0  0  0
  -27.7034  -23.6035   20.5408 C   0  0  0  0  0  0
  -29.5149  -23.8898   19.7422 C   0  0  0  0  0  0
  -28.2432  -24.8250   19.6991 C   0  0  2  0  0  0
  -29.6992  -21.0716   17.5167 C   0  0  0  0  0  0
  -30.2037  -16.1530   17.6057 C   0  0  0  0  0  0
  -29.1549  -21.3460   20.5659 C   0  0  0  0  0  0
  -29.8167  -15.9775   20.5782 N   0  0  0  0  0  0
  -28.6577  -22.6570   19.8602 N   0  3  1  0  0  0
  -31.4793  -12.6048   19.2226 H   0  0  0  0  0  0
  -30.4298  -11.5263   20.0882 H   0  0  0  0  0  0
  -29.7945  -11.4939   17.7234 H   0  0  0  0  0  0
  -29.7415  -13.2233   17.6150 H   0  0  0  0  0  0
  -27.8090  -11.2875   18.8875 H   0  0  0  0  0  0
  -27.4348  -12.5707   17.7770 H   0  0  0  0  0  0
  -27.6195  -14.2583   19.4476 H   0  0  0  0  0  0
  -28.7165  -12.2236   21.4478 H   0  0  0  0  0  0
  -28.3927  -13.9033   21.7780 H   0  0  0  0  0  0
  -25.2667   -9.5802   22.4729 H   0  0  0  0  0  0
  -24.0018   -7.4670   22.7400 H   0  0  0  0  0  0
  -21.0801   -8.8625   19.8932 H   0  0  0  0  0  0
  -22.3506  -10.9605   19.6105 H   0  0  0  0  0  0
  -21.2009   -7.6108   23.9702 H   0  0  0  0  0  0
  -21.1548   -6.0508   25.9078 H   0  0  0  0  0  0
  -22.0585   -2.7574   23.2858 H   0  0  0  0  0  0
  -22.4043  -11.9734   22.4802 H   0  0  0  0  0  0
  -21.1123  -13.1198   22.2815 H   0  0  0  0  0  0
  -24.6649  -15.8576   20.6341 H   0  0  0  0  0  0
  -26.2792  -15.6629   20.1936 H   0  0  0  0  0  0
  -26.7284  -32.5312   23.1056 H   0  0  0  0  0  0
  -25.0191  -33.9667   25.0425 H   0  0  0  0  0  0
  -22.7474  -31.2930   21.3811 H   0  0  0  0  0  0
  -23.3760  -35.9597   23.3296 H   0  0  0  0  0  0
  -24.3597  -36.8939   22.2068 H   0  0  0  0  0  0
  -23.7209  -37.6457   23.6716 H   0  0  0  0  0  0
  -26.1494  -31.4907   20.6150 H   0  0  0  0  0  0
  -26.8669  -30.7779   22.0245 H   0  0  0  0  0  0
  -28.1282  -28.8504   21.2178 H   0  0  0  0  0  0
  -25.9282  -25.8509   19.0157 H   0  0  0  0  0  0
  -23.9748  -27.2842   19.0064 H   0  0  0  0  0  0
  -23.8048  -30.5719   19.3977 H   0  0  0  0  0  0
  -22.7825  -29.2377   19.8397 H   0  0  0  0  0  0
  -25.1314  -36.1901   25.0822 H   0  0  0  0  0  0
  -21.0011  -28.3264   24.1372 H   0  0  0  0  0  0
  -20.5639  -26.2308   23.3644 H   0  0  0  0  0  0
  -21.6618  -26.7368   22.1208 H   0  0  0  0  0  0
  -19.6858  -25.6254   21.1258 H   0  0  0  0  0  0
  -19.6637  -27.3170   20.6777 H   0  0  0  0  0  0
  -17.4174  -26.6729   21.4025 H   0  0  0  0  0  0
  -18.0246  -26.0033   22.8999 H   0  0  0  0  0  0
  -19.7937  -30.7276   24.2240 H   0  0  0  0  0  0
  -17.5007  -31.6248   24.5170 H   0  0  0  0  0  0
  -15.5360  -30.2969   23.7641 H   0  0  0  0  0  0
  -15.8676  -28.0767   22.7154 H   0  0  0  0  0  0
  -24.5901  -30.7119   25.7800 H   0  0  0  0  0  0
  -24.8895  -32.2961   26.4837 H   0  0  0  0  0  0
  -25.7991  -30.9003   27.0264 H   0  0  0  0  0  0
  -26.3065  -29.6701   24.1346 H   0  0  0  0  0  0
  -27.4053  -29.7350   25.4951 H   0  0  0  0  0  0
  -27.8959  -30.4301   23.9683 H   0  0  0  0  0  0
  -27.2582  -33.3730   26.2049 H   0  0  0  0  0  0
  -28.3861  -32.6929   25.0401 H   0  0  0  0  0  0
  -28.0654  -31.8586   26.5535 H   0  0  0  0  0  0
  -28.2555  -38.0135   24.7560 H   0  0  0  0  0  0
  -28.1105  -36.2655   24.6224 H   0  0  0  0  0  0
  -27.2290  -37.1371   25.8864 H   0  0  0  0  0  0
  -20.9412  -29.8835   21.6905 H   0  0  0  0  0  0
  -26.0146  -38.2826   24.1467 H   0  0  0  0  0  0
  -30.1292  -18.6162   16.7255 H   0  0  0  0  0  0
  -29.3720  -18.6083   21.5835 H   0  0  0  0  0  0
  -26.6594  -23.3585   20.3455 H   0  0  0  0  0  0
  -27.8878  -23.6931   21.6136 H   0  0  0  0  0  0
  -30.1467  -24.0637   20.6153 H   0  0  0  0  0  0
  -30.1164  -23.9230   18.8344 H   0  0  0  0  0  0
  -27.8373  -24.8052   18.6849 H   0  0  0  0  0  0
  -29.9532  -20.8111   16.4887 H   0  0  0  0  0  0
  -30.4451  -21.7924   17.8451 H   0  0  0  0  0  0
  -28.7148  -21.5345   17.4722 H   0  0  0  0  0  0
  -30.0132  -16.3712   16.5527 H   0  0  0  0  0  0
  -29.5009  -15.3722   17.8855 H   0  0  0  0  0  0
  -31.2226  -15.7758   17.6885 H   0  0  0  0  0  0
  -30.0403  -21.5951   21.1510 H   0  0  0  0  0  0
  -28.3947  -21.1075   21.3087 H   0  0  0  0  0  0
  -28.9887  -15.8234   21.1310 H   0  0  0  0  0  0
  -28.2748  -22.4098   18.9608 H   0  0  0  0  0  0
  1 25  1  0  0  0
  1 30  2  0  0  0
  1 83  1  0  0  0
  2  3  1  0  0  0
  2 25  1  0  0  0
  2 85  1  0  0  0
  2 86  1  0  0  0
  3  4  1  0  0  0
  3 87  1  0  0  0
  3 88  1  0  0  0
  4  5  1  0  0  0
  4 89  1  0  0  0
  4 90  1  0  0  0
  5  6  1  0  0  0
  5 26  1  0  0  0
  5 91  1  0  0  0
  6 25  1  0  0  0
  6 92  1  0  0  0
  6 93  1  0  0  0
  7  8  2  0  0  0
  7 26  1  0  0  0
  7 29  1  0  0  0
  8  9  1  0  0  0
  8 22  1  0  0  0
  9 10  1  0  0  0
  9 27  2  0  0  0
 10 11  2  0  0  0
 10 15  1  0  0  0
 11 12  1  0  0  0
 11 94  1  0  0  0
 12 13  2  0  0  0
 12 95  1  0  0  0
 13 14  1  0  0  0
 13 31  1  0  0  0
 14 15  2  0  0  0
 14 96  1  0  0  0
 15 97  1  0  0  0
 16 17  2  0  0  0
 16 21  1  0  0  0
 16 31  1  0  0  0
 17 18  1  0  0  0
 17 98  1  0  0  0
 18 19  2  0  0  0
 18 99  1  0  0  0
 19 20  1  0  0  0
 19 24  1  0  0  0
 20 21  2  0  0  0
 20100  1  0  0  0
 21 23  1  0  0  0
 22 28  1  0  0  0
 22 32  2  0  0  0
 26 27  1  0  0  0
 28101  1  0  0  0
 28102  1  0  0  0
 29103  1  0  0  0
 29104  1  0  0  0
 33 34  1  0  0  0
 33 66  1  0  0  0
 33 70  2  0  0  0
 34 36  1  0  0  0
 34 59  1  0  0  0
 34105  1  0  0  0
 35 44  2  0  0  0
 35 45  1  0  0  0
 35 68  1  0  0  0
 36 56  1  0  0  0
 36106  1  0  0  0
 37 39  1  0  0  0
 37 47  1  0  0  0
 37 66  1  0  0  0
 37107  1  0  0  0
 38 43  2  0  0  0
 38 46  1  0  0  0
 38 47  1  0  0  0
 39 64  1  0  0  0
 39 67  2  0  0  0
 40 52  1  0  0  0
 40 53  2  0  0  0
 40 58  1  0  0  0
 41108  1  0  0  0
 41109  1  0  0  0
 41110  1  0  0  0
 41 48  1  0  0  0
 42 43  1  0  0  0
 42 66  1  0  0  0
 42111  1  0  0  0
 42112  1  0  0  0
 43 44  1  0  0  0
 44113  1  0  0  0
 45 46  2  0  0  0
 45114  1  0  0  0
 46115  1  0  0  0
 47116  1  0  0  0
 47117  1  0  0  0
 48 56  1  0  0  0
 48 65  1  0  0  0
 48118  1  0  0  0
 49 50  1  0  0  0
 49 53  1  0  0  0
 49 64  1  0  0  0
 49119  1  0  0  0
 50 51  1  0  0  0
 50120  1  0  0  0
 50121  1  0  0  0
 51 52  1  0  0  0
 51122  1  0  0  0
 51123  1  0  0  0
 52124  1  0  0  0
 52125  1  0  0  0
 53 54  1  0  0  0
 54 55  2  0  0  0
 54126  1  0  0  0
 55 57  1  0  0  0
 55127  1  0  0  0
 56 69  2  0  0  0
 57 58  2  0  0  0
 57128  1  0  0  0
 58129  1  0  0  0
 59 60  1  0  0  0
 59 61  1  0  0  0
 59 62  1  0  0  0
 60130  1  0  0  0
 60131  1  0  0  0
 60132  1  0  0  0
 61133  1  0  0  0
 61134  1  0  0  0
 61135  1  0  0  0
 62136  1  0  0  0
 62137  1  0  0  0
 62138  1  0  0  0
 63 65  1  0  0  0
 63139  1  0  0  0
 63140  1  0  0  0
 63141  1  0  0  0
 64142  1  0  0  0
 65143  1  0  0  0
 68 79  1  0  0  0
 71 73  2  0  0  0
 71 74  1  0  0  0
 71144  1  0  0  0
 72 75  2  0  0  0
 72 76  1  0  0  0
 72145  1  0  0  0
 73 75  1  0  0  0
 73 80  1  0  0  0
 74 76  2  0  0  0
 74 81  1  0  0  0
 75 82  1  0  0  0
 76 83  1  0  0  0
 77 79  1  0  0  0
 77 84  1  0  0  0
 77146  1  0  0  0
 77147  1  0  0  0
 78 79  1  0  0  0
 78 84  1  0  0  0
 78148  1  0  0  0
 78149  1  0  0  0
 79150  1  0  0  0
 80151  1  0  0  0
 80152  1  0  0  0
 80153  1  0  0  0
 81154  1  0  0  0
 81155  1  0  0  0
 81156  1  0  0  0
 82157  1  0  0  0
 82158  1  0  0  0
 82 84  1  0  0  0
 83159  1  0  0  0
 84160  1  0  0  0
M  CHG  1  84   1
M  ISO  4   1 100  68 101  79 101  83 100
M  END
> <chiral flag>
0

> <version>
0

> <s_m_source_file>
/data/baiqing/PycharmProjects/Reinvent-master-3.2/result/LINK_invent/BTK/process_docking_weight1_custom_product_contain_oxygen_bond_distance_aromatic_linkinvent_7_9_3/rearranged_h_0030.sdf

> <i_m_source_file_index>
27

> <r_mmod_Potential_Energy-OPLS-2005>
121.581977844238

> <r_mmod_Stretch_Energy-OPLS-2005>
172.35237121582

> <r_mmod_Bend_Energy-OPLS-2005>
234.205032348633

> <r_mmod_Torsional_Energy-OPLS-2005>
252.722183227539

> <r_mmod_Improper_Torsional_Energy-OPLS-2005>
4.67391633987427

> <r_mmod_Van_der_Waal_Energy-OPLS-2005>
140.608627319336

> <r_mmod_Electrostatic_Energy-OPLS-2005>
-331.040771484375

> <r_mmod_Solvation_Energy-OPLS-2005>
-479.031066894531

> <b_mmod_Minimization_Converged-OPLS-2005>
0

> <r_mmod_RMS_Derivative-OPLS-2005>
4.69625949859619

$$$$
27
                    3D
 Structure written by MMmdl.
148157  0  0  1  0            999 V2000
  -30.2960  -15.6376   20.3448 C   0  0  0  0  0  0
  -30.4370  -13.0917   19.5174 C   0  0  0  0  0  0
  -29.5465  -12.6635   18.3124 C   0  0  0  0  0  0
  -28.1238  -12.2956   18.7622 C   0  0  0  0  0  0
  -27.6034  -13.2916   19.8210 C   0  0  2  0  0  0
  -28.6399  -13.5709   20.9365 C   0  0  0  0  0  0
  -25.2275  -13.8166   20.5742 C   0  0  0  0  0  0
  -24.1690  -13.0339   20.9287 C   0  0  0  0  0  0
  -24.6426  -11.6876   20.8795 C   0  0  0  0  0  0
  -23.9128  -10.4243   21.0412 C   0  0  0  0  0  0
  -24.3664   -9.4159   21.9190 C   0  0  0  0  0  0
  -23.6315   -8.2210   22.0759 C   0  0  0  0  0  0
  -22.4292   -8.0273   21.3548 C   0  0  0  0  0  0
  -21.9939   -9.0246   20.4643 C   0  0  0  0  0  0
  -22.7297  -10.2107   20.3050 C   0  0  0  0  0  0
  -21.6851   -6.0737   22.5280 C   0  0  0  0  0  0
  -21.4007   -6.5639   23.8211 C   0  0  0  0  0  0
  -21.3657   -5.6793   24.9174 C   0  0  0  0  0  0
  -21.6043   -4.3055   24.7220 C   0  0  0  0  0  0
  -21.8821   -3.8149   23.4339 C   0  0  0  0  0  0
  -21.9191   -4.6967   22.3398 C   0  0  0  0  0  0
  -22.7706  -13.5098   21.1915 C   0  0  0  0  0  0
  -22.1664   -4.2159   21.0975 F   0  0  0  0  0  0
  -21.5630   -3.4539   25.7728 F   0  0  0  0  0  0
  -29.7953  -14.2537   20.2879 N   0  0  0  0  0  0
  -26.2803  -12.9528   20.3280 N   0  0  0  0  0  0
  -25.9379  -11.6616   20.5755 N   0  0  0  0  0  0
  -22.0373  -12.8095   22.0483 N   0  0  0  0  0  0
  -25.3623  -15.1882   20.4055 N   0  0  0  0  0  0
  -31.5280  -15.5890   20.1493 O   0  0  0  0  0  0
  -21.6639   -6.8883   21.4243 O   0  0  0  0  0  0
  -22.3379  -14.5402   20.6753 O   0  0  0  0  0  0
  -24.6830  -31.8002   23.1524 C   0  0  0  0  0  0
  -25.9414  -32.4472   23.8062 C   0  0  1  0  0  0
  -27.2351  -26.7136   20.2119 C   0  0  0  0  0  0
  -25.5997  -33.8293   24.1960 N   0  0  0  0  0  0
  -23.5092  -30.4021   21.5062 C   0  0  2  0  0  0
  -24.9699  -28.7449   20.1180 C   0  0  0  0  0  0
  -22.7765  -29.4317   22.4718 C   0  0  0  0  0  0
  -18.0335  -28.1434   22.8459 C   0  0  0  0  0  0
  -24.1498  -36.7148   23.2646 C   0  0  0  0  0  0
  -26.0892  -30.5377   21.4148 C   0  0  0  0  0  0
  -26.1583  -29.1029   20.7655 C   0  0  0  0  0  0
  -27.2756  -28.1145   20.7818 C   0  0  0  0  0  0
  -26.0127  -26.5634   19.5077 C   0  0  0  0  0  0
  -24.9353  -27.5004   19.4658 C   0  0  0  0  0  0
  -23.7641  -29.6982   20.1416 C   0  0  0  0  0  0
  -25.4152  -36.2905   24.0278 C   0  0  1  0  0  0
  -20.5973  -28.3790   23.1154 C   0  0  2  0  0  0
  -20.6806  -26.9451   22.5410 C   0  0  0  0  0  0
  -19.5784  -26.6389   21.5218 C   0  0  0  0  0  0
  -18.1969  -26.7960   22.1628 C   0  0  0  0  0  0
  -19.1604  -28.8937   23.2786 C   0  0  0  0  0  0
  -18.9506  -30.1514   23.8841 C   0  0  0  0  0  0
  -17.6496  -30.6613   24.0556 C   0  0  0  0  0  0
  -25.9129  -34.9287   23.4960 C   0  0  0  0  0  0
  -16.5386  -29.9101   23.6345 C   0  0  0  0  0  0
  -16.7312  -28.6522   23.0368 C   0  0  0  0  0  0
  -26.4606  -31.6491   25.0669 C   0  0  0  0  0  0
  -25.3680  -31.3808   26.1296 C   0  0  0  0  0  0
  -27.0501  -30.2825   24.6531 C   0  0  0  0  0  0
  -27.6079  -32.4319   25.7484 C   0  0  0  0  0  0
  -27.5572  -37.1745   24.8471 C   0  0  0  0  0  0
  -21.4414  -29.3029   22.3466 N   0  0  0  0  0  0
  -26.4290  -37.3657   23.9399 N   0  0  0  0  0  0
  -24.7838  -30.9456   22.0774 N   0  0  0  0  0  0
  -23.4212  -28.7909   23.3056 O   0  0  0  0  0  0
  -28.1922  -25.4923   20.3001 O   0  0  0  0  0  0
  -26.5768  -34.8859   22.4576 O   0  0  0  0  0  0
  -23.5851  -32.1065   23.6491 O   0  0  0  0  0  0
  -29.8999  -21.3626   19.8744 C   0  0  0  0  0  0
  -30.2967  -19.8722   19.9053 C   0  0  0  0  0  0
  -27.8770  -20.8342   20.6681 C   0  0  0  0  0  0
  -28.2699  -19.3589   20.6802 C   0  0  0  0  0  0
  -28.6320  -22.0623   20.2664 C   0  0  0  0  0  0
  -29.4960  -18.6824   20.3173 C   0  0  0  0  0  0
  -27.3537  -18.2276   21.0843 C   0  0  0  0  0  0
  -28.0810  -16.8449   20.8235 C   0  0  0  0  0  0
  -27.9109  -23.7811   20.0649 C   0  0  0  0  0  0
  -29.4983  -16.9920   20.4375 N   0  0  0  0  0  0
  -31.4132  -13.3828   19.1277 H   0  0  0  0  0  0
  -30.6420  -12.2424   20.1711 H   0  0  0  0  0  0
  -30.0012  -11.8271   17.7798 H   0  0  0  0  0  0
  -29.4946  -13.4868   17.5990 H   0  0  0  0  0  0
  -28.1585  -11.2938   19.1933 H   0  0  0  0  0  0
  -27.4481  -12.2421   17.9071 H   0  0  0  0  0  0
  -27.4724  -14.2194   19.2664 H   0  0  0  0  0  0
  -28.9265  -12.6463   21.4398 H   0  0  0  0  0  0
  -28.2122  -14.1823   21.7238 H   0  0  0  0  0  0
  -25.2810   -9.5626   22.4771 H   0  0  0  0  0  0
  -24.0007   -7.4595   22.7486 H   0  0  0  0  0  0
  -21.0861   -8.8781   19.8954 H   0  0  0  0  0  0
  -22.3769  -10.9650   19.6160 H   0  0  0  0  0  0
  -21.1996   -7.6146   23.9713 H   0  0  0  0  0  0
  -21.1478   -6.0524   25.9076 H   0  0  0  0  0  0
  -22.0604   -2.7610   23.2835 H   0  0  0  0  0  0
  -22.4016  -11.9781   22.4892 H   0  0  0  0  0  0
  -21.0985  -13.1100   22.2700 H   0  0  0  0  0  0
  -24.5682  -15.8131   20.4872 H   0  0  0  0  0  0
  -26.1818  -15.6350   20.0216 H   0  0  0  0  0  0
  -26.7492  -32.4963   23.0768 H   0  0  0  0  0  0
  -25.0051  -33.9324   25.0056 H   0  0  0  0  0  0
  -22.8339  -31.2388   21.3168 H   0  0  0  0  0  0
  -23.3772  -35.9466   23.3286 H   0  0  0  0  0  0
  -24.3546  -36.8816   22.2059 H   0  0  0  0  0  0
  -23.7243  -37.6323   23.6723 H   0  0  0  0  0  0
  -26.2870  -31.2619   20.6237 H   0  0  0  0  0  0
  -26.9422  -30.6109   22.0765 H   0  0  0  0  0  0
  -28.1680  -28.3925   21.3258 H   0  0  0  0  0  0
  -25.8458  -25.6196   19.0088 H   0  0  0  0  0  0
  -24.0374  -27.2172   18.9352 H   0  0  0  0  0  0
  -23.9398  -30.4576   19.3789 H   0  0  0  0  0  0
  -22.8690  -29.1641   19.8176 H   0  0  0  0  0  0
  -25.1358  -36.1679   25.0766 H   0  0  0  0  0  0
  -21.0054  -28.3420   24.1282 H   0  0  0  0  0  0
  -20.5688  -26.2402   23.3663 H   0  0  0  0  0  0
  -21.6664  -26.7408   22.1218 H   0  0  0  0  0  0
  -19.6938  -25.6285   21.1284 H   0  0  0  0  0  0
  -19.6726  -27.3165   20.6722 H   0  0  0  0  0  0
  -17.4228  -26.6683   21.4042 H   0  0  0  0  0  0
  -18.0371  -26.0131   22.9059 H   0  0  0  0  0  0
  -19.7980  -30.7346   24.2199 H   0  0  0  0  0  0
  -17.5046  -31.6289   24.5171 H   0  0  0  0  0  0
  -15.5389  -30.2988   23.7706 H   0  0  0  0  0  0
  -15.8710  -28.0817   22.7132 H   0  0  0  0  0  0
  -24.5900  -30.7106   25.7613 H   0  0  0  0  0  0
  -24.8831  -32.3025   26.4522 H   0  0  0  0  0  0
  -25.7878  -30.9119   27.0202 H   0  0  0  0  0  0
  -26.3192  -29.6484   24.1505 H   0  0  0  0  0  0
  -27.3908  -29.7227   25.5251 H   0  0  0  0  0  0
  -27.9188  -30.3937   24.0037 H   0  0  0  0  0  0
  -27.2649  -33.3693   26.1875 H   0  0  0  0  0  0
  -28.4001  -32.6754   25.0389 H   0  0  0  0  0  0
  -28.0620  -31.8555   26.5557 H   0  0  0  0  0  0
  -28.2586  -38.0048   24.7496 H   0  0  0  0  0  0
  -28.1075  -36.2566   24.6338 H   0  0  0  0  0  0
  -27.2266  -37.1423   25.8870 H   0  0  0  0  0  0
  -20.9721  -29.8669   21.6515 H   0  0  0  0  0  0
  -26.0119  -38.2707   24.1408 H   0  0  0  0  0  0
  -30.6572  -22.0176   19.4676 H   0  0  0  0  0  0
  -31.2906  -19.6509   19.5426 H   0  0  0  0  0  0
  -26.8575  -21.0246   20.9726 H   0  0  0  0  0  0
  -26.4161  -18.2869   20.5311 H   0  0  0  0  0  0
  -27.1105  -18.3369   22.1421 H   0  0  0  0  0  0
  -27.6022  -16.3542   19.9815 H   0  0  0  0  0  0
  -27.9655  -16.2306   21.7120 H   0  0  0  0  0  0
  -26.9616  -23.6611   20.5879 H   0  0  0  0  0  0
  -27.6226  -23.7568   19.0146 H   0  0  0  0  0  0
  1 25  1  0  0  0
  1 30  2  0  0  0
  1 80  1  0  0  0
  2  3  1  0  0  0
  2 25  1  0  0  0
  2 81  1  0  0  0
  2 82  1  0  0  0
  3  4  1  0  0  0
  3 83  1  0  0  0
  3 84  1  0  0  0
  4  5  1  0  0  0
  4 85  1  0  0  0
  4 86  1  0  0  0
  5  6  1  0  0  0
  5 26  1  0  0  0
  5 87  1  0  0  0
  6 25  1  0  0  0
  6 88  1  0  0  0
  6 89  1  0  0  0
  7  8  2  0  0  0
  7 26  1  0  0  0
  7 29  1  0  0  0
  8  9  1  0  0  0
  8 22  1  0  0  0
  9 10  1  0  0  0
  9 27  2  0  0  0
 10 11  2  0  0  0
 10 15  1  0  0  0
 11 12  1  0  0  0
 11 90  1  0  0  0
 12 13  2  0  0  0
 12 91  1  0  0  0
 13 14  1  0  0  0
 13 31  1  0  0  0
 14 15  2  0  0  0
 14 92  1  0  0  0
 15 93  1  0  0  0
 16 17  2  0  0  0
 16 21  1  0  0  0
 16 31  1  0  0  0
 17 18  1  0  0  0
 17 94  1  0  0  0
 18 19  2  0  0  0
 18 95  1  0  0  0
 19 20  1  0  0  0
 19 24  1  0  0  0
 20 21  2  0  0  0
 20 96  1  0  0  0
 21 23  1  0  0  0
 22 28  1  0  0  0
 22 32  2  0  0  0
 26 27  1  0  0  0
 28 97  1  0  0  0
 28 98  1  0  0  0
 29 99  1  0  0  0
 29100  1  0  0  0
 33 34  1  0  0  0
 33 66  1  0  0  0
 33 70  2  0  0  0
 34 36  1  0  0  0
 34 59  1  0  0  0
 34101  1  0  0  0
 35 44  2  0  0  0
 35 45  1  0  0  0
 35 68  1  0  0  0
 36 56  1  0  0  0
 36102  1  0  0  0
 37 39  1  0  0  0
 37 47  1  0  0  0
 37 66  1  0  0  0
 37103  1  0  0  0
 38 43  2  0  0  0
 38 46  1  0  0  0
 38 47  1  0  0  0
 39 64  1  0  0  0
 39 67  2  0  0  0
 40 52  1  0  0  0
 40 53  2  0  0  0
 40 58  1  0  0  0
 41104  1  0  0  0
 41105  1  0  0  0
 41106  1  0  0  0
 41 48  1  0  0  0
 42 43  1  0  0  0
 42 66  1  0  0  0
 42107  1  0  0  0
 42108  1  0  0  0
 43 44  1  0  0  0
 44109  1  0  0  0
 45 46  2  0  0  0
 45110  1  0  0  0
 46111  1  0  0  0
 47112  1  0  0  0
 47113  1  0  0  0
 48 56  1  0  0  0
 48 65  1  0  0  0
 48114  1  0  0  0
 49 50  1  0  0  0
 49 53  1  0  0  0
 49 64  1  0  0  0
 49115  1  0  0  0
 50 51  1  0  0  0
 50116  1  0  0  0
 50117  1  0  0  0
 51 52  1  0  0  0
 51118  1  0  0  0
 51119  1  0  0  0
 52120  1  0  0  0
 52121  1  0  0  0
 53 54  1  0  0  0
 54 55  2  0  0  0
 54122  1  0  0  0
 55 57  1  0  0  0
 55123  1  0  0  0
 56 69  2  0  0  0
 57 58  2  0  0  0
 57124  1  0  0  0
 58125  1  0  0  0
 59 60  1  0  0  0
 59 61  1  0  0  0
 59 62  1  0  0  0
 60126  1  0  0  0
 60127  1  0  0  0
 60128  1  0  0  0
 61129  1  0  0  0
 61130  1  0  0  0
 61131  1  0  0  0
 62132  1  0  0  0
 62133  1  0  0  0
 62134  1  0  0  0
 63 65  1  0  0  0
 63135  1  0  0  0
 63136  1  0  0  0
 63137  1  0  0  0
 64138  1  0  0  0
 65139  1  0  0  0
 68 79  1  0  0  0
 71 72  2  0  0  0
 71 75  1  0  0  0
 71140  1  0  0  0
 72 76  1  0  0  0
 72141  1  0  0  0
 73 74  1  0  0  0
 73 75  2  0  0  0
 73142  1  0  0  0
 74 76  2  0  0  0
 74 77  1  0  0  0
 75 79  1  0  0  0
 76 80  1  0  0  0
 77 78  1  0  0  0
 77143  1  0  0  0
 77144  1  0  0  0
 78 80  1  0  0  0
 78145  1  0  0  0
 78146  1  0  0  0
 79147  1  0  0  0
 79148  1  0  0  0
M  ISO  4   1 100  68 101  79 101  80 100
M  END
> <chiral flag>
0

> <version>
0

> <s_m_source_file>
/data/baiqing/PycharmProjects/Reinvent-master-3.2/result/LINK_invent/BTK/process_docking_weight1_custom_product_contain_oxygen_bond_distance_aromatic_linkinvent_7_9_3/rearranged_h_0030.sdf

> <i_m_source_file_index>
28

> <r_mmod_Potential_Energy-OPLS-2005>
2497.12841796875

> <r_mmod_Stretch_Energy-OPLS-2005>
917.602172851562

> <r_mmod_Bend_Energy-OPLS-2005>
747.848022460938

> <r_mmod_Torsional_Energy-OPLS-2005>
282.660888671875

> <r_mmod_Improper_Torsional_Energy-OPLS-2005>
6.20990419387817

> <r_mmod_Van_der_Waal_Energy-OPLS-2005>
132.971282958984

> <r_mmod_Electrostatic_Energy-OPLS-2005>
-277.9287109375

> <r_mmod_Solvation_Energy-OPLS-2005>
-197.9375

> <b_mmod_Minimization_Converged-OPLS-2005>
0

> <r_mmod_RMS_Derivative-OPLS-2005>
1.55567729473114

$$$$
28
                    3D
 Structure written by MMmdl.
172181  0  0  1  0            999 V2000
  -30.7358  -14.3777   20.6388 C   0  0  0  0  0  0
  -30.4185  -12.2745   19.3999 C   0  0  0  0  0  0
  -29.4871  -12.5146   18.1953 C   0  0  0  0  0  0
  -28.0088  -12.3781   18.6093 C   0  0  0  0  0  0
  -27.6670  -13.1980   19.8817 C   0  0  2  0  0  0
  -28.7041  -12.9294   20.9954 C   0  0  0  0  0  0
  -25.2610  -13.8150   20.5673 C   0  0  0  0  0  0
  -24.1849  -13.0437   20.9166 C   0  0  0  0  0  0
  -24.6387  -11.6901   20.8726 C   0  0  0  0  0  0
  -23.9050  -10.4293   21.0402 C   0  0  0  0  0  0
  -24.3606   -9.4211   21.9182 C   0  0  0  0  0  0
  -23.6288   -8.2245   22.0754 C   0  0  0  0  0  0
  -22.4271   -8.0279   21.3543 C   0  0  0  0  0  0
  -21.9899   -9.0252   20.4646 C   0  0  0  0  0  0
  -22.7222  -10.2133   20.3055 C   0  0  0  0  0  0
  -21.6850   -6.0737   22.5280 C   0  0  0  0  0  0
  -21.4012   -6.5640   23.8214 C   0  0  0  0  0  0
  -21.3660   -5.6793   24.9176 C   0  0  0  0  0  0
  -21.6044   -4.3056   24.7225 C   0  0  0  0  0  0
  -21.8819   -3.8147   23.4346 C   0  0  0  0  0  0
  -21.9192   -4.6965   22.3403 C   0  0  0  0  0  0
  -22.7873  -13.5244   21.1835 C   0  0  0  0  0  0
  -22.1661   -4.2151   21.0981 F   0  0  0  0  0  0
  -21.5630   -3.4541   25.7738 F   0  0  0  0  0  0
  -30.0457  -13.2239   20.4570 N   0  0  0  0  0  0
  -26.3043  -12.9301   20.3383 N   0  0  0  0  0  0
  -25.9310  -11.6467   20.5761 N   0  0  0  0  0  0
  -22.0509  -12.8242   22.0389 N   0  0  0  0  0  0
  -25.4359  -15.1866   20.4085 N   0  0  0  0  0  0
  -31.8039  -14.6306   20.0740 O   0  0  0  0  0  0
  -21.6635   -6.8878   21.4241 O   0  0  0  0  0  0
  -22.3565  -14.5560   20.6693 O   0  0  0  0  0  0
  -24.6097  -31.8701   23.2112 C   0  0  0  0  0  0
  -25.9005  -32.4833   23.8398 C   0  0  1  0  0  0
  -27.2411  -27.4807   20.0921 C   0  0  0  0  0  0
  -25.5876  -33.8632   24.2334 N   0  0  0  0  0  0
  -23.3962  -30.4908   21.5506 C   0  0  2  0  0  0
  -24.8436  -28.9588   20.1140 C   0  0  0  0  0  0
  -22.7388  -29.4651   22.5011 C   0  0  0  0  0  0
  -18.0264  -28.1371   22.8486 C   0  0  0  0  0  0
  -24.1489  -36.7325   23.2641 C   0  0  0  0  0  0
  -25.9180  -30.8522   21.3538 C   0  0  0  0  0  0
  -25.9983  -29.4893   20.7020 C   0  0  0  0  0  0
  -27.2015  -28.7583   20.6829 C   0  0  0  0  0  0
  -26.0752  -26.9471   19.5037 C   0  0  0  0  0  0
  -24.8747  -27.6862   19.5124 C   0  0  0  0  0  0
  -23.6018  -29.8187   20.1651 C   0  0  0  0  0  0
  -25.4107  -36.3125   24.0349 C   0  0  1  0  0  0
  -20.5854  -28.3641   23.1341 C   0  0  2  0  0  0
  -20.6756  -26.9384   22.5426 C   0  0  0  0  0  0
  -19.5741  -26.6384   21.5215 C   0  0  0  0  0  0
  -18.1911  -26.7916   22.1623 C   0  0  0  0  0  0
  -19.1514  -28.8825   23.2908 C   0  0  0  0  0  0
  -18.9446  -30.1431   23.8915 C   0  0  0  0  0  0
  -17.6450  -30.6575   24.0564 C   0  0  0  0  0  0
  -25.9027  -34.9486   23.5141 C   0  0  0  0  0  0
  -16.5339  -29.9080   23.6324 C   0  0  0  0  0  0
  -16.7256  -28.6502   23.0338 C   0  0  0  0  0  0
  -26.4450  -31.6598   25.0710 C   0  0  0  0  0  0
  -25.3731  -31.3693   26.1472 C   0  0  0  0  0  0
  -27.0276  -30.3055   24.6040 C   0  0  0  0  0  0
  -27.6034  -32.4308   25.7464 C   0  0  0  0  0  0
  -27.5582  -37.1820   24.8466 C   0  0  0  0  0  0
  -21.4120  -29.3013   22.3757 N   0  0  0  0  0  0
  -26.4300  -37.3800   23.9403 N   0  0  0  0  0  0
  -24.6595  -31.0842   22.0985 N   0  0  0  0  0  0
  -23.4179  -28.8192   23.3039 O   0  0  0  0  0  0
  -28.4246  -26.7879   20.1074 O   0  0  0  0  0  0
  -26.5593  -34.8930   22.4701 O   0  0  0  0  0  0
  -23.5304  -32.1420   23.7546 O   0  0  0  0  0  0
  -32.8816  -23.1147   23.6211 C   0  0  0  0  0  0
  -33.7147  -22.0524   24.0168 C   0  0  0  0  0  0
  -30.9509  -21.6311   23.7220 C   0  0  0  0  0  0
  -31.4954  -22.9083   23.4677 C   0  0  0  0  0  0
  -31.7862  -20.5496   24.0873 C   0  0  0  0  0  0
  -33.1785  -20.7701   24.2413 C   0  0  0  0  0  0
  -29.3483  -17.6520   21.3885 C   0  0  0  0  0  0
  -29.7764  -18.8893   22.1975 C   0  0  0  0  0  0
  -31.0656  -17.0387   22.9367 C   0  0  0  0  0  0
  -30.5168  -16.6793   21.5551 C   0  0  1  0  0  0
  -27.7927  -25.6326   22.1985 C   0  0  0  0  0  0
  -31.1764  -19.1618   24.2633 C   0  0  0  0  0  0
  -30.6027  -24.0535   23.0160 C   0  0  0  0  0  0
  -29.9584  -25.2119   20.8770 C   0  0  0  0  0  0
  -28.4489  -25.5364   20.8028 C   0  0  2  0  0  0
  -30.1300  -15.2763   21.4235 N   0  0  0  0  0  0
  -31.0037  -18.5112   22.9434 N   0  3  2  0  0  0
  -30.3122  -23.9458   21.5681 N   0  3  0  0  0  0
  -34.2591  -19.4926   24.6753 Cl  0  0  0  0  0  0
  -31.4629  -12.3720   19.0976 H   0  0  0  0  0  0
  -30.3119  -11.2522   19.7665 H   0  0  0  0  0  0
  -29.7168  -11.8095   17.3952 H   0  0  0  0  0  0
  -29.6630  -13.5105   17.7851 H   0  0  0  0  0  0
  -27.8099  -11.3203   18.7864 H   0  0  0  0  0  0
  -27.3583  -12.6745   17.7857 H   0  0  0  0  0  0
  -27.7285  -14.2529   19.6129 H   0  0  0  0  0  0
  -28.6645  -11.8823   21.3000 H   0  0  0  0  0  0
  -28.4601  -13.4939   21.8956 H   0  0  0  0  0  0
  -25.2755   -9.5688   22.4750 H   0  0  0  0  0  0
  -24.0000   -7.4636   22.7472 H   0  0  0  0  0  0
  -21.0831   -8.8767   19.8952 H   0  0  0  0  0  0
  -22.3682  -10.9670   19.6162 H   0  0  0  0  0  0
  -21.2003   -7.6147   23.9717 H   0  0  0  0  0  0
  -21.1482   -6.0523   25.9079 H   0  0  0  0  0  0
  -22.0598   -2.7610   23.2846 H   0  0  0  0  0  0
  -22.4110  -11.9892   22.4766 H   0  0  0  0  0  0
  -21.1132  -13.1276   22.2599 H   0  0  0  0  0  0
  -24.6709  -15.8447   20.5126 H   0  0  0  0  0  0
  -26.2921  -15.6214   20.0872 H   0  0  0  0  0  0
  -26.7084  -32.5566   23.1177 H   0  0  0  0  0  0
  -25.0031  -33.9790   25.0485 H   0  0  0  0  0  0
  -22.6831  -31.3057   21.4111 H   0  0  0  0  0  0
  -23.3743  -35.9668   23.3324 H   0  0  0  0  0  0
  -24.3577  -36.8915   22.2050 H   0  0  0  0  0  0
  -23.7251  -37.6545   23.6632 H   0  0  0  0  0  0
  -26.0204  -31.6214   20.5863 H   0  0  0  0  0  0
  -26.8096  -30.9081   21.9664 H   0  0  0  0  0  0
  -28.0964  -29.1649   21.1332 H   0  0  0  0  0  0
  -26.0948  -25.9717   19.0378 H   0  0  0  0  0  0
  -23.9858  -27.2718   19.0564 H   0  0  0  0  0  0
  -23.7029  -30.5915   19.4016 H   0  0  0  0  0  0
  -22.7281  -29.2314   19.8744 H   0  0  0  0  0  0
  -25.1281  -36.2000   25.0845 H   0  0  0  0  0  0
  -20.9930  -28.3196   24.1467 H   0  0  0  0  0  0
  -20.5663  -26.2241   23.3604 H   0  0  0  0  0  0
  -21.6628  -26.7436   22.1217 H   0  0  0  0  0  0
  -19.6903  -25.6304   21.1225 H   0  0  0  0  0  0
  -19.6689  -27.3211   20.6760 H   0  0  0  0  0  0
  -17.4189  -26.6666   21.4016 H   0  0  0  0  0  0
  -18.0303  -26.0060   22.9021 H   0  0  0  0  0  0
  -19.7925  -30.7239   24.2290 H   0  0  0  0  0  0
  -17.5009  -31.6257   24.5156 H   0  0  0  0  0  0
  -15.5337  -30.2991   23.7640 H   0  0  0  0  0  0
  -15.8655  -28.0835   22.7032 H   0  0  0  0  0  0
  -24.5894  -30.7053   25.7812 H   0  0  0  0  0  0
  -24.8934  -32.2851   26.4942 H   0  0  0  0  0  0
  -25.8102  -30.8847   27.0211 H   0  0  0  0  0  0
  -26.2807  -29.6826   24.1111 H   0  0  0  0  0  0
  -27.4092  -29.7276   25.4466 H   0  0  0  0  0  0
  -27.8617  -30.4399   23.9146 H   0  0  0  0  0  0
  -27.2652  -33.3585   26.2082 H   0  0  0  0  0  0
  -28.3816  -32.6899   25.0274 H   0  0  0  0  0  0
  -28.0730  -31.8409   26.5343 H   0  0  0  0  0  0
  -28.2615  -38.0101   24.7497 H   0  0  0  0  0  0
  -28.1061  -36.2636   24.6310 H   0  0  0  0  0  0
  -27.2295  -37.1491   25.8868 H   0  0  0  0  0  0
  -20.9271  -29.8747   21.6995 H   0  0  0  0  0  0
  -26.0202  -38.2885   24.1392 H   0  0  0  0  0  0
  -33.3165  -24.0877   23.4364 H   0  0  0  0  0  0
  -34.7762  -22.2186   24.1326 H   0  0  0  0  0  0
  -29.8859  -21.4751   23.6140 H   0  0  0  0  0  0
  -29.1485  -17.8884   20.3426 H   0  0  0  0  0  0
  -28.4328  -17.2377   21.8144 H   0  0  0  0  0  0
  -28.9685  -19.1844   22.8689 H   0  0  0  0  0  0
  -29.9868  -19.7386   21.5465 H   0  0  0  0  0  0
  -32.0828  -16.6750   23.0902 H   0  0  0  0  0  0
  -30.4331  -16.6316   23.7279 H   0  0  0  0  0  0
  -31.2722  -16.9409   20.8097 H   0  0  0  0  0  0
  -27.7591  -24.6603   22.6858 H   0  0  0  0  0  0
  -26.7554  -25.9631   22.1453 H   0  0  0  0  0  0
  -28.3291  -26.3270   22.8444 H   0  0  0  0  0  0
  -30.2257  -19.2280   24.7942 H   0  0  0  0  0  0
  -31.8138  -18.5476   24.8987 H   0  0  0  0  0  0
  -31.1077  -24.9958   23.2347 H   0  0  0  0  0  0
  -29.6881  -24.0504   23.6067 H   0  0  0  0  0  0
  -30.5064  -26.0479   21.3141 H   0  0  0  0  0  0
  -30.3279  -25.1262   19.8547 H   0  0  0  0  0  0
  -27.9343  -24.7837   20.2042 H   0  0  0  0  0  0
  -29.2681  -14.9796   21.8568 H   0  0  0  0  0  0
  -31.7853  -18.8070   22.3781 H   0  0  0  0  0  0
  -29.6182  -23.2355   21.3999 H   0  0  0  0  0  0
  -31.1681  -23.6220   21.1471 H   0  0  0  0  0  0
  1 25  1  0  0  0
  1 30  2  0  0  0
  1 86  1  0  0  0
  2  3  1  0  0  0
  2 25  1  0  0  0
  2 90  1  0  0  0
  2 91  1  0  0  0
  3  4  1  0  0  0
  3 92  1  0  0  0
  3 93  1  0  0  0
  4  5  1  0  0  0
  4 94  1  0  0  0
  4 95  1  0  0  0
  5  6  1  0  0  0
  5 26  1  0  0  0
  5 96  1  0  0  0
  6 25  1  0  0  0
  6 97  1  0  0  0
  6 98  1  0  0  0
  7  8  2  0  0  0
  7 26  1  0  0  0
  7 29  1  0  0  0
  8  9  1  0  0  0
  8 22  1  0  0  0
  9 10  1  0  0  0
  9 27  2  0  0  0
 10 11  2  0  0  0
 10 15  1  0  0  0
 11 12  1  0  0  0
 11 99  1  0  0  0
 12 13  2  0  0  0
 12100  1  0  0  0
 13 14  1  0  0  0
 13 31  1  0  0  0
 14 15  2  0  0  0
 14101  1  0  0  0
 15102  1  0  0  0
 16 17  2  0  0  0
 16 21  1  0  0  0
 16 31  1  0  0  0
 17 18  1  0  0  0
 17103  1  0  0  0
 18 19  2  0  0  0
 18104  1  0  0  0
 19 20  1  0  0  0
 19 24  1  0  0  0
 20 21  2  0  0  0
 20105  1  0  0  0
 21 23  1  0  0  0
 22 28  1  0  0  0
 22 32  2  0  0  0
 26 27  1  0  0  0
 28106  1  0  0  0
 28107  1  0  0  0
 29108  1  0  0  0
 29109  1  0  0  0
 33 34  1  0  0  0
 33 66  1  0  0  0
 33 70  2  0  0  0
 34 36  1  0  0  0
 34 59  1  0  0  0
 34110  1  0  0  0
 35 44  2  0  0  0
 35 45  1  0  0  0
 35 68  1  0  0  0
 36 56  1  0  0  0
 36111  1  0  0  0
 37 39  1  0  0  0
 37 47  1  0  0  0
 37 66  1  0  0  0
 37112  1  0  0  0
 38 43  2  0  0  0
 38 46  1  0  0  0
 38 47  1  0  0  0
 39 64  1  0  0  0
 39 67  2  0  0  0
 40 52  1  0  0  0
 40 53  2  0  0  0
 40 58  1  0  0  0
 41113  1  0  0  0
 41114  1  0  0  0
 41115  1  0  0  0
 41 48  1  0  0  0
 42 43  1  0  0  0
 42 66  1  0  0  0
 42116  1  0  0  0
 42117  1  0  0  0
 43 44  1  0  0  0
 44118  1  0  0  0
 45 46  2  0  0  0
 45119  1  0  0  0
 46120  1  0  0  0
 47121  1  0  0  0
 47122  1  0  0  0
 48 56  1  0  0  0
 48 65  1  0  0  0
 48123  1  0  0  0
 49 50  1  0  0  0
 49 53  1  0  0  0
 49 64  1  0  0  0
 49124  1  0  0  0
 50 51  1  0  0  0
 50125  1  0  0  0
 50126  1  0  0  0
 51 52  1  0  0  0
 51127  1  0  0  0
 51128  1  0  0  0
 52129  1  0  0  0
 52130  1  0  0  0
 53 54  1  0  0  0
 54 55  2  0  0  0
 54131  1  0  0  0
 55 57  1  0  0  0
 55132  1  0  0  0
 56 69  2  0  0  0
 57 58  2  0  0  0
 57133  1  0  0  0
 58134  1  0  0  0
 59 60  1  0  0  0
 59 61  1  0  0  0
 59 62  1  0  0  0
 60135  1  0  0  0
 60136  1  0  0  0
 60137  1  0  0  0
 61138  1  0  0  0
 61139  1  0  0  0
 61140  1  0  0  0
 62141  1  0  0  0
 62142  1  0  0  0
 62143  1  0  0  0
 63 65  1  0  0  0
 63144  1  0  0  0
 63145  1  0  0  0
 63146  1  0  0  0
 64147  1  0  0  0
 65148  1  0  0  0
 68 85  1  0  0  0
 71 72  2  0  0  0
 71 74  1  0  0  0
 71149  1  0  0  0
 72 76  1  0  0  0
 72150  1  0  0  0
 73 74  2  0  0  0
 73 75  1  0  0  0
 73151  1  0  0  0
 74 83  1  0  0  0
 75 76  2  0  0  0
 75 82  1  0  0  0
 76 89  1  0  0  0
 77 78  1  0  0  0
 77 80  1  0  0  0
 77152  1  0  0  0
 77153  1  0  0  0
 78 87  1  0  0  0
 78154  1  0  0  0
 78155  1  0  0  0
 79 80  1  0  0  0
 79 87  1  0  0  0
 79156  1  0  0  0
 79157  1  0  0  0
 80 86  1  0  0  0
 80158  1  0  0  0
 81159  1  0  0  0
 81160  1  0  0  0
 81161  1  0  0  0
 81 85  1  0  0  0
 82162  1  0  0  0
 82163  1  0  0  0
 82 87  1  0  0  0
 83 88  1  0  0  0
 83164  1  0  0  0
 83165  1  0  0  0
 84 85  1  0  0  0
 84 88  1  0  0  0
 84166  1  0  0  0
 84167  1  0  0  0
 85168  1  0  0  0
 86169  1  0  0  0
 87170  1  0  0  0
 88171  1  0  0  0
 88172  1  0  0  0
M  CHG  2  87   1  88   1
M  ISO  4   1 100  68 101  85 101  86 100
M  END
> <chiral flag>
0

> <version>
0

> <s_m_source_file>
/data/baiqing/PycharmProjects/Reinvent-master-3.2/result/LINK_invent/BTK/process_docking_weight1_custom_product_contain_oxygen_bond_distance_aromatic_linkinvent_7_9_3/rearranged_h_0030.sdf

> <i_m_source_file_index>
29

> <r_mmod_Potential_Energy-OPLS-2005>
-353.541595458984

> <r_mmod_Stretch_Energy-OPLS-2005>
33.0496406555176

> <r_mmod_Bend_Energy-OPLS-2005>
124.735038757324

> <r_mmod_Torsional_Energy-OPLS-2005>
268.303771972656

> <r_mmod_Improper_Torsional_Energy-OPLS-2005>
2.52422332763672

> <r_mmod_Van_der_Waal_Energy-OPLS-2005>
149.644149780273

> <r_mmod_Electrostatic_Energy-OPLS-2005>
-7.84021425247192

> <r_mmod_Solvation_Energy-OPLS-2005>
-931.496704101562

> <b_mmod_Minimization_Converged-OPLS-2005>
0

> <r_mmod_RMS_Derivative-OPLS-2005>
0.954386413097382

$$$$
29
                    3D
 Structure written by MMmdl.
159168  0  0  1  0            999 V2000
  -30.5922  -14.8098   20.5014 C   0  0  0  0  0  0
  -30.4252  -12.5026   19.5046 C   0  0  0  0  0  0
  -29.5148  -12.5274   18.2574 C   0  0  0  0  0  0
  -28.0425  -12.3360   18.6646 C   0  0  0  0  0  0
  -27.6358  -13.2422   19.8573 C   0  0  2  0  0  0
  -28.6699  -13.1933   21.0016 C   0  0  0  0  0  0
  -25.2441  -13.8201   20.5686 C   0  0  0  0  0  0
  -24.1760  -13.0439   20.9214 C   0  0  0  0  0  0
  -24.6378  -11.6920   20.8752 C   0  0  0  0  0  0
  -23.9069  -10.4297   21.0412 C   0  0  0  0  0  0
  -24.3623   -9.4209   21.9184 C   0  0  0  0  0  0
  -23.6307   -8.2242   22.0735 C   0  0  0  0  0  0
  -22.4281   -8.0289   21.3539 C   0  0  0  0  0  0
  -21.9926   -9.0252   20.4625 C   0  0  0  0  0  0
  -22.7253  -10.2132   20.3047 C   0  0  0  0  0  0
  -21.6853   -6.0749   22.5301 C   0  0  0  0  0  0
  -21.4008   -6.5646   23.8238 C   0  0  0  0  0  0
  -21.3658   -5.6786   24.9196 C   0  0  0  0  0  0
  -21.6045   -4.3053   24.7243 C   0  0  0  0  0  0
  -21.8816   -3.8155   23.4364 C   0  0  0  0  0  0
  -21.9189   -4.6978   22.3422 C   0  0  0  0  0  0
  -22.7783  -13.5211   21.1913 C   0  0  0  0  0  0
  -22.1665   -4.2166   21.0998 F   0  0  0  0  0  0
  -21.5626   -3.4537   25.7752 F   0  0  0  0  0  0
  -29.9692  -13.5723   20.4333 N   0  0  0  0  0  0
  -26.2886  -12.9449   20.3301 N   0  0  0  0  0  0
  -25.9311  -11.6577   20.5754 N   0  0  0  0  0  0
  -22.0439  -12.8178   22.0463 N   0  0  0  0  0  0
  -25.4083  -15.1915   20.4110 N   0  0  0  0  0  0
  -31.7304  -14.9119   20.0267 O   0  0  0  0  0  0
  -21.6639   -6.8889   21.4258 O   0  0  0  0  0  0
  -22.3461  -14.5530   20.6790 O   0  0  0  0  0  0
  -24.6367  -31.8459   23.1906 C   0  0  0  0  0  0
  -25.9158  -32.4679   23.8271 C   0  0  1  0  0  0
  -27.2207  -27.1992   20.1470 C   0  0  0  0  0  0
  -25.5938  -33.8490   24.2193 N   0  0  0  0  0  0
  -23.4362  -30.4651   21.5330 C   0  0  2  0  0  0
  -24.8861  -28.8997   20.1055 C   0  0  0  0  0  0
  -22.7511  -29.4538   22.4859 C   0  0  0  0  0  0
  -18.0276  -28.1364   22.8449 C   0  0  0  0  0  0
  -24.1498  -36.7262   23.2651 C   0  0  0  0  0  0
  -25.9847  -30.7418   21.3786 C   0  0  0  0  0  0
  -26.0572  -29.3580   20.7216 C   0  0  0  0  0  0
  -27.2213  -28.5189   20.7304 C   0  0  0  0  0  0
  -26.0327  -26.8198   19.4908 C   0  0  0  0  0  0
  -24.8831  -27.6427   19.4772 C   0  0  0  0  0  0
  -23.6616  -29.7970   20.1499 C   0  0  0  0  0  0
  -25.4119  -36.3021   24.0327 C   0  0  1  0  0  0
  -20.5887  -28.3679   23.1243 C   0  0  2  0  0  0
  -20.6775  -26.9392   22.5399 C   0  0  0  0  0  0
  -19.5761  -26.6365   21.5187 C   0  0  0  0  0  0
  -18.1930  -26.7899   22.1595 C   0  0  0  0  0  0
  -19.1535  -28.8837   23.2832 C   0  0  0  0  0  0
  -18.9476  -30.1436   23.8864 C   0  0  0  0  0  0
  -17.6489  -30.6581   24.0542 C   0  0  0  0  0  0
  -25.9067  -34.9395   23.5062 C   0  0  0  0  0  0
  -16.5365  -29.9075   23.6329 C   0  0  0  0  0  0
  -16.7266  -28.6491   23.0334 C   0  0  0  0  0  0
  -26.4512  -31.6548   25.0695 C   0  0  0  0  0  0
  -25.3728  -31.3733   26.1414 C   0  0  0  0  0  0
  -27.0386  -30.2962   24.6227 C   0  0  0  0  0  0
  -27.6040  -32.4322   25.7486 C   0  0  0  0  0  0
  -27.5560  -37.1773   24.8457 C   0  0  0  0  0  0
  -21.4205  -29.3023   22.3619 N   0  0  0  0  0  0
  -26.4266  -37.3745   23.9415 N   0  0  0  0  0  0
  -24.7053  -31.0362   22.0914 N   0  0  0  0  0  0
  -23.4185  -28.8073   23.2987 O   0  0  0  0  0  0
  -28.3043  -26.2835   20.2714 O   0  0  0  0  0  0
  -26.5646  -34.8890   22.4637 O   0  0  0  0  0  0
  -23.5502  -32.1305   23.7178 O   0  0  0  0  0  0
  -27.6146  -21.0440   21.7312 C   0  0  0  0  0  0
  -27.3542  -19.7650   22.2533 C   0  0  0  0  0  0
  -29.2096  -20.0474   20.2433 C   0  0  0  0  0  0
  -29.0204  -18.6849   20.8063 C   0  0  0  0  0  0
  -28.4917  -21.2842   20.6498 C   0  0  0  0  0  0
  -27.9842  -18.6044   21.7738 C   0  0  0  0  0  0
  -29.3829  -23.7958   20.3590 C   0  0  0  0  0  0
  -27.3697  -23.6602   20.2892 C   0  0  0  0  0  0
  -28.3059  -24.8273   19.7994 C   0  0  0  0  0  0
  -30.1843  -20.1663   19.0858 C   0  0  0  0  0  0
  -30.3096  -16.1184   22.4299 C   0  0  0  0  0  0
  -29.8270  -17.3403   20.3116 C   0  0  0  0  0  0
  -28.4670  -22.6691   20.0290 N   0  0  0  0  0  0
  -29.9355  -15.9472   21.0192 N   0  0  0  0  0  0
  -27.3528  -17.1090   22.3655 Cl  0  0  0  0  0  0
  -31.4681  -12.6291   19.2089 H   0  0  0  0  0  0
  -30.3758  -11.5309   19.9971 H   0  0  0  0  0  0
  -29.8139  -11.7496   17.5551 H   0  0  0  0  0  0
  -29.6327  -13.4760   17.7324 H   0  0  0  0  0  0
  -27.9123  -11.2878   18.9389 H   0  0  0  0  0  0
  -27.3858  -12.5086   17.8118 H   0  0  0  0  0  0
  -27.6242  -14.2621   19.4724 H   0  0  0  0  0  0
  -28.7143  -12.1955   21.4421 H   0  0  0  0  0  0
  -28.3757  -13.8698   21.8058 H   0  0  0  0  0  0
  -25.2765   -9.5716   22.4760 H   0  0  0  0  0  0
  -24.0032   -7.4639   22.7445 H   0  0  0  0  0  0
  -21.0864   -8.8784   19.8923 H   0  0  0  0  0  0
  -22.3723  -10.9677   19.6161 H   0  0  0  0  0  0
  -21.1988   -7.6153   23.9764 H   0  0  0  0  0  0
  -21.1476   -6.0506   25.9104 H   0  0  0  0  0  0
  -22.0584   -2.7616   23.2865 H   0  0  0  0  0  0
  -22.4041  -11.9838   22.4856 H   0  0  0  0  0  0
  -21.1050  -13.1187   22.2659 H   0  0  0  0  0  0
  -24.6552  -15.8482   20.5799 H   0  0  0  0  0  0
  -26.2979  -15.6449   20.2462 H   0  0  0  0  0  0
  -26.7213  -32.5332   23.0997 H   0  0  0  0  0  0
  -25.0080  -33.9625   25.0331 H   0  0  0  0  0  0
  -22.7375  -31.2892   21.3798 H   0  0  0  0  0  0
  -23.3752  -35.9601   23.3295 H   0  0  0  0  0  0
  -24.3593  -36.8903   22.2067 H   0  0  0  0  0  0
  -23.7265  -37.6463   23.6699 H   0  0  0  0  0  0
  -26.1261  -31.4989   20.6065 H   0  0  0  0  0  0
  -26.8600  -30.7916   22.0139 H   0  0  0  0  0  0
  -28.1125  -28.8587   21.2391 H   0  0  0  0  0  0
  -25.9637  -25.8542   19.0126 H   0  0  0  0  0  0
  -23.9886  -27.2872   18.9856 H   0  0  0  0  0  0
  -23.7976  -30.5727   19.3967 H   0  0  0  0  0  0
  -22.7799  -29.2363   19.8391 H   0  0  0  0  0  0
  -25.1302  -36.1839   25.0815 H   0  0  0  0  0  0
  -20.9940  -28.3268   24.1377 H   0  0  0  0  0  0
  -20.5660  -26.2283   23.3610 H   0  0  0  0  0  0
  -21.6653  -26.7409   22.1204 H   0  0  0  0  0  0
  -19.6962  -25.6273   21.1228 H   0  0  0  0  0  0
  -19.6732  -27.3157   20.6713 H   0  0  0  0  0  0
  -17.4204  -26.6599   21.3995 H   0  0  0  0  0  0
  -18.0351  -26.0024   22.8982 H   0  0  0  0  0  0
  -19.7973  -30.7220   24.2221 H   0  0  0  0  0  0
  -17.5070  -31.6263   24.5147 H   0  0  0  0  0  0
  -15.5372  -30.2998   23.7698 H   0  0  0  0  0  0
  -15.8634  -28.0839   22.7077 H   0  0  0  0  0  0
  -24.5910  -30.7064   25.7765 H   0  0  0  0  0  0
  -24.8929  -32.2914   26.4799 H   0  0  0  0  0  0
  -25.8032  -30.8949   27.0210 H   0  0  0  0  0  0
  -26.2991  -29.6678   24.1254 H   0  0  0  0  0  0
  -27.4053  -29.7254   25.4763 H   0  0  0  0  0  0
  -27.8858  -30.4230   23.9478 H   0  0  0  0  0  0
  -27.2620  -33.3642   26.2006 H   0  0  0  0  0  0
  -28.3890  -32.6852   25.0335 H   0  0  0  0  0  0
  -28.0663  -31.8480   26.5457 H   0  0  0  0  0  0
  -28.2536  -38.0103   24.7513 H   0  0  0  0  0  0
  -28.1081  -36.2625   24.6256 H   0  0  0  0  0  0
  -27.2277  -37.1389   25.8857 H   0  0  0  0  0  0
  -20.9384  -29.8790   21.6857 H   0  0  0  0  0  0
  -26.0119  -38.2794   24.1462 H   0  0  0  0  0  0
  -27.0361  -21.8478   22.1561 H   0  0  0  0  0  0
  -26.5967  -19.6699   23.0177 H   0  0  0  0  0  0
  -29.5610  -23.8963   21.4320 H   0  0  0  0  0  0
  -30.3213  -23.7871   19.8044 H   0  0  0  0  0  0
  -26.4866  -23.5038   19.6691 H   0  0  0  0  0  0
  -27.0975  -23.7732   21.3392 H   0  0  0  0  0  0
  -28.3402  -24.8367   18.7082 H   0  0  0  0  0  0
  -29.9695  -19.4091   18.3307 H   0  0  0  0  0  0
  -31.2067  -20.0269   19.4364 H   0  0  0  0  0  0
  -30.1279  -21.1370   18.5932 H   0  0  0  0  0  0
  -29.9423  -15.2845   23.0319 H   0  0  0  0  0  0
  -29.9359  -17.0359   22.8774 H   0  0  0  0  0  0
  -31.3949  -16.1597   22.5422 H   0  0  0  0  0  0
  -30.8589  -17.6580   20.1678 H   0  0  0  0  0  0
  -29.4579  -17.1239   19.3085 H   0  0  0  0  0  0
  1 25  1  0  0  0
  1 30  2  0  0  0
  1 84  1  0  0  0
  2  3  1  0  0  0
  2 25  1  0  0  0
  2 86  1  0  0  0
  2 87  1  0  0  0
  3  4  1  0  0  0
  3 88  1  0  0  0
  3 89  1  0  0  0
  4  5  1  0  0  0
  4 90  1  0  0  0
  4 91  1  0  0  0
  5  6  1  0  0  0
  5 26  1  0  0  0
  5 92  1  0  0  0
  6 25  1  0  0  0
  6 93  1  0  0  0
  6 94  1  0  0  0
  7  8  2  0  0  0
  7 26  1  0  0  0
  7 29  1  0  0  0
  8  9  1  0  0  0
  8 22  1  0  0  0
  9 10  1  0  0  0
  9 27  2  0  0  0
 10 11  2  0  0  0
 10 15  1  0  0  0
 11 12  1  0  0  0
 11 95  1  0  0  0
 12 13  2  0  0  0
 12 96  1  0  0  0
 13 14  1  0  0  0
 13 31  1  0  0  0
 14 15  2  0  0  0
 14 97  1  0  0  0
 15 98  1  0  0  0
 16 17  2  0  0  0
 16 21  1  0  0  0
 16 31  1  0  0  0
 17 18  1  0  0  0
 17 99  1  0  0  0
 18 19  2  0  0  0
 18100  1  0  0  0
 19 20  1  0  0  0
 19 24  1  0  0  0
 20 21  2  0  0  0
 20101  1  0  0  0
 21 23  1  0  0  0
 22 28  1  0  0  0
 22 32  2  0  0  0
 26 27  1  0  0  0
 28102  1  0  0  0
 28103  1  0  0  0
 29104  1  0  0  0
 29105  1  0  0  0
 33 34  1  0  0  0
 33 66  1  0  0  0
 33 70  2  0  0  0
 34 36  1  0  0  0
 34 59  1  0  0  0
 34106  1  0  0  0
 35 44  2  0  0  0
 35 45  1  0  0  0
 35 68  1  0  0  0
 36 56  1  0  0  0
 36107  1  0  0  0
 37 39  1  0  0  0
 37 47  1  0  0  0
 37 66  1  0  0  0
 37108  1  0  0  0
 38 43  2  0  0  0
 38 46  1  0  0  0
 38 47  1  0  0  0
 39 64  1  0  0  0
 39 67  2  0  0  0
 40 52  1  0  0  0
 40 53  2  0  0  0
 40 58  1  0  0  0
 41109  1  0  0  0
 41110  1  0  0  0
 41111  1  0  0  0
 41 48  1  0  0  0
 42 43  1  0  0  0
 42 66  1  0  0  0
 42112  1  0  0  0
 42113  1  0  0  0
 43 44  1  0  0  0
 44114  1  0  0  0
 45 46  2  0  0  0
 45115  1  0  0  0
 46116  1  0  0  0
 47117  1  0  0  0
 47118  1  0  0  0
 48 56  1  0  0  0
 48 65  1  0  0  0
 48119  1  0  0  0
 49 50  1  0  0  0
 49 53  1  0  0  0
 49 64  1  0  0  0
 49120  1  0  0  0
 50 51  1  0  0  0
 50121  1  0  0  0
 50122  1  0  0  0
 51 52  1  0  0  0
 51123  1  0  0  0
 51124  1  0  0  0
 52125  1  0  0  0
 52126  1  0  0  0
 53 54  1  0  0  0
 54 55  2  0  0  0
 54127  1  0  0  0
 55 57  1  0  0  0
 55128  1  0  0  0
 56 69  2  0  0  0
 57 58  2  0  0  0
 57129  1  0  0  0
 58130  1  0  0  0
 59 60  1  0  0  0
 59 61  1  0  0  0
 59 62  1  0  0  0
 60131  1  0  0  0
 60132  1  0  0  0
 60133  1  0  0  0
 61134  1  0  0  0
 61135  1  0  0  0
 61136  1  0  0  0
 62137  1  0  0  0
 62138  1  0  0  0
 62139  1  0  0  0
 63 65  1  0  0  0
 63140  1  0  0  0
 63141  1  0  0  0
 63142  1  0  0  0
 64143  1  0  0  0
 65144  1  0  0  0
 68 79  1  0  0  0
 71 72  2  0  0  0
 71 75  1  0  0  0
 71145  1  0  0  0
 72 76  1  0  0  0
 72146  1  0  0  0
 73 74  1  0  0  0
 73 75  2  0  0  0
 73 80  1  0  0  0
 74 76  2  0  0  0
 74 82  1  0  0  0
 75 83  1  0  0  0
 76 85  1  0  0  0
 77 79  1  0  0  0
 77 83  1  0  0  0
 77147  1  0  0  0
 77148  1  0  0  0
 78 79  1  0  0  0
 78 83  1  0  0  0
 78149  1  0  0  0
 78150  1  0  0  0
 79151  1  0  0  0
 80152  1  0  0  0
 80153  1  0  0  0
 80154  1  0  0  0
 81 84  1  0  0  0
 81155  1  0  0  0
 81156  1  0  0  0
 81157  1  0  0  0
 82 84  1  0  0  0
 82158  1  0  0  0
 82159  1  0  0  0
M  ISO  4   1 100  68 101  79 101  84 100
M  END
> <chiral flag>
0

> <version>
0

> <s_m_source_file>
/data/baiqing/PycharmProjects/Reinvent-master-3.2/result/LINK_invent/BTK/process_docking_weight1_custom_product_contain_oxygen_bond_distance_aromatic_linkinvent_7_9_3/rearranged_h_0030.sdf

> <i_m_source_file_index>
30

> <r_mmod_Potential_Energy-OPLS-2005>
509.98291015625

> <r_mmod_Stretch_Energy-OPLS-2005>
188.891860961914

> <r_mmod_Bend_Energy-OPLS-2005>
285.501037597656

> <r_mmod_Torsional_Energy-OPLS-2005>
293.060729980469

> <r_mmod_Improper_Torsional_Energy-OPLS-2005>
14.8590440750122

> <r_mmod_Van_der_Waal_Energy-OPLS-2005>
140.423538208008

> <r_mmod_Electrostatic_Energy-OPLS-2005>
-332.812133789062

> <r_mmod_Solvation_Energy-OPLS-2005>
-201.571975708008

> <b_mmod_Minimization_Converged-OPLS-2005>
0

> <r_mmod_RMS_Derivative-OPLS-2005>
2.93152832984924

$$$$
30
                    3D
 Structure written by MMmdl.
163172  0  0  1  0            999 V2000
  -30.6623  -14.6255   20.4522 C   0  0  0  0  0  0
  -30.4202  -12.3749   19.4436 C   0  0  0  0  0  0
  -29.4933  -12.4700   18.2127 C   0  0  0  0  0  0
  -28.0158  -12.3400   18.6314 C   0  0  0  0  0  0
  -27.6439  -13.2229   19.8527 C   0  0  2  0  0  0
  -28.6947  -13.1231   20.9788 C   0  0  0  0  0  0
  -25.2546  -13.8189   20.5726 C   0  0  0  0  0  0
  -24.1823  -13.0449   20.9206 C   0  0  0  0  0  0
  -24.6403  -11.6916   20.8761 C   0  0  0  0  0  0
  -23.9082  -10.4295   21.0418 C   0  0  0  0  0  0
  -24.3622   -9.4199   21.9191 C   0  0  0  0  0  0
  -23.6281   -8.2241   22.0761 C   0  0  0  0  0  0
  -22.4263   -8.0294   21.3554 C   0  0  0  0  0  0
  -21.9916   -9.0273   20.4648 C   0  0  0  0  0  0
  -22.7258  -10.2141   20.3054 C   0  0  0  0  0  0
  -21.6843   -6.0739   22.5285 C   0  0  0  0  0  0
  -21.4010   -6.5644   23.8215 C   0  0  0  0  0  0
  -21.3652   -5.6797   24.9182 C   0  0  0  0  0  0
  -21.6032   -4.3060   24.7229 C   0  0  0  0  0  0
  -21.8819   -3.8151   23.4349 C   0  0  0  0  0  0
  -21.9188   -4.6965   22.3402 C   0  0  0  0  0  0
  -22.7842  -13.5225   21.1855 C   0  0  0  0  0  0
  -22.1672   -4.2148   21.0976 F   0  0  0  0  0  0
  -21.5614   -3.4543   25.7737 F   0  0  0  0  0  0
  -30.0008  -13.4291   20.3871 N   0  0  0  0  0  0
  -26.2960  -12.9382   20.3346 N   0  0  0  0  0  0
  -25.9333  -11.6534   20.5804 N   0  0  0  0  0  0
  -22.0495  -12.8199   22.0392 N   0  0  0  0  0  0
  -25.4298  -15.1911   20.4171 N   0  0  0  0  0  0
  -31.8651  -14.6879   20.1932 O   0  0  0  0  0  0
  -21.6631   -6.8891   21.4250 O   0  0  0  0  0  0
  -22.3527  -14.5538   20.6711 O   0  0  0  0  0  0
  -24.6213  -31.8650   23.2081 C   0  0  0  0  0  0
  -25.9079  -32.4811   23.8389 C   0  0  1  0  0  0
  -27.2179  -27.3631   20.1097 C   0  0  0  0  0  0
  -25.5918  -33.8613   24.2325 N   0  0  0  0  0  0
  -23.4115  -30.4902   21.5496 C   0  0  2  0  0  0
  -24.8545  -28.9529   20.1095 C   0  0  0  0  0  0
  -22.7435  -29.4652   22.4961 C   0  0  0  0  0  0
  -18.0274  -28.1388   22.8495 C   0  0  0  0  0  0
  -24.1489  -36.7296   23.2641 C   0  0  0  0  0  0
  -25.9476  -30.8092   21.3708 C   0  0  0  0  0  0
  -26.0197  -29.4409   20.7121 C   0  0  0  0  0  0
  -27.2038  -28.6553   20.7062 C   0  0  0  0  0  0
  -26.0332  -26.9182   19.4799 C   0  0  0  0  0  0
  -24.8603  -27.6946   19.4873 C   0  0  0  0  0  0
  -23.6217  -29.8283   20.1627 C   0  0  0  0  0  0
  -25.4113  -36.3108   24.0340 C   0  0  1  0  0  0
  -20.5867  -28.3681   23.1300 C   0  0  2  0  0  0
  -20.6765  -26.9411   22.5422 C   0  0  0  0  0  0
  -19.5748  -26.6390   21.5219 C   0  0  0  0  0  0
  -18.1916  -26.7931   22.1623 C   0  0  0  0  0  0
  -19.1525  -28.8851   23.2890 C   0  0  0  0  0  0
  -18.9454  -30.1451   23.8912 C   0  0  0  0  0  0
  -17.6453  -30.6595   24.0567 C   0  0  0  0  0  0
  -25.9045  -34.9473   23.5130 C   0  0  0  0  0  0
  -16.5341  -29.9102   23.6328 C   0  0  0  0  0  0
  -16.7259  -28.6510   23.0355 C   0  0  0  0  0  0
  -26.4482  -31.6596   25.0733 C   0  0  0  0  0  0
  -25.3719  -31.3696   26.1456 C   0  0  0  0  0  0
  -27.0331  -30.3034   24.6148 C   0  0  0  0  0  0
  -27.6069  -32.4311   25.7486 C   0  0  0  0  0  0
  -27.5582  -37.1805   24.8464 C   0  0  0  0  0  0
  -21.4151  -29.3041   22.3696 N   0  0  0  0  0  0
  -26.4299  -37.3796   23.9401 N   0  0  0  0  0  0
  -24.6794  -31.0697   22.1012 N   0  0  0  0  0  0
  -23.4179  -28.8181   23.3013 O   0  0  0  0  0  0
  -28.3552  -26.5603   20.1796 O   0  0  0  0  0  0
  -26.5601  -34.8928   22.4690 O   0  0  0  0  0  0
  -23.5389  -32.1426   23.7430 O   0  0  0  0  0  0
  -30.8949  -21.1154   20.7321 C   0  0  0  0  0  0
  -31.8442  -20.0942   20.5815 C   0  0  0  0  0  0
  -29.5533  -20.8213   21.0424 C   0  0  0  0  0  0
  -29.1833  -19.4264   21.1880 C   0  0  0  0  0  0
  -30.1676  -18.3645   21.0827 C   0  0  0  0  0  0
  -31.4991  -18.7459   20.7690 C   0  0  0  0  0  0
  -27.4333  -24.1551   20.5537 C   0  0  0  0  0  0
  -29.4361  -24.2449   20.2399 C   0  0  0  0  0  0
  -28.2903  -25.1614   19.7539 C   0  0  2  0  0  0
  -27.7362  -19.0699   21.5149 C   0  0  0  0  0  0
  -29.6327  -16.3076   19.0567 C   0  0  0  0  0  0
  -29.8902  -16.8490   21.4470 C   0  0  0  0  0  0
  -28.6315  -22.0538   21.3587 C   0  0  0  0  0  0
  -29.8932  -15.7698   20.3984 N   0  0  0  0  0  0
  -28.4692  -23.1263   20.3077 N   0  3  1  0  0  0
  -32.7821  -17.5971   20.6695 Cl  0  0  0  0  0  0
  -31.4621  -12.4790   19.1338 H   0  0  0  0  0  0
  -30.3391  -11.3941   19.9128 H   0  0  0  0  0  0
  -29.7448  -11.6939   17.4889 H   0  0  0  0  0  0
  -29.6507  -13.4153   17.6919 H   0  0  0  0  0  0
  -27.8380  -11.2917   18.8698 H   0  0  0  0  0  0
  -27.3613  -12.5745   17.7915 H   0  0  0  0  0  0
  -27.6432  -14.2502   19.4928 H   0  0  0  0  0  0
  -28.7036  -12.1241   21.4149 H   0  0  0  0  0  0
  -28.4587  -13.8174   21.7872 H   0  0  0  0  0  0
  -25.2782   -9.5652   22.4756 H   0  0  0  0  0  0
  -23.9969   -7.4625   22.7488 H   0  0  0  0  0  0
  -21.0845   -8.8813   19.8953 H   0  0  0  0  0  0
  -22.3743  -10.9680   19.6154 H   0  0  0  0  0  0
  -21.2026   -7.6158   23.9717 H   0  0  0  0  0  0
  -21.1467   -6.0538   25.9080 H   0  0  0  0  0  0
  -22.0600   -2.7613   23.2852 H   0  0  0  0  0  0
  -22.4110  -11.9816   22.4700 H   0  0  0  0  0  0
  -21.1135  -13.1235   22.2662 H   0  0  0  0  0  0
  -24.6683  -15.8516   20.5266 H   0  0  0  0  0  0
  -26.2980  -15.6261   20.1335 H   0  0  0  0  0  0
  -26.7138  -32.5508   23.1135 H   0  0  0  0  0  0
  -25.0065  -33.9776   25.0468 H   0  0  0  0  0  0
  -22.7027  -31.3101   21.4121 H   0  0  0  0  0  0
  -23.3778  -35.9599   23.3292 H   0  0  0  0  0  0
  -24.3567  -36.8937   22.2057 H   0  0  0  0  0  0
  -23.7214  -37.6487   23.6660 H   0  0  0  0  0  0
  -26.0703  -31.5746   20.6030 H   0  0  0  0  0  0
  -26.8326  -30.8585   21.9942 H   0  0  0  0  0  0
  -28.1002  -29.0256   21.1841 H   0  0  0  0  0  0
  -25.9819  -25.9618   18.9831 H   0  0  0  0  0  0
  -23.9651  -27.3170   19.0133 H   0  0  0  0  0  0
  -23.7325  -30.6074   19.4077 H   0  0  0  0  0  0
  -22.7425  -29.2543   19.8680 H   0  0  0  0  0  0
  -25.1291  -36.1982   25.0834 H   0  0  0  0  0  0
  -20.9955  -28.3269   24.1422 H   0  0  0  0  0  0
  -20.5672  -26.2295   23.3614 H   0  0  0  0  0  0
  -21.6633  -26.7444   22.1229 H   0  0  0  0  0  0
  -19.6905  -25.6307   21.1241 H   0  0  0  0  0  0
  -19.6693  -27.3201   20.6753 H   0  0  0  0  0  0
  -17.4197  -26.6697   21.4011 H   0  0  0  0  0  0
  -18.0282  -26.0061   22.9007 H   0  0  0  0  0  0
  -19.7931  -30.7251   24.2293 H   0  0  0  0  0  0
  -17.5020  -31.6277   24.5170 H   0  0  0  0  0  0
  -15.5338  -30.3012   23.7652 H   0  0  0  0  0  0
  -15.8657  -28.0839   22.7066 H   0  0  0  0  0  0
  -24.5987  -30.6925   25.7802 H   0  0  0  0  0  0
  -24.8765  -32.2825   26.4777 H   0  0  0  0  0  0
  -25.8070  -30.9004   27.0287 H   0  0  0  0  0  0
  -26.2902  -29.6777   24.1191 H   0  0  0  0  0  0
  -27.4081  -29.7294   25.4630 H   0  0  0  0  0  0
  -27.8732  -30.4352   23.9326 H   0  0  0  0  0  0
  -27.2743  -33.3662   26.1996 H   0  0  0  0  0  0
  -28.3900  -32.6782   25.0307 H   0  0  0  0  0  0
  -28.0685  -31.8454   26.5444 H   0  0  0  0  0  0
  -28.2614  -38.0096   24.7523 H   0  0  0  0  0  0
  -28.1079  -36.2626   24.6295 H   0  0  0  0  0  0
  -27.2283  -37.1464   25.8867 H   0  0  0  0  0  0
  -20.9304  -29.8776   21.6935 H   0  0  0  0  0  0
  -26.0200  -38.2879   24.1413 H   0  0  0  0  0  0
  -31.2309  -22.1392   20.6477 H   0  0  0  0  0  0
  -32.8714  -20.3545   20.3676 H   0  0  0  0  0  0
  -26.4702  -23.9126   20.1053 H   0  0  0  0  0  0
  -27.3259  -24.4217   21.6070 H   0  0  0  0  0  0
  -29.8323  -24.5335   21.2164 H   0  0  0  0  0  0
  -30.2341  -24.0986   19.5126 H   0  0  0  0  0  0
  -28.1435  -25.0718   18.6748 H   0  0  0  0  0  0
  -27.0319  -19.7476   21.0353 H   0  0  0  0  0  0
  -27.5637  -19.0977   22.5914 H   0  0  0  0  0  0
  -27.4652  -18.0814   21.1490 H   0  0  0  0  0  0
  -28.8897  -17.1053   19.0792 H   0  0  0  0  0  0
  -29.2547  -15.5433   18.3797 H   0  0  0  0  0  0
  -30.5475  -16.7105   18.6204 H   0  0  0  0  0  0
  -28.9508  -16.7573   21.9875 H   0  0  0  0  0  0
  -30.6341  -16.5817   22.2003 H   0  0  0  0  0  0
  -29.0143  -22.5213   22.2673 H   0  0  0  0  0  0
  -27.6337  -21.7201   21.6306 H   0  0  0  0  0  0
  -28.3277  -22.7152   19.3982 H   0  0  0  0  0  0
  1 25  1  0  0  0
  1 30  2  0  0  0
  1 84  1  0  0  0
  2  3  1  0  0  0
  2 25  1  0  0  0
  2 87  1  0  0  0
  2 88  1  0  0  0
  3  4  1  0  0  0
  3 89  1  0  0  0
  3 90  1  0  0  0
  4  5  1  0  0  0
  4 91  1  0  0  0
  4 92  1  0  0  0
  5  6  1  0  0  0
  5 26  1  0  0  0
  5 93  1  0  0  0
  6 25  1  0  0  0
  6 94  1  0  0  0
  6 95  1  0  0  0
  7  8  2  0  0  0
  7 26  1  0  0  0
  7 29  1  0  0  0
  8  9  1  0  0  0
  8 22  1  0  0  0
  9 10  1  0  0  0
  9 27  2  0  0  0
 10 11  2  0  0  0
 10 15  1  0  0  0
 11 12  1  0  0  0
 11 96  1  0  0  0
 12 13  2  0  0  0
 12 97  1  0  0  0
 13 14  1  0  0  0
 13 31  1  0  0  0
 14 15  2  0  0  0
 14 98  1  0  0  0
 15 99  1  0  0  0
 16 17  2  0  0  0
 16 21  1  0  0  0
 16 31  1  0  0  0
 17 18  1  0  0  0
 17100  1  0  0  0
 18 19  2  0  0  0
 18101  1  0  0  0
 19 20  1  0  0  0
 19 24  1  0  0  0
 20 21  2  0  0  0
 20102  1  0  0  0
 21 23  1  0  0  0
 22 28  1  0  0  0
 22 32  2  0  0  0
 26 27  1  0  0  0
 28103  1  0  0  0
 28104  1  0  0  0
 29105  1  0  0  0
 29106  1  0  0  0
 33 34  1  0  0  0
 33 66  1  0  0  0
 33 70  2  0  0  0
 34 36  1  0  0  0
 34 59  1  0  0  0
 34107  1  0  0  0
 35 44  2  0  0  0
 35 45  1  0  0  0
 35 68  1  0  0  0
 36 56  1  0  0  0
 36108  1  0  0  0
 37 39  1  0  0  0
 37 47  1  0  0  0
 37 66  1  0  0  0
 37109  1  0  0  0
 38 43  2  0  0  0
 38 46  1  0  0  0
 38 47  1  0  0  0
 39 64  1  0  0  0
 39 67  2  0  0  0
 40 52  1  0  0  0
 40 53  2  0  0  0
 40 58  1  0  0  0
 41110  1  0  0  0
 41111  1  0  0  0
 41112  1  0  0  0
 41 48  1  0  0  0
 42 43  1  0  0  0
 42 66  1  0  0  0
 42113  1  0  0  0
 42114  1  0  0  0
 43 44  1  0  0  0
 44115  1  0  0  0
 45 46  2  0  0  0
 45116  1  0  0  0
 46117  1  0  0  0
 47118  1  0  0  0
 47119  1  0  0  0
 48 56  1  0  0  0
 48 65  1  0  0  0
 48120  1  0  0  0
 49 50  1  0  0  0
 49 53  1  0  0  0
 49 64  1  0  0  0
 49121  1  0  0  0
 50 51  1  0  0  0
 50122  1  0  0  0
 50123  1  0  0  0
 51 52  1  0  0  0
 51124  1  0  0  0
 51125  1  0  0  0
 52126  1  0  0  0
 52127  1  0  0  0
 53 54  1  0  0  0
 54 55  2  0  0  0
 54128  1  0  0  0
 55 57  1  0  0  0
 55129  1  0  0  0
 56 69  2  0  0  0
 57 58  2  0  0  0
 57130  1  0  0  0
 58131  1  0  0  0
 59 60  1  0  0  0
 59 61  1  0  0  0
 59 62  1  0  0  0
 60132  1  0  0  0
 60133  1  0  0  0
 60134  1  0  0  0
 61135  1  0  0  0
 61136  1  0  0  0
 61137  1  0  0  0
 62138  1  0  0  0
 62139  1  0  0  0
 62140  1  0  0  0
 63 65  1  0  0  0
 63141  1  0  0  0
 63142  1  0  0  0
 63143  1  0  0  0
 64144  1  0  0  0
 65145  1  0  0  0
 68 79  1  0  0  0
 71 72  2  0  0  0
 71 73  1  0  0  0
 71146  1  0  0  0
 72 76  1  0  0  0
 72147  1  0  0  0
 73 74  2  0  0  0
 73 83  1  0  0  0
 74 75  1  0  0  0
 74 80  1  0  0  0
 75 76  2  0  0  0
 75 82  1  0  0  0
 76 86  1  0  0  0
 77 79  1  0  0  0
 77 85  1  0  0  0
 77148  1  0  0  0
 77149  1  0  0  0
 78 79  1  0  0  0
 78 85  1  0  0  0
 78150  1  0  0  0
 78151  1  0  0  0
 79152  1  0  0  0
 80153  1  0  0  0
 80154  1  0  0  0
 80155  1  0  0  0
 81 84  1  0  0  0
 81156  1  0  0  0
 81157  1  0  0  0
 81158  1  0  0  0
 82 84  1  0  0  0
 82159  1  0  0  0
 82160  1  0  0  0
 83161  1  0  0  0
 83162  1  0  0  0
 83 85  1  0  0  0
 85163  1  0  0  0
M  CHG  1  85   1
M  ISO  4   1 100  68 101  79 101  84 100
M  END
> <chiral flag>
0

> <version>
0

> <s_m_source_file>
/data/baiqing/PycharmProjects/Reinvent-master-3.2/result/LINK_invent/BTK/process_docking_weight1_custom_product_contain_oxygen_bond_distance_aromatic_linkinvent_7_9_3/rearranged_h_0030.sdf

> <i_m_source_file_index>
31

> <r_mmod_Potential_Energy-OPLS-2005>
27.0440616607666

> <r_mmod_Stretch_Energy-OPLS-2005>
75.7045211791992

> <r_mmod_Bend_Energy-OPLS-2005>
154.426651000977

> <r_mmod_Torsional_Energy-OPLS-2005>
294.376373291016

> <r_mmod_Improper_Torsional_Energy-OPLS-2005>
15.0856990814209

> <r_mmod_Van_der_Waal_Energy-OPLS-2005>
144.259857177734

> <r_mmod_Electrostatic_Energy-OPLS-2005>
-233.069976806641

> <r_mmod_Solvation_Energy-OPLS-2005>
-467.657196044922

> <b_mmod_Minimization_Converged-OPLS-2005>
0

> <r_mmod_RMS_Derivative-OPLS-2005>
2.4260790348053

$$$$
31
                    3D
 Structure written by MMmdl.
159168  0  0  1  0            999 V2000
  -30.5387  -14.8343   20.4228 C   0  0  0  0  0  0
  -30.4346  -12.4990   19.5064 C   0  0  0  0  0  0
  -29.5250  -12.5157   18.2553 C   0  0  0  0  0  0
  -28.0516  -12.3155   18.6608 C   0  0  0  0  0  0
  -27.6354  -13.2324   19.8426 C   0  0  2  0  0  0
  -28.6663  -13.1968   20.9909 C   0  0  0  0  0  0
  -25.2479  -13.8190   20.5668 C   0  0  0  0  0  0
  -24.1783  -13.0434   20.9188 C   0  0  0  0  0  0
  -24.6383  -11.6913   20.8738 C   0  0  0  0  0  0
  -23.9079  -10.4286   21.0411 C   0  0  0  0  0  0
  -24.3622   -9.4199   21.9192 C   0  0  0  0  0  0
  -23.6290   -8.2242   22.0776 C   0  0  0  0  0  0
  -22.4273   -8.0290   21.3561 C   0  0  0  0  0  0
  -21.9902   -9.0262   20.4661 C   0  0  0  0  0  0
  -22.7246  -10.2132   20.3065 C   0  0  0  0  0  0
  -21.6853   -6.0746   22.5304 C   0  0  0  0  0  0
  -21.4015   -6.5650   23.8239 C   0  0  0  0  0  0
  -21.3647   -5.6801   24.9192 C   0  0  0  0  0  0
  -21.6028   -4.3069   24.7229 C   0  0  0  0  0  0
  -21.8806   -3.8162   23.4353 C   0  0  0  0  0  0
  -21.9175   -4.6975   22.3416 C   0  0  0  0  0  0
  -22.7807  -13.5234   21.1850 C   0  0  0  0  0  0
  -22.1654   -4.2165   21.0993 F   0  0  0  0  0  0
  -21.5602   -3.4549   25.7742 F   0  0  0  0  0  0
  -29.9669  -13.5722   20.4235 N   0  0  0  0  0  0
  -26.2882  -12.9388   20.3181 N   0  0  0  0  0  0
  -25.9295  -11.6527   20.5677 N   0  0  0  0  0  0
  -22.0449  -12.8249   22.0408 N   0  0  0  0  0  0
  -25.4152  -15.1928   20.4121 N   0  0  0  0  0  0
  -31.7118  -14.9507   20.0535 O   0  0  0  0  0  0
  -21.6634   -6.8889   21.4273 O   0  0  0  0  0  0
  -22.3500  -14.5532   20.6687 O   0  0  0  0  0  0
  -24.6368  -31.8480   23.1924 C   0  0  0  0  0  0
  -25.9175  -32.4712   23.8284 C   0  0  1  0  0  0
  -27.2208  -27.2064   20.1315 C   0  0  0  0  0  0
  -25.5961  -33.8516   24.2220 N   0  0  0  0  0  0
  -23.4336  -30.4703   21.5371 C   0  0  2  0  0  0
  -24.8818  -28.9039   20.1100 C   0  0  0  0  0  0
  -22.7503  -29.4578   22.4875 C   0  0  0  0  0  0
  -18.0291  -28.1376   22.8474 C   0  0  0  0  0  0
  -24.1494  -36.7253   23.2638 C   0  0  0  0  0  0
  -25.9838  -30.7453   21.3775 C   0  0  0  0  0  0
  -26.0563  -29.3614   20.7204 C   0  0  0  0  0  0
  -27.2265  -28.5262   20.7159 C   0  0  0  0  0  0
  -26.0183  -26.8244   19.4972 C   0  0  0  0  0  0
  -24.8712  -27.6448   19.4894 C   0  0  0  0  0  0
  -23.6541  -29.7995   20.1563 C   0  0  0  0  0  0
  -25.4123  -36.3030   24.0319 C   0  0  1  0  0  0
  -20.5893  -28.3699   23.1248 C   0  0  2  0  0  0
  -20.6783  -26.9403   22.5406 C   0  0  0  0  0  0
  -19.5770  -26.6375   21.5197 C   0  0  0  0  0  0
  -18.1945  -26.7926   22.1608 C   0  0  0  0  0  0
  -19.1548  -28.8857   23.2862 C   0  0  0  0  0  0
  -18.9466  -30.1449   23.8885 C   0  0  0  0  0  0
  -17.6474  -30.6581   24.0543 C   0  0  0  0  0  0
  -25.9070  -34.9411   23.5072 C   0  0  0  0  0  0
  -16.5358  -29.9076   23.6330 C   0  0  0  0  0  0
  -16.7286  -28.6491   23.0359 C   0  0  0  0  0  0
  -26.4535  -31.6548   25.0691 C   0  0  0  0  0  0
  -25.3750  -31.3725   26.1405 C   0  0  0  0  0  0
  -27.0389  -30.2951   24.6219 C   0  0  0  0  0  0
  -27.6066  -32.4298   25.7484 C   0  0  0  0  0  0
  -27.5575  -37.1780   24.8469 C   0  0  0  0  0  0
  -21.4211  -29.3038   22.3615 N   0  0  0  0  0  0
  -26.4286  -37.3741   23.9409 N   0  0  0  0  0  0
  -24.7032  -31.0413   22.0913 N   0  0  0  0  0  0
  -23.4170  -28.8131   23.3002 O   0  0  0  0  0  0
  -28.3118  -26.2921   20.1989 O   0  0  0  0  0  0
  -26.5637  -34.8892   22.4633 O   0  0  0  0  0  0
  -23.5513  -32.1335   23.7210 O   0  0  0  0  0  0
  -30.3446  -19.0222   21.7324 C   0  0  0  0  0  0
  -29.9087  -21.4535   21.6644 C   0  0  0  0  0  0
  -30.4925  -20.3172   22.2749 C   0  0  0  0  0  0
  -29.6213  -18.8145   20.5467 C   0  0  0  0  0  0
  -29.0027  -20.0250   19.9625 C   0  0  0  0  0  0
  -29.1371  -21.4043   20.4799 C   0  0  0  0  0  0
  -27.6884  -23.6170   20.6127 C   0  0  0  0  0  0
  -29.4897  -23.8986   19.7603 C   0  0  0  0  0  0
  -28.2205  -24.8320   19.7478 C   0  0  0  0  0  0
  -31.3298  -20.5113   23.5246 C   0  0  0  0  0  0
  -28.1368  -19.8367   18.7270 C   0  0  0  0  0  0
  -29.6737  -17.3301   19.8860 C   0  0  0  0  0  0
  -28.6153  -22.6942   19.8886 N   0  0  0  0  0  0
  -29.7200  -15.9560   20.6150 N   0  0  0  0  0  0
  -31.4770  -12.6340   19.2126 H   0  0  0  0  0  0
  -30.3904  -11.5270   20.0004 H   0  0  0  0  0  0
  -29.8346  -11.7396   17.5532 H   0  0  0  0  0  0
  -29.6337  -13.4646   17.7293 H   0  0  0  0  0  0
  -27.9304  -11.2701   18.9487 H   0  0  0  0  0  0
  -27.3953  -12.4726   17.8047 H   0  0  0  0  0  0
  -27.6185  -14.2450   19.4402 H   0  0  0  0  0  0
  -28.7119  -12.2039   21.4420 H   0  0  0  0  0  0
  -28.3753  -13.8816   21.7885 H   0  0  0  0  0  0
  -25.2764   -9.5666   22.4764 H   0  0  0  0  0  0
  -23.9993   -7.4626   22.7502 H   0  0  0  0  0  0
  -21.0820   -8.8770   19.8970 H   0  0  0  0  0  0
  -22.3710  -10.9659   19.6164 H   0  0  0  0  0  0
  -21.2051   -7.6170   23.9748 H   0  0  0  0  0  0
  -21.1473   -6.0541   25.9091 H   0  0  0  0  0  0
  -22.0593   -2.7634   23.2861 H   0  0  0  0  0  0
  -22.4039  -11.9926   22.4845 H   0  0  0  0  0  0
  -21.1061  -13.1295   22.2572 H   0  0  0  0  0  0
  -24.6438  -15.8401   20.5320 H   0  0  0  0  0  0
  -26.2589  -15.6428   20.0840 H   0  0  0  0  0  0
  -26.7225  -32.5340   23.1002 H   0  0  0  0  0  0
  -25.0106  -33.9636   25.0368 H   0  0  0  0  0  0
  -22.7354  -31.2959   21.3883 H   0  0  0  0  0  0
  -23.3753  -35.9584   23.3295 H   0  0  0  0  0  0
  -24.3583  -36.8884   22.2053 H   0  0  0  0  0  0
  -23.7259  -37.6451   23.6678 H   0  0  0  0  0  0
  -26.1303  -31.5026   20.6057 H   0  0  0  0  0  0
  -26.8583  -30.7952   22.0145 H   0  0  0  0  0  0
  -28.1235  -28.8735   21.2088 H   0  0  0  0  0  0
  -25.9291  -25.8598   19.0218 H   0  0  0  0  0  0
  -23.9692  -27.2865   19.0123 H   0  0  0  0  0  0
  -23.7788  -30.5744   19.3994 H   0  0  0  0  0  0
  -22.7709  -29.2377   19.8500 H   0  0  0  0  0  0
  -25.1310  -36.1852   25.0813 H   0  0  0  0  0  0
  -21.0011  -28.3297   24.1359 H   0  0  0  0  0  0
  -20.5669  -26.2304   23.3612 H   0  0  0  0  0  0
  -21.6653  -26.7412   22.1201 H   0  0  0  0  0  0
  -19.6928  -25.6283   21.1230 H   0  0  0  0  0  0
  -19.6717  -27.3179   20.6722 H   0  0  0  0  0  0
  -17.4210  -26.6646   21.4020 H   0  0  0  0  0  0
  -18.0355  -26.0064   22.9011 H   0  0  0  0  0  0
  -19.7949  -30.7251   24.2256 H   0  0  0  0  0  0
  -17.5033  -31.6266   24.5135 H   0  0  0  0  0  0
  -15.5364  -30.2974   23.7673 H   0  0  0  0  0  0
  -15.8676  -28.0802   22.7104 H   0  0  0  0  0  0
  -24.5949  -30.7038   25.7761 H   0  0  0  0  0  0
  -24.8915  -32.2898   26.4769 H   0  0  0  0  0  0
  -25.8065  -30.8967   27.0218 H   0  0  0  0  0  0
  -26.2986  -29.6675   24.1243 H   0  0  0  0  0  0
  -27.4048  -29.7245   25.4768 H   0  0  0  0  0  0
  -27.8875  -30.4199   23.9485 H   0  0  0  0  0  0
  -27.2663  -33.3619   26.2000 H   0  0  0  0  0  0
  -28.3921  -32.6811   25.0350 H   0  0  0  0  0  0
  -28.0670  -31.8449   26.5453 H   0  0  0  0  0  0
  -28.2581  -38.0085   24.7492 H   0  0  0  0  0  0
  -28.1074  -36.2608   24.6316 H   0  0  0  0  0  0
  -27.2281  -37.1449   25.8866 H   0  0  0  0  0  0
  -20.9385  -29.8753   21.6807 H   0  0  0  0  0  0
  -26.0148  -38.2799   24.1425 H   0  0  0  0  0  0
  -30.8319  -18.1783   22.2025 H   0  0  0  0  0  0
  -30.0779  -22.4136   22.1299 H   0  0  0  0  0  0
  -26.6347  -23.3873   20.4455 H   0  0  0  0  0  0
  -27.9111  -23.7051   21.6779 H   0  0  0  0  0  0
  -30.1331  -24.0705   20.6260 H   0  0  0  0  0  0
  -30.0654  -23.9274   18.8340 H   0  0  0  0  0  0
  -27.8141  -24.8070   18.7330 H   0  0  0  0  0  0
  -32.1499  -21.2030   23.3306 H   0  0  0  0  0  0
  -31.7605  -19.5726   23.8746 H   0  0  0  0  0  0
  -30.7220  -20.9263   24.3290 H   0  0  0  0  0  0
  -28.6764  -19.3069   17.9429 H   0  0  0  0  0  0
  -27.7918  -20.7828   18.3102 H   0  0  0  0  0  0
  -27.2475  -19.2611   18.9903 H   0  0  0  0  0  0
  -28.8016  -17.2605   19.2335 H   0  0  0  0  0  0
  -30.5206  -17.3451   19.2007 H   0  0  0  0  0  0
  -28.8320  -15.7061   21.0241 H   0  0  0  0  0  0
  1 25  1  0  0  0
  1 30  2  0  0  0
  1 84  1  0  0  0
  2  3  1  0  0  0
  2 25  1  0  0  0
  2 85  1  0  0  0
  2 86  1  0  0  0
  3  4  1  0  0  0
  3 87  1  0  0  0
  3 88  1  0  0  0
  4  5  1  0  0  0
  4 89  1  0  0  0
  4 90  1  0  0  0
  5  6  1  0  0  0
  5 26  1  0  0  0
  5 91  1  0  0  0
  6 25  1  0  0  0
  6 92  1  0  0  0
  6 93  1  0  0  0
  7  8  2  0  0  0
  7 26  1  0  0  0
  7 29  1  0  0  0
  8  9  1  0  0  0
  8 22  1  0  0  0
  9 10  1  0  0  0
  9 27  2  0  0  0
 10 11  2  0  0  0
 10 15  1  0  0  0
 11 12  1  0  0  0
 11 94  1  0  0  0
 12 13  2  0  0  0
 12 95  1  0  0  0
 13 14  1  0  0  0
 13 31  1  0  0  0
 14 15  2  0  0  0
 14 96  1  0  0  0
 15 97  1  0  0  0
 16 17  2  0  0  0
 16 21  1  0  0  0
 16 31  1  0  0  0
 17 18  1  0  0  0
 17 98  1  0  0  0
 18 19  2  0  0  0
 18 99  1  0  0  0
 19 20  1  0  0  0
 19 24  1  0  0  0
 20 21  2  0  0  0
 20100  1  0  0  0
 21 23  1  0  0  0
 22 28  1  0  0  0
 22 32  2  0  0  0
 26 27  1  0  0  0
 28101  1  0  0  0
 28102  1  0  0  0
 29103  1  0  0  0
 29104  1  0  0  0
 33 34  1  0  0  0
 33 66  1  0  0  0
 33 70  2  0  0  0
 34 36  1  0  0  0
 34 59  1  0  0  0
 34105  1  0  0  0
 35 44  2  0  0  0
 35 45  1  0  0  0
 35 68  1  0  0  0
 36 56  1  0  0  0
 36106  1  0  0  0
 37 39  1  0  0  0
 37 47  1  0  0  0
 37 66  1  0  0  0
 37107  1  0  0  0
 38 43  2  0  0  0
 38 46  1  0  0  0
 38 47  1  0  0  0
 39 64  1  0  0  0
 39 67  2  0  0  0
 40 52  1  0  0  0
 40 53  2  0  0  0
 40 58  1  0  0  0
 41108  1  0  0  0
 41109  1  0  0  0
 41110  1  0  0  0
 41 48  1  0  0  0
 42 43  1  0  0  0
 42 66  1  0  0  0
 42111  1  0  0  0
 42112  1  0  0  0
 43 44  1  0  0  0
 44113  1  0  0  0
 45 46  2  0  0  0
 45114  1  0  0  0
 46115  1  0  0  0
 47116  1  0  0  0
 47117  1  0  0  0
 48 56  1  0  0  0
 48 65  1  0  0  0
 48118  1  0  0  0
 49 50  1  0  0  0
 49 53  1  0  0  0
 49 64  1  0  0  0
 49119  1  0  0  0
 50 51  1  0  0  0
 50120  1  0  0  0
 50121  1  0  0  0
 51 52  1  0  0  0
 51122  1  0  0  0
 51123  1  0  0  0
 52124  1  0  0  0
 52125  1  0  0  0
 53 54  1  0  0  0
 54 55  2  0  0  0
 54126  1  0  0  0
 55 57  1  0  0  0
 55127  1  0  0  0
 56 69  2  0  0  0
 57 58  2  0  0  0
 57128  1  0  0  0
 58129  1  0  0  0
 59 60  1  0  0  0
 59 61  1  0  0  0
 59 62  1  0  0  0
 60130  1  0  0  0
 60131  1  0  0  0
 60132  1  0  0  0
 61133  1  0  0  0
 61134  1  0  0  0
 61135  1  0  0  0
 62136  1  0  0  0
 62137  1  0  0  0
 62138  1  0  0  0
 63 65  1  0  0  0
 63139  1  0  0  0
 63140  1  0  0  0
 63141  1  0  0  0
 64142  1  0  0  0
 65143  1  0  0  0
 68 79  1  0  0  0
 71 73  2  0  0  0
 71 74  1  0  0  0
 71144  1  0  0  0
 72 73  1  0  0  0
 72 76  2  0  0  0
 72145  1  0  0  0
 73 80  1  0  0  0
 74 75  2  0  0  0
 74 82  1  0  0  0
 75 76  1  0  0  0
 75 81  1  0  0  0
 76 83  1  0  0  0
 77 79  1  0  0  0
 77 83  1  0  0  0
 77146  1  0  0  0
 77147  1  0  0  0
 78 79  1  0  0  0
 78 83  1  0  0  0
 78148  1  0  0  0
 78149  1  0  0  0
 79150  1  0  0  0
 80151  1  0  0  0
 80152  1  0  0  0
 80153  1  0  0  0
 81154  1  0  0  0
 81155  1  0  0  0
 81156  1  0  0  0
 82 84  1  0  0  0
 82157  1  0  0  0
 82158  1  0  0  0
 84159  1  0  0  0
M  ISO  4   1 100  68 101  79 101  84 100
M  END
> <chiral flag>
0

> <version>
0

> <s_m_source_file>
/data/baiqing/PycharmProjects/Reinvent-master-3.2/result/LINK_invent/BTK/process_docking_weight1_custom_product_contain_oxygen_bond_distance_aromatic_linkinvent_7_9_3/rearranged_h_0030.sdf

> <i_m_source_file_index>
32

> <r_mmod_Potential_Energy-OPLS-2005>
289.865447998047

> <r_mmod_Stretch_Energy-OPLS-2005>
168.378326416016

> <r_mmod_Bend_Energy-OPLS-2005>
247.205780029297

> <r_mmod_Torsional_Energy-OPLS-2005>
246.171829223633

> <r_mmod_Improper_Torsional_Energy-OPLS-2005>
15.290150642395

> <r_mmod_Van_der_Waal_Energy-OPLS-2005>
135.232620239258

> <r_mmod_Electrostatic_Energy-OPLS-2005>
-419.534790039062

> <r_mmod_Solvation_Energy-OPLS-2005>
-229.17756652832

> <b_mmod_Minimization_Converged-OPLS-2005>
0

> <r_mmod_RMS_Derivative-OPLS-2005>
3.09504055976868

$$$$
32
                    3D
 Structure written by MMmdl.
158167  0  0  1  0            999 V2000
  -30.4545  -15.0949   20.3922 C   0  0  0  0  0  0
  -30.4496  -12.6773   19.5244 C   0  0  0  0  0  0
  -29.5376  -12.5568   18.2771 C   0  0  0  0  0  0
  -28.0720  -12.3159   18.6873 C   0  0  0  0  0  0
  -27.6255  -13.2594   19.8330 C   0  0  2  0  0  0
  -28.6607  -13.3306   20.9737 C   0  0  0  0  0  0
  -25.2451  -13.8227   20.5716 C   0  0  0  0  0  0
  -24.1776  -13.0438   20.9224 C   0  0  0  0  0  0
  -24.6404  -11.6928   20.8737 C   0  0  0  0  0  0
  -23.9088  -10.4296   21.0399 C   0  0  0  0  0  0
  -24.3635   -9.4209   21.9179 C   0  0  0  0  0  0
  -23.6305   -8.2246   22.0753 C   0  0  0  0  0  0
  -22.4286   -8.0284   21.3543 C   0  0  0  0  0  0
  -21.9924   -9.0256   20.4644 C   0  0  0  0  0  0
  -22.7256  -10.2134   20.3052 C   0  0  0  0  0  0
  -21.6856   -6.0736   22.5279 C   0  0  0  0  0  0
  -21.4014   -6.5640   23.8212 C   0  0  0  0  0  0
  -21.3662   -5.6792   24.9173 C   0  0  0  0  0  0
  -21.6047   -4.3055   24.7225 C   0  0  0  0  0  0
  -21.8818   -3.8146   23.4345 C   0  0  0  0  0  0
  -21.9195   -4.6963   22.3402 C   0  0  0  0  0  0
  -22.7797  -13.5203   21.1884 C   0  0  0  0  0  0
  -22.1664   -4.2148   21.0978 F   0  0  0  0  0  0
  -21.5630   -3.4539   25.7737 F   0  0  0  0  0  0
  -29.9278  -13.7876   20.3867 N   0  0  0  0  0  0
  -26.2872  -12.9474   20.3208 N   0  0  0  0  0  0
  -25.9338  -11.6594   20.5702 N   0  0  0  0  0  0
  -22.0453  -12.8187   22.0440 N   0  0  0  0  0  0
  -25.4131  -15.1957   20.4175 N   0  0  0  0  0  0
  -31.6544  -15.1546   20.0923 O   0  0  0  0  0  0
  -21.6647   -6.8882   21.4242 O   0  0  0  0  0  0
  -22.3475  -14.5507   20.6730 O   0  0  0  0  0  0
  -24.6520  -31.8338   23.1782 C   0  0  0  0  0  0
  -25.9249  -32.4640   23.8211 C   0  0  1  0  0  0
  -27.2209  -27.0388   20.1715 C   0  0  0  0  0  0
  -25.5960  -33.8450   24.2126 N   0  0  0  0  0  0
  -23.4608  -30.4477   21.5256 C   0  0  2  0  0  0
  -24.9121  -28.8507   20.1125 C   0  0  0  0  0  0
  -22.7608  -29.4493   22.4824 C   0  0  0  0  0  0
  -18.0311  -28.1401   22.8472 C   0  0  0  0  0  0
  -24.1494  -36.7231   23.2645 C   0  0  0  0  0  0
  -26.0220  -30.6770   21.3899 C   0  0  0  0  0  0
  -26.0922  -29.2771   20.7345 C   0  0  0  0  0  0
  -27.2448  -28.3903   20.7389 C   0  0  0  0  0  0
  -26.0123  -26.7299   19.5123 C   0  0  0  0  0  0
  -24.8906  -27.5947   19.4835 C   0  0  0  0  0  0
  -23.6933  -29.7658   20.1495 C   0  0  0  0  0  0
  -25.4131  -36.2999   24.0306 C   0  0  1  0  0  0
  -20.5928  -28.3735   23.1216 C   0  0  2  0  0  0
  -20.6791  -26.9428   22.5405 C   0  0  0  0  0  0
  -19.5767  -26.6379   21.5213 C   0  0  0  0  0  0
  -18.1948  -26.7937   22.1622 C   0  0  0  0  0  0
  -19.1569  -28.8887   23.2834 C   0  0  0  0  0  0
  -18.9484  -30.1480   23.8863 C   0  0  0  0  0  0
  -17.6479  -30.6595   24.0556 C   0  0  0  0  0  0
  -25.9087  -34.9378   23.5034 C   0  0  0  0  0  0
  -16.5370  -29.9084   23.6341 C   0  0  0  0  0  0
  -16.7294  -28.6504   23.0360 C   0  0  0  0  0  0
  -26.4542  -31.6547   25.0697 C   0  0  0  0  0  0
  -25.3699  -31.3765   26.1374 C   0  0  0  0  0  0
  -27.0425  -30.2932   24.6349 C   0  0  0  0  0  0
  -27.6052  -32.4335   25.7493 C   0  0  0  0  0  0
  -27.5574  -37.1773   24.8466 C   0  0  0  0  0  0
  -21.4290  -29.3043   22.3575 N   0  0  0  0  0  0
  -26.4286  -37.3723   23.9405 N   0  0  0  0  0  0
  -24.7321  -31.0103   22.0859 N   0  0  0  0  0  0
  -23.4207  -28.8057   23.3023 O   0  0  0  0  0  0
  -28.2712  -26.0222   20.2400 O   0  0  0  0  0  0
  -26.5688  -34.8894   22.4623 O   0  0  0  0  0  0
  -23.5617  -32.1255   23.6946 O   0  0  0  0  0  0
  -32.0831  -22.4400   20.9816 C   0  0  0  0  0  0
  -31.0533  -21.5109   20.8174 C   0  0  0  0  0  0
  -30.5131  -24.2119   20.5538 C   0  0  0  0  0  0
  -31.8196  -23.7952   20.8304 C   0  0  0  0  0  0
  -29.7034  -21.8207   20.4885 C   0  0  0  0  0  0
  -29.3896  -23.3541   20.3933 C   0  0  0  0  0  0
  -30.2321  -17.9391   21.2436 C   0  0  0  0  0  0
  -29.0629  -17.6020   19.5991 C   0  0  0  0  0  0
  -29.6084  -16.5523   20.6944 C   0  0  1  0  0  0
  -32.9372  -24.8076   20.9893 C   0  0  0  0  0  0
  -28.9428  -20.3169   20.3558 C   0  0  0  0  0  0
  -28.1061  -24.4212   20.1610 C   0  0  0  0  0  0
  -29.7041  -18.8737   20.1551 N   0  3  1  0  0  0
  -31.4788  -12.8574   19.2106 H   0  0  0  0  0  0
  -30.4722  -11.7374   20.0785 H   0  0  0  0  0  0
  -29.8839  -11.7502   17.6296 H   0  0  0  0  0  0
  -29.6062  -13.4728   17.6885 H   0  0  0  0  0  0
  -27.9874  -11.2784   19.0124 H   0  0  0  0  0  0
  -27.4126  -12.4207   17.8252 H   0  0  0  0  0  0
  -27.5752  -14.2530   19.3869 H   0  0  0  0  0  0
  -28.7756  -12.3620   21.4625 H   0  0  0  0  0  0
  -28.3292  -14.0238   21.7475 H   0  0  0  0  0  0
  -25.2780   -9.5684   22.4752 H   0  0  0  0  0  0
  -24.0012   -7.4637   22.7474 H   0  0  0  0  0  0
  -21.0853   -8.8775   19.8952 H   0  0  0  0  0  0
  -22.3712  -10.9670   19.6160 H   0  0  0  0  0  0
  -21.2006   -7.6147   23.9714 H   0  0  0  0  0  0
  -21.1487   -6.0523   25.9075 H   0  0  0  0  0  0
  -22.0597   -2.7608   23.2846 H   0  0  0  0  0  0
  -22.4080  -11.9853   22.4828 H   0  0  0  0  0  0
  -21.1064  -13.1195   22.2644 H   0  0  0  0  0  0
  -24.6452  -15.8489   20.5297 H   0  0  0  0  0  0
  -26.2609  -15.6343   20.0836 H   0  0  0  0  0  0
  -26.7314  -32.5215   23.0930 H   0  0  0  0  0  0
  -25.0066  -33.9547   25.0247 H   0  0  0  0  0  0
  -22.7685  -31.2761   21.3613 H   0  0  0  0  0  0
  -23.3764  -35.9554   23.3287 H   0  0  0  0  0  0
  -24.3571  -36.8892   22.2063 H   0  0  0  0  0  0
  -23.7243  -37.6414   23.6706 H   0  0  0  0  0  0
  -26.1878  -31.4246   20.6130 H   0  0  0  0  0  0
  -26.8880  -30.7315   22.0380 H   0  0  0  0  0  0
  -28.1438  -28.7146   21.2439 H   0  0  0  0  0  0
  -25.9101  -25.7664   19.0344 H   0  0  0  0  0  0
  -23.9901  -27.2624   18.9853 H   0  0  0  0  0  0
  -23.8385  -30.5349   19.3900 H   0  0  0  0  0  0
  -22.8057  -29.2124   19.8376 H   0  0  0  0  0  0
  -25.1326  -36.1810   25.0799 H   0  0  0  0  0  0
  -21.0018  -28.3334   24.1338 H   0  0  0  0  0  0
  -20.5676  -26.2351   23.3634 H   0  0  0  0  0  0
  -21.6657  -26.7419   22.1209 H   0  0  0  0  0  0
  -19.6928  -25.6280   21.1266 H   0  0  0  0  0  0
  -19.6706  -27.3169   20.6726 H   0  0  0  0  0  0
  -17.4217  -26.6679   21.4026 H   0  0  0  0  0  0
  -18.0347  -26.0086   22.9025 H   0  0  0  0  0  0
  -19.7958  -30.7305   24.2219 H   0  0  0  0  0  0
  -17.5031  -31.6271   24.5163 H   0  0  0  0  0  0
  -15.5368  -30.2975   23.7682 H   0  0  0  0  0  0
  -15.8695  -28.0809   22.7098 H   0  0  0  0  0  0
  -24.5883  -30.7115   25.7683 H   0  0  0  0  0  0
  -24.8887  -32.2958   26.4721 H   0  0  0  0  0  0
  -25.7955  -30.8980   27.0203 H   0  0  0  0  0  0
  -26.3067  -29.6627   24.1346 H   0  0  0  0  0  0
  -27.3992  -29.7267   25.4961 H   0  0  0  0  0  0
  -27.8991  -30.4143   23.9716 H   0  0  0  0  0  0
  -27.2630  -33.3662   26.1990 H   0  0  0  0  0  0
  -28.3906  -32.6855   25.0356 H   0  0  0  0  0  0
  -28.0673  -31.8518   26.5478 H   0  0  0  0  0  0
  -28.2580  -38.0080   24.7511 H   0  0  0  0  0  0
  -28.1083  -36.2607   24.6298 H   0  0  0  0  0  0
  -27.2288  -37.1422   25.8868 H   0  0  0  0  0  0
  -20.9521  -29.8737   21.6722 H   0  0  0  0  0  0
  -26.0143  -38.2787   24.1410 H   0  0  0  0  0  0
  -33.0823  -22.1008   21.2214 H   0  0  0  0  0  0
  -31.3706  -20.4928   20.9692 H   0  0  0  0  0  0
  -30.3922  -25.2806   20.4741 H   0  0  0  0  0  0
  -31.3222  -17.9306   21.2699 H   0  0  0  0  0  0
  -29.8417  -18.2071   22.2259 H   0  0  0  0  0  0
  -27.9745  -17.6694   19.6020 H   0  0  0  0  0  0
  -29.4158  -17.3834   18.5906 H   0  0  0  0  0  0
  -28.7760  -16.2860   21.3451 H   0  0  0  0  0  0
  -33.8476  -24.4573   20.5018 H   0  0  0  0  0  0
  -33.1561  -24.9669   22.0453 H   0  0  0  0  0  0
  -32.6731  -25.7692   20.5480 H   0  0  0  0  0  0
  -28.2813  -20.4149   19.4958 H   0  0  0  0  0  0
  -28.2766  -20.2104   21.2110 H   0  0  0  0  0  0
  -27.3371  -24.1460   20.8831 H   0  0  0  0  0  0
  -27.6851  -24.1885   19.1829 H   0  0  0  0  0  0
  -30.4661  -19.0707   19.5243 H   0  0  0  0  0  0
  1 25  1  0  0  0
  1 30  2  0  0  0
  1 79  1  0  0  0
  2  3  1  0  0  0
  2 25  1  0  0  0
  2 84  1  0  0  0
  2 85  1  0  0  0
  3  4  1  0  0  0
  3 86  1  0  0  0
  3 87  1  0  0  0
  4  5  1  0  0  0
  4 88  1  0  0  0
  4 89  1  0  0  0
  5  6  1  0  0  0
  5 26  1  0  0  0
  5 90  1  0  0  0
  6 25  1  0  0  0
  6 91  1  0  0  0
  6 92  1  0  0  0
  7  8  2  0  0  0
  7 26  1  0  0  0
  7 29  1  0  0  0
  8  9  1  0  0  0
  8 22  1  0  0  0
  9 10  1  0  0  0
  9 27  2  0  0  0
 10 11  2  0  0  0
 10 15  1  0  0  0
 11 12  1  0  0  0
 11 93  1  0  0  0
 12 13  2  0  0  0
 12 94  1  0  0  0
 13 14  1  0  0  0
 13 31  1  0  0  0
 14 15  2  0  0  0
 14 95  1  0  0  0
 15 96  1  0  0  0
 16 17  2  0  0  0
 16 21  1  0  0  0
 16 31  1  0  0  0
 17 18  1  0  0  0
 17 97  1  0  0  0
 18 19  2  0  0  0
 18 98  1  0  0  0
 19 20  1  0  0  0
 19 24  1  0  0  0
 20 21  2  0  0  0
 20 99  1  0  0  0
 21 23  1  0  0  0
 22 28  1  0  0  0
 22 32  2  0  0  0
 26 27  1  0  0  0
 28100  1  0  0  0
 28101  1  0  0  0
 29102  1  0  0  0
 29103  1  0  0  0
 33 34  1  0  0  0
 33 66  1  0  0  0
 33 70  2  0  0  0
 34 36  1  0  0  0
 34 59  1  0  0  0
 34104  1  0  0  0
 35 44  2  0  0  0
 35 45  1  0  0  0
 35 68  1  0  0  0
 36 56  1  0  0  0
 36105  1  0  0  0
 37 39  1  0  0  0
 37 47  1  0  0  0
 37 66  1  0  0  0
 37106  1  0  0  0
 38 43  2  0  0  0
 38 46  1  0  0  0
 38 47  1  0  0  0
 39 64  1  0  0  0
 39 67  2  0  0  0
 40 52  1  0  0  0
 40 53  2  0  0  0
 40 58  1  0  0  0
 41107  1  0  0  0
 41108  1  0  0  0
 41109  1  0  0  0
 41 48  1  0  0  0
 42 43  1  0  0  0
 42 66  1  0  0  0
 42110  1  0  0  0
 42111  1  0  0  0
 43 44  1  0  0  0
 44112  1  0  0  0
 45 46  2  0  0  0
 45113  1  0  0  0
 46114  1  0  0  0
 47115  1  0  0  0
 47116  1  0  0  0
 48 56  1  0  0  0
 48 65  1  0  0  0
 48117  1  0  0  0
 49 50  1  0  0  0
 49 53  1  0  0  0
 49 64  1  0  0  0
 49118  1  0  0  0
 50 51  1  0  0  0
 50119  1  0  0  0
 50120  1  0  0  0
 51 52  1  0  0  0
 51121  1  0  0  0
 51122  1  0  0  0
 52123  1  0  0  0
 52124  1  0  0  0
 53 54  1  0  0  0
 54 55  2  0  0  0
 54125  1  0  0  0
 55 57  1  0  0  0
 55126  1  0  0  0
 56 69  2  0  0  0
 57 58  2  0  0  0
 57127  1  0  0  0
 58128  1  0  0  0
 59 60  1  0  0  0
 59 61  1  0  0  0
 59 62  1  0  0  0
 60129  1  0  0  0
 60130  1  0  0  0
 60131  1  0  0  0
 61132  1  0  0  0
 61133  1  0  0  0
 61134  1  0  0  0
 62135  1  0  0  0
 62136  1  0  0  0
 62137  1  0  0  0
 63 65  1  0  0  0
 63138  1  0  0  0
 63139  1  0  0  0
 63140  1  0  0  0
 64141  1  0  0  0
 65142  1  0  0  0
 68 82  1  0  0  0
 71 72  2  0  0  0
 71 74  1  0  0  0
 71143  1  0  0  0
 72 75  1  0  0  0
 72144  1  0  0  0
 73 74  2  0  0  0
 73 76  1  0  0  0
 73145  1  0  0  0
 74 80  1  0  0  0
 75 76  2  0  0  0
 75 81  1  0  0  0
 76 82  1  0  0  0
 77 79  1  0  0  0
 77 83  1  0  0  0
 77146  1  0  0  0
 77147  1  0  0  0
 78 79  1  0  0  0
 78 83  1  0  0  0
 78148  1  0  0  0
 78149  1  0  0  0
 79150  1  0  0  0
 80151  1  0  0  0
 80152  1  0  0  0
 80153  1  0  0  0
 81154  1  0  0  0
 81155  1  0  0  0
 81 83  1  0  0  0
 82156  1  0  0  0
 82157  1  0  0  0
 83158  1  0  0  0
M  CHG  1  83   1
M  ISO  4   1 100  68 101  79 100  82 101
M  END
> <chiral flag>
0

> <version>
0

> <s_m_source_file>
/data/baiqing/PycharmProjects/Reinvent-master-3.2/result/LINK_invent/BTK/process_docking_weight1_custom_product_contain_oxygen_bond_distance_aromatic_linkinvent_7_9_3/rearranged_h_0030.sdf

> <i_m_source_file_index>
33

> <r_mmod_Potential_Energy-OPLS-2005>
739.705749511719

> <r_mmod_Stretch_Energy-OPLS-2005>
404.622772216797

> <r_mmod_Bend_Energy-OPLS-2005>
430.007080078125

> <r_mmod_Torsional_Energy-OPLS-2005>
202.63883972168

> <r_mmod_Improper_Torsional_Energy-OPLS-2005>
2.01707196235657

> <r_mmod_Van_der_Waal_Energy-OPLS-2005>
130.240692138672

> <r_mmod_Electrostatic_Energy-OPLS-2005>
-264.113128662109

> <r_mmod_Solvation_Energy-OPLS-2005>
-461.729919433594

> <b_mmod_Minimization_Converged-OPLS-2005>
0

> <r_mmod_RMS_Derivative-OPLS-2005>
0.43801948428154

$$$$
33
                    3D
 Structure written by MMmdl.
160169  0  0  1  0            999 V2000
  -30.6081  -14.7317   20.4510 C   0  0  0  0  0  0
  -30.4331  -12.4407   19.4824 C   0  0  0  0  0  0
  -29.5131  -12.5059   18.2425 C   0  0  0  0  0  0
  -28.0379  -12.3354   18.6517 C   0  0  0  0  0  0
  -27.6461  -13.2314   19.8568 C   0  0  2  0  0  0
  -28.6876  -13.1526   20.9952 C   0  0  0  0  0  0
  -25.2525  -13.8202   20.5698 C   0  0  0  0  0  0
  -24.1811  -13.0446   20.9199 C   0  0  0  0  0  0
  -24.6399  -11.6923   20.8741 C   0  0  0  0  0  0
  -23.9075  -10.4297   21.0403 C   0  0  0  0  0  0
  -24.3623   -9.4212   21.9183 C   0  0  0  0  0  0
  -23.6297   -8.2248   22.0754 C   0  0  0  0  0  0
  -22.4279   -8.0285   21.3544 C   0  0  0  0  0  0
  -21.9916   -9.0258   20.4646 C   0  0  0  0  0  0
  -22.7245  -10.2137   20.3054 C   0  0  0  0  0  0
  -21.6855   -6.0737   22.5278 C   0  0  0  0  0  0
  -21.4015   -6.5641   23.8211 C   0  0  0  0  0  0
  -21.3660   -5.6794   24.9173 C   0  0  0  0  0  0
  -21.6044   -4.3056   24.7224 C   0  0  0  0  0  0
  -21.8820   -3.8149   23.4344 C   0  0  0  0  0  0
  -21.9194   -4.6965   22.3400 C   0  0  0  0  0  0
  -22.7833  -13.5226   21.1862 C   0  0  0  0  0  0
  -22.1663   -4.2150   21.0977 F   0  0  0  0  0  0
  -21.5628   -3.4540   25.7738 F   0  0  0  0  0  0
  -29.9957  -13.4983   20.4243 N   0  0  0  0  0  0
  -26.2956  -12.9409   20.3300 N   0  0  0  0  0  0
  -25.9331  -11.6551   20.5758 N   0  0  0  0  0  0
  -22.0480  -12.8209   22.0413 N   0  0  0  0  0  0
  -25.4226  -15.1926   20.4129 N   0  0  0  0  0  0
  -31.7877  -14.8378   20.1009 O   0  0  0  0  0  0
  -21.6643   -6.8882   21.4241 O   0  0  0  0  0  0
  -22.3515  -14.5532   20.6713 O   0  0  0  0  0  0
  -24.6312  -31.8550   23.1992 C   0  0  0  0  0  0
  -25.9142  -32.4750   23.8332 C   0  0  1  0  0  0
  -27.2149  -27.2569   20.1283 C   0  0  0  0  0  0
  -25.5937  -33.8553   24.2253 N   0  0  0  0  0  0
  -23.4276  -30.4790   21.5425 C   0  0  2  0  0  0
  -24.8742  -28.9291   20.1070 C   0  0  0  0  0  0
  -22.7501  -29.4602   22.4908 C   0  0  0  0  0  0
  -18.0291  -28.1387   22.8482 C   0  0  0  0  0  0
  -24.1491  -36.7283   23.2641 C   0  0  0  0  0  0
  -25.9744  -30.7655   21.3819 C   0  0  0  0  0  0
  -26.0451  -29.3890   20.7221 C   0  0  0  0  0  0
  -27.2162  -28.5645   20.7244 C   0  0  0  0  0  0
  -26.0266  -26.8799   19.4602 C   0  0  0  0  0  0
  -24.8709  -27.6831   19.4646 C   0  0  0  0  0  0
  -23.6454  -29.8160   20.1573 C   0  0  0  0  0  0
  -25.4118  -36.3066   24.0324 C   0  0  1  0  0  0
  -20.5895  -28.3702   23.1264 C   0  0  2  0  0  0
  -20.6782  -26.9420   22.5407 C   0  0  0  0  0  0
  -19.5758  -26.6385   21.5212 C   0  0  0  0  0  0
  -18.1935  -26.7929   22.1620 C   0  0  0  0  0  0
  -19.1545  -28.8861   23.2866 C   0  0  0  0  0  0
  -18.9468  -30.1460   23.8889 C   0  0  0  0  0  0
  -17.6468  -30.6588   24.0564 C   0  0  0  0  0  0
  -25.9059  -34.9436   23.5092 C   0  0  0  0  0  0
  -16.5358  -29.9088   23.6335 C   0  0  0  0  0  0
  -16.7279  -28.6503   23.0356 C   0  0  0  0  0  0
  -26.4506  -31.6578   25.0727 C   0  0  0  0  0  0
  -25.3722  -31.3732   26.1442 C   0  0  0  0  0  0
  -27.0366  -30.2993   24.6234 C   0  0  0  0  0  0
  -27.6055  -32.4327   25.7499 C   0  0  0  0  0  0
  -27.5577  -37.1798   24.8466 C   0  0  0  0  0  0
  -21.4208  -29.3045   22.3650 N   0  0  0  0  0  0
  -26.4293  -37.3765   23.9403 N   0  0  0  0  0  0
  -24.6967  -31.0515   22.0971 N   0  0  0  0  0  0
  -23.4202  -28.8138   23.3002 O   0  0  0  0  0  0
  -28.3054  -26.3560   20.2184 O   0  0  0  0  0  0
  -26.5634  -34.8913   22.4663 O   0  0  0  0  0  0
  -23.5465  -32.1376   23.7288 O   0  0  0  0  0  0
  -29.8215  -19.6841   18.6545 C   0  0  0  0  0  0
  -29.9861  -18.4528   17.9948 C   0  0  0  0  0  0
  -29.6289  -19.7680   20.0511 C   0  0  0  0  0  0
  -29.6512  -18.4849   20.7669 C   0  0  0  0  0  0
  -29.8654  -17.1953   20.1010 C   0  0  0  0  0  0
  -30.0014  -17.2335   18.6922 C   0  0  0  0  0  0
  -28.5304  -24.3613   18.6493 C   0  0  0  0  0  0
  -28.9048  -22.8481   18.7758 C   0  0  0  0  0  0
  -28.8162  -23.7626   20.9254 C   0  0  0  0  0  0
  -28.1030  -24.8678   20.0359 C   0  0  1  0  0  0
  -29.4853  -18.4976   22.2785 C   0  0  0  0  0  0
  -29.5863  -21.2361   20.7177 C   0  0  0  0  0  0
  -29.8476  -15.8542   20.7464 N   0  0  0  0  0  0
  -28.7441  -22.4271   20.1910 N   0  3  2  0  0  0
  -30.1110  -16.0898   17.9738 F   0  0  0  0  0  0
  -31.4752  -12.5594   19.1814 H   0  0  0  0  0  0
  -30.3711  -11.4608   19.9579 H   0  0  0  0  0  0
  -29.7924  -11.7348   17.5232 H   0  0  0  0  0  0
  -29.6453  -13.4618   17.7337 H   0  0  0  0  0  0
  -27.8889  -11.2863   18.9092 H   0  0  0  0  0  0
  -27.3834  -12.5353   17.8026 H   0  0  0  0  0  0
  -27.6465  -14.2558   19.4834 H   0  0  0  0  0  0
  -28.7142  -12.1516   21.4283 H   0  0  0  0  0  0
  -28.4228  -13.8286   21.8093 H   0  0  0  0  0  0
  -25.2766   -9.5688   22.4758 H   0  0  0  0  0  0
  -24.0005   -7.4641   22.7476 H   0  0  0  0  0  0
  -21.0848   -8.8779   19.8951 H   0  0  0  0  0  0
  -22.3704  -10.9676   19.6165 H   0  0  0  0  0  0
  -21.2008   -7.6150   23.9714 H   0  0  0  0  0  0
  -21.1481   -6.0524   25.9075 H   0  0  0  0  0  0
  -22.0599   -2.7611   23.2845 H   0  0  0  0  0  0
  -22.4103  -11.9869   22.4793 H   0  0  0  0  0  0
  -21.1096  -13.1227   22.2622 H   0  0  0  0  0  0
  -24.6551  -15.8463   20.5237 H   0  0  0  0  0  0
  -26.2707  -15.6318   20.0781 H   0  0  0  0  0  0
  -26.7205  -32.5395   23.1070 H   0  0  0  0  0  0
  -25.0074  -33.9688   25.0392 H   0  0  0  0  0  0
  -22.7242  -31.3017   21.3980 H   0  0  0  0  0  0
  -23.3751  -35.9619   23.3307 H   0  0  0  0  0  0
  -24.3575  -36.8906   22.2054 H   0  0  0  0  0  0
  -23.7255  -37.6488   23.6666 H   0  0  0  0  0  0
  -26.1172  -31.5265   20.6135 H   0  0  0  0  0  0
  -26.8505  -30.8109   22.0172 H   0  0  0  0  0  0
  -28.1081  -28.9077   21.2297 H   0  0  0  0  0  0
  -25.9530  -25.9424   18.9308 H   0  0  0  0  0  0
  -23.9778  -27.3319   18.9656 H   0  0  0  0  0  0
  -23.7691  -30.5942   19.4034 H   0  0  0  0  0  0
  -22.7633  -29.2503   19.8518 H   0  0  0  0  0  0
  -25.1302  -36.1912   25.0818 H   0  0  0  0  0  0
  -20.9984  -28.3287   24.1387 H   0  0  0  0  0  0
  -20.5690  -26.2313   23.3611 H   0  0  0  0  0  0
  -21.6648  -26.7448   22.1196 H   0  0  0  0  0  0
  -19.6925  -25.6295   21.1244 H   0  0  0  0  0  0
  -19.6697  -27.3192   20.6738 H   0  0  0  0  0  0
  -17.4207  -26.6675   21.4021 H   0  0  0  0  0  0
  -18.0336  -26.0070   22.9015 H   0  0  0  0  0  0
  -19.7944  -30.7275   24.2255 H   0  0  0  0  0  0
  -17.5025  -31.6269   24.5167 H   0  0  0  0  0  0
  -15.5359  -30.2990   23.7664 H   0  0  0  0  0  0
  -15.8675  -28.0823   22.7079 H   0  0  0  0  0  0
  -24.5907  -30.7071   25.7768 H   0  0  0  0  0  0
  -24.8901  -32.2901   26.4841 H   0  0  0  0  0  0
  -25.8031  -30.8927   27.0236 H   0  0  0  0  0  0
  -26.2964  -29.6722   24.1252 H   0  0  0  0  0  0
  -27.4034  -29.7276   25.4769 H   0  0  0  0  0  0
  -27.8845  -30.4262   23.9498 H   0  0  0  0  0  0
  -27.2662  -33.3641   26.2044 H   0  0  0  0  0  0
  -28.3878  -32.6865   25.0334 H   0  0  0  0  0  0
  -28.0707  -31.8473   26.5441 H   0  0  0  0  0  0
  -28.2596  -38.0093   24.7504 H   0  0  0  0  0  0
  -28.1072  -36.2622   24.6306 H   0  0  0  0  0  0
  -27.2290  -37.1467   25.8869 H   0  0  0  0  0  0
  -20.9395  -29.8771   21.6857 H   0  0  0  0  0  0
  -26.0171  -38.2839   24.1396 H   0  0  0  0  0  0
  -29.8749  -20.5683   18.0431 H   0  0  0  0  0  0
  -30.1105  -18.4409   16.9218 H   0  0  0  0  0  0
  -27.7483  -24.5255   17.9084 H   0  0  0  0  0  0
  -29.4057  -24.9179   18.3139 H   0  0  0  0  0  0
  -29.9449  -22.7240   18.4718 H   0  0  0  0  0  0
  -28.2864  -22.2312   18.1233 H   0  0  0  0  0  0
  -28.3650  -23.6934   21.9157 H   0  0  0  0  0  0
  -29.8634  -24.0337   21.0658 H   0  0  0  0  0  0
  -27.0476  -24.6362   20.1740 H   0  0  0  0  0  0
  -28.5159  -18.9148   22.5516 H   0  0  0  0  0  0
  -30.2649  -19.1029   22.7415 H   0  0  0  0  0  0
  -29.5481  -17.5028   22.7176 H   0  0  0  0  0  0
  -30.6214  -21.5763   20.7546 H   0  0  0  0  0  0
  -29.2963  -21.1167   21.7605 H   0  0  0  0  0  0
  -29.0015  -15.6526   21.2557 H   0  0  0  0  0  0
  -27.7860  -22.1173   20.2719 H   0  0  0  0  0  0
  1 25  1  0  0  0
  1 30  2  0  0  0
  1 83  1  0  0  0
  2  3  1  0  0  0
  2 25  1  0  0  0
  2 86  1  0  0  0
  2 87  1  0  0  0
  3  4  1  0  0  0
  3 88  1  0  0  0
  3 89  1  0  0  0
  4  5  1  0  0  0
  4 90  1  0  0  0
  4 91  1  0  0  0
  5  6  1  0  0  0
  5 26  1  0  0  0
  5 92  1  0  0  0
  6 25  1  0  0  0
  6 93  1  0  0  0
  6 94  1  0  0  0
  7  8  2  0  0  0
  7 26  1  0  0  0
  7 29  1  0  0  0
  8  9  1  0  0  0
  8 22  1  0  0  0
  9 10  1  0  0  0
  9 27  2  0  0  0
 10 11  2  0  0  0
 10 15  1  0  0  0
 11 12  1  0  0  0
 11 95  1  0  0  0
 12 13  2  0  0  0
 12 96  1  0  0  0
 13 14  1  0  0  0
 13 31  1  0  0  0
 14 15  2  0  0  0
 14 97  1  0  0  0
 15 98  1  0  0  0
 16 17  2  0  0  0
 16 21  1  0  0  0
 16 31  1  0  0  0
 17 18  1  0  0  0
 17 99  1  0  0  0
 18 19  2  0  0  0
 18100  1  0  0  0
 19 20  1  0  0  0
 19 24  1  0  0  0
 20 21  2  0  0  0
 20101  1  0  0  0
 21 23  1  0  0  0
 22 28  1  0  0  0
 22 32  2  0  0  0
 26 27  1  0  0  0
 28102  1  0  0  0
 28103  1  0  0  0
 29104  1  0  0  0
 29105  1  0  0  0
 33 34  1  0  0  0
 33 66  1  0  0  0
 33 70  2  0  0  0
 34 36  1  0  0  0
 34 59  1  0  0  0
 34106  1  0  0  0
 35 44  2  0  0  0
 35 45  1  0  0  0
 35 68  1  0  0  0
 36 56  1  0  0  0
 36107  1  0  0  0
 37 39  1  0  0  0
 37 47  1  0  0  0
 37 66  1  0  0  0
 37108  1  0  0  0
 38 43  2  0  0  0
 38 46  1  0  0  0
 38 47  1  0  0  0
 39 64  1  0  0  0
 39 67  2  0  0  0
 40 52  1  0  0  0
 40 53  2  0  0  0
 40 58  1  0  0  0
 41109  1  0  0  0
 41110  1  0  0  0
 41111  1  0  0  0
 41 48  1  0  0  0
 42 43  1  0  0  0
 42 66  1  0  0  0
 42112  1  0  0  0
 42113  1  0  0  0
 43 44  1  0  0  0
 44114  1  0  0  0
 45 46  2  0  0  0
 45115  1  0  0  0
 46116  1  0  0  0
 47117  1  0  0  0
 47118  1  0  0  0
 48 56  1  0  0  0
 48 65  1  0  0  0
 48119  1  0  0  0
 49 50  1  0  0  0
 49 53  1  0  0  0
 49 64  1  0  0  0
 49120  1  0  0  0
 50 51  1  0  0  0
 50121  1  0  0  0
 50122  1  0  0  0
 51 52  1  0  0  0
 51123  1  0  0  0
 51124  1  0  0  0
 52125  1  0  0  0
 52126  1  0  0  0
 53 54  1  0  0  0
 54 55  2  0  0  0
 54127  1  0  0  0
 55 57  1  0  0  0
 55128  1  0  0  0
 56 69  2  0  0  0
 57 58  2  0  0  0
 57129  1  0  0  0
 58130  1  0  0  0
 59 60  1  0  0  0
 59 61  1  0  0  0
 59 62  1  0  0  0
 60131  1  0  0  0
 60132  1  0  0  0
 60133  1  0  0  0
 61134  1  0  0  0
 61135  1  0  0  0
 61136  1  0  0  0
 62137  1  0  0  0
 62138  1  0  0  0
 62139  1  0  0  0
 63 65  1  0  0  0
 63140  1  0  0  0
 63141  1  0  0  0
 63142  1  0  0  0
 64143  1  0  0  0
 65144  1  0  0  0
 68 80  1  0  0  0
 71 72  2  0  0  0
 71 73  1  0  0  0
 71145  1  0  0  0
 72 76  1  0  0  0
 72146  1  0  0  0
 73 74  2  0  0  0
 73 82  1  0  0  0
 74 75  1  0  0  0
 74 81  1  0  0  0
 75 76  2  0  0  0
 75 83  1  0  0  0
 76 85  1  0  0  0
 77 78  1  0  0  0
 77 80  1  0  0  0
 77147  1  0  0  0
 77148  1  0  0  0
 78 84  1  0  0  0
 78149  1  0  0  0
 78150  1  0  0  0
 79 80  1  0  0  0
 79 84  1  0  0  0
 79151  1  0  0  0
 79152  1  0  0  0
 80153  1  0  0  0
 81154  1  0  0  0
 81155  1  0  0  0
 81156  1  0  0  0
 82157  1  0  0  0
 82158  1  0  0  0
 82 84  1  0  0  0
 83159  1  0  0  0
 84160  1  0  0  0
M  CHG  1  84   1
M  ISO  4   1 100  68 101  80 101  83 100
M  END
> <chiral flag>
0

> <version>
0

> <s_m_source_file>
/data/baiqing/PycharmProjects/Reinvent-master-3.2/result/LINK_invent/BTK/process_docking_weight1_custom_product_contain_oxygen_bond_distance_aromatic_linkinvent_7_9_3/rearranged_h_0030.sdf

> <i_m_source_file_index>
34

> <r_mmod_Potential_Energy-OPLS-2005>
95.3711700439453

> <r_mmod_Stretch_Energy-OPLS-2005>
127.53018951416

> <r_mmod_Bend_Energy-OPLS-2005>
197.122543334961

> <r_mmod_Torsional_Energy-OPLS-2005>
292.726959228516

> <r_mmod_Improper_Torsional_Energy-OPLS-2005>
5.08645009994507

> <r_mmod_Van_der_Waal_Energy-OPLS-2005>
141.036346435547

> <r_mmod_Electrostatic_Energy-OPLS-2005>
-295.805389404297

> <r_mmod_Solvation_Energy-OPLS-2005>
-456.940582275391

> <b_mmod_Minimization_Converged-OPLS-2005>
0

> <r_mmod_RMS_Derivative-OPLS-2005>
0.395234346389771

$$$$
34
                    3D
 Structure written by MMmdl.
166175  0  0  1  0            999 V2000
  -30.6755  -14.5341   20.5183 C   0  0  0  0  0  0
  -30.4289  -12.3300   19.4442 C   0  0  0  0  0  0
  -29.4983  -12.4764   18.2209 C   0  0  0  0  0  0
  -28.0210  -12.3369   18.6395 C   0  0  0  0  0  0
  -27.6572  -13.2080   19.8715 C   0  0  2  0  0  0
  -28.7002  -13.0367   21.0004 C   0  0  0  0  0  0
  -25.2577  -13.8153   20.5682 C   0  0  0  0  0  0
  -24.1831  -13.0426   20.9211 C   0  0  0  0  0  0
  -24.6399  -11.6891   20.8749 C   0  0  0  0  0  0
  -23.9062  -10.4296   21.0432 C   0  0  0  0  0  0
  -24.3613   -9.4207   21.9203 C   0  0  0  0  0  0
  -23.6290   -8.2243   22.0747 C   0  0  0  0  0  0
  -22.4262   -8.0298   21.3548 C   0  0  0  0  0  0
  -21.9902   -9.0268   20.4642 C   0  0  0  0  0  0
  -22.7237  -10.2148   20.3083 C   0  0  0  0  0  0
  -21.6845   -6.0760   22.5288 C   0  0  0  0  0  0
  -21.4011   -6.5662   23.8233 C   0  0  0  0  0  0
  -21.3655   -5.6812   24.9195 C   0  0  0  0  0  0
  -21.6031   -4.3074   24.7229 C   0  0  0  0  0  0
  -21.8812   -3.8170   23.4351 C   0  0  0  0  0  0
  -21.9188   -4.6986   22.3407 C   0  0  0  0  0  0
  -22.7863  -13.5220   21.1870 C   0  0  0  0  0  0
  -22.1653   -4.2183   21.0983 F   0  0  0  0  0  0
  -21.5613   -3.4547   25.7738 F   0  0  0  0  0  0
  -30.0256  -13.3386   20.4391 N   0  0  0  0  0  0
  -26.2998  -12.9326   20.3352 N   0  0  0  0  0  0
  -25.9324  -11.6486   20.5780 N   0  0  0  0  0  0
  -22.0481  -12.8247   22.0435 N   0  0  0  0  0  0
  -25.4258  -15.1882   20.4080 N   0  0  0  0  0  0
  -31.8346  -14.6796   20.1189 O   0  0  0  0  0  0
  -21.6617   -6.8902   21.4257 O   0  0  0  0  0  0
  -22.3559  -14.5526   20.6705 O   0  0  0  0  0  0
  -24.6199  -31.8671   23.2099 C   0  0  0  0  0  0
  -25.9069  -32.4820   23.8401 C   0  0  1  0  0  0
  -27.2071  -27.3798   20.0988 C   0  0  0  0  0  0
  -25.5916  -33.8611   24.2340 N   0  0  0  0  0  0
  -23.4081  -30.4943   21.5523 C   0  0  2  0  0  0
  -24.8477  -28.9648   20.1152 C   0  0  0  0  0  0
  -22.7423  -29.4649   22.4973 C   0  0  0  0  0  0
  -18.0277  -28.1356   22.8489 C   0  0  0  0  0  0
  -24.1495  -36.7310   23.2630 C   0  0  0  0  0  0
  -25.9448  -30.8191   21.3678 C   0  0  0  0  0  0
  -26.0194  -29.4524   20.7095 C   0  0  0  0  0  0
  -27.2050  -28.6709   20.6933 C   0  0  0  0  0  0
  -26.0148  -26.9373   19.4843 C   0  0  0  0  0  0
  -24.8439  -27.7076   19.4990 C   0  0  0  0  0  0
  -23.6167  -29.8377   20.1657 C   0  0  0  0  0  0
  -25.4111  -36.3101   24.0339 C   0  0  1  0  0  0
  -20.5865  -28.3650   23.1303 C   0  0  2  0  0  0
  -20.6759  -26.9389   22.5399 C   0  0  0  0  0  0
  -19.5742  -26.6380   21.5192 C   0  0  0  0  0  0
  -18.1925  -26.7904   22.1616 C   0  0  0  0  0  0
  -19.1531  -28.8822   23.2894 C   0  0  0  0  0  0
  -18.9455  -30.1425   23.8915 C   0  0  0  0  0  0
  -17.6462  -30.6570   24.0553 C   0  0  0  0  0  0
  -25.9046  -34.9477   23.5137 C   0  0  0  0  0  0
  -16.5351  -29.9068   23.6316 C   0  0  0  0  0  0
  -16.7270  -28.6473   23.0360 C   0  0  0  0  0  0
  -26.4491  -31.6577   25.0718 C   0  0  0  0  0  0
  -25.3769  -31.3675   26.1477 C   0  0  0  0  0  0
  -27.0292  -30.3011   24.6078 C   0  0  0  0  0  0
  -27.6092  -32.4268   25.7463 C   0  0  0  0  0  0
  -27.5584  -37.1801   24.8468 C   0  0  0  0  0  0
  -21.4154  -29.3032   22.3713 N   0  0  0  0  0  0
  -26.4299  -37.3789   23.9415 N   0  0  0  0  0  0
  -24.6761  -31.0748   22.1012 N   0  0  0  0  0  0
  -23.4187  -28.8171   23.3004 O   0  0  0  0  0  0
  -28.3351  -26.5674   20.1272 O   0  0  0  0  0  0
  -26.5609  -34.8919   22.4696 O   0  0  0  0  0  0
  -23.5377  -32.1436   23.7482 O   0  0  0  0  0  0
  -29.5519  -18.0159   22.5754 C   0  0  0  0  0  0
  -30.0718  -19.5049   20.7281 C   0  0  0  0  0  0
  -29.9013  -18.1827   21.2226 C   0  0  0  0  0  0
  -29.4281  -19.1331   23.4286 C   0  0  0  0  0  0
  -29.9349  -20.6514   21.5607 C   0  0  0  0  0  0
  -29.6203  -20.4514   22.9362 C   0  0  0  0  0  0
  -27.9406  -24.2482   19.1016 C   0  0  0  0  0  0
  -28.3416  -22.8235   19.5426 C   0  0  0  0  0  0
  -29.2935  -24.4163   21.0355 C   0  0  0  0  0  0
  -28.1161  -25.1369   20.3504 C   0  0  1  0  0  0
  -29.1307  -18.8853   24.8992 C   0  0  0  0  0  0
  -29.5334  -21.6149   23.9263 C   0  0  0  0  0  0
  -30.1678  -16.9791   20.2981 C   0  0  0  0  0  0
  -30.2433  -22.0586   20.9909 C   0  0  0  0  0  0
  -29.9056  -15.6068   20.8048 N   0  0  0  0  0  0
  -29.0573  -22.9535   20.8303 N   0  3  2  0  0  0
  -31.4718  -12.4397   19.1363 H   0  0  0  0  0  0
  -30.3507  -11.3311   19.8756 H   0  0  0  0  0  0
  -29.7460  -11.7235   17.4716 H   0  0  0  0  0  0
  -29.6558  -13.4440   17.7462 H   0  0  0  0  0  0
  -27.8440  -11.2846   18.8651 H   0  0  0  0  0  0
  -27.3651  -12.5803   17.8028 H   0  0  0  0  0  0
  -27.6845  -14.2468   19.5414 H   0  0  0  0  0  0
  -28.6834  -12.0112   21.3766 H   0  0  0  0  0  0
  -28.4632  -13.6734   21.8556 H   0  0  0  0  0  0
  -25.2779   -9.5665   22.4769 H   0  0  0  0  0  0
  -23.9999   -7.4622   22.7447 H   0  0  0  0  0  0
  -21.0841   -8.8792   19.8939 H   0  0  0  0  0  0
  -22.3711  -10.9687   19.6188 H   0  0  0  0  0  0
  -21.2024   -7.6172   23.9751 H   0  0  0  0  0  0
  -21.1463   -6.0537   25.9095 H   0  0  0  0  0  0
  -22.0592   -2.7633   23.2845 H   0  0  0  0  0  0
  -22.4051  -11.9949   22.4945 H   0  0  0  0  0  0
  -21.1085  -13.1278   22.2552 H   0  0  0  0  0  0
  -24.6562  -15.8356   20.5389 H   0  0  0  0  0  0
  -26.2687  -15.6375   20.0722 H   0  0  0  0  0  0
  -26.7127  -32.5520   23.1146 H   0  0  0  0  0  0
  -25.0040  -33.9772   25.0466 H   0  0  0  0  0  0
  -22.6970  -31.3112   21.4150 H   0  0  0  0  0  0
  -23.3754  -35.9646   23.3299 H   0  0  0  0  0  0
  -24.3596  -36.8910   22.2043 H   0  0  0  0  0  0
  -23.7255  -37.6520   23.6638 H   0  0  0  0  0  0
  -26.0646  -31.5862   20.6017 H   0  0  0  0  0  0
  -26.8315  -30.8693   21.9882 H   0  0  0  0  0  0
  -28.1080  -29.0411   21.1588 H   0  0  0  0  0  0
  -25.9484  -25.9936   18.9767 H   0  0  0  0  0  0
  -23.9453  -27.3273   19.0320 H   0  0  0  0  0  0
  -23.7351  -30.6166   19.4116 H   0  0  0  0  0  0
  -22.7383  -29.2652   19.8623 H   0  0  0  0  0  0
  -25.1283  -36.1962   25.0833 H   0  0  0  0  0  0
  -20.9971  -28.3212   24.1422 H   0  0  0  0  0  0
  -20.5635  -26.2265   23.3582 H   0  0  0  0  0  0
  -21.6631  -26.7403   22.1210 H   0  0  0  0  0  0
  -19.6899  -25.6303   21.1198 H   0  0  0  0  0  0
  -19.6675  -27.3205   20.6734 H   0  0  0  0  0  0
  -17.4184  -26.6646   21.4027 H   0  0  0  0  0  0
  -18.0342  -26.0033   22.9006 H   0  0  0  0  0  0
  -19.7938  -30.7222   24.2305 H   0  0  0  0  0  0
  -17.5021  -31.6260   24.5138 H   0  0  0  0  0  0
  -15.5353  -30.2984   23.7628 H   0  0  0  0  0  0
  -15.8661  -28.0792   22.7094 H   0  0  0  0  0  0
  -24.5974  -30.6971   25.7830 H   0  0  0  0  0  0
  -24.8932  -32.2822   26.4916 H   0  0  0  0  0  0
  -25.8162  -30.8872   27.0233 H   0  0  0  0  0  0
  -26.2803  -29.6769   24.1185 H   0  0  0  0  0  0
  -27.4107  -29.7243   25.4511 H   0  0  0  0  0  0
  -27.8637  -30.4308   23.9182 H   0  0  0  0  0  0
  -27.2755  -33.3578   26.2051 H   0  0  0  0  0  0
  -28.3905  -32.6788   25.0280 H   0  0  0  0  0  0
  -28.0749  -31.8363   26.5363 H   0  0  0  0  0  0
  -28.2620  -38.0080   24.7508 H   0  0  0  0  0  0
  -28.1067  -36.2620   24.6309 H   0  0  0  0  0  0
  -27.2310  -37.1457   25.8873 H   0  0  0  0  0  0
  -20.9301  -29.8777   21.6967 H   0  0  0  0  0  0
  -26.0189  -38.2869   24.1416 H   0  0  0  0  0  0
  -29.4122  -17.0218   22.9759 H   0  0  0  0  0  0
  -30.3590  -19.6312   19.6922 H   0  0  0  0  0  0
  -26.9330  -24.2248   18.6954 H   0  0  0  0  0  0
  -28.6037  -24.5948   18.3093 H   0  0  0  0  0  0
  -28.9523  -22.3480   18.7733 H   0  0  0  0  0  0
  -27.4694  -22.1857   19.6953 H   0  0  0  0  0  0
  -29.3705  -24.6738   22.0924 H   0  0  0  0  0  0
  -30.2286  -24.7115   20.5557 H   0  0  0  0  0  0
  -27.2439  -25.0055   20.9958 H   0  0  0  0  0  0
  -29.0460  -17.8209   25.1163 H   0  0  0  0  0  0
  -28.1906  -19.3564   25.1879 H   0  0  0  0  0  0
  -29.9323  -19.2860   25.5223 H   0  0  0  0  0  0
  -28.6011  -21.5784   24.4903 H   0  0  0  0  0  0
  -29.5720  -22.5967   23.4656 H   0  0  0  0  0  0
  -30.3560  -21.5712   24.6408 H   0  0  0  0  0  0
  -31.2032  -17.0694   19.9645 H   0  0  0  0  0  0
  -29.5658  -17.1105   19.3978 H   0  0  0  0  0  0
  -30.7731  -21.9752   20.0412 H   0  0  0  0  0  0
  -30.9613  -22.5325   21.6592 H   0  0  0  0  0  0
  -28.9604  -15.4084   21.0989 H   0  0  0  0  0  0
  -28.3971  -22.6662   21.5399 H   0  0  0  0  0  0
  1 25  1  0  0  0
  1 30  2  0  0  0
  1 85  1  0  0  0
  2  3  1  0  0  0
  2 25  1  0  0  0
  2 87  1  0  0  0
  2 88  1  0  0  0
  3  4  1  0  0  0
  3 89  1  0  0  0
  3 90  1  0  0  0
  4  5  1  0  0  0
  4 91  1  0  0  0
  4 92  1  0  0  0
  5  6  1  0  0  0
  5 26  1  0  0  0
  5 93  1  0  0  0
  6 25  1  0  0  0
  6 94  1  0  0  0
  6 95  1  0  0  0
  7  8  2  0  0  0
  7 26  1  0  0  0
  7 29  1  0  0  0
  8  9  1  0  0  0
  8 22  1  0  0  0
  9 10  1  0  0  0
  9 27  2  0  0  0
 10 11  2  0  0  0
 10 15  1  0  0  0
 11 12  1  0  0  0
 11 96  1  0  0  0
 12 13  2  0  0  0
 12 97  1  0  0  0
 13 14  1  0  0  0
 13 31  1  0  0  0
 14 15  2  0  0  0
 14 98  1  0  0  0
 15 99  1  0  0  0
 16 17  2  0  0  0
 16 21  1  0  0  0
 16 31  1  0  0  0
 17 18  1  0  0  0
 17100  1  0  0  0
 18 19  2  0  0  0
 18101  1  0  0  0
 19 20  1  0  0  0
 19 24  1  0  0  0
 20 21  2  0  0  0
 20102  1  0  0  0
 21 23  1  0  0  0
 22 28  1  0  0  0
 22 32  2  0  0  0
 26 27  1  0  0  0
 28103  1  0  0  0
 28104  1  0  0  0
 29105  1  0  0  0
 29106  1  0  0  0
 33 34  1  0  0  0
 33 66  1  0  0  0
 33 70  2  0  0  0
 34 36  1  0  0  0
 34 59  1  0  0  0
 34107  1  0  0  0
 35 44  2  0  0  0
 35 45  1  0  0  0
 35 68  1  0  0  0
 36 56  1  0  0  0
 36108  1  0  0  0
 37 39  1  0  0  0
 37 47  1  0  0  0
 37 66  1  0  0  0
 37109  1  0  0  0
 38 43  2  0  0  0
 38 46  1  0  0  0
 38 47  1  0  0  0
 39 64  1  0  0  0
 39 67  2  0  0  0
 40 52  1  0  0  0
 40 53  2  0  0  0
 40 58  1  0  0  0
 41110  1  0  0  0
 41111  1  0  0  0
 41112  1  0  0  0
 41 48  1  0  0  0
 42 43  1  0  0  0
 42 66  1  0  0  0
 42113  1  0  0  0
 42114  1  0  0  0
 43 44  1  0  0  0
 44115  1  0  0  0
 45 46  2  0  0  0
 45116  1  0  0  0
 46117  1  0  0  0
 47118  1  0  0  0
 47119  1  0  0  0
 48 56  1  0  0  0
 48 65  1  0  0  0
 48120  1  0  0  0
 49 50  1  0  0  0
 49 53  1  0  0  0
 49 64  1  0  0  0
 49121  1  0  0  0
 50 51  1  0  0  0
 50122  1  0  0  0
 50123  1  0  0  0
 51 52  1  0  0  0
 51124  1  0  0  0
 51125  1  0  0  0
 52126  1  0  0  0
 52127  1  0  0  0
 53 54  1  0  0  0
 54 55  2  0  0  0
 54128  1  0  0  0
 55 57  1  0  0  0
 55129  1  0  0  0
 56 69  2  0  0  0
 57 58  2  0  0  0
 57130  1  0  0  0
 58131  1  0  0  0
 59 60  1  0  0  0
 59 61  1  0  0  0
 59 62  1  0  0  0
 60132  1  0  0  0
 60133  1  0  0  0
 60134  1  0  0  0
 61135  1  0  0  0
 61136  1  0  0  0
 61137  1  0  0  0
 62138  1  0  0  0
 62139  1  0  0  0
 62140  1  0  0  0
 63 65  1  0  0  0
 63141  1  0  0  0
 63142  1  0  0  0
 63143  1  0  0  0
 64144  1  0  0  0
 65145  1  0  0  0
 68 80  1  0  0  0
 71 73  2  0  0  0
 71 74  1  0  0  0
 71146  1  0  0  0
 72 73  1  0  0  0
 72 75  2  0  0  0
 72147  1  0  0  0
 73 83  1  0  0  0
 74 76  2  0  0  0
 74 81  1  0  0  0
 75 76  1  0  0  0
 75 84  1  0  0  0
 76 82  1  0  0  0
 77 78  1  0  0  0
 77 80  1  0  0  0
 77148  1  0  0  0
 77149  1  0  0  0
 78 86  1  0  0  0
 78150  1  0  0  0
 78151  1  0  0  0
 79 80  1  0  0  0
 79 86  1  0  0  0
 79152  1  0  0  0
 79153  1  0  0  0
 80154  1  0  0  0
 81155  1  0  0  0
 81156  1  0  0  0
 81157  1  0  0  0
 82158  1  0  0  0
 82159  1  0  0  0
 82160  1  0  0  0
 83 85  1  0  0  0
 83161  1  0  0  0
 83162  1  0  0  0
 84163  1  0  0  0
 84164  1  0  0  0
 84 86  1  0  0  0
 85165  1  0  0  0
 86166  1  0  0  0
M  CHG  1  86   1
M  ISO  4   1 100  68 101  80 101  85 100
M  END
> <chiral flag>
0

> <version>
0

> <s_m_source_file>
/data/baiqing/PycharmProjects/Reinvent-master-3.2/result/LINK_invent/BTK/process_docking_weight1_custom_product_contain_oxygen_bond_distance_aromatic_linkinvent_7_9_3/rearranged_h_0030.sdf

> <i_m_source_file_index>
35

> <r_mmod_Potential_Energy-OPLS-2005>
-137.556854248047

> <r_mmod_Stretch_Energy-OPLS-2005>
49.4209365844727

> <r_mmod_Bend_Energy-OPLS-2005>
131.017288208008

> <r_mmod_Torsional_Energy-OPLS-2005>
264.446899414062

> <r_mmod_Improper_Torsional_Energy-OPLS-2005>
7.81701183319092

> <r_mmod_Van_der_Waal_Energy-OPLS-2005>
154.356048583984

> <r_mmod_Electrostatic_Energy-OPLS-2005>
-342.798767089844

> <r_mmod_Solvation_Energy-OPLS-2005>
-427.677032470703

> <b_mmod_Minimization_Converged-OPLS-2005>
0

> <r_mmod_RMS_Derivative-OPLS-2005>
3.57834076881409

$$$$
35
                    3D
 Structure written by MMmdl.
157166  0  0  1  0            999 V2000
  -30.6035  -14.8370   20.4447 C   0  0  0  0  0  0
  -30.4282  -12.5103   19.4967 C   0  0  0  0  0  0
  -29.5161  -12.5184   18.2505 C   0  0  0  0  0  0
  -28.0450  -12.3289   18.6618 C   0  0  0  0  0  0
  -27.6354  -13.2441   19.8457 C   0  0  2  0  0  0
  -28.6776  -13.2333   20.9862 C   0  0  0  0  0  0
  -25.2462  -13.8203   20.5668 C   0  0  0  0  0  0
  -24.1785  -13.0434   20.9225 C   0  0  0  0  0  0
  -24.6398  -11.6919   20.8760 C   0  0  0  0  0  0
  -23.9082  -10.4291   21.0409 C   0  0  0  0  0  0
  -24.3627   -9.4206   21.9184 C   0  0  0  0  0  0
  -23.6294   -8.2245   22.0753 C   0  0  0  0  0  0
  -22.4278   -8.0288   21.3545 C   0  0  0  0  0  0
  -21.9916   -9.0267   20.4650 C   0  0  0  0  0  0
  -22.7250  -10.2139   20.3061 C   0  0  0  0  0  0
  -21.6858   -6.0738   22.5277 C   0  0  0  0  0  0
  -21.4024   -6.5638   23.8212 C   0  0  0  0  0  0
  -21.3653   -5.6788   24.9169 C   0  0  0  0  0  0
  -21.6043   -4.3053   24.7221 C   0  0  0  0  0  0
  -21.8818   -3.8147   23.4343 C   0  0  0  0  0  0
  -21.9193   -4.6965   22.3400 C   0  0  0  0  0  0
  -22.7802  -13.5209   21.1870 C   0  0  0  0  0  0
  -22.1658   -4.2146   21.0975 F   0  0  0  0  0  0
  -21.5622   -3.4537   25.7736 F   0  0  0  0  0  0
  -29.9709  -13.6033   20.3985 N   0  0  0  0  0  0
  -26.2905  -12.9441   20.3253 N   0  0  0  0  0  0
  -25.9337  -11.6575   20.5755 N   0  0  0  0  0  0
  -22.0439  -12.8218   22.0431 N   0  0  0  0  0  0
  -25.4088  -15.1920   20.3996 N   0  0  0  0  0  0
  -31.7869  -14.8622   20.1030 O   0  0  0  0  0  0
  -21.6641   -6.8888   21.4242 O   0  0  0  0  0  0
  -22.3488  -14.5504   20.6693 O   0  0  0  0  0  0
  -24.6360  -31.8490   23.1919 C   0  0  0  0  0  0
  -25.9163  -32.4718   23.8287 C   0  0  1  0  0  0
  -27.2230  -27.2075   20.1415 C   0  0  0  0  0  0
  -25.5940  -33.8522   24.2213 N   0  0  0  0  0  0
  -23.4356  -30.4681   21.5349 C   0  0  2  0  0  0
  -24.8854  -28.9024   20.1049 C   0  0  0  0  0  0
  -22.7525  -29.4567   22.4871 C   0  0  0  0  0  0
  -18.0298  -28.1398   22.8470 C   0  0  0  0  0  0
  -24.1485  -36.7262   23.2632 C   0  0  0  0  0  0
  -25.9838  -30.7448   21.3782 C   0  0  0  0  0  0
  -26.0552  -29.3614   20.7222 C   0  0  0  0  0  0
  -27.2224  -28.5249   20.7301 C   0  0  0  0  0  0
  -26.0335  -26.8272   19.4849 C   0  0  0  0  0  0
  -24.8830  -27.6467   19.4735 C   0  0  0  0  0  0
  -23.6577  -29.7961   20.1521 C   0  0  0  0  0  0
  -25.4112  -36.3043   24.0317 C   0  0  1  0  0  0
  -20.5903  -28.3710   23.1254 C   0  0  2  0  0  0
  -20.6783  -26.9418   22.5411 C   0  0  0  0  0  0
  -19.5761  -26.6382   21.5211 C   0  0  0  0  0  0
  -18.1940  -26.7937   22.1617 C   0  0  0  0  0  0
  -19.1552  -28.8871   23.2857 C   0  0  0  0  0  0
  -18.9473  -30.1467   23.8888 C   0  0  0  0  0  0
  -17.6470  -30.6591   24.0565 C   0  0  0  0  0  0
  -25.9068  -34.9418   23.5073 C   0  0  0  0  0  0
  -16.5362  -29.9089   23.6331 C   0  0  0  0  0  0
  -16.7282  -28.6509   23.0345 C   0  0  0  0  0  0
  -26.4515  -31.6562   25.0695 C   0  0  0  0  0  0
  -25.3727  -31.3735   26.1409 C   0  0  0  0  0  0
  -27.0369  -30.2973   24.6211 C   0  0  0  0  0  0
  -27.6068  -32.4309   25.7473 C   0  0  0  0  0  0
  -27.5587  -37.1762   24.8446 C   0  0  0  0  0  0
  -21.4223  -29.3042   22.3625 N   0  0  0  0  0  0
  -26.4273  -37.3761   23.9430 N   0  0  0  0  0  0
  -24.7044  -31.0407   22.0913 N   0  0  0  0  0  0
  -23.4200  -28.8113   23.2997 O   0  0  0  0  0  0
  -28.3099  -26.2959   20.2565 O   0  0  0  0  0  0
  -26.5652  -34.8910   22.4651 O   0  0  0  0  0  0
  -23.5497  -32.1340   23.7184 O   0  0  0  0  0  0
  -30.8819  -20.3464   20.6014 C   0  0  0  0  0  0
  -31.8504  -19.3284   20.6684 C   0  0  0  0  0  0
  -29.5079  -20.0494   20.5806 C   0  0  0  0  0  0
  -29.1748  -18.6032   20.5740 C   0  0  0  0  0  0
  -30.1717  -17.5053   20.6204 C   0  0  0  0  0  0
  -31.5191  -17.9591   20.7080 C   0  0  0  0  0  0
  -27.4197  -23.6712   20.2737 C   0  0  0  0  0  0
  -29.4095  -23.8276   20.2745 C   0  0  0  0  0  0
  -28.3150  -24.8516   19.7557 C   0  0  2  0  0  0
  -27.7035  -18.2218   20.5665 C   0  0  0  0  0  0
  -28.5030  -21.3177   20.7817 C   0  0  0  0  0  0
  -29.8528  -16.0139   20.6557 N   0  0  0  0  0  0
  -28.5077  -22.6643   19.9845 N   0  3  1  0  0  0
  -32.5494  -17.1065   20.8956 F   0  0  0  0  0  0
  -31.4704  -12.6235   19.1937 H   0  0  0  0  0  0
  -30.3754  -11.5474   20.0070 H   0  0  0  0  0  0
  -29.8153  -11.7343   17.5536 H   0  0  0  0  0  0
  -29.6329  -13.4640   17.7173 H   0  0  0  0  0  0
  -27.9158  -11.2826   18.9420 H   0  0  0  0  0  0
  -27.3902  -12.4980   17.8067 H   0  0  0  0  0  0
  -27.6129  -14.2554   19.4386 H   0  0  0  0  0  0
  -28.7312  -12.2504   21.4569 H   0  0  0  0  0  0
  -28.3943  -13.9361   21.7720 H   0  0  0  0  0  0
  -25.2772   -9.5670   22.4762 H   0  0  0  0  0  0
  -23.9991   -7.4638   22.7480 H   0  0  0  0  0  0
  -21.0839   -8.8806   19.8961 H   0  0  0  0  0  0
  -22.3718  -10.9687   19.6176 H   0  0  0  0  0  0
  -21.2027   -7.6149   23.9718 H   0  0  0  0  0  0
  -21.1467   -6.0516   25.9070 H   0  0  0  0  0  0
  -22.0601   -2.7609   23.2851 H   0  0  0  0  0  0
  -22.4053  -11.9896   22.4855 H   0  0  0  0  0  0
  -21.1058  -13.1260   22.2604 H   0  0  0  0  0  0
  -24.6200  -15.8265   20.4690 H   0  0  0  0  0  0
  -26.2166  -15.6129   19.9626 H   0  0  0  0  0  0
  -26.7217  -32.5354   23.1013 H   0  0  0  0  0  0
  -25.0075  -33.9640   25.0351 H   0  0  0  0  0  0
  -22.7348  -31.2919   21.3839 H   0  0  0  0  0  0
  -23.3764  -35.9575   23.3242 H   0  0  0  0  0  0
  -24.3590  -36.8946   22.2059 H   0  0  0  0  0  0
  -23.7207  -37.6428   23.6702 H   0  0  0  0  0  0
  -26.1268  -31.5002   20.6041 H   0  0  0  0  0  0
  -26.8598  -30.7985   22.0129 H   0  0  0  0  0  0
  -28.1133  -28.8665   21.2384 H   0  0  0  0  0  0
  -25.9644  -25.8633   19.0037 H   0  0  0  0  0  0
  -23.9871  -27.2908   18.9833 H   0  0  0  0  0  0
  -23.7884  -30.5719   19.3972 H   0  0  0  0  0  0
  -22.7737  -29.2349   19.8432 H   0  0  0  0  0  0
  -25.1283  -36.1870   25.0804 H   0  0  0  0  0  0
  -21.0001  -28.3307   24.1373 H   0  0  0  0  0  0
  -20.5677  -26.2318   23.3621 H   0  0  0  0  0  0
  -21.6651  -26.7428   22.1215 H   0  0  0  0  0  0
  -19.6925  -25.6290   21.1245 H   0  0  0  0  0  0
  -19.6709  -27.3186   20.6737 H   0  0  0  0  0  0
  -17.4207  -26.6673   21.4024 H   0  0  0  0  0  0
  -18.0345  -26.0090   22.9025 H   0  0  0  0  0  0
  -19.7947  -30.7282   24.2261 H   0  0  0  0  0  0
  -17.5022  -31.6269   24.5166 H   0  0  0  0  0  0
  -15.5363  -30.2988   23.7660 H   0  0  0  0  0  0
  -15.8682  -28.0830   22.7063 H   0  0  0  0  0  0
  -24.5914  -30.7063   25.7739 H   0  0  0  0  0  0
  -24.8904  -32.2911   26.4788 H   0  0  0  0  0  0
  -25.8036  -30.8948   27.0209 H   0  0  0  0  0  0
  -26.2957  -29.6700   24.1240 H   0  0  0  0  0  0
  -27.4039  -29.7259   25.4744 H   0  0  0  0  0  0
  -27.8838  -30.4230   23.9465 H   0  0  0  0  0  0
  -27.2677  -33.3618   26.2029 H   0  0  0  0  0  0
  -28.3893  -32.6848   25.0310 H   0  0  0  0  0  0
  -28.0714  -31.8443   26.5405 H   0  0  0  0  0  0
  -28.2531  -38.0132   24.7598 H   0  0  0  0  0  0
  -28.1155  -36.2670   24.6131 H   0  0  0  0  0  0
  -27.2328  -37.1234   25.8849 H   0  0  0  0  0  0
  -20.9420  -29.8753   21.6813 H   0  0  0  0  0  0
  -26.0136  -38.2809   24.1516 H   0  0  0  0  0  0
  -31.2142  -21.3745   20.6356 H   0  0  0  0  0  0
  -32.8916  -19.6074   20.7418 H   0  0  0  0  0  0
  -26.5132  -23.5050   19.6908 H   0  0  0  0  0  0
  -27.1822  -23.7472   21.3375 H   0  0  0  0  0  0
  -29.6330  -23.9331   21.3386 H   0  0  0  0  0  0
  -30.3280  -23.8178   19.6874 H   0  0  0  0  0  0
  -28.3126  -24.8709   18.6640 H   0  0  0  0  0  0
  -27.1624  -18.7825   19.8045 H   0  0  0  0  0  0
  -27.2518  -18.4311   21.5367 H   0  0  0  0  0  0
  -27.5508  -17.1677   20.3457 H   0  0  0  0  0  0
  -28.5600  -21.5831   21.8371 H   0  0  0  0  0  0
  -27.4938  -20.9292   20.6564 H   0  0  0  0  0  0
  -28.8818  -15.8118   20.8274 H   0  0  0  0  0  0
  -28.5159  -22.4640   18.9965 H   0  0  0  0  0  0
  1 25  1  0  0  0
  1 30  2  0  0  0
  1 82  1  0  0  0
  2  3  1  0  0  0
  2 25  1  0  0  0
  2 85  1  0  0  0
  2 86  1  0  0  0
  3  4  1  0  0  0
  3 87  1  0  0  0
  3 88  1  0  0  0
  4  5  1  0  0  0
  4 89  1  0  0  0
  4 90  1  0  0  0
  5  6  1  0  0  0
  5 26  1  0  0  0
  5 91  1  0  0  0
  6 25  1  0  0  0
  6 92  1  0  0  0
  6 93  1  0  0  0
  7  8  2  0  0  0
  7 26  1  0  0  0
  7 29  1  0  0  0
  8  9  1  0  0  0
  8 22  1  0  0  0
  9 10  1  0  0  0
  9 27  2  0  0  0
 10 11  2  0  0  0
 10 15  1  0  0  0
 11 12  1  0  0  0
 11 94  1  0  0  0
 12 13  2  0  0  0
 12 95  1  0  0  0
 13 14  1  0  0  0
 13 31  1  0  0  0
 14 15  2  0  0  0
 14 96  1  0  0  0
 15 97  1  0  0  0
 16 17  2  0  0  0
 16 21  1  0  0  0
 16 31  1  0  0  0
 17 18  1  0  0  0
 17 98  1  0  0  0
 18 19  2  0  0  0
 18 99  1  0  0  0
 19 20  1  0  0  0
 19 24  1  0  0  0
 20 21  2  0  0  0
 20100  1  0  0  0
 21 23  1  0  0  0
 22 28  1  0  0  0
 22 32  2  0  0  0
 26 27  1  0  0  0
 28101  1  0  0  0
 28102  1  0  0  0
 29103  1  0  0  0
 29104  1  0  0  0
 33 34  1  0  0  0
 33 66  1  0  0  0
 33 70  2  0  0  0
 34 36  1  0  0  0
 34 59  1  0  0  0
 34105  1  0  0  0
 35 44  2  0  0  0
 35 45  1  0  0  0
 35 68  1  0  0  0
 36 56  1  0  0  0
 36106  1  0  0  0
 37 39  1  0  0  0
 37 47  1  0  0  0
 37 66  1  0  0  0
 37107  1  0  0  0
 38 43  2  0  0  0
 38 46  1  0  0  0
 38 47  1  0  0  0
 39 64  1  0  0  0
 39 67  2  0  0  0
 40 52  1  0  0  0
 40 53  2  0  0  0
 40 58  1  0  0  0
 41108  1  0  0  0
 41109  1  0  0  0
 41110  1  0  0  0
 41 48  1  0  0  0
 42 43  1  0  0  0
 42 66  1  0  0  0
 42111  1  0  0  0
 42112  1  0  0  0
 43 44  1  0  0  0
 44113  1  0  0  0
 45 46  2  0  0  0
 45114  1  0  0  0
 46115  1  0  0  0
 47116  1  0  0  0
 47117  1  0  0  0
 48 56  1  0  0  0
 48 65  1  0  0  0
 48118  1  0  0  0
 49 50  1  0  0  0
 49 53  1  0  0  0
 49 64  1  0  0  0
 49119  1  0  0  0
 50 51  1  0  0  0
 50120  1  0  0  0
 50121  1  0  0  0
 51 52  1  0  0  0
 51122  1  0  0  0
 51123  1  0  0  0
 52124  1  0  0  0
 52125  1  0  0  0
 53 54  1  0  0  0
 54 55  2  0  0  0
 54126  1  0  0  0
 55 57  1  0  0  0
 55127  1  0  0  0
 56 69  2  0  0  0
 57 58  2  0  0  0
 57128  1  0  0  0
 58129  1  0  0  0
 59 60  1  0  0  0
 59 61  1  0  0  0
 59 62  1  0  0  0
 60130  1  0  0  0
 60131  1  0  0  0
 60132  1  0  0  0
 61133  1  0  0  0
 61134  1  0  0  0
 61135  1  0  0  0
 62136  1  0  0  0
 62137  1  0  0  0
 62138  1  0  0  0
 63 65  1  0  0  0
 63139  1  0  0  0
 63140  1  0  0  0
 63141  1  0  0  0
 64142  1  0  0  0
 65143  1  0  0  0
 68 79  1  0  0  0
 71 72  2  0  0  0
 71 73  1  0  0  0
 71144  1  0  0  0
 72 76  1  0  0  0
 72145  1  0  0  0
 73 74  2  0  0  0
 73 81  1  0  0  0
 74 75  1  0  0  0
 74 80  1  0  0  0
 75 76  2  0  0  0
 75 82  1  0  0  0
 76 84  1  0  0  0
 77 79  1  0  0  0
 77 83  1  0  0  0
 77146  1  0  0  0
 77147  1  0  0  0
 78 79  1  0  0  0
 78 83  1  0  0  0
 78148  1  0  0  0
 78149  1  0  0  0
 79150  1  0  0  0
 80151  1  0  0  0
 80152  1  0  0  0
 80153  1  0  0  0
 81154  1  0  0  0
 81155  1  0  0  0
 81 83  1  0  0  0
 82156  1  0  0  0
 83157  1  0  0  0
M  CHG  1  83   1
M  ISO  4   1 100  68 101  79 101  82 100
M  END
> <chiral flag>
0

> <version>
0

> <s_m_source_file>
/data/baiqing/PycharmProjects/Reinvent-master-3.2/result/LINK_invent/BTK/process_docking_weight1_custom_product_contain_oxygen_bond_distance_aromatic_linkinvent_7_9_3/rearranged_h_0030.sdf

> <i_m_source_file_index>
36

> <r_mmod_Potential_Energy-OPLS-2005>
95.3417739868164

> <r_mmod_Stretch_Energy-OPLS-2005>
179.195907592773

> <r_mmod_Bend_Energy-OPLS-2005>
250.273010253906

> <r_mmod_Torsional_Energy-OPLS-2005>
214.388626098633

> <r_mmod_Improper_Torsional_Energy-OPLS-2005>
6.83693218231201

> <r_mmod_Van_der_Waal_Energy-OPLS-2005>
138.569320678711

> <r_mmod_Electrostatic_Energy-OPLS-2005>
-313.888946533203

> <r_mmod_Solvation_Energy-OPLS-2005>
-505.3173828125

> <b_mmod_Minimization_Converged-OPLS-2005>
0

> <r_mmod_RMS_Derivative-OPLS-2005>
1.25914406776428

$$$$
36
                    3D
 Structure written by MMmdl.
164173  0  0  1  0            999 V2000
  -30.6698  -14.4254   20.5522 C   0  0  0  0  0  0
  -30.4270  -12.2628   19.4210 C   0  0  0  0  0  0
  -29.5006  -12.4874   18.2077 C   0  0  0  0  0  0
  -28.0139  -12.3854   18.6135 C   0  0  0  0  0  0
  -27.6668  -13.1887   19.8934 C   0  0  2  0  0  0
  -28.7056  -12.9311   21.0107 C   0  0  0  0  0  0
  -25.2649  -13.8159   20.5756 C   0  0  0  0  0  0
  -24.1829  -13.0409   20.9154 C   0  0  0  0  0  0
  -24.6400  -11.6896   20.8722 C   0  0  0  0  0  0
  -23.9098  -10.4267   21.0418 C   0  0  0  0  0  0
  -24.3644   -9.4141   21.9177 C   0  0  0  0  0  0
  -23.6303   -8.2174   22.0730 C   0  0  0  0  0  0
  -22.4278   -8.0266   21.3539 C   0  0  0  0  0  0
  -21.9933   -9.0240   20.4625 C   0  0  0  0  0  0
  -22.7273  -10.2128   20.3044 C   0  0  0  0  0  0
  -21.6840   -6.0756   22.5304 C   0  0  0  0  0  0
  -21.3995   -6.5648   23.8232 C   0  0  0  0  0  0
  -21.3655   -5.6801   24.9187 C   0  0  0  0  0  0
  -21.6028   -4.3062   24.7234 C   0  0  0  0  0  0
  -21.8804   -3.8159   23.4350 C   0  0  0  0  0  0
  -21.9179   -4.6983   22.3412 C   0  0  0  0  0  0
  -22.7885  -13.5232   21.1878 C   0  0  0  0  0  0
  -22.1667   -4.2170   21.0984 F   0  0  0  0  0  0
  -21.5632   -3.4526   25.7737 F   0  0  0  0  0  0
  -30.0369  -13.2325   20.4531 N   0  0  0  0  0  0
  -26.3033  -12.9253   20.3461 N   0  0  0  0  0  0
  -25.9297  -11.6432   20.5749 N   0  0  0  0  0  0
  -22.0566  -12.8214   22.0502 N   0  0  0  0  0  0
  -25.4548  -15.1865   20.4376 N   0  0  0  0  0  0
  -31.7976  -14.6470   20.1050 O   0  0  0  0  0  0
  -21.6607   -6.8899   21.4277 O   0  0  0  0  0  0
  -22.3491  -14.5511   20.6766 O   0  0  0  0  0  0
  -24.6285  -31.8670   23.2165 C   0  0  0  0  0  0
  -25.9192  -32.4796   23.8457 C   0  0  1  0  0  0
  -27.2000  -27.4223   20.0435 C   0  0  0  0  0  0
  -25.5976  -33.8588   24.2335 N   0  0  0  0  0  0
  -23.4122  -30.5149   21.5491 C   0  0  2  0  0  0
  -24.8381  -28.9917   20.1063 C   0  0  0  0  0  0
  -22.7630  -29.4746   22.4892 C   0  0  0  0  0  0
  -18.0509  -28.1312   22.8373 C   0  0  0  0  0  0
  -24.1471  -36.7311   23.2611 C   0  0  0  0  0  0
  -25.9576  -30.8228   21.3869 C   0  0  0  0  0  0
  -26.0091  -29.4693   20.7067 C   0  0  0  0  0  0
  -27.1917  -28.6898   20.6771 C   0  0  0  0  0  0
  -25.9960  -26.9867   19.4311 C   0  0  0  0  0  0
  -24.8254  -27.7462   19.4726 C   0  0  0  0  0  0
  -23.6121  -29.8630   20.1577 C   0  0  0  0  0  0
  -25.4103  -36.3102   24.0320 C   0  0  1  0  0  0
  -20.6089  -28.3641   23.1035 C   0  0  2  0  0  0
  -20.7227  -26.9563   22.4789 C   0  0  0  0  0  0
  -19.5853  -26.5457   21.5329 C   0  0  0  0  0  0
  -18.2022  -26.7834   22.1418 C   0  0  0  0  0  0
  -19.1779  -28.8719   23.2764 C   0  0  0  0  0  0
  -18.9842  -30.1372   23.8780 C   0  0  0  0  0  0
  -17.6908  -30.6600   24.0497 C   0  0  0  0  0  0
  -25.9085  -34.9474   23.5135 C   0  0  0  0  0  0
  -16.5687  -29.9101   23.6421 C   0  0  0  0  0  0
  -16.7520  -28.6543   23.0376 C   0  0  0  0  0  0
  -26.4525  -31.6623   25.0848 C   0  0  0  0  0  0
  -25.3806  -31.3774   26.1626 C   0  0  0  0  0  0
  -27.0325  -30.3003   24.6385 C   0  0  0  0  0  0
  -27.6066  -32.4377   25.7623 C   0  0  0  0  0  0
  -27.5586  -37.1829   24.8458 C   0  0  0  0  0  0
  -21.4295  -29.3427   22.3926 N   0  0  0  0  0  0
  -26.4294  -37.3818   23.9392 N   0  0  0  0  0  0
  -24.6823  -31.0867   22.1019 N   0  0  0  0  0  0
  -23.4490  -28.7934   23.2579 O   0  0  0  0  0  0
  -28.3431  -26.6413   20.0259 O   0  0  0  0  0  0
  -26.5634  -34.8932   22.4684 O   0  0  0  0  0  0
  -23.5458  -32.1396   23.7509 O   0  0  0  0  0  0
  -29.1861  -19.5682   20.6578 C   0  0  0  0  0  0
  -29.6883  -18.2841   20.8668 C   0  0  0  0  0  0
  -27.7796  -19.3610   22.6335 C   0  0  0  0  0  0
  -28.1978  -20.1093   21.5140 C   0  0  0  0  0  0
  -29.2370  -17.5101   21.9563 C   0  0  0  0  0  0
  -28.3078  -18.0717   22.8720 C   0  0  0  0  0  0
  -28.4224  -22.2620   19.0239 C   0  0  0  0  0  0
  -29.3577  -23.3099   18.4608 C   0  0  0  0  0  0
  -29.1027  -23.5325   20.8314 C   0  0  0  0  0  0
  -29.3585  -24.3799   19.5624 C   0  0  2  0  0  0
  -27.8910  -17.3077   24.1163 C   0  0  0  0  0  0
  -27.5978  -21.4967   21.2642 C   0  0  0  0  0  0
  -29.7725  -16.0958   22.1117 C   0  0  0  0  0  0
  -28.2283  -25.3948   19.3136 C   0  0  0  0  0  0
  -28.3584  -22.3673   20.3568 N   0  0  0  0  0  0
  -29.8467  -15.4340   20.8208 N   0  0  0  0  0  0
  -27.8418  -21.4358   18.3215 O   0  0  0  0  0  0
  -31.4736  -12.3723   19.1331 H   0  0  0  0  0  0
  -30.3290  -11.2487   19.8002 H   0  0  0  0  0  0
  -29.7295  -11.7649   17.4244 H   0  0  0  0  0  0
  -29.6932  -13.4731   17.7803 H   0  0  0  0  0  0
  -27.7871  -11.3319   18.7622 H   0  0  0  0  0  0
  -27.3837  -12.7189   17.7910 H   0  0  0  0  0  0
  -27.7210  -14.2423   19.6234 H   0  0  0  0  0  0
  -28.6677  -11.8935   21.3434 H   0  0  0  0  0  0
  -28.4822  -13.5234   21.8960 H   0  0  0  0  0  0
  -25.2790   -9.5583   22.4762 H   0  0  0  0  0  0
  -23.9971   -7.4564   22.7451 H   0  0  0  0  0  0
  -21.0840   -8.8762   19.8972 H   0  0  0  0  0  0
  -22.3708  -10.9654   19.6141 H   0  0  0  0  0  0
  -21.1995   -7.6145   23.9739 H   0  0  0  0  0  0
  -21.1520   -6.0528   25.9096 H   0  0  0  0  0  0
  -22.0611   -2.7614   23.2815 H   0  0  0  0  0  0
  -22.4108  -11.9840   22.4883 H   0  0  0  0  0  0
  -21.1182  -13.1245   22.2666 H   0  0  0  0  0  0
  -24.7312  -15.8564   20.6663 H   0  0  0  0  0  0
  -26.3696  -15.6142   20.3561 H   0  0  0  0  0  0
  -26.7273  -32.5427   23.1216 H   0  0  0  0  0  0
  -25.0141  -33.9730   25.0495 H   0  0  0  0  0  0
  -22.7049  -31.3433   21.4133 H   0  0  0  0  0  0
  -23.3749  -35.9644   23.3320 H   0  0  0  0  0  0
  -24.3520  -36.8922   22.2016 H   0  0  0  0  0  0
  -23.7265  -37.6526   23.6636 H   0  0  0  0  0  0
  -26.1479  -31.6050   20.6492 H   0  0  0  0  0  0
  -26.8168  -30.8122   22.0462 H   0  0  0  0  0  0
  -28.0935  -29.0680   21.1405 H   0  0  0  0  0  0
  -25.8880  -26.0665   18.8799 H   0  0  0  0  0  0
  -23.9235  -27.3876   18.9857 H   0  0  0  0  0  0
  -23.7213  -30.6460   19.4020 H   0  0  0  0  0  0
  -22.7397  -29.2814   19.8606 H   0  0  0  0  0  0
  -25.1301  -36.1933   25.0828 H   0  0  0  0  0  0
  -21.0161  -28.2736   24.1121 H   0  0  0  0  0  0
  -20.7478  -26.2277   23.2906 H   0  0  0  0  0  0
  -21.6908  -26.8363   21.9903 H   0  0  0  0  0  0
  -19.6875  -25.4887   21.2821 H   0  0  0  0  0  0
  -19.6547  -27.0705   20.5852 H   0  0  0  0  0  0
  -17.4658  -26.7158   21.3332 H   0  0  0  0  0  0
  -17.9696  -25.9886   22.8517 H   0  0  0  0  0  0
  -19.8481  -30.7139   24.1842 H   0  0  0  0  0  0
  -17.5639  -31.6310   24.5034 H   0  0  0  0  0  0
  -15.5747  -30.3054   23.7940 H   0  0  0  0  0  0
  -15.8807  -28.0952   22.7175 H   0  0  0  0  0  0
  -24.6056  -30.6966   25.8115 H   0  0  0  0  0  0
  -24.8908  -32.2901   26.5034 H   0  0  0  0  0  0
  -25.8214  -30.9104   27.0445 H   0  0  0  0  0  0
  -26.2871  -29.6801   24.1372 H   0  0  0  0  0  0
  -27.3867  -29.7261   25.4969 H   0  0  0  0  0  0
  -27.8862  -30.4239   23.9703 H   0  0  0  0  0  0
  -27.2675  -33.3695   26.2177 H   0  0  0  0  0  0
  -28.3898  -32.6930   25.0485 H   0  0  0  0  0  0
  -28.0738  -31.8555   26.5590 H   0  0  0  0  0  0
  -28.2618  -38.0116   24.7515 H   0  0  0  0  0  0
  -28.1065  -36.2652   24.6265 H   0  0  0  0  0  0
  -27.2285  -37.1489   25.8859 H   0  0  0  0  0  0
  -20.9243  -30.0130   21.8293 H   0  0  0  0  0  0
  -26.0152  -38.2894   24.1388 H   0  0  0  0  0  0
  -29.5946  -20.1089   19.8158 H   0  0  0  0  0  0
  -30.4388  -17.8995   20.1861 H   0  0  0  0  0  0
  -27.0446  -19.7604   23.3241 H   0  0  0  0  0  0
  -29.0322  -23.6633   17.4821 H   0  0  0  0  0  0
  -30.3440  -22.8532   18.3759 H   0  0  0  0  0  0
  -28.5807  -24.0741   21.6231 H   0  0  0  0  0  0
  -30.0416  -23.1769   21.2466 H   0  0  0  0  0  0
  -30.3156  -24.8966   19.5948 H   0  0  0  0  0  0
  -27.2555  -16.4641   23.8507 H   0  0  0  0  0  0
  -27.3490  -17.9250   24.8370 H   0  0  0  0  0  0
  -28.7743  -16.9308   24.6323 H   0  0  0  0  0  0
  -27.4583  -22.0004   22.2268 H   0  0  0  0  0  0
  -26.6006  -21.3685   20.8432 H   0  0  0  0  0  0
  -30.7646  -16.1481   22.5681 H   0  0  0  0  0  0
  -29.1397  -15.4993   22.7652 H   0  0  0  0  0  0
  -27.3188  -24.8485   19.5765 H   0  0  0  0  0  0
  -28.1503  -25.6195   18.2485 H   0  0  0  0  0  0
  -29.8338  -16.1276   20.0857 H   0  0  0  0  0  0
  1 25  1  0  0  0
  1 30  2  0  0  0
  1 86  1  0  0  0
  2  3  1  0  0  0
  2 25  1  0  0  0
  2 88  1  0  0  0
  2 89  1  0  0  0
  3  4  1  0  0  0
  3 90  1  0  0  0
  3 91  1  0  0  0
  4  5  1  0  0  0
  4 92  1  0  0  0
  4 93  1  0  0  0
  5  6  1  0  0  0
  5 26  1  0  0  0
  5 94  1  0  0  0
  6 25  1  0  0  0
  6 95  1  0  0  0
  6 96  1  0  0  0
  7  8  2  0  0  0
  7 26  1  0  0  0
  7 29  1  0  0  0
  8  9  1  0  0  0
  8 22  1  0  0  0
  9 10  1  0  0  0
  9 27  2  0  0  0
 10 11  2  0  0  0
 10 15  1  0  0  0
 11 12  1  0  0  0
 11 97  1  0  0  0
 12 13  2  0  0  0
 12 98  1  0  0  0
 13 14  1  0  0  0
 13 31  1  0  0  0
 14 15  2  0  0  0
 14 99  1  0  0  0
 15100  1  0  0  0
 16 17  2  0  0  0
 16 21  1  0  0  0
 16 31  1  0  0  0
 17 18  1  0  0  0
 17101  1  0  0  0
 18 19  2  0  0  0
 18102  1  0  0  0
 19 20  1  0  0  0
 19 24  1  0  0  0
 20 21  2  0  0  0
 20103  1  0  0  0
 21 23  1  0  0  0
 22 28  1  0  0  0
 22 32  2  0  0  0
 26 27  1  0  0  0
 28104  1  0  0  0
 28105  1  0  0  0
 29106  1  0  0  0
 29107  1  0  0  0
 33 34  1  0  0  0
 33 66  1  0  0  0
 33 70  2  0  0  0
 34 36  1  0  0  0
 34 59  1  0  0  0
 34108  1  0  0  0
 35 44  2  0  0  0
 35 45  1  0  0  0
 35 68  1  0  0  0
 36 56  1  0  0  0
 36109  1  0  0  0
 37 39  1  0  0  0
 37 47  1  0  0  0
 37 66  1  0  0  0
 37110  1  0  0  0
 38 43  2  0  0  0
 38 46  1  0  0  0
 38 47  1  0  0  0
 39 64  1  0  0  0
 39 67  2  0  0  0
 40 52  1  0  0  0
 40 53  2  0  0  0
 40 58  1  0  0  0
 41111  1  0  0  0
 41112  1  0  0  0
 41113  1  0  0  0
 41 48  1  0  0  0
 42 43  1  0  0  0
 42 66  1  0  0  0
 42114  1  0  0  0
 42115  1  0  0  0
 43 44  1  0  0  0
 44116  1  0  0  0
 45 46  2  0  0  0
 45117  1  0  0  0
 46118  1  0  0  0
 47119  1  0  0  0
 47120  1  0  0  0
 48 56  1  0  0  0
 48 65  1  0  0  0
 48121  1  0  0  0
 49 50  1  0  0  0
 49 53  1  0  0  0
 49 64  1  0  0  0
 49122  1  0  0  0
 50 51  1  0  0  0
 50123  1  0  0  0
 50124  1  0  0  0
 51 52  1  0  0  0
 51125  1  0  0  0
 51126  1  0  0  0
 52127  1  0  0  0
 52128  1  0  0  0
 53 54  1  0  0  0
 54 55  2  0  0  0
 54129  1  0  0  0
 55 57  1  0  0  0
 55130  1  0  0  0
 56 69  2  0  0  0
 57 58  2  0  0  0
 57131  1  0  0  0
 58132  1  0  0  0
 59 60  1  0  0  0
 59 61  1  0  0  0
 59 62  1  0  0  0
 60133  1  0  0  0
 60134  1  0  0  0
 60135  1  0  0  0
 61136  1  0  0  0
 61137  1  0  0  0
 61138  1  0  0  0
 62139  1  0  0  0
 62140  1  0  0  0
 62141  1  0  0  0
 63 65  1  0  0  0
 63142  1  0  0  0
 63143  1  0  0  0
 63144  1  0  0  0
 64145  1  0  0  0
 65146  1  0  0  0
 68 84  1  0  0  0
 71 72  2  0  0  0
 71 74  1  0  0  0
 71147  1  0  0  0
 72 75  1  0  0  0
 72148  1  0  0  0
 73 74  2  0  0  0
 73 76  1  0  0  0
 73149  1  0  0  0
 74 82  1  0  0  0
 75 76  2  0  0  0
 75 83  1  0  0  0
 76 81  1  0  0  0
 77 78  1  0  0  0
 77 85  1  0  0  0
 77 87  2  0  0  0
 78 80  1  0  0  0
 78150  1  0  0  0
 78151  1  0  0  0
 79 80  1  0  0  0
 79 85  1  0  0  0
 79152  1  0  0  0
 79153  1  0  0  0
 80 84  1  0  0  0
 80154  1  0  0  0
 81155  1  0  0  0
 81156  1  0  0  0
 81157  1  0  0  0
 82 85  1  0  0  0
 82158  1  0  0  0
 82159  1  0  0  0
 83 86  1  0  0  0
 83160  1  0  0  0
 83161  1  0  0  0
 84162  1  0  0  0
 84163  1  0  0  0
 86164  1  0  0  0
M  ISO  4   1 100  68 101  84 101  86 100
M  END
> <chiral flag>
0

> <version>
0

> <s_m_source_file>
/data/baiqing/PycharmProjects/Reinvent-master-3.2/result/LINK_invent/BTK/process_docking_weight1_custom_product_contain_oxygen_bond_distance_aromatic_linkinvent_7_9_3/rearranged_h_0030.sdf

> <i_m_source_file_index>
37

> <r_mmod_Potential_Energy-OPLS-2005>
5.50509881973267

> <r_mmod_Stretch_Energy-OPLS-2005>
36.2299461364746

> <r_mmod_Bend_Energy-OPLS-2005>
136.584655761719

> <r_mmod_Torsional_Energy-OPLS-2005>
292.695434570312

> <r_mmod_Improper_Torsional_Energy-OPLS-2005>
14.9756135940552

> <r_mmod_Van_der_Waal_Energy-OPLS-2005>
176.557144165039

> <r_mmod_Electrostatic_Energy-OPLS-2005>
-452.583374023438

> <r_mmod_Solvation_Energy-OPLS-2005>
-219.467102050781

> <b_mmod_Minimization_Converged-OPLS-2005>
0

> <r_mmod_RMS_Derivative-OPLS-2005>
11.4854211807251

$$$$
37
                    3D
 Structure written by MMmdl.
163172  0  0  1  0            999 V2000
  -30.5917  -14.7819   20.3996 C   0  0  0  0  0  0
  -30.4433  -12.4548   19.5077 C   0  0  0  0  0  0
  -29.5331  -12.4111   18.2595 C   0  0  0  0  0  0
  -28.0438  -12.3307   18.6409 C   0  0  0  0  0  0
  -27.6420  -13.2436   19.8319 C   0  0  2  0  0  0
  -28.6757  -13.2093   20.9743 C   0  0  0  0  0  0
  -25.2561  -13.8245   20.5702 C   0  0  0  0  0  0
  -24.1869  -13.0486   20.9216 C   0  0  0  0  0  0
  -24.6436  -11.6944   20.8718 C   0  0  0  0  0  0
  -23.9109  -10.4335   21.0419 C   0  0  0  0  0  0
  -24.3646   -9.4254   21.9215 C   0  0  0  0  0  0
  -23.6320   -8.2289   22.0797 C   0  0  0  0  0  0
  -22.4299   -8.0333   21.3585 C   0  0  0  0  0  0
  -21.9954   -9.0298   20.4661 C   0  0  0  0  0  0
  -22.7279  -10.2175   20.3075 C   0  0  0  0  0  0
  -21.6881   -6.0769   22.5297 C   0  0  0  0  0  0
  -21.4008   -6.5661   23.8221 C   0  0  0  0  0  0
  -21.3662   -5.6818   24.9184 C   0  0  0  0  0  0
  -21.6056   -4.3085   24.7242 C   0  0  0  0  0  0
  -21.8822   -3.8180   23.4355 C   0  0  0  0  0  0
  -21.9207   -4.6988   22.3414 C   0  0  0  0  0  0
  -22.7883  -13.5233   21.1848 C   0  0  0  0  0  0
  -22.1704   -4.2185   21.0995 F   0  0  0  0  0  0
  -21.5613   -3.4568   25.7755 F   0  0  0  0  0  0
  -29.9806  -13.5468   20.3950 N   0  0  0  0  0  0
  -26.2965  -12.9455   20.3174 N   0  0  0  0  0  0
  -25.9357  -11.6575   20.5675 N   0  0  0  0  0  0
  -22.0526  -12.8206   22.0352 N   0  0  0  0  0  0
  -25.4197  -15.1979   20.4185 N   0  0  0  0  0  0
  -31.7876  -14.8652   20.1113 O   0  0  0  0  0  0
  -21.6678   -6.8923   21.4270 O   0  0  0  0  0  0
  -22.3565  -14.5559   20.6718 O   0  0  0  0  0  0
  -24.6323  -31.8524   23.1944 C   0  0  0  0  0  0
  -25.9148  -32.4740   23.8298 C   0  0  1  0  0  0
  -27.2390  -27.2670   20.1375 C   0  0  0  0  0  0
  -25.5940  -33.8542   24.2258 N   0  0  0  0  0  0
  -23.4288  -30.4669   21.5405 C   0  0  2  0  0  0
  -24.8810  -28.9078   20.1111 C   0  0  0  0  0  0
  -22.7510  -29.4542   22.4950 C   0  0  0  0  0  0
  -18.0284  -28.1365   22.8494 C   0  0  0  0  0  0
  -24.1478  -36.7271   23.2633 C   0  0  0  0  0  0
  -25.9669  -30.7710   21.3654 C   0  0  0  0  0  0
  -26.0455  -29.3873   20.7215 C   0  0  0  0  0  0
  -27.2210  -28.5740   20.7320 C   0  0  0  0  0  0
  -26.0493  -26.8441   19.5073 C   0  0  0  0  0  0
  -24.8877  -27.6454   19.4932 C   0  0  0  0  0  0
  -23.6482  -29.7897   20.1589 C   0  0  0  0  0  0
  -25.4104  -36.3086   24.0335 C   0  0  1  0  0  0
  -20.5895  -28.3663   23.1309 C   0  0  2  0  0  0
  -20.6767  -26.9373   22.5449 C   0  0  0  0  0  0
  -19.5738  -26.6355   21.5249 C   0  0  0  0  0  0
  -18.1919  -26.7893   22.1655 C   0  0  0  0  0  0
  -19.1542  -28.8838   23.2879 C   0  0  0  0  0  0
  -18.9451  -30.1456   23.8850 C   0  0  0  0  0  0
  -17.6453  -30.6560   24.0569 C   0  0  0  0  0  0
  -25.9058  -34.9447   23.5102 C   0  0  0  0  0  0
  -16.5352  -29.9049   23.6341 C   0  0  0  0  0  0
  -16.7282  -28.6487   23.0336 C   0  0  0  0  0  0
  -26.4494  -31.6532   25.0657 C   0  0  0  0  0  0
  -25.3711  -31.3646   26.1356 C   0  0  0  0  0  0
  -27.0353  -30.2976   24.6056 C   0  0  0  0  0  0
  -27.6039  -32.4238   25.7497 C   0  0  0  0  0  0
  -27.5568  -37.1812   24.8471 C   0  0  0  0  0  0
  -21.4214  -29.3004   22.3710 N   0  0  0  0  0  0
  -26.4284  -37.3795   23.9421 N   0  0  0  0  0  0
  -24.6956  -31.0471   22.0920 N   0  0  0  0  0  0
  -23.4199  -28.8094   23.3059 O   0  0  0  0  0  0
  -28.3725  -26.4293   20.2195 O   0  0  0  0  0  0
  -26.5645  -34.8937   22.4674 O   0  0  0  0  0  0
  -23.5477  -32.1336   23.7244 O   0  0  0  0  0  0
  -29.8712  -18.5644   17.7476 C   0  0  0  0  0  0
  -29.3600  -18.5015   20.4547 C   0  0  0  0  0  0
  -29.3729  -19.7314   18.3537 C   0  0  0  0  0  0
  -30.0858  -17.3560   18.4362 C   0  0  0  0  0  0
  -29.1681  -19.7789   19.7612 C   0  0  0  0  0  0
  -29.8003  -17.2481   19.8318 C   0  0  0  0  0  0
  -29.9617  -24.6572   19.5054 C   0  0  0  0  0  0
  -30.1369  -23.1315   19.7859 C   0  0  0  0  0  0
  -27.9600  -23.7051   20.3995 C   0  0  0  0  0  0
  -28.4713  -25.0297   19.6794 C   0  0  1  0  0  0
  -29.0467  -20.8788   17.4069 C   0  0  0  0  0  0
  -30.5743  -16.2210   17.5459 C   0  0  0  0  0  0
  -28.6637  -21.1253   20.4964 C   0  0  0  0  0  0
  -29.7947  -15.9207   20.5324 N   0  0  0  0  0  0
  -28.7833  -22.5356   19.8673 N   0  3  2  0  0  0
  -31.4849  -12.5819   19.2062 H   0  0  0  0  0  0
  -30.4073  -11.5044   20.0418 H   0  0  0  0  0  0
  -29.7967  -11.5424   17.6544 H   0  0  0  0  0  0
  -29.7097  -13.2636   17.6144 H   0  0  0  0  0  0
  -27.8332  -11.2896   18.8787 H   0  0  0  0  0  0
  -27.4294  -12.5712   17.7747 H   0  0  0  0  0  0
  -27.6317  -14.2591   19.4316 H   0  0  0  0  0  0
  -28.7001  -12.2316   21.4544 H   0  0  0  0  0  0
  -28.3927  -13.9252   21.7482 H   0  0  0  0  0  0
  -25.2823   -9.5716   22.4743 H   0  0  0  0  0  0
  -24.0060   -7.4664   22.7495 H   0  0  0  0  0  0
  -21.0907   -8.8816   19.8899 H   0  0  0  0  0  0
  -22.3802  -10.9708   19.6164 H   0  0  0  0  0  0
  -21.1989   -7.6180   23.9731 H   0  0  0  0  0  0
  -21.1480   -6.0556   25.9078 H   0  0  0  0  0  0
  -22.0576   -2.7635   23.2875 H   0  0  0  0  0  0
  -22.4187  -11.9861   22.4715 H   0  0  0  0  0  0
  -21.1117  -13.1153   22.2501 H   0  0  0  0  0  0
  -24.6408  -15.8397   20.5114 H   0  0  0  0  0  0
  -26.2627  -15.6430   20.0763 H   0  0  0  0  0  0
  -26.7202  -32.5440   23.1053 H   0  0  0  0  0  0
  -25.0133  -33.9682   25.0427 H   0  0  0  0  0  0
  -22.7249  -31.2875   21.3880 H   0  0  0  0  0  0
  -23.3765  -35.9577   23.3290 H   0  0  0  0  0  0
  -24.3559  -36.8902   22.2047 H   0  0  0  0  0  0
  -23.7200  -37.6453   23.6647 H   0  0  0  0  0  0
  -26.0809  -31.5165   20.5776 H   0  0  0  0  0  0
  -26.8532  -30.8458   21.9840 H   0  0  0  0  0  0
  -28.1093  -28.9314   21.2352 H   0  0  0  0  0  0
  -25.9908  -25.8692   19.0456 H   0  0  0  0  0  0
  -23.9930  -27.2659   19.0182 H   0  0  0  0  0  0
  -23.7677  -30.5564   19.3935 H   0  0  0  0  0  0
  -22.7698  -29.2149   19.8627 H   0  0  0  0  0  0
  -25.1287  -36.1928   25.0829 H   0  0  0  0  0  0
  -20.9989  -28.3213   24.1442 H   0  0  0  0  0  0
  -20.5691  -26.2243   23.3658 H   0  0  0  0  0  0
  -21.6629  -26.7390   22.1237 H   0  0  0  0  0  0
  -19.6899  -25.6268   21.1266 H   0  0  0  0  0  0
  -19.6674  -27.3198   20.6805 H   0  0  0  0  0  0
  -17.4214  -26.6684   21.4045 H   0  0  0  0  0  0
  -18.0270  -26.0023   22.9032 H   0  0  0  0  0  0
  -19.7920  -30.7315   24.2165 H   0  0  0  0  0  0
  -17.4988  -31.6234   24.5182 H   0  0  0  0  0  0
  -15.5348  -30.2960   23.7623 H   0  0  0  0  0  0
  -15.8688  -28.0827   22.6996 H   0  0  0  0  0  0
  -24.5972  -30.6886   25.7676 H   0  0  0  0  0  0
  -24.8783  -32.2796   26.4650 H   0  0  0  0  0  0
  -25.8033  -30.8939   27.0199 H   0  0  0  0  0  0
  -26.2927  -29.6736   24.1056 H   0  0  0  0  0  0
  -27.4085  -29.7180   25.4506 H   0  0  0  0  0  0
  -27.8771  -30.4292   23.9259 H   0  0  0  0  0  0
  -27.2633  -33.3558   26.2018 H   0  0  0  0  0  0
  -28.3928  -32.6735   25.0391 H   0  0  0  0  0  0
  -28.0595  -31.8359   26.5483 H   0  0  0  0  0  0
  -28.2598  -38.0105   24.7546 H   0  0  0  0  0  0
  -28.1079  -36.2644   24.6289 H   0  0  0  0  0  0
  -27.2296  -37.1449   25.8881 H   0  0  0  0  0  0
  -20.9389  -29.8759   21.6957 H   0  0  0  0  0  0
  -26.0160  -38.2875   24.1407 H   0  0  0  0  0  0
  -30.0682  -18.5798   16.6830 H   0  0  0  0  0  0
  -29.1321  -18.4821   21.5122 H   0  0  0  0  0  0
  -30.2989  -24.9229   18.5021 H   0  0  0  0  0  0
  -30.5904  -25.2194   20.1971 H   0  0  0  0  0  0
  -30.6198  -23.0045   20.7546 H   0  0  0  0  0  0
  -30.7785  -22.6440   19.0524 H   0  0  0  0  0  0
  -26.8916  -23.5559   20.2352 H   0  0  0  0  0  0
  -28.1199  -23.7792   21.4764 H   0  0  0  0  0  0
  -28.0382  -25.0296   18.6806 H   0  0  0  0  0  0
  -28.8955  -20.5058   16.3935 H   0  0  0  0  0  0
  -29.8586  -21.6003   17.3581 H   0  0  0  0  0  0
  -28.1154  -21.3747   17.6749 H   0  0  0  0  0  0
  -31.6656  -16.2566   17.4619 H   0  0  0  0  0  0
  -30.1606  -16.3115   16.5355 H   0  0  0  0  0  0
  -30.2656  -15.2449   17.8958 H   0  0  0  0  0  0
  -29.1174  -21.1604   21.4882 H   0  0  0  0  0  0
  -27.6000  -20.9696   20.6767 H   0  0  0  0  0  0
  -28.9252  -15.7284   21.0100 H   0  0  0  0  0  0
  -28.4791  -22.4160   18.9130 H   0  0  0  0  0  0
  1 25  1  0  0  0
  1 30  2  0  0  0
  1 84  1  0  0  0
  2  3  1  0  0  0
  2 25  1  0  0  0
  2 86  1  0  0  0
  2 87  1  0  0  0
  3  4  1  0  0  0
  3 88  1  0  0  0
  3 89  1  0  0  0
  4  5  1  0  0  0
  4 90  1  0  0  0
  4 91  1  0  0  0
  5  6  1  0  0  0
  5 26  1  0  0  0
  5 92  1  0  0  0
  6 25  1  0  0  0
  6 93  1  0  0  0
  6 94  1  0  0  0
  7  8  2  0  0  0
  7 26  1  0  0  0
  7 29  1  0  0  0
  8  9  1  0  0  0
  8 22  1  0  0  0
  9 10  1  0  0  0
  9 27  2  0  0  0
 10 11  2  0  0  0
 10 15  1  0  0  0
 11 12  1  0  0  0
 11 95  1  0  0  0
 12 13  2  0  0  0
 12 96  1  0  0  0
 13 14  1  0  0  0
 13 31  1  0  0  0
 14 15  2  0  0  0
 14 97  1  0  0  0
 15 98  1  0  0  0
 16 17  2  0  0  0
 16 21  1  0  0  0
 16 31  1  0  0  0
 17 18  1  0  0  0
 17 99  1  0  0  0
 18 19  2  0  0  0
 18100  1  0  0  0
 19 20  1  0  0  0
 19 24  1  0  0  0
 20 21  2  0  0  0
 20101  1  0  0  0
 21 23  1  0  0  0
 22 28  1  0  0  0
 22 32  2  0  0  0
 26 27  1  0  0  0
 28102  1  0  0  0
 28103  1  0  0  0
 29104  1  0  0  0
 29105  1  0  0  0
 33 34  1  0  0  0
 33 66  1  0  0  0
 33 70  2  0  0  0
 34 36  1  0  0  0
 34 59  1  0  0  0
 34106  1  0  0  0
 35 44  2  0  0  0
 35 45  1  0  0  0
 35 68  1  0  0  0
 36 56  1  0  0  0
 36107  1  0  0  0
 37 39  1  0  0  0
 37 47  1  0  0  0
 37 66  1  0  0  0
 37108  1  0  0  0
 38 43  2  0  0  0
 38 46  1  0  0  0
 38 47  1  0  0  0
 39 64  1  0  0  0
 39 67  2  0  0  0
 40 52  1  0  0  0
 40 53  2  0  0  0
 40 58  1  0  0  0
 41109  1  0  0  0
 41110  1  0  0  0
 41111  1  0  0  0
 41 48  1  0  0  0
 42 43  1  0  0  0
 42 66  1  0  0  0
 42112  1  0  0  0
 42113  1  0  0  0
 43 44  1  0  0  0
 44114  1  0  0  0
 45 46  2  0  0  0
 45115  1  0  0  0
 46116  1  0  0  0
 47117  1  0  0  0
 47118  1  0  0  0
 48 56  1  0  0  0
 48 65  1  0  0  0
 48119  1  0  0  0
 49 50  1  0  0  0
 49 53  1  0  0  0
 49 64  1  0  0  0
 49120  1  0  0  0
 50 51  1  0  0  0
 50121  1  0  0  0
 50122  1  0  0  0
 51 52  1  0  0  0
 51123  1  0  0  0
 51124  1  0  0  0
 52125  1  0  0  0
 52126  1  0  0  0
 53 54  1  0  0  0
 54 55  2  0  0  0
 54127  1  0  0  0
 55 57  1  0  0  0
 55128  1  0  0  0
 56 69  2  0  0  0
 57 58  2  0  0  0
 57129  1  0  0  0
 58130  1  0  0  0
 59 60  1  0  0  0
 59 61  1  0  0  0
 59 62  1  0  0  0
 60131  1  0  0  0
 60132  1  0  0  0
 60133  1  0  0  0
 61134  1  0  0  0
 61135  1  0  0  0
 61136  1  0  0  0
 62137  1  0  0  0
 62138  1  0  0  0
 62139  1  0  0  0
 63 65  1  0  0  0
 63140  1  0  0  0
 63141  1  0  0  0
 63142  1  0  0  0
 64143  1  0  0  0
 65144  1  0  0  0
 68 80  1  0  0  0
 71 73  2  0  0  0
 71 74  1  0  0  0
 71145  1  0  0  0
 72 75  2  0  0  0
 72 76  1  0  0  0
 72146  1  0  0  0
 73 75  1  0  0  0
 73 81  1  0  0  0
 74 76  2  0  0  0
 74 82  1  0  0  0
 75 83  1  0  0  0
 76 84  1  0  0  0
 77 78  1  0  0  0
 77 80  1  0  0  0
 77147  1  0  0  0
 77148  1  0  0  0
 78 85  1  0  0  0
 78149  1  0  0  0
 78150  1  0  0  0
 79 80  1  0  0  0
 79 85  1  0  0  0
 79151  1  0  0  0
 79152  1  0  0  0
 80153  1  0  0  0
 81154  1  0  0  0
 81155  1  0  0  0
 81156  1  0  0  0
 82157  1  0  0  0
 82158  1  0  0  0
 82159  1  0  0  0
 83160  1  0  0  0
 83161  1  0  0  0
 83 85  1  0  0  0
 84162  1  0  0  0
 85163  1  0  0  0
M  CHG  1  85   1
M  ISO  4   1 100  68 101  80 101  84 100
M  END
> <chiral flag>
0

> <version>
0

> <s_m_source_file>
/data/baiqing/PycharmProjects/Reinvent-master-3.2/result/LINK_invent/BTK/process_docking_weight1_custom_product_contain_oxygen_bond_distance_aromatic_linkinvent_7_9_3/rearranged_h_0030.sdf

> <i_m_source_file_index>
38

> <r_mmod_Potential_Energy-OPLS-2005>
159.542068481445

> <r_mmod_Stretch_Energy-OPLS-2005>
131.332626342773

> <r_mmod_Bend_Energy-OPLS-2005>
222.128463745117

> <r_mmod_Torsional_Energy-OPLS-2005>
296.455810546875

> <r_mmod_Improper_Torsional_Energy-OPLS-2005>
6.29565668106079

> <r_mmod_Van_der_Waal_Energy-OPLS-2005>
141.91569519043

> <r_mmod_Electrostatic_Energy-OPLS-2005>
-294.790069580078

> <r_mmod_Solvation_Energy-OPLS-2005>
-439.213439941406

> <b_mmod_Minimization_Converged-OPLS-2005>
0

> <r_mmod_RMS_Derivative-OPLS-2005>
4.92447185516357

$$$$
38
                    3D
 Structure written by MMmdl.
149158  0  0  1  0            999 V2000
  -30.4602  -15.1012   20.3946 C   0  0  0  0  0  0
  -30.4524  -12.6884   19.5155 C   0  0  0  0  0  0
  -29.5349  -12.5541   18.2739 C   0  0  0  0  0  0
  -28.0728  -12.3103   18.6925 C   0  0  0  0  0  0
  -27.6271  -13.2561   19.8366 C   0  0  2  0  0  0
  -28.6669  -13.3312   20.9756 C   0  0  0  0  0  0
  -25.2452  -13.8219   20.5716 C   0  0  0  0  0  0
  -24.1782  -13.0434   20.9242 C   0  0  0  0  0  0
  -24.6409  -11.6923   20.8758 C   0  0  0  0  0  0
  -23.9091  -10.4293   21.0408 C   0  0  0  0  0  0
  -24.3637   -9.4203   21.9185 C   0  0  0  0  0  0
  -23.6304   -8.2243   22.0754 C   0  0  0  0  0  0
  -22.4285   -8.0286   21.3545 C   0  0  0  0  0  0
  -21.9926   -9.0261   20.4647 C   0  0  0  0  0  0
  -22.7262  -10.2137   20.3056 C   0  0  0  0  0  0
  -21.6856   -6.0738   22.5279 C   0  0  0  0  0  0
  -21.4016   -6.5642   23.8212 C   0  0  0  0  0  0
  -21.3659   -5.6794   24.9173 C   0  0  0  0  0  0
  -21.6043   -4.3055   24.7224 C   0  0  0  0  0  0
  -21.8819   -3.8148   23.4345 C   0  0  0  0  0  0
  -21.9193   -4.6966   22.3401 C   0  0  0  0  0  0
  -22.7800  -13.5199   21.1891 C   0  0  0  0  0  0
  -22.1662   -4.2150   21.0979 F   0  0  0  0  0  0
  -21.5627   -3.4539   25.7737 F   0  0  0  0  0  0
  -29.9264  -13.7975   20.3754 N   0  0  0  0  0  0
  -26.2881  -12.9463   20.3235 N   0  0  0  0  0  0
  -25.9345  -11.6587   20.5733 N   0  0  0  0  0  0
  -22.0452  -12.8186   22.0446 N   0  0  0  0  0  0
  -25.4091  -15.1951   20.4119 N   0  0  0  0  0  0
  -31.6617  -15.1911   20.1079 O   0  0  0  0  0  0
  -21.6644   -6.8885   21.4242 O   0  0  0  0  0  0
  -22.3481  -14.5501   20.6728 O   0  0  0  0  0  0
  -24.6536  -31.8337   23.1798 C   0  0  0  0  0  0
  -25.9259  -32.4642   23.8226 C   0  0  1  0  0  0
  -27.2199  -27.0287   20.1646 C   0  0  0  0  0  0
  -25.5962  -33.8452   24.2130 N   0  0  0  0  0  0
  -23.4638  -30.4497   21.5270 C   0  0  2  0  0  0
  -24.9173  -28.8601   20.1091 C   0  0  0  0  0  0
  -22.7624  -29.4491   22.4814 C   0  0  0  0  0  0
  -18.0316  -28.1404   22.8473 C   0  0  0  0  0  0
  -24.1492  -36.7233   23.2646 C   0  0  0  0  0  0
  -26.0279  -30.6723   21.3974 C   0  0  0  0  0  0
  -26.0984  -29.2736   20.7384 C   0  0  0  0  0  0
  -27.2468  -28.3759   20.7478 C   0  0  0  0  0  0
  -26.0126  -26.7508   19.4829 C   0  0  0  0  0  0
  -24.8941  -27.6158   19.4632 C   0  0  0  0  0  0
  -23.6983  -29.7746   20.1491 C   0  0  0  0  0  0
  -25.4131  -36.3001   24.0305 C   0  0  1  0  0  0
  -20.5935  -28.3740   23.1207 C   0  0  2  0  0  0
  -20.6794  -26.9430   22.5402 C   0  0  0  0  0  0
  -19.5766  -26.6379   21.5214 C   0  0  0  0  0  0
  -18.1950  -26.7938   22.1627 C   0  0  0  0  0  0
  -19.1575  -28.8892   23.2829 C   0  0  0  0  0  0
  -18.9488  -30.1485   23.8860 C   0  0  0  0  0  0
  -17.6482  -30.6596   24.0557 C   0  0  0  0  0  0
  -25.9087  -34.9379   23.5034 C   0  0  0  0  0  0
  -16.5372  -29.9086   23.6340 C   0  0  0  0  0  0
  -16.7299  -28.6506   23.0360 C   0  0  0  0  0  0
  -26.4542  -31.6553   25.0716 C   0  0  0  0  0  0
  -25.3692  -31.3776   26.1387 C   0  0  0  0  0  0
  -27.0430  -30.2931   24.6391 C   0  0  0  0  0  0
  -27.6045  -32.4350   25.7513 C   0  0  0  0  0  0
  -27.5572  -37.1776   24.8468 C   0  0  0  0  0  0
  -21.4303  -29.3045   22.3564 N   0  0  0  0  0  0
  -26.4287  -37.3723   23.9403 N   0  0  0  0  0  0
  -24.7355  -31.0092   22.0888 N   0  0  0  0  0  0
  -23.4215  -28.8048   23.3013 O   0  0  0  0  0  0
  -28.2262  -25.9591   20.2584 O   0  0  0  0  0  0
  -26.5691  -34.8893   22.4625 O   0  0  0  0  0  0
  -23.5627  -32.1265   23.6947 O   0  0  0  0  0  0
  -30.2998  -21.4601   21.6074 C   0  0  0  0  0  0
  -29.7117  -22.7495   21.2698 C   0  0  0  0  0  0
  -28.3162  -21.6289   19.6887 C   0  0  0  0  0  0
  -29.9033  -20.2274   20.9896 C   0  0  0  0  0  0
  -28.9222  -20.3111   20.0327 C   0  0  0  0  0  0
  -28.6766  -22.9444   20.2921 C   0  0  0  0  0  0
  -30.3509  -18.7528   21.2270 C   0  0  0  0  0  0
  -28.7413  -18.7819   19.5913 C   0  0  0  0  0  0
  -27.8836  -24.4211   19.9703 C   0  0  0  0  0  0
  -29.7361  -17.8699   20.3583 N   0  0  0  0  0  0
  -29.6012  -16.2552   20.5568 N   0  0  0  0  0  0
  -31.1397  -18.4243   22.1157 O   0  0  0  0  0  0
  -31.4773  -12.8820   19.1955 H   0  0  0  0  0  0
  -30.4895  -11.7514   20.0739 H   0  0  0  0  0  0
  -29.8810  -11.7434   17.6314 H   0  0  0  0  0  0
  -29.5957  -13.4654   17.6769 H   0  0  0  0  0  0
  -27.9946  -11.2738   19.0230 H   0  0  0  0  0  0
  -27.4079  -12.4077   17.8335 H   0  0  0  0  0  0
  -27.5737  -14.2471   19.3849 H   0  0  0  0  0  0
  -28.7908  -12.3630   21.4633 H   0  0  0  0  0  0
  -28.3380  -14.0259   21.7499 H   0  0  0  0  0  0
  -25.2782   -9.5672   22.4762 H   0  0  0  0  0  0
  -24.0005   -7.4633   22.7476 H   0  0  0  0  0  0
  -21.0855   -8.8786   19.8956 H   0  0  0  0  0  0
  -22.3721  -10.9679   19.6166 H   0  0  0  0  0  0
  -21.2012   -7.6151   23.9715 H   0  0  0  0  0  0
  -21.1479   -6.0525   25.9075 H   0  0  0  0  0  0
  -22.0599   -2.7611   23.2845 H   0  0  0  0  0  0
  -22.4084  -11.9856   22.4839 H   0  0  0  0  0  0
  -21.1064  -13.1196   22.2647 H   0  0  0  0  0  0
  -24.6305  -15.8378   20.5120 H   0  0  0  0  0  0
  -26.2299  -15.6304   20.0137 H   0  0  0  0  0  0
  -26.7328  -32.5213   23.0949 H   0  0  0  0  0  0
  -25.0054  -33.9548   25.0241 H   0  0  0  0  0  0
  -22.7718  -31.2786   21.3647 H   0  0  0  0  0  0
  -23.3759  -35.9559   23.3295 H   0  0  0  0  0  0
  -24.3569  -36.8888   22.2062 H   0  0  0  0  0  0
  -23.7246  -37.6420   23.6704 H   0  0  0  0  0  0
  -26.1990  -31.4216   20.6233 H   0  0  0  0  0  0
  -26.8915  -30.7237   22.0487 H   0  0  0  0  0  0
  -28.1395  -28.6863   21.2725 H   0  0  0  0  0  0
  -25.8895  -25.8039   18.9797 H   0  0  0  0  0  0
  -23.9965  -27.2949   18.9527 H   0  0  0  0  0  0
  -23.8442  -30.5475   19.3937 H   0  0  0  0  0  0
  -22.8107  -29.2233   19.8336 H   0  0  0  0  0  0
  -25.1325  -36.1814   25.0798 H   0  0  0  0  0  0
  -21.0027  -28.3340   24.1329 H   0  0  0  0  0  0
  -20.5679  -26.2356   23.3635 H   0  0  0  0  0  0
  -21.6657  -26.7416   22.1203 H   0  0  0  0  0  0
  -19.6922  -25.6280   21.1267 H   0  0  0  0  0  0
  -19.6701  -27.3168   20.6727 H   0  0  0  0  0  0
  -17.4215  -26.6679   21.4036 H   0  0  0  0  0  0
  -18.0350  -26.0091   22.9036 H   0  0  0  0  0  0
  -19.7963  -30.7312   24.2210 H   0  0  0  0  0  0
  -17.5034  -31.6270   24.5169 H   0  0  0  0  0  0
  -15.5371  -30.2976   23.7683 H   0  0  0  0  0  0
  -15.8700  -28.0813   22.7095 H   0  0  0  0  0  0
  -24.5875  -30.7126   25.7693 H   0  0  0  0  0  0
  -24.8879  -32.2970   26.4730 H   0  0  0  0  0  0
  -25.7939  -30.8992   27.0221 H   0  0  0  0  0  0
  -26.3082  -29.6625   24.1375 H   0  0  0  0  0  0
  -27.3968  -29.7272   25.5019 H   0  0  0  0  0  0
  -27.9020  -30.4134   23.9786 H   0  0  0  0  0  0
  -27.2612  -33.3675   26.2006 H   0  0  0  0  0  0
  -28.3897  -32.6878   25.0375 H   0  0  0  0  0  0
  -28.0669  -31.8539   26.5502 H   0  0  0  0  0  0
  -28.2584  -38.0077   24.7500 H   0  0  0  0  0  0
  -28.1074  -36.2603   24.6315 H   0  0  0  0  0  0
  -27.2284  -37.1441   25.8870 H   0  0  0  0  0  0
  -20.9538  -29.8750   21.6719 H   0  0  0  0  0  0
  -26.0145  -38.2787   24.1403 H   0  0  0  0  0  0
  -31.0637  -21.4238   22.3719 H   0  0  0  0  0  0
  -30.0617  -23.6198   21.8076 H   0  0  0  0  0  0
  -27.5293  -21.6292   18.9474 H   0  0  0  0  0  0
  -28.9152  -18.6924   18.5185 H   0  0  0  0  0  0
  -27.7161  -18.4652   19.7859 H   0  0  0  0  0  0
  -26.9052  -24.2691   20.4264 H   0  0  0  0  0  0
  -27.6987  -24.3814   18.8967 H   0  0  0  0  0  0
  -28.6432  -16.0603   20.8044 H   0  0  0  0  0  0
  1 25  1  0  0  0
  1 30  2  0  0  0
  1 81  1  0  0  0
  2  3  1  0  0  0
  2 25  1  0  0  0
  2 83  1  0  0  0
  2 84  1  0  0  0
  3  4  1  0  0  0
  3 85  1  0  0  0
  3 86  1  0  0  0
  4  5  1  0  0  0
  4 87  1  0  0  0
  4 88  1  0  0  0
  5  6  1  0  0  0
  5 26  1  0  0  0
  5 89  1  0  0  0
  6 25  1  0  0  0
  6 90  1  0  0  0
  6 91  1  0  0  0
  7  8  2  0  0  0
  7 26  1  0  0  0
  7 29  1  0  0  0
  8  9  1  0  0  0
  8 22  1  0  0  0
  9 10  1  0  0  0
  9 27  2  0  0  0
 10 11  2  0  0  0
 10 15  1  0  0  0
 11 12  1  0  0  0
 11 92  1  0  0  0
 12 13  2  0  0  0
 12 93  1  0  0  0
 13 14  1  0  0  0
 13 31  1  0  0  0
 14 15  2  0  0  0
 14 94  1  0  0  0
 15 95  1  0  0  0
 16 17  2  0  0  0
 16 21  1  0  0  0
 16 31  1  0  0  0
 17 18  1  0  0  0
 17 96  1  0  0  0
 18 19  2  0  0  0
 18 97  1  0  0  0
 19 20  1  0  0  0
 19 24  1  0  0  0
 20 21  2  0  0  0
 20 98  1  0  0  0
 21 23  1  0  0  0
 22 28  1  0  0  0
 22 32  2  0  0  0
 26 27  1  0  0  0
 28 99  1  0  0  0
 28100  1  0  0  0
 29101  1  0  0  0
 29102  1  0  0  0
 33 34  1  0  0  0
 33 66  1  0  0  0
 33 70  2  0  0  0
 34 36  1  0  0  0
 34 59  1  0  0  0
 34103  1  0  0  0
 35 44  2  0  0  0
 35 45  1  0  0  0
 35 68  1  0  0  0
 36 56  1  0  0  0
 36104  1  0  0  0
 37 39  1  0  0  0
 37 47  1  0  0  0
 37 66  1  0  0  0
 37105  1  0  0  0
 38 43  2  0  0  0
 38 46  1  0  0  0
 38 47  1  0  0  0
 39 64  1  0  0  0
 39 67  2  0  0  0
 40 52  1  0  0  0
 40 53  2  0  0  0
 40 58  1  0  0  0
 41106  1  0  0  0
 41107  1  0  0  0
 41108  1  0  0  0
 41 48  1  0  0  0
 42 43  1  0  0  0
 42 66  1  0  0  0
 42109  1  0  0  0
 42110  1  0  0  0
 43 44  1  0  0  0
 44111  1  0  0  0
 45 46  2  0  0  0
 45112  1  0  0  0
 46113  1  0  0  0
 47114  1  0  0  0
 47115  1  0  0  0
 48 56  1  0  0  0
 48 65  1  0  0  0
 48116  1  0  0  0
 49 50  1  0  0  0
 49 53  1  0  0  0
 49 64  1  0  0  0
 49117  1  0  0  0
 50 51  1  0  0  0
 50118  1  0  0  0
 50119  1  0  0  0
 51 52  1  0  0  0
 51120  1  0  0  0
 51121  1  0  0  0
 52122  1  0  0  0
 52123  1  0  0  0
 53 54  1  0  0  0
 54 55  2  0  0  0
 54124  1  0  0  0
 55 57  1  0  0  0
 55125  1  0  0  0
 56 69  2  0  0  0
 57 58  2  0  0  0
 57126  1  0  0  0
 58127  1  0  0  0
 59 60  1  0  0  0
 59 61  1  0  0  0
 59 62  1  0  0  0
 60128  1  0  0  0
 60129  1  0  0  0
 60130  1  0  0  0
 61131  1  0  0  0
 61132  1  0  0  0
 61133  1  0  0  0
 62134  1  0  0  0
 62135  1  0  0  0
 62136  1  0  0  0
 63 65  1  0  0  0
 63137  1  0  0  0
 63138  1  0  0  0
 63139  1  0  0  0
 64140  1  0  0  0
 65141  1  0  0  0
 68 79  1  0  0  0
 71 72  2  0  0  0
 71 74  1  0  0  0
 71142  1  0  0  0
 72 76  1  0  0  0
 72143  1  0  0  0
 73 75  1  0  0  0
 73 76  2  0  0  0
 73144  1  0  0  0
 74 75  2  0  0  0
 74 77  1  0  0  0
 75 78  1  0  0  0
 76 79  1  0  0  0
 77 80  1  0  0  0
 77 82  2  0  0  0
 78 80  1  0  0  0
 78145  1  0  0  0
 78146  1  0  0  0
 79147  1  0  0  0
 79148  1  0  0  0
 80 81  1  0  0  0
 81149  1  0  0  0
M  ISO  4   1 100  68 101  79 101  81 100
M  END
> <chiral flag>
0

> <version>
0

> <s_m_source_file>
/data/baiqing/PycharmProjects/Reinvent-master-3.2/result/LINK_invent/BTK/process_docking_weight1_custom_product_contain_oxygen_bond_distance_aromatic_linkinvent_7_9_3/rearranged_h_0030.sdf

> <i_m_source_file_index>
39

> <r_mmod_Potential_Energy-OPLS-2005>
796.360412597656

> <r_mmod_Stretch_Energy-OPLS-2005>
360.649780273438

> <r_mmod_Bend_Energy-OPLS-2005>
375.125915527344

> <r_mmod_Torsional_Energy-OPLS-2005>
227.502731323242

> <r_mmod_Improper_Torsional_Energy-OPLS-2005>
6.05817890167236

> <r_mmod_Van_der_Waal_Energy-OPLS-2005>
121.04801940918

> <r_mmod_Electrostatic_Energy-OPLS-2005>
-363.687683105469

> <r_mmod_Solvation_Energy-OPLS-2005>
-245.848510742188

> <b_mmod_Minimization_Converged-OPLS-2005>
0

> <r_mmod_RMS_Derivative-OPLS-2005>
0.350247859954834

$$$$
39
                    3D
 Structure written by MMmdl.
143150  0  0  1  0            999 V2000
  -30.1636  -16.0165   20.2837 C   0  0  0  0  0  0
  -30.4021  -13.3807   19.5097 C   0  0  0  0  0  0
  -29.5672  -12.7447   18.3499 C   0  0  0  0  0  0
  -28.1808  -12.2975   18.8321 C   0  0  0  0  0  0
  -27.5888  -13.3376   19.8001 C   0  0  2  0  0  0
  -28.5861  -13.8471   20.8777 C   0  0  0  0  0  0
  -25.2337  -13.8308   20.5832 C   0  0  0  0  0  0
  -24.1745  -13.0427   20.9297 C   0  0  0  0  0  0
  -24.6485  -11.6955   20.8763 C   0  0  0  0  0  0
  -23.9183  -10.4297   21.0405 C   0  0  0  0  0  0
  -24.3690   -9.4205   21.9200 C   0  0  0  0  0  0
  -23.6323   -8.2263   22.0773 C   0  0  0  0  0  0
  -22.4301   -8.0322   21.3557 C   0  0  0  0  0  0
  -21.9971   -9.0311   20.4658 C   0  0  0  0  0  0
  -22.7347  -10.2160   20.3056 C   0  0  0  0  0  0
  -21.6865   -6.0767   22.5277 C   0  0  0  0  0  0
  -21.4023   -6.5660   23.8211 C   0  0  0  0  0  0
  -21.3650   -5.6801   24.9170 C   0  0  0  0  0  0
  -21.6034   -4.3069   24.7210 C   0  0  0  0  0  0
  -21.8818   -3.8167   23.4328 C   0  0  0  0  0  0
  -21.9194   -4.6989   22.3390 C   0  0  0  0  0  0
  -22.7748  -13.5156   21.1899 C   0  0  0  0  0  0
  -22.1667   -4.2180   21.0968 F   0  0  0  0  0  0
  -21.5617   -3.4544   25.7721 F   0  0  0  0  0  0
  -29.6793  -14.5908   20.1704 N   0  0  0  0  0  0
  -26.2827  -12.9698   20.3296 N   0  0  0  0  0  0
  -25.9450  -11.6736   20.5678 N   0  0  0  0  0  0
  -22.0376  -12.8144   22.0431 N   0  0  0  0  0  0
  -25.3914  -15.2038   20.4227 N   0  0  0  0  0  0
  -31.4110  -15.8730   20.3150 O   0  0  0  0  0  0
  -21.6650   -6.8922   21.4243 O   0  0  0  0  0  0
  -22.3446  -14.5464   20.6738 O   0  0  0  0  0  0
  -24.7056  -31.7721   23.1279 C   0  0  0  0  0  0
  -25.9532  -32.4316   23.7901 C   0  0  1  0  0  0
  -27.2397  -26.4470   20.2423 C   0  0  0  0  0  0
  -25.6018  -33.8158   24.1777 N   0  0  0  0  0  0
  -23.5424  -30.3631   21.4905 C   0  0  2  0  0  0
  -25.0002  -28.6446   20.1351 C   0  0  0  0  0  0
  -22.7854  -29.4187   22.4644 C   0  0  0  0  0  0
  -18.0371  -28.1416   22.8423 C   0  0  0  0  0  0
  -24.1517  -36.7085   23.2660 C   0  0  0  0  0  0
  -26.1337  -30.4200   21.4327 C   0  0  0  0  0  0
  -26.1981  -28.9547   20.7902 C   0  0  0  0  0  0
  -27.2916  -27.8963   20.7967 C   0  0  0  0  0  0
  -26.0015  -26.4115   19.5305 C   0  0  0  0  0  0
  -24.9557  -27.3989   19.4822 C   0  0  0  0  0  0
  -23.8105  -29.6337   20.1397 C   0  0  0  0  0  0
  -25.4171  -36.2793   24.0256 C   0  0  1  0  0  0
  -20.6014  -28.3800   23.1070 C   0  0  2  0  0  0
  -20.6839  -26.9442   22.5381 C   0  0  0  0  0  0
  -19.5827  -26.6358   21.5191 C   0  0  0  0  0  0
  -18.2003  -26.7940   22.1583 C   0  0  0  0  0  0
  -19.1638  -28.8931   23.2716 C   0  0  0  0  0  0
  -18.9548  -30.1508   23.8772 C   0  0  0  0  0  0
  -17.6539  -30.6592   24.0541 C   0  0  0  0  0  0
  -25.9163  -34.9196   23.4875 C   0  0  0  0  0  0
  -16.5425  -29.9075   23.6350 C   0  0  0  0  0  0
  -16.7348  -28.6498   23.0359 C   0  0  0  0  0  0
  -26.4636  -31.6450   25.0620 C   0  0  0  0  0  0
  -25.3610  -31.3840   26.1159 C   0  0  0  0  0  0
  -27.0610  -30.2754   24.6715 C   0  0  0  0  0  0
  -27.6057  -32.4362   25.7419 C   0  0  0  0  0  0
  -27.5566  -37.1691   24.8469 C   0  0  0  0  0  0
  -21.4482  -29.3015   22.3371 N   0  0  0  0  0  0
  -26.4271  -37.3581   23.9410 N   0  0  0  0  0  0
  -24.8204  -30.8911   22.0685 N   0  0  0  0  0  0
  -23.4189  -28.7845   23.3110 O   0  0  0  0  0  0
  -28.2103  -25.1382   20.2091 O   0  0  0  0  0  0
  -26.5834  -34.8827   22.4520 O   0  0  0  0  0  0
  -23.6030  -32.0923   23.6086 O   0  0  0  0  0  0
  -28.1464  -17.3478   19.4672 C   0  0  0  0  0  0
  -28.8124  -21.3013   19.9737 C   0  0  0  0  0  0
  -29.3809  -19.3622   20.5689 C   0  0  0  0  0  0
  -28.2518  -23.2636   20.5080 C   0  0  0  0  0  0
  -29.4090  -17.4905   20.1879 N   0  0  0  0  0  0
  -31.3491  -13.7206   19.0871 H   0  0  0  0  0  0
  -30.6891  -12.6298   20.2484 H   0  0  0  0  0  0
  -30.1007  -11.9032   17.9056 H   0  0  0  0  0  0
  -29.4507  -13.4882   17.5599 H   0  0  0  0  0  0
  -28.2969  -11.3475   19.3561 H   0  0  0  0  0  0
  -27.5119  -12.1116   17.9905 H   0  0  0  0  0  0
  -27.3888  -14.1854   19.1460 H   0  0  0  0  0  0
  -28.9521  -13.0395   21.5131 H   0  0  0  0  0  0
  -28.0824  -14.5461   21.5462 H   0  0  0  0  0  0
  -25.2818   -9.5670   22.4811 H   0  0  0  0  0  0
  -24.0006   -7.4646   22.7503 H   0  0  0  0  0  0
  -21.0901   -8.8859   19.8964 H   0  0  0  0  0  0
  -22.3825  -10.9720   19.6176 H   0  0  0  0  0  0
  -21.2033   -7.6171   23.9723 H   0  0  0  0  0  0
  -21.1463   -6.0535   25.9069 H   0  0  0  0  0  0
  -22.0599   -2.7631   23.2819 H   0  0  0  0  0  0
  -22.3953  -11.9803   22.4832 H   0  0  0  0  0  0
  -21.0994  -13.1198   22.2586 H   0  0  0  0  0  0
  -24.6180  -15.8537   20.5135 H   0  0  0  0  0  0
  -26.2365  -15.6377   20.0778 H   0  0  0  0  0  0
  -26.7628  -32.4715   23.0604 H   0  0  0  0  0  0
  -25.0022  -33.9142   24.9835 H   0  0  0  0  0  0
  -22.8827  -31.2078   21.2796 H   0  0  0  0  0  0
  -23.3793  -35.9400   23.3237 H   0  0  0  0  0  0
  -24.3589  -36.8852   22.2098 H   0  0  0  0  0  0
  -23.7284  -37.6231   23.6819 H   0  0  0  0  0  0
  -26.3696  -31.1317   20.6405 H   0  0  0  0  0  0
  -26.9701  -30.4928   22.1139 H   0  0  0  0  0  0
  -28.1969  -28.1645   21.3228 H   0  0  0  0  0  0
  -25.7942  -25.4939   18.9988 H   0  0  0  0  0  0
  -24.0597  -27.1443   18.9321 H   0  0  0  0  0  0
  -24.0068  -30.3831   19.3723 H   0  0  0  0  0  0
  -22.9079  -29.1151   19.8100 H   0  0  0  0  0  0
  -25.1403  -36.1503   25.0741 H   0  0  0  0  0  0
  -21.0074  -28.3462   24.1202 H   0  0  0  0  0  0
  -20.5710  -26.2429   23.3662 H   0  0  0  0  0  0
  -21.6702  -26.7377   22.1213 H   0  0  0  0  0  0
  -19.7002  -25.6243   21.1297 H   0  0  0  0  0  0
  -19.6788  -27.3096   20.6667 H   0  0  0  0  0  0
  -17.4282  -26.6659   21.3976 H   0  0  0  0  0  0
  -18.0400  -26.0087   22.8982 H   0  0  0  0  0  0
  -19.8041  -30.7337   24.2090 H   0  0  0  0  0  0
  -17.5110  -31.6270   24.5154 H   0  0  0  0  0  0
  -15.5426  -30.2945   23.7749 H   0  0  0  0  0  0
  -15.8745  -28.0788   22.7127 H   0  0  0  0  0  0
  -24.5835  -30.7168   25.7404 H   0  0  0  0  0  0
  -24.8745  -32.3083   26.4274 H   0  0  0  0  0  0
  -25.7670  -30.9167   27.0138 H   0  0  0  0  0  0
  -26.3378  -29.6279   24.1734 H   0  0  0  0  0  0
  -27.3964  -29.7306   25.5554 H   0  0  0  0  0  0
  -27.9394  -30.3809   24.0341 H   0  0  0  0  0  0
  -27.2609  -33.3796   26.1651 H   0  0  0  0  0  0
  -28.4001  -32.6704   25.0320 H   0  0  0  0  0  0
  -28.0563  -31.8717   26.5586 H   0  0  0  0  0  0
  -28.2518  -38.0043   24.7519 H   0  0  0  0  0  0
  -28.1127  -36.2561   24.6293 H   0  0  0  0  0  0
  -27.2274  -37.1305   25.8866 H   0  0  0  0  0  0
  -20.9828  -29.8607   21.6350 H   0  0  0  0  0  0
  -26.0066  -38.2612   24.1440 H   0  0  0  0  0  0
  -28.1011  -18.0711   18.6522 H   0  0  0  0  0  0
  -27.3084  -17.5390   20.1372 H   0  0  0  0  0  0
  -28.0019  -16.3666   19.0140 H   0  0  0  0  0  0
  -28.0363  -21.0683   19.2450 H   0  0  0  0  0  0
  -29.6673  -21.5348   19.3396 H   0  0  0  0  0  0
  -28.8748  -19.3113   21.5346 H   0  0  0  0  0  0
  -30.4241  -19.5134   20.8524 H   0  0  0  0  0  0
  -27.2187  -23.1099   20.8199 H   0  0  0  0  0  0
  -28.7962  -23.3194   21.4512 H   0  0  0  0  0  0
  1 25  1  0  0  0
  1 30  2  0  0  0
  1 75  1  0  0  0
  2  3  1  0  0  0
  2 25  1  0  0  0
  2 76  1  0  0  0
  2 77  1  0  0  0
  3  4  1  0  0  0
  3 78  1  0  0  0
  3 79  1  0  0  0
  4  5  1  0  0  0
  4 80  1  0  0  0
  4 81  1  0  0  0
  5  6  1  0  0  0
  5 26  1  0  0  0
  5 82  1  0  0  0
  6 25  1  0  0  0
  6 83  1  0  0  0
  6 84  1  0  0  0
  7  8  2  0  0  0
  7 26  1  0  0  0
  7 29  1  0  0  0
  8  9  1  0  0  0
  8 22  1  0  0  0
  9 10  1  0  0  0
  9 27  2  0  0  0
 10 11  2  0  0  0
 10 15  1  0  0  0
 11 12  1  0  0  0
 11 85  1  0  0  0
 12 13  2  0  0  0
 12 86  1  0  0  0
 13 14  1  0  0  0
 13 31  1  0  0  0
 14 15  2  0  0  0
 14 87  1  0  0  0
 15 88  1  0  0  0
 16 17  2  0  0  0
 16 21  1  0  0  0
 16 31  1  0  0  0
 17 18  1  0  0  0
 17 89  1  0  0  0
 18 19  2  0  0  0
 18 90  1  0  0  0
 19 20  1  0  0  0
 19 24  1  0  0  0
 20 21  2  0  0  0
 20 91  1  0  0  0
 21 23  1  0  0  0
 22 28  1  0  0  0
 22 32  2  0  0  0
 26 27  1  0  0  0
 28 92  1  0  0  0
 28 93  1  0  0  0
 29 94  1  0  0  0
 29 95  1  0  0  0
 33 34  1  0  0  0
 33 66  1  0  0  0
 33 70  2  0  0  0
 34 36  1  0  0  0
 34 59  1  0  0  0
 34 96  1  0  0  0
 35 44  2  0  0  0
 35 45  1  0  0  0
 35 68  1  0  0  0
 36 56  1  0  0  0
 36 97  1  0  0  0
 37 39  1  0  0  0
 37 47  1  0  0  0
 37 66  1  0  0  0
 37 98  1  0  0  0
 38 43  2  0  0  0
 38 46  1  0  0  0
 38 47  1  0  0  0
 39 64  1  0  0  0
 39 67  2  0  0  0
 40 52  1  0  0  0
 40 53  2  0  0  0
 40 58  1  0  0  0
 41 99  1  0  0  0
 41100  1  0  0  0
 41101  1  0  0  0
 41 48  1  0  0  0
 42 43  1  0  0  0
 42 66  1  0  0  0
 42102  1  0  0  0
 42103  1  0  0  0
 43 44  1  0  0  0
 44104  1  0  0  0
 45 46  2  0  0  0
 45105  1  0  0  0
 46106  1  0  0  0
 47107  1  0  0  0
 47108  1  0  0  0
 48 56  1  0  0  0
 48 65  1  0  0  0
 48109  1  0  0  0
 49 50  1  0  0  0
 49 53  1  0  0  0
 49 64  1  0  0  0
 49110  1  0  0  0
 50 51  1  0  0  0
 50111  1  0  0  0
 50112  1  0  0  0
 51 52  1  0  0  0
 51113  1  0  0  0
 51114  1  0  0  0
 52115  1  0  0  0
 52116  1  0  0  0
 53 54  1  0  0  0
 54 55  2  0  0  0
 54117  1  0  0  0
 55 57  1  0  0  0
 55118  1  0  0  0
 56 69  2  0  0  0
 57 58  2  0  0  0
 57119  1  0  0  0
 58120  1  0  0  0
 59 60  1  0  0  0
 59 61  1  0  0  0
 59 62  1  0  0  0
 60121  1  0  0  0
 60122  1  0  0  0
 60123  1  0  0  0
 61124  1  0  0  0
 61125  1  0  0  0
 61126  1  0  0  0
 62127  1  0  0  0
 62128  1  0  0  0
 62129  1  0  0  0
 63 65  1  0  0  0
 63130  1  0  0  0
 63131  1  0  0  0
 63132  1  0  0  0
 64133  1  0  0  0
 65134  1  0  0  0
 68 74  1  0  0  0
 71 75  1  0  0  0
 71135  1  0  0  0
 71136  1  0  0  0
 71137  1  0  0  0
 72 73  1  0  0  0
 72 74  1  0  0  0
 72138  1  0  0  0
 72139  1  0  0  0
 73 75  1  0  0  0
 73140  1  0  0  0
 73141  1  0  0  0
 74142  1  0  0  0
 74143  1  0  0  0
M  ISO  4   1 100  68 101  74 101  75 100
M  END
> <chiral flag>
0

> <version>
0

> <s_m_source_file>
/data/baiqing/PycharmProjects/Reinvent-master-3.2/result/LINK_invent/BTK/process_docking_weight1_custom_product_contain_oxygen_bond_distance_aromatic_linkinvent_7_9_3/rearranged_h_0030.sdf

> <i_m_source_file_index>
40

> <r_mmod_Potential_Energy-OPLS-2005>
4303.49072265625

> <r_mmod_Stretch_Energy-OPLS-2005>
1937.3203125

> <r_mmod_Bend_Energy-OPLS-2005>
891.069641113281

> <r_mmod_Torsional_Energy-OPLS-2005>
308.0107421875

> <r_mmod_Improper_Torsional_Energy-OPLS-2005>
4.89766931533813

> <r_mmod_Van_der_Waal_Energy-OPLS-2005>
112.25927734375

> <r_mmod_Electrostatic_Energy-OPLS-2005>
-274.442291259766

> <r_mmod_Solvation_Energy-OPLS-2005>
-215.008483886719

> <b_mmod_Minimization_Converged-OPLS-2005>
0

> <r_mmod_RMS_Derivative-OPLS-2005>
2.3036835193634

$$$$
40
                    3D
 Structure written by MMmdl.
159168  0  0  1  0            999 V2000
  -30.6416  -14.7064   20.4546 C   0  0  0  0  0  0
  -30.4259  -12.4321   19.4679 C   0  0  0  0  0  0
  -29.5018  -12.4877   18.2332 C   0  0  0  0  0  0
  -28.0297  -12.3216   18.6521 C   0  0  0  0  0  0
  -27.6401  -13.2303   19.8487 C   0  0  2  0  0  0
  -28.6856  -13.1664   20.9829 C   0  0  0  0  0  0
  -25.2510  -13.8206   20.5712 C   0  0  0  0  0  0
  -24.1796  -13.0444   20.9218 C   0  0  0  0  0  0
  -24.6389  -11.6923   20.8763 C   0  0  0  0  0  0
  -23.9074  -10.4289   21.0413 C   0  0  0  0  0  0
  -24.3618   -9.4201   21.9188 C   0  0  0  0  0  0
  -23.6290   -8.2239   22.0755 C   0  0  0  0  0  0
  -22.4272   -8.0279   21.3542 C   0  0  0  0  0  0
  -21.9916   -9.0252   20.4639 C   0  0  0  0  0  0
  -22.7252  -10.2132   20.3052 C   0  0  0  0  0  0
  -21.6858   -6.0735   22.5271 C   0  0  0  0  0  0
  -21.4008   -6.5637   23.8201 C   0  0  0  0  0  0
  -21.3657   -5.6792   24.9164 C   0  0  0  0  0  0
  -21.6047   -4.3055   24.7217 C   0  0  0  0  0  0
  -21.8825   -3.8147   23.4339 C   0  0  0  0  0  0
  -21.9189   -4.6963   22.3394 C   0  0  0  0  0  0
  -22.7813  -13.5214   21.1872 C   0  0  0  0  0  0
  -22.1664   -4.2148   21.0974 F   0  0  0  0  0  0
  -21.5629   -3.4537   25.7732 F   0  0  0  0  0  0
  -29.9872  -13.4993   20.3949 N   0  0  0  0  0  0
  -26.2929  -12.9411   20.3297 N   0  0  0  0  0  0
  -25.9318  -11.6551   20.5779 N   0  0  0  0  0  0
  -22.0473  -12.8182   22.0424 N   0  0  0  0  0  0
  -25.4211  -15.1930   20.4139 N   0  0  0  0  0  0
  -31.8360  -14.7693   20.1526 O   0  0  0  0  0  0
  -21.6641   -6.8876   21.4233 O   0  0  0  0  0  0
  -22.3487  -14.5517   20.6726 O   0  0  0  0  0  0
  -24.6287  -31.8548   23.1997 C   0  0  0  0  0  0
  -25.9125  -32.4746   23.8335 C   0  0  1  0  0  0
  -27.2103  -27.2872   20.1266 C   0  0  0  0  0  0
  -25.5947  -33.8546   24.2273 N   0  0  0  0  0  0
  -23.4235  -30.4794   21.5410 C   0  0  2  0  0  0
  -24.8697  -28.9341   20.1042 C   0  0  0  0  0  0
  -22.7479  -29.4601   22.4903 C   0  0  0  0  0  0
  -18.0282  -28.1386   22.8475 C   0  0  0  0  0  0
  -24.1490  -36.7262   23.2640 C   0  0  0  0  0  0
  -25.9673  -30.7781   21.3746 C   0  0  0  0  0  0
  -26.0397  -29.4051   20.7133 C   0  0  0  0  0  0
  -27.2161  -28.5941   20.7133 C   0  0  0  0  0  0
  -26.0242  -26.8823   19.4775 C   0  0  0  0  0  0
  -24.8661  -27.6809   19.4735 C   0  0  0  0  0  0
  -23.6388  -29.8150   20.1556 C   0  0  0  0  0  0
  -25.4115  -36.3054   24.0335 C   0  0  1  0  0  0
  -20.5885  -28.3684   23.1276 C   0  0  2  0  0  0
  -20.6782  -26.9410   22.5406 C   0  0  0  0  0  0
  -19.5758  -26.6373   21.5214 C   0  0  0  0  0  0
  -18.1923  -26.7938   22.1596 C   0  0  0  0  0  0
  -19.1539  -28.8847   23.2870 C   0  0  0  0  0  0
  -18.9469  -30.1449   23.8890 C   0  0  0  0  0  0
  -17.6478  -30.6590   24.0556 C   0  0  0  0  0  0
  -25.9054  -34.9425   23.5094 C   0  0  0  0  0  0
  -16.5362  -29.9084   23.6358 C   0  0  0  0  0  0
  -16.7271  -28.6498   23.0377 C   0  0  0  0  0  0
  -26.4514  -31.6569   25.0712 C   0  0  0  0  0  0
  -25.3743  -31.3700   26.1438 C   0  0  0  0  0  0
  -27.0390  -30.3004   24.6172 C   0  0  0  0  0  0
  -27.6066  -32.4300   25.7487 C   0  0  0  0  0  0
  -27.5568  -37.1788   24.8470 C   0  0  0  0  0  0
  -21.4185  -29.3035   22.3665 N   0  0  0  0  0  0
  -26.4278  -37.3757   23.9417 N   0  0  0  0  0  0
  -24.6922  -31.0546   22.0947 N   0  0  0  0  0  0
  -23.4193  -28.8158   23.3004 O   0  0  0  0  0  0
  -28.2869  -26.3842   20.2005 O   0  0  0  0  0  0
  -26.5594  -34.8892   22.4649 O   0  0  0  0  0  0
  -23.5443  -32.1355   23.7312 O   0  0  0  0  0  0
  -29.6990  -19.5005   19.3170 C   0  0  0  0  0  0
  -29.2456  -20.8556   19.3557 C   0  0  0  0  0  0
  -29.7253  -18.6509   20.4562 C   0  0  0  0  0  0
  -29.2254  -19.2570   21.6459 C   0  0  0  0  0  0
  -28.7594  -20.6296   21.6683 C   0  0  0  0  0  0
  -28.7745  -21.5095   20.5270 C   0  0  0  0  0  0
  -28.0701  -23.8081   19.4130 C   0  0  0  0  0  0
  -28.8952  -24.0147   21.2901 C   0  0  0  0  0  0
  -27.9388  -24.9533   20.4803 C   0  0  0  0  0  0
  -29.2197  -18.4470   22.9392 C   0  0  0  0  0  0
  -28.2176  -21.1823   22.9852 C   0  0  0  0  0  0
  -30.5027  -17.2587   20.3855 C   0  0  0  0  0  0
  -28.2573  -22.8984   20.5628 N   0  0  0  0  0  0
  -29.9192  -15.8745   20.6151 N   0  0  0  0  0  0
  -31.4659  -12.5469   19.1576 H   0  0  0  0  0  0
  -30.3679  -11.4571   19.9549 H   0  0  0  0  0  0
  -29.7763  -11.7073   17.5222 H   0  0  0  0  0  0
  -29.6327  -13.4373   17.7122 H   0  0  0  0  0  0
  -27.8855  -11.2756   18.9254 H   0  0  0  0  0  0
  -27.3681  -12.5058   17.8053 H   0  0  0  0  0  0
  -27.6355  -14.2503   19.4642 H   0  0  0  0  0  0
  -28.7132  -12.1723   21.4311 H   0  0  0  0  0  0
  -28.4301  -13.8599   21.7860 H   0  0  0  0  0  0
  -25.2760   -9.5676   22.4768 H   0  0  0  0  0  0
  -23.9995   -7.4629   22.7471 H   0  0  0  0  0  0
  -21.0856   -8.8768   19.8938 H   0  0  0  0  0  0
  -22.3714  -10.9666   19.6158 H   0  0  0  0  0  0
  -21.2005   -7.6146   23.9704 H   0  0  0  0  0  0
  -21.1476   -6.0523   25.9069 H   0  0  0  0  0  0
  -22.0609   -2.7607   23.2838 H   0  0  0  0  0  0
  -22.4100  -11.9826   22.4773 H   0  0  0  0  0  0
  -21.1089  -13.1179   22.2655 H   0  0  0  0  0  0
  -24.6585  -15.8508   20.5345 H   0  0  0  0  0  0
  -26.2706  -15.6313   20.0817 H   0  0  0  0  0  0
  -26.7179  -32.5403   23.1064 H   0  0  0  0  0  0
  -25.0228  -33.9700   25.0508 H   0  0  0  0  0  0
  -22.7196  -31.3022   21.3957 H   0  0  0  0  0  0
  -23.3760  -35.9584   23.3291 H   0  0  0  0  0  0
  -24.3587  -36.8889   22.2055 H   0  0  0  0  0  0
  -23.7238  -37.6460   23.6666 H   0  0  0  0  0  0
  -26.1075  -31.5444   20.6112 H   0  0  0  0  0  0
  -26.8433  -30.8190   22.0099 H   0  0  0  0  0  0
  -28.1099  -28.9438   21.2105 H   0  0  0  0  0  0
  -25.9745  -25.9200   18.9880 H   0  0  0  0  0  0
  -23.9713  -27.3173   18.9871 H   0  0  0  0  0  0
  -23.7537  -30.5910   19.3971 H   0  0  0  0  0  0
  -22.7580  -29.2432   19.8577 H   0  0  0  0  0  0
  -25.1303  -36.1884   25.0829 H   0  0  0  0  0  0
  -20.9973  -28.3239   24.1397 H   0  0  0  0  0  0
  -20.5701  -26.2289   23.3603 H   0  0  0  0  0  0
  -21.6650  -26.7451   22.1193 H   0  0  0  0  0  0
  -19.6939  -25.6284   21.1239 H   0  0  0  0  0  0
  -19.6722  -27.3184   20.6751 H   0  0  0  0  0  0
  -17.4228  -26.6717   21.3958 H   0  0  0  0  0  0
  -18.0271  -26.0071   22.8973 H   0  0  0  0  0  0
  -19.7954  -30.7252   24.2244 H   0  0  0  0  0  0
  -17.5046  -31.6285   24.5138 H   0  0  0  0  0  0
  -15.5361  -30.2992   23.7702 H   0  0  0  0  0  0
  -15.8664  -28.0813   22.7133 H   0  0  0  0  0  0
  -24.6013  -30.6916   25.7808 H   0  0  0  0  0  0
  -24.8821  -32.2852   26.4735 H   0  0  0  0  0  0
  -25.8091  -30.9031   27.0288 H   0  0  0  0  0  0
  -26.2981  -29.6701   24.1242 H   0  0  0  0  0  0
  -27.4187  -29.7292   25.4657 H   0  0  0  0  0  0
  -27.8793  -30.4335   23.9352 H   0  0  0  0  0  0
  -27.2723  -33.3674   26.1943 H   0  0  0  0  0  0
  -28.3951  -32.6719   25.0346 H   0  0  0  0  0  0
  -28.0643  -31.8485   26.5504 H   0  0  0  0  0  0
  -28.2584  -38.0085   24.7515 H   0  0  0  0  0  0
  -28.1065  -36.2613   24.6304 H   0  0  0  0  0  0
  -27.2283  -37.1452   25.8872 H   0  0  0  0  0  0
  -20.9346  -29.8762   21.6892 H   0  0  0  0  0  0
  -26.0145  -38.2817   24.1441 H   0  0  0  0  0  0
  -30.0787  -19.1262   18.3764 H   0  0  0  0  0  0
  -29.2739  -21.4171   18.4325 H   0  0  0  0  0  0
  -28.9521  -23.8974   18.7757 H   0  0  0  0  0  0
  -27.1603  -23.6249   18.8390 H   0  0  0  0  0  0
  -28.7177  -24.0215   22.3657 H   0  0  0  0  0  0
  -29.9518  -24.1402   21.0480 H   0  0  0  0  0  0
  -26.9571  -24.9157   20.9629 H   0  0  0  0  0  0
  -29.7072  -17.4795   22.8450 H   0  0  0  0  0  0
  -28.1961  -18.2556   23.2628 H   0  0  0  0  0  0
  -29.7357  -18.9897   23.7317 H   0  0  0  0  0  0
  -29.0409  -21.5367   23.6066 H   0  0  0  0  0  0
  -27.6613  -20.4318   23.5450 H   0  0  0  0  0  0
  -27.5192  -22.0048   22.8414 H   0  0  0  0  0  0
  -31.3371  -17.3556   21.0817 H   0  0  0  0  0  0
  -30.9831  -17.2257   19.4060 H   0  0  0  0  0  0
  -28.9302  -15.8034   20.7995 H   0  0  0  0  0  0
  1 25  1  0  0  0
  1 30  2  0  0  0
  1 84  1  0  0  0
  2  3  1  0  0  0
  2 25  1  0  0  0
  2 85  1  0  0  0
  2 86  1  0  0  0
  3  4  1  0  0  0
  3 87  1  0  0  0
  3 88  1  0  0  0
  4  5  1  0  0  0
  4 89  1  0  0  0
  4 90  1  0  0  0
  5  6  1  0  0  0
  5 26  1  0  0  0
  5 91  1  0  0  0
  6 25  1  0  0  0
  6 92  1  0  0  0
  6 93  1  0  0  0
  7  8  2  0  0  0
  7 26  1  0  0  0
  7 29  1  0  0  0
  8  9  1  0  0  0
  8 22  1  0  0  0
  9 10  1  0  0  0
  9 27  2  0  0  0
 10 11  2  0  0  0
 10 15  1  0  0  0
 11 12  1  0  0  0
 11 94  1  0  0  0
 12 13  2  0  0  0
 12 95  1  0  0  0
 13 14  1  0  0  0
 13 31  1  0  0  0
 14 15  2  0  0  0
 14 96  1  0  0  0
 15 97  1  0  0  0
 16 17  2  0  0  0
 16 21  1  0  0  0
 16 31  1  0  0  0
 17 18  1  0  0  0
 17 98  1  0  0  0
 18 19  2  0  0  0
 18 99  1  0  0  0
 19 20  1  0  0  0
 19 24  1  0  0  0
 20 21  2  0  0  0
 20100  1  0  0  0
 21 23  1  0  0  0
 22 28  1  0  0  0
 22 32  2  0  0  0
 26 27  1  0  0  0
 28101  1  0  0  0
 28102  1  0  0  0
 29103  1  0  0  0
 29104  1  0  0  0
 33 34  1  0  0  0
 33 66  1  0  0  0
 33 70  2  0  0  0
 34 36  1  0  0  0
 34 59  1  0  0  0
 34105  1  0  0  0
 35 44  2  0  0  0
 35 45  1  0  0  0
 35 68  1  0  0  0
 36 56  1  0  0  0
 36106  1  0  0  0
 37 39  1  0  0  0
 37 47  1  0  0  0
 37 66  1  0  0  0
 37107  1  0  0  0
 38 43  2  0  0  0
 38 46  1  0  0  0
 38 47  1  0  0  0
 39 64  1  0  0  0
 39 67  2  0  0  0
 40 52  1  0  0  0
 40 53  2  0  0  0
 40 58  1  0  0  0
 41108  1  0  0  0
 41109  1  0  0  0
 41110  1  0  0  0
 41 48  1  0  0  0
 42 43  1  0  0  0
 42 66  1  0  0  0
 42111  1  0  0  0
 42112  1  0  0  0
 43 44  1  0  0  0
 44113  1  0  0  0
 45 46  2  0  0  0
 45114  1  0  0  0
 46115  1  0  0  0
 47116  1  0  0  0
 47117  1  0  0  0
 48 56  1  0  0  0
 48 65  1  0  0  0
 48118  1  0  0  0
 49 50  1  0  0  0
 49 53  1  0  0  0
 49 64  1  0  0  0
 49119  1  0  0  0
 50 51  1  0  0  0
 50120  1  0  0  0
 50121  1  0  0  0
 51 52  1  0  0  0
 51122  1  0  0  0
 51123  1  0  0  0
 52124  1  0  0  0
 52125  1  0  0  0
 53 54  1  0  0  0
 54 55  2  0  0  0
 54126  1  0  0  0
 55 57  1  0  0  0
 55127  1  0  0  0
 56 69  2  0  0  0
 57 58  2  0  0  0
 57128  1  0  0  0
 58129  1  0  0  0
 59 60  1  0  0  0
 59 61  1  0  0  0
 59 62  1  0  0  0
 60130  1  0  0  0
 60131  1  0  0  0
 60132  1  0  0  0
 61133  1  0  0  0
 61134  1  0  0  0
 61135  1  0  0  0
 62136  1  0  0  0
 62137  1  0  0  0
 62138  1  0  0  0
 63 65  1  0  0  0
 63139  1  0  0  0
 63140  1  0  0  0
 63141  1  0  0  0
 64142  1  0  0  0
 65143  1  0  0  0
 68 79  1  0  0  0
 71 72  2  0  0  0
 71 73  1  0  0  0
 71144  1  0  0  0
 72 76  1  0  0  0
 72145  1  0  0  0
 73 74  2  0  0  0
 73 82  1  0  0  0
 74 75  1  0  0  0
 74 80  1  0  0  0
 75 76  2  0  0  0
 75 81  1  0  0  0
 76 83  1  0  0  0
 77 79  1  0  0  0
 77 83  1  0  0  0
 77146  1  0  0  0
 77147  1  0  0  0
 78 79  1  0  0  0
 78 83  1  0  0  0
 78148  1  0  0  0
 78149  1  0  0  0
 79150  1  0  0  0
 80151  1  0  0  0
 80152  1  0  0  0
 80153  1  0  0  0
 81154  1  0  0  0
 81155  1  0  0  0
 81156  1  0  0  0
 82 84  1  0  0  0
 82157  1  0  0  0
 82158  1  0  0  0
 84159  1  0  0  0
M  ISO  4   1 100  68 101  79 101  84 100
M  END
> <chiral flag>
0

> <version>
0

> <s_m_source_file>
/data/baiqing/PycharmProjects/Reinvent-master-3.2/result/LINK_invent/BTK/process_docking_weight1_custom_product_contain_oxygen_bond_distance_aromatic_linkinvent_7_9_3/rearranged_h_0030.sdf

> <i_m_source_file_index>
41

> <r_mmod_Potential_Energy-OPLS-2005>
156.103118896484

> <r_mmod_Stretch_Energy-OPLS-2005>
100.088363647461

> <r_mmod_Bend_Energy-OPLS-2005>
221.156982421875

> <r_mmod_Torsional_Energy-OPLS-2005>
247.478469848633

> <r_mmod_Improper_Torsional_Energy-OPLS-2005>
13.3834867477417

> <r_mmod_Van_der_Waal_Energy-OPLS-2005>
154.221755981445

> <r_mmod_Electrostatic_Energy-OPLS-2005>
-434.646575927734

> <r_mmod_Solvation_Energy-OPLS-2005>
-220.951232910156

> <b_mmod_Minimization_Converged-OPLS-2005>
0

> <r_mmod_RMS_Derivative-OPLS-2005>
1.89097380638123

$$$$
41
                    3D
 Structure written by MMmdl.
161170  0  0  1  0            999 V2000
  -30.6260  -14.6843   20.4627 C   0  0  0  0  0  0
  -30.4433  -12.4018   19.4845 C   0  0  0  0  0  0
  -29.5230  -12.4957   18.2485 C   0  0  0  0  0  0
  -28.0518  -12.3081   18.6647 C   0  0  0  0  0  0
  -27.6562  -13.2155   19.8596 C   0  0  2  0  0  0
  -28.6978  -13.1192   20.9994 C   0  0  0  0  0  0
  -25.2561  -13.8130   20.5602 C   0  0  0  0  0  0
  -24.1847  -13.0423   20.9144 C   0  0  0  0  0  0
  -24.6434  -11.6879   20.8727 C   0  0  0  0  0  0
  -23.9102  -10.4270   21.0382 C   0  0  0  0  0  0
  -24.3641   -9.4187   21.9174 C   0  0  0  0  0  0
  -23.6300   -8.2227   22.0762 C   0  0  0  0  0  0
  -22.4280   -8.0265   21.3550 C   0  0  0  0  0  0
  -21.9927   -9.0234   20.4642 C   0  0  0  0  0  0
  -22.7273  -10.2106   20.3043 C   0  0  0  0  0  0
  -21.6856   -6.0735   22.5273 C   0  0  0  0  0  0
  -21.4025   -6.5642   23.8212 C   0  0  0  0  0  0
  -21.3672   -5.6802   24.9165 C   0  0  0  0  0  0
  -21.6046   -4.3060   24.7219 C   0  0  0  0  0  0
  -21.8812   -3.8154   23.4334 C   0  0  0  0  0  0
  -21.9185   -4.6958   22.3396 C   0  0  0  0  0  0
  -22.7868  -13.5177   21.1821 C   0  0  0  0  0  0
  -22.1655   -4.2154   21.0969 F   0  0  0  0  0  0
  -21.5624   -3.4546   25.7727 F   0  0  0  0  0  0
  -30.0175  -13.4519   20.4322 N   0  0  0  0  0  0
  -26.3020  -12.9343   20.3284 N   0  0  0  0  0  0
  -25.9368  -11.6508   20.5775 N   0  0  0  0  0  0
  -22.0540  -12.8181   22.0382 N   0  0  0  0  0  0
  -25.4211  -15.1861   20.3909 N   0  0  0  0  0  0
  -31.7877  -14.8289   20.0641 O   0  0  0  0  0  0
  -21.6638   -6.8862   21.4240 O   0  0  0  0  0  0
  -22.3529  -14.5488   20.6646 O   0  0  0  0  0  0
  -24.6254  -31.8589   23.1944 C   0  0  0  0  0  0
  -25.9046  -32.4830   23.8325 C   0  0  1  0  0  0
  -27.2741  -27.3224   20.1302 C   0  0  0  0  0  0
  -25.5835  -33.8618   24.2229 N   0  0  0  0  0  0
  -23.4270  -30.4800   21.5329 C   0  0  2  0  0  0
  -24.8856  -28.9175   20.1252 C   0  0  0  0  0  0
  -22.7524  -29.4599   22.4827 C   0  0  0  0  0  0
  -18.0266  -28.1538   22.8468 C   0  0  0  0  0  0
  -24.1459  -36.7381   23.2660 C   0  0  0  0  0  0
  -25.9622  -30.7991   21.3575 C   0  0  0  0  0  0
  -26.0489  -29.4107   20.7297 C   0  0  0  0  0  0
  -27.2412  -28.6277   20.7145 C   0  0  0  0  0  0
  -26.0800  -26.8672   19.5257 C   0  0  0  0  0  0
  -24.9029  -27.6453   19.5245 C   0  0  0  0  0  0
  -23.6598  -29.8092   20.1515 C   0  0  0  0  0  0
  -25.4078  -36.3131   24.0336 C   0  0  1  0  0  0
  -20.5894  -28.3804   23.1304 C   0  0  2  0  0  0
  -20.6780  -26.9528   22.5446 C   0  0  0  0  0  0
  -19.5735  -26.6456   21.5279 C   0  0  0  0  0  0
  -18.1891  -26.8068   22.1650 C   0  0  0  0  0  0
  -19.1546  -28.8960   23.2884 C   0  0  0  0  0  0
  -18.9491  -30.1541   23.8951 C   0  0  0  0  0  0
  -17.6511  -30.6724   24.0614 C   0  0  0  0  0  0
  -25.9015  -34.9508   23.5093 C   0  0  0  0  0  0
  -16.5368  -29.9279   23.6365 C   0  0  0  0  0  0
  -16.7262  -28.6710   23.0331 C   0  0  0  0  0  0
  -26.4408  -31.6688   25.0722 C   0  0  0  0  0  0
  -25.3610  -31.3921   26.1456 C   0  0  0  0  0  0
  -27.0255  -30.3142   24.6090 C   0  0  0  0  0  0
  -27.5945  -32.4459   25.7525 C   0  0  0  0  0  0
  -27.5545  -37.1856   24.8453 C   0  0  0  0  0  0
  -21.4207  -29.3170   22.3699 N   0  0  0  0  0  0
  -26.4252  -37.3829   23.9416 N   0  0  0  0  0  0
  -24.6918  -31.0621   22.0880 N   0  0  0  0  0  0
  -23.4254  -28.8018   23.2804 O   0  0  0  0  0  0
  -28.4649  -26.5922   19.9606 O   0  0  0  0  0  0
  -26.5633  -34.8976   22.4682 O   0  0  0  0  0  0
  -23.5410  -32.1313   23.7305 O   0  0  0  0  0  0
  -30.7793  -19.4908   20.4495 C   0  0  0  0  0  0
  -30.9166  -18.0825   20.6922 C   0  0  0  0  0  0
  -28.6362  -17.7737   20.0483 C   0  0  0  0  0  0
  -29.5618  -20.0942   20.0060 C   0  0  0  0  0  0
  -28.4867  -19.1707   19.7984 C   0  0  0  0  0  0
  -29.8410  -17.1760   20.4913 C   0  0  0  0  0  0
  -28.3650  -23.0193   21.4494 C   0  0  0  0  0  0
  -28.2157  -22.2050   22.5062 C   0  0  0  0  0  0
  -27.7440  -24.4159   21.2768 C   0  0  0  0  0  0
  -29.5525  -24.1862   19.7507 C   0  0  0  0  0  0
  -28.8030  -25.2884   20.6013 C   0  0  1  0  0  0
  -27.1383  -19.5980   19.2344 C   0  0  0  0  0  0
  -29.4889  -21.6136   19.5319 C   0  0  0  0  0  0
  -29.8372  -15.7484   20.8308 N   0  0  0  0  0  0
  -29.4667  -22.8446   20.4540 N   0  3  2  0  0  0
  -31.4891  -12.5088   19.1965 H   0  0  0  0  0  0
  -30.3651  -11.4164   19.9487 H   0  0  0  0  0  0
  -29.8034  -11.7437   17.5120 H   0  0  0  0  0  0
  -29.6535  -13.4674   17.7671 H   0  0  0  0  0  0
  -27.9302  -11.2612   18.9513 H   0  0  0  0  0  0
  -27.3882  -12.4686   17.8141 H   0  0  0  0  0  0
  -27.6623  -14.2371   19.4790 H   0  0  0  0  0  0
  -28.7131  -12.1147   21.4284 H   0  0  0  0  0  0
  -28.4314  -13.7864   21.8205 H   0  0  0  0  0  0
  -25.2780   -9.5642   22.4749 H   0  0  0  0  0  0
  -23.9999   -7.4613   22.7498 H   0  0  0  0  0  0
  -21.0862   -8.8734   19.8942 H   0  0  0  0  0  0
  -22.3732  -10.9624   19.6136 H   0  0  0  0  0  0
  -21.2045   -7.6153   23.9708 H   0  0  0  0  0  0
  -21.1510   -6.0536   25.9071 H   0  0  0  0  0  0
  -22.0586   -2.7612   23.2828 H   0  0  0  0  0  0
  -22.4214  -11.9856   22.4773 H   0  0  0  0  0  0
  -21.1143  -13.1147   22.2591 H   0  0  0  0  0  0
  -24.6258  -15.8140   20.4180 H   0  0  0  0  0  0
  -26.2583  -15.6172   20.0251 H   0  0  0  0  0  0
  -26.7143  -32.5521   23.1124 H   0  0  0  0  0  0
  -24.9905  -33.9790   25.0310 H   0  0  0  0  0  0
  -22.7184  -31.2970   21.3796 H   0  0  0  0  0  0
  -23.3693  -35.9752   23.3339 H   0  0  0  0  0  0
  -24.3505  -36.8991   22.2068 H   0  0  0  0  0  0
  -23.7258  -37.6607   23.6668 H   0  0  0  0  0  0
  -26.0550  -31.5422   20.5642 H   0  0  0  0  0  0
  -26.8621  -30.8928   21.9561 H   0  0  0  0  0  0
  -28.1474  -29.0330   21.1420 H   0  0  0  0  0  0
  -26.0741  -25.9114   19.0229 H   0  0  0  0  0  0
  -24.0145  -27.2621   19.0443 H   0  0  0  0  0  0
  -23.8182  -30.5902   19.4081 H   0  0  0  0  0  0
  -22.7786  -29.2621   19.8113 H   0  0  0  0  0  0
  -25.1255  -36.2004   25.0837 H   0  0  0  0  0  0
  -20.9948  -28.3388   24.1441 H   0  0  0  0  0  0
  -20.5760  -26.2408   23.3662 H   0  0  0  0  0  0
  -21.6616  -26.7602   22.1156 H   0  0  0  0  0  0
  -19.6879  -25.6336   21.1385 H   0  0  0  0  0  0
  -19.6706  -27.3192   20.6750 H   0  0  0  0  0  0
  -17.4172  -26.6855   21.4043 H   0  0  0  0  0  0
  -18.0199  -26.0261   22.9077 H   0  0  0  0  0  0
  -19.7967  -30.7334   24.2345 H   0  0  0  0  0  0
  -17.5109  -31.6392   24.5246 H   0  0  0  0  0  0
  -15.5408  -30.3267   23.7678 H   0  0  0  0  0  0
  -15.8624  -28.1125   22.7009 H   0  0  0  0  0  0
  -24.5728  -30.7337   25.7775 H   0  0  0  0  0  0
  -24.8878  -32.3182   26.4776 H   0  0  0  0  0  0
  -25.7887  -30.9153   27.0284 H   0  0  0  0  0  0
  -26.2815  -29.6981   24.1015 H   0  0  0  0  0  0
  -27.3938  -29.7312   25.4522 H   0  0  0  0  0  0
  -27.8659  -30.4537   23.9292 H   0  0  0  0  0  0
  -27.2480  -33.3753   26.2069 H   0  0  0  0  0  0
  -28.3772  -32.7045   25.0397 H   0  0  0  0  0  0
  -28.0562  -31.8619   26.5496 H   0  0  0  0  0  0
  -28.2573  -38.0134   24.7428 H   0  0  0  0  0  0
  -28.1038  -36.2653   24.6345 H   0  0  0  0  0  0
  -27.2271  -37.1584   25.8866 H   0  0  0  0  0  0
  -20.9355  -29.9191   21.7208 H   0  0  0  0  0  0
  -26.0150  -38.2918   24.1442 H   0  0  0  0  0  0
  -31.6557  -20.1090   20.5867 H   0  0  0  0  0  0
  -31.8644  -17.7049   21.0437 H   0  0  0  0  0  0
  -27.7864  -17.1335   19.8613 H   0  0  0  0  0  0
  -27.5379  -22.4589   23.3078 H   0  0  0  0  0  0
  -28.7940  -21.2995   22.6194 H   0  0  0  0  0  0
  -27.4868  -24.8280   22.2533 H   0  0  0  0  0  0
  -26.8404  -24.3409   20.6740 H   0  0  0  0  0  0
  -30.5985  -24.4529   19.5774 H   0  0  0  0  0  0
  -29.0640  -24.1015   18.7823 H   0  0  0  0  0  0
  -29.4829  -25.5856   21.4012 H   0  0  0  0  0  0
  -26.3787  -18.8621   19.5030 H   0  0  0  0  0  0
  -27.1548  -19.6346   18.1446 H   0  0  0  0  0  0
  -26.8007  -20.5619   19.6114 H   0  0  0  0  0  0
  -28.6565  -21.7219   18.8374 H   0  0  0  0  0  0
  -30.3763  -21.7004   18.9057 H   0  0  0  0  0  0
  -28.9679  -15.4514   21.2457 H   0  0  0  0  0  0
  -30.3200  -22.7788   20.9905 H   0  0  0  0  0  0
  1 25  1  0  0  0
  1 30  2  0  0  0
  1 84  1  0  0  0
  2  3  1  0  0  0
  2 25  1  0  0  0
  2 86  1  0  0  0
  2 87  1  0  0  0
  3  4  1  0  0  0
  3 88  1  0  0  0
  3 89  1  0  0  0
  4  5  1  0  0  0
  4 90  1  0  0  0
  4 91  1  0  0  0
  5  6  1  0  0  0
  5 26  1  0  0  0
  5 92  1  0  0  0
  6 25  1  0  0  0
  6 93  1  0  0  0
  6 94  1  0  0  0
  7  8  2  0  0  0
  7 26  1  0  0  0
  7 29  1  0  0  0
  8  9  1  0  0  0
  8 22  1  0  0  0
  9 10  1  0  0  0
  9 27  2  0  0  0
 10 11  2  0  0  0
 10 15  1  0  0  0
 11 12  1  0  0  0
 11 95  1  0  0  0
 12 13  2  0  0  0
 12 96  1  0  0  0
 13 14  1  0  0  0
 13 31  1  0  0  0
 14 15  2  0  0  0
 14 97  1  0  0  0
 15 98  1  0  0  0
 16 17  2  0  0  0
 16 21  1  0  0  0
 16 31  1  0  0  0
 17 18  1  0  0  0
 17 99  1  0  0  0
 18 19  2  0  0  0
 18100  1  0  0  0
 19 20  1  0  0  0
 19 24  1  0  0  0
 20 21  2  0  0  0
 20101  1  0  0  0
 21 23  1  0  0  0
 22 28  1  0  0  0
 22 32  2  0  0  0
 26 27  1  0  0  0
 28102  1  0  0  0
 28103  1  0  0  0
 29104  1  0  0  0
 29105  1  0  0  0
 33 34  1  0  0  0
 33 66  1  0  0  0
 33 70  2  0  0  0
 34 36  1  0  0  0
 34 59  1  0  0  0
 34106  1  0  0  0
 35 44  2  0  0  0
 35 45  1  0  0  0
 35 68  1  0  0  0
 36 56  1  0  0  0
 36107  1  0  0  0
 37 39  1  0  0  0
 37 47  1  0  0  0
 37 66  1  0  0  0
 37108  1  0  0  0
 38 43  2  0  0  0
 38 46  1  0  0  0
 38 47  1  0  0  0
 39 64  1  0  0  0
 39 67  2  0  0  0
 40 52  1  0  0  0
 40 53  2  0  0  0
 40 58  1  0  0  0
 41109  1  0  0  0
 41110  1  0  0  0
 41111  1  0  0  0
 41 48  1  0  0  0
 42 43  1  0  0  0
 42 66  1  0  0  0
 42112  1  0  0  0
 42113  1  0  0  0
 43 44  1  0  0  0
 44114  1  0  0  0
 45 46  2  0  0  0
 45115  1  0  0  0
 46116  1  0  0  0
 47117  1  0  0  0
 47118  1  0  0  0
 48 56  1  0  0  0
 48 65  1  0  0  0
 48119  1  0  0  0
 49 50  1  0  0  0
 49 53  1  0  0  0
 49 64  1  0  0  0
 49120  1  0  0  0
 50 51  1  0  0  0
 50121  1  0  0  0
 50122  1  0  0  0
 51 52  1  0  0  0
 51123  1  0  0  0
 51124  1  0  0  0
 52125  1  0  0  0
 52126  1  0  0  0
 53 54  1  0  0  0
 54 55  2  0  0  0
 54127  1  0  0  0
 55 57  1  0  0  0
 55128  1  0  0  0
 56 69  2  0  0  0
 57 58  2  0  0  0
 57129  1  0  0  0
 58130  1  0  0  0
 59 60  1  0  0  0
 59 61  1  0  0  0
 59 62  1  0  0  0
 60131  1  0  0  0
 60132  1  0  0  0
 60133  1  0  0  0
 61134  1  0  0  0
 61135  1  0  0  0
 61136  1  0  0  0
 62137  1  0  0  0
 62138  1  0  0  0
 62139  1  0  0  0
 63 65  1  0  0  0
 63140  1  0  0  0
 63141  1  0  0  0
 63142  1  0  0  0
 64143  1  0  0  0
 65144  1  0  0  0
 68 81  1  0  0  0
 71 72  2  0  0  0
 71 74  1  0  0  0
 71145  1  0  0  0
 72 76  1  0  0  0
 72146  1  0  0  0
 73 75  1  0  0  0
 73 76  2  0  0  0
 73147  1  0  0  0
 74 75  2  0  0  0
 74 83  1  0  0  0
 75 82  1  0  0  0
 76 84  1  0  0  0
 77 78  2  0  0  0
 77 79  1  0  0  0
 77 85  1  0  0  0
 78148  1  0  0  0
 78149  1  0  0  0
 79 81  1  0  0  0
 79150  1  0  0  0
 79151  1  0  0  0
 80 81  1  0  0  0
 80 85  1  0  0  0
 80152  1  0  0  0
 80153  1  0  0  0
 81154  1  0  0  0
 82155  1  0  0  0
 82156  1  0  0  0
 82157  1  0  0  0
 83158  1  0  0  0
 83159  1  0  0  0
 83 85  1  0  0  0
 84160  1  0  0  0
 85161  1  0  0  0
M  CHG  1  85   1
M  ISO  4   1 100  68 101  81 101  84 100
M  END
> <chiral flag>
0

> <version>
0

> <s_m_source_file>
/data/baiqing/PycharmProjects/Reinvent-master-3.2/result/LINK_invent/BTK/process_docking_weight1_custom_product_contain_oxygen_bond_distance_aromatic_linkinvent_7_9_3/rearranged_h_0030.sdf

> <i_m_source_file_index>
42

> <r_mmod_Potential_Energy-OPLS-2005>
78.4264221191406

> <r_mmod_Stretch_Energy-OPLS-2005>
91.104377746582

> <r_mmod_Bend_Energy-OPLS-2005>
216.656295776367

> <r_mmod_Torsional_Energy-OPLS-2005>
279.497528076172

> <r_mmod_Improper_Torsional_Energy-OPLS-2005>
7.77561044692993

> <r_mmod_Van_der_Waal_Energy-OPLS-2005>
123.151863098145

> <r_mmod_Electrostatic_Energy-OPLS-2005>
-259.066497802734

> <r_mmod_Solvation_Energy-OPLS-2005>
-433.186553955078

> <b_mmod_Minimization_Converged-OPLS-2005>
0

> <r_mmod_RMS_Derivative-OPLS-2005>
7.06227588653564

$$$$
42
                    3D
 Structure written by MMmdl.
157166  0  0  1  0            999 V2000
  -30.5815  -14.7305   20.4663 C   0  0  0  0  0  0
  -30.4472  -12.4443   19.4617 C   0  0  0  0  0  0
  -29.5134  -12.5078   18.2309 C   0  0  0  0  0  0
  -28.0381  -12.3288   18.6448 C   0  0  0  0  0  0
  -27.6469  -13.2150   19.8563 C   0  0  2  0  0  0
  -28.6959  -13.1161   20.9871 C   0  0  0  0  0  0
  -25.2528  -13.8117   20.5745 C   0  0  0  0  0  0
  -24.1808  -13.0383   20.9232 C   0  0  0  0  0  0
  -24.6390  -11.6867   20.8752 C   0  0  0  0  0  0
  -23.9060  -10.4260   21.0411 C   0  0  0  0  0  0
  -24.3617   -9.4179   21.9190 C   0  0  0  0  0  0
  -23.6285   -8.2222   22.0756 C   0  0  0  0  0  0
  -22.4267   -8.0270   21.3545 C   0  0  0  0  0  0
  -21.9902   -9.0244   20.4649 C   0  0  0  0  0  0
  -22.7234  -10.2116   20.3056 C   0  0  0  0  0  0
  -21.6847   -6.0730   22.5278 C   0  0  0  0  0  0
  -21.4010   -6.5635   23.8213 C   0  0  0  0  0  0
  -21.3655   -5.6788   24.9174 C   0  0  0  0  0  0
  -21.6045   -4.3052   24.7225 C   0  0  0  0  0  0
  -21.8821   -3.8141   23.4346 C   0  0  0  0  0  0
  -21.9192   -4.6957   22.3401 C   0  0  0  0  0  0
  -22.7832  -13.5191   21.1876 C   0  0  0  0  0  0
  -22.1663   -4.2144   21.0980 F   0  0  0  0  0  0
  -21.5626   -3.4536   25.7738 F   0  0  0  0  0  0
  -30.0004  -13.4837   20.4135 N   0  0  0  0  0  0
  -26.2957  -12.9313   20.3298 N   0  0  0  0  0  0
  -25.9314  -11.6467   20.5746 N   0  0  0  0  0  0
  -22.0469  -12.8198   22.0434 N   0  0  0  0  0  0
  -25.4139  -15.1833   20.4244 N   0  0  0  0  0  0
  -31.7583  -14.8891   20.1310 O   0  0  0  0  0  0
  -21.6626   -6.8871   21.4242 O   0  0  0  0  0  0
  -22.3522  -14.5495   20.6709 O   0  0  0  0  0  0
  -24.6293  -31.8550   23.1972 C   0  0  0  0  0  0
  -25.9118  -32.4755   23.8322 C   0  0  1  0  0  0
  -27.2354  -27.2804   20.1234 C   0  0  0  0  0  0
  -25.5918  -33.8556   24.2250 N   0  0  0  0  0  0
  -23.4264  -30.4747   21.5402 C   0  0  2  0  0  0
  -24.8759  -28.9186   20.1107 C   0  0  0  0  0  0
  -22.7493  -29.4591   22.4915 C   0  0  0  0  0  0
  -18.0292  -28.1390   22.8483 C   0  0  0  0  0  0
  -24.1488  -36.7285   23.2638 C   0  0  0  0  0  0
  -25.9687  -30.7734   21.3730 C   0  0  0  0  0  0
  -26.0438  -29.3951   20.7184 C   0  0  0  0  0  0
  -27.2221  -28.5865   20.7158 C   0  0  0  0  0  0
  -26.0423  -26.8600   19.4943 C   0  0  0  0  0  0
  -24.8788  -27.6579   19.4910 C   0  0  0  0  0  0
  -23.6444  -29.8033   20.1577 C   0  0  0  0  0  0
  -25.4114  -36.3071   24.0325 C   0  0  1  0  0  0
  -20.5893  -28.3693   23.1276 C   0  0  2  0  0  0
  -20.6776  -26.9410   22.5415 C   0  0  0  0  0  0
  -19.5754  -26.6384   21.5215 C   0  0  0  0  0  0
  -18.1934  -26.7932   22.1625 C   0  0  0  0  0  0
  -19.1544  -28.8861   23.2874 C   0  0  0  0  0  0
  -18.9465  -30.1462   23.8892 C   0  0  0  0  0  0
  -17.6464  -30.6587   24.0567 C   0  0  0  0  0  0
  -25.9050  -34.9439   23.5094 C   0  0  0  0  0  0
  -16.5356  -29.9086   23.6331 C   0  0  0  0  0  0
  -16.7280  -28.6508   23.0346 C   0  0  0  0  0  0
  -26.4496  -31.6575   25.0704 C   0  0  0  0  0  0
  -25.3725  -31.3731   26.1429 C   0  0  0  0  0  0
  -27.0333  -30.2992   24.6174 C   0  0  0  0  0  0
  -27.6060  -32.4307   25.7475 C   0  0  0  0  0  0
  -27.5581  -37.1794   24.8463 C   0  0  0  0  0  0
  -21.4201  -29.3037   22.3661 N   0  0  0  0  0  0
  -26.4292  -37.3768   23.9407 N   0  0  0  0  0  0
  -24.6939  -31.0520   22.0939 N   0  0  0  0  0  0
  -23.4193  -28.8141   23.3019 O   0  0  0  0  0  0
  -28.3629  -26.4338   20.1920 O   0  0  0  0  0  0
  -26.5630  -34.8915   22.4665 O   0  0  0  0  0  0
  -23.5445  -32.1366   23.7276 O   0  0  0  0  0  0
  -30.4940  -19.5444   21.2625 C   0  0  0  0  0  0
  -29.3766  -20.2278   20.6865 C   0  0  0  0  0  0
  -28.4722  -19.3627   19.9901 C   0  0  0  0  0  0
  -29.7615  -17.2584   20.5743 C   0  0  0  0  0  0
  -30.6777  -18.1211   21.2410 C   0  0  0  0  0  0
  -28.6919  -17.9368   19.9108 C   0  0  0  0  0  0
  -27.6733  -23.8668   20.5352 C   0  0  0  0  0  0
  -29.5942  -24.1187   19.9945 C   0  0  0  0  0  0
  -28.3404  -25.0121   19.7185 C   0  0  2  0  0  0
  -27.2025  -19.9251   19.3601 C   0  0  0  0  0  0
  -29.1124  -21.7690   21.0698 C   0  0  0  0  0  0
  -29.7139  -15.7787   20.6984 N   0  0  0  0  0  0
  -28.7344  -22.9020   20.0972 N   0  3  1  0  0  0
  -31.9918  -17.4636   22.1500 Cl  0  0  0  0  0  0
  -27.5904  -16.9740   18.9861 Cl  0  0  0  0  0  0
  -31.4843  -12.5909   19.1554 H   0  0  0  0  0  0
  -30.4082  -11.4591   19.9294 H   0  0  0  0  0  0
  -29.7930  -11.7419   17.5058 H   0  0  0  0  0  0
  -29.6370  -13.4668   17.7256 H   0  0  0  0  0  0
  -27.8919  -11.2775   18.8954 H   0  0  0  0  0  0
  -27.3811  -12.5329   17.7984 H   0  0  0  0  0  0
  -27.6453  -14.2379   19.4869 H   0  0  0  0  0  0
  -28.7314  -12.1033   21.3916 H   0  0  0  0  0  0
  -28.4308  -13.7642   21.8238 H   0  0  0  0  0  0
  -25.2769   -9.5645   22.4758 H   0  0  0  0  0  0
  -23.9989   -7.4608   22.7475 H   0  0  0  0  0  0
  -21.0830   -8.8765   19.8961 H   0  0  0  0  0  0
  -22.3706  -10.9657   19.6159 H   0  0  0  0  0  0
  -21.2003   -7.6144   23.9714 H   0  0  0  0  0  0
  -21.1475   -6.0520   25.9077 H   0  0  0  0  0  0
  -22.0606   -2.7603   23.2851 H   0  0  0  0  0  0
  -22.4084  -11.9865   22.4833 H   0  0  0  0  0  0
  -21.1090  -13.1234   22.2632 H   0  0  0  0  0  0
  -24.6322  -15.8202   20.5242 H   0  0  0  0  0  0
  -26.2277  -15.6277   20.0156 H   0  0  0  0  0  0
  -26.7183  -32.5415   23.1066 H   0  0  0  0  0  0
  -25.0055  -33.9690   25.0391 H   0  0  0  0  0  0
  -22.7225  -31.2962   21.3920 H   0  0  0  0  0  0
  -23.3748  -35.9618   23.3299 H   0  0  0  0  0  0
  -24.3584  -36.8908   22.2054 H   0  0  0  0  0  0
  -23.7239  -37.6484   23.6664 H   0  0  0  0  0  0
  -26.1001  -31.5323   20.6005 H   0  0  0  0  0  0
  -26.8486  -30.8279   22.0028 H   0  0  0  0  0  0
  -28.1170  -28.9474   21.2036 H   0  0  0  0  0  0
  -25.9804  -25.8944   19.0158 H   0  0  0  0  0  0
  -23.9824  -27.2850   19.0146 H   0  0  0  0  0  0
  -23.7659  -30.5772   19.3990 H   0  0  0  0  0  0
  -22.7637  -29.2334   19.8559 H   0  0  0  0  0  0
  -25.1293  -36.1924   25.0818 H   0  0  0  0  0  0
  -20.9989  -28.3278   24.1396 H   0  0  0  0  0  0
  -20.5672  -26.2305   23.3621 H   0  0  0  0  0  0
  -21.6644  -26.7430   22.1214 H   0  0  0  0  0  0
  -19.6914  -25.6295   21.1244 H   0  0  0  0  0  0
  -19.6694  -27.3196   20.6747 H   0  0  0  0  0  0
  -17.4202  -26.6680   21.4030 H   0  0  0  0  0  0
  -18.0332  -26.0078   22.9025 H   0  0  0  0  0  0
  -19.7940  -30.7284   24.2254 H   0  0  0  0  0  0
  -17.5014  -31.6263   24.5172 H   0  0  0  0  0  0
  -15.5355  -30.2985   23.7649 H   0  0  0  0  0  0
  -15.8684  -28.0828   22.7051 H   0  0  0  0  0  0
  -24.5906  -30.7069   25.7761 H   0  0  0  0  0  0
  -24.8908  -32.2902   26.4828 H   0  0  0  0  0  0
  -25.8043  -30.8930   27.0220 H   0  0  0  0  0  0
  -26.2905  -29.6743   24.1199 H   0  0  0  0  0  0
  -27.4020  -29.7250   25.4684 H   0  0  0  0  0  0
  -27.8782  -30.4263   23.9402 H   0  0  0  0  0  0
  -27.2676  -33.3610   26.2051 H   0  0  0  0  0  0
  -28.3873  -32.6858   25.0302 H   0  0  0  0  0  0
  -28.0725  -31.8429   26.5392 H   0  0  0  0  0  0
  -28.2593  -38.0095   24.7508 H   0  0  0  0  0  0
  -28.1080  -36.2625   24.6289 H   0  0  0  0  0  0
  -27.2302  -37.1442   25.8867 H   0  0  0  0  0  0
  -20.9385  -29.8759   21.6867 H   0  0  0  0  0  0
  -26.0172  -38.2841   24.1411 H   0  0  0  0  0  0
  -31.2065  -20.1191   21.8371 H   0  0  0  0  0  0
  -26.6722  -23.5977   20.1990 H   0  0  0  0  0  0
  -27.6832  -24.0561   21.6112 H   0  0  0  0  0  0
  -30.0963  -24.3701   20.9312 H   0  0  0  0  0  0
  -30.3079  -24.0776   19.1714 H   0  0  0  0  0  0
  -28.0725  -24.9620   18.6606 H   0  0  0  0  0  0
  -26.9495  -20.9212   19.7130 H   0  0  0  0  0  0
  -26.3422  -19.2996   19.6021 H   0  0  0  0  0  0
  -27.2990  -19.9568   18.2742 H   0  0  0  0  0  0
  -29.9785  -22.1144   21.6340 H   0  0  0  0  0  0
  -28.3174  -21.7273   21.8144 H   0  0  0  0  0  0
  -28.7737  -15.4370   20.8168 H   0  0  0  0  0  0
  -28.5305  -22.5445   19.1777 H   0  0  0  0  0  0
  1 25  1  0  0  0
  1 30  2  0  0  0
  1 82  1  0  0  0
  2  3  1  0  0  0
  2 25  1  0  0  0
  2 86  1  0  0  0
  2 87  1  0  0  0
  3  4  1  0  0  0
  3 88  1  0  0  0
  3 89  1  0  0  0
  4  5  1  0  0  0
  4 90  1  0  0  0
  4 91  1  0  0  0
  5  6  1  0  0  0
  5 26  1  0  0  0
  5 92  1  0  0  0
  6 25  1  0  0  0
  6 93  1  0  0  0
  6 94  1  0  0  0
  7  8  2  0  0  0
  7 26  1  0  0  0
  7 29  1  0  0  0
  8  9  1  0  0  0
  8 22  1  0  0  0
  9 10  1  0  0  0
  9 27  2  0  0  0
 10 11  2  0  0  0
 10 15  1  0  0  0
 11 12  1  0  0  0
 11 95  1  0  0  0
 12 13  2  0  0  0
 12 96  1  0  0  0
 13 14  1  0  0  0
 13 31  1  0  0  0
 14 15  2  0  0  0
 14 97  1  0  0  0
 15 98  1  0  0  0
 16 17  2  0  0  0
 16 21  1  0  0  0
 16 31  1  0  0  0
 17 18  1  0  0  0
 17 99  1  0  0  0
 18 19  2  0  0  0
 18100  1  0  0  0
 19 20  1  0  0  0
 19 24  1  0  0  0
 20 21  2  0  0  0
 20101  1  0  0  0
 21 23  1  0  0  0
 22 28  1  0  0  0
 22 32  2  0  0  0
 26 27  1  0  0  0
 28102  1  0  0  0
 28103  1  0  0  0
 29104  1  0  0  0
 29105  1  0  0  0
 33 34  1  0  0  0
 33 66  1  0  0  0
 33 70  2  0  0  0
 34 36  1  0  0  0
 34 59  1  0  0  0
 34106  1  0  0  0
 35 44  2  0  0  0
 35 45  1  0  0  0
 35 68  1  0  0  0
 36 56  1  0  0  0
 36107  1  0  0  0
 37 39  1  0  0  0
 37 47  1  0  0  0
 37 66  1  0  0  0
 37108  1  0  0  0
 38 43  2  0  0  0
 38 46  1  0  0  0
 38 47  1  0  0  0
 39 64  1  0  0  0
 39 67  2  0  0  0
 40 52  1  0  0  0
 40 53  2  0  0  0
 40 58  1  0  0  0
 41109  1  0  0  0
 41110  1  0  0  0
 41111  1  0  0  0
 41 48  1  0  0  0
 42 43  1  0  0  0
 42 66  1  0  0  0
 42112  1  0  0  0
 42113  1  0  0  0
 43 44  1  0  0  0
 44114  1  0  0  0
 45 46  2  0  0  0
 45115  1  0  0  0
 46116  1  0  0  0
 47117  1  0  0  0
 47118  1  0  0  0
 48 56  1  0  0  0
 48 65  1  0  0  0
 48119  1  0  0  0
 49 50  1  0  0  0
 49 53  1  0  0  0
 49 64  1  0  0  0
 49120  1  0  0  0
 50 51  1  0  0  0
 50121  1  0  0  0
 50122  1  0  0  0
 51 52  1  0  0  0
 51123  1  0  0  0
 51124  1  0  0  0
 52125  1  0  0  0
 52126  1  0  0  0
 53 54  1  0  0  0
 54 55  2  0  0  0
 54127  1  0  0  0
 55 57  1  0  0  0
 55128  1  0  0  0
 56 69  2  0  0  0
 57 58  2  0  0  0
 57129  1  0  0  0
 58130  1  0  0  0
 59 60  1  0  0  0
 59 61  1  0  0  0
 59 62  1  0  0  0
 60131  1  0  0  0
 60132  1  0  0  0
 60133  1  0  0  0
 61134  1  0  0  0
 61135  1  0  0  0
 61136  1  0  0  0
 62137  1  0  0  0
 62138  1  0  0  0
 62139  1  0  0  0
 63 65  1  0  0  0
 63140  1  0  0  0
 63141  1  0  0  0
 63142  1  0  0  0
 64143  1  0  0  0
 65144  1  0  0  0
 68 79  1  0  0  0
 71 72  2  0  0  0
 71 75  1  0  0  0
 71145  1  0  0  0
 72 73  1  0  0  0
 72 81  1  0  0  0
 73 76  2  0  0  0
 73 80  1  0  0  0
 74 75  2  0  0  0
 74 76  1  0  0  0
 74 82  1  0  0  0
 75 84  1  0  0  0
 76 85  1  0  0  0
 77 79  1  0  0  0
 77 83  1  0  0  0
 77146  1  0  0  0
 77147  1  0  0  0
 78 79  1  0  0  0
 78 83  1  0  0  0
 78148  1  0  0  0
 78149  1  0  0  0
 79150  1  0  0  0
 80151  1  0  0  0
 80152  1  0  0  0
 80153  1  0  0  0
 81154  1  0  0  0
 81155  1  0  0  0
 81 83  1  0  0  0
 82156  1  0  0  0
 83157  1  0  0  0
M  CHG  1  83   1
M  ISO  4   1 100  68 101  79 101  82 100
M  END
> <chiral flag>
0

> <version>
0

> <s_m_source_file>
/data/baiqing/PycharmProjects/Reinvent-master-3.2/result/LINK_invent/BTK/process_docking_weight1_custom_product_contain_oxygen_bond_distance_aromatic_linkinvent_7_9_3/rearranged_h_0030.sdf

> <i_m_source_file_index>
43

> <r_mmod_Potential_Energy-OPLS-2005>
-68.4421844482422

> <r_mmod_Stretch_Energy-OPLS-2005>
108.715621948242

> <r_mmod_Bend_Energy-OPLS-2005>
203.857528686523

> <r_mmod_Torsional_Energy-OPLS-2005>
245.483413696289

> <r_mmod_Improper_Torsional_Energy-OPLS-2005>
8.56575775146484

> <r_mmod_Van_der_Waal_Energy-OPLS-2005>
138.010284423828

> <r_mmod_Electrostatic_Energy-OPLS-2005>
-351.664398193359

> <r_mmod_Solvation_Energy-OPLS-2005>
-496.544677734375

> <b_mmod_Minimization_Converged-OPLS-2005>
0

> <r_mmod_RMS_Derivative-OPLS-2005>
0.800156712532043

$$$$
43
                    3D
 Structure written by MMmdl.
161170  0  0  1  0            999 V2000
  -30.6058  -14.6685   20.4920 C   0  0  0  0  0  0
  -30.4441  -12.4110   19.4533 C   0  0  0  0  0  0
  -29.5127  -12.5012   18.2243 C   0  0  0  0  0  0
  -28.0361  -12.3252   18.6391 C   0  0  0  0  0  0
  -27.6507  -13.2033   19.8589 C   0  0  2  0  0  0
  -28.6960  -13.0808   20.9885 C   0  0  0  0  0  0
  -25.2544  -13.8072   20.5688 C   0  0  0  0  0  0
  -24.1812  -13.0368   20.9200 C   0  0  0  0  0  0
  -24.6381  -11.6847   20.8727 C   0  0  0  0  0  0
  -23.9051  -10.4252   21.0388 C   0  0  0  0  0  0
  -24.3613   -9.4179   21.9172 C   0  0  0  0  0  0
  -23.6296   -8.2209   22.0749 C   0  0  0  0  0  0
  -22.4276   -8.0249   21.3532 C   0  0  0  0  0  0
  -21.9898   -9.0224   20.4646 C   0  0  0  0  0  0
  -22.7216  -10.2106   20.3049 C   0  0  0  0  0  0
  -21.6852   -6.0724   22.5281 C   0  0  0  0  0  0
  -21.4004   -6.5634   23.8213 C   0  0  0  0  0  0
  -21.3649   -5.6786   24.9174 C   0  0  0  0  0  0
  -21.6041   -4.3049   24.7214 C   0  0  0  0  0  0
  -21.8824   -3.8135   23.4339 C   0  0  0  0  0  0
  -21.9191   -4.6954   22.3399 C   0  0  0  0  0  0
  -22.7846  -13.5187   21.1857 C   0  0  0  0  0  0
  -22.1661   -4.2150   21.0977 F   0  0  0  0  0  0
  -21.5635   -3.4532   25.7723 F   0  0  0  0  0  0
  -30.0067  -13.4364   20.4198 N   0  0  0  0  0  0
  -26.2973  -12.9257   20.3291 N   0  0  0  0  0  0
  -25.9310  -11.6429   20.5752 N   0  0  0  0  0  0
  -22.0474  -12.8203   22.0428 N   0  0  0  0  0  0
  -25.4220  -15.1768   20.4121 N   0  0  0  0  0  0
  -31.7862  -14.8296   20.1664 O   0  0  0  0  0  0
  -21.6631   -6.8854   21.4237 O   0  0  0  0  0  0
  -22.3544  -14.5487   20.6686 O   0  0  0  0  0  0
  -24.6253  -31.8576   23.2023 C   0  0  0  0  0  0
  -25.9102  -32.4759   23.8348 C   0  0  1  0  0  0
  -27.2332  -27.3137   20.1251 C   0  0  0  0  0  0
  -25.5896  -33.8562   24.2240 N   0  0  0  0  0  0
  -23.4219  -30.4812   21.5423 C   0  0  2  0  0  0
  -24.8712  -28.9342   20.1105 C   0  0  0  0  0  0
  -22.7472  -29.4622   22.4915 C   0  0  0  0  0  0
  -18.0283  -28.1387   22.8475 C   0  0  0  0  0  0
  -24.1487  -36.7297   23.2644 C   0  0  0  0  0  0
  -25.9636  -30.7852   21.3802 C   0  0  0  0  0  0
  -26.0382  -29.4141   20.7181 C   0  0  0  0  0  0
  -27.2206  -28.6156   20.7166 C   0  0  0  0  0  0
  -26.0451  -26.8923   19.4836 C   0  0  0  0  0  0
  -24.8767  -27.6781   19.4857 C   0  0  0  0  0  0
  -23.6389  -29.8153   20.1576 C   0  0  0  0  0  0
  -25.4110  -36.3070   24.0326 C   0  0  1  0  0  0
  -20.5880  -28.3700   23.1265 C   0  0  2  0  0  0
  -20.6770  -26.9417   22.5410 C   0  0  0  0  0  0
  -19.5754  -26.6380   21.5203 C   0  0  0  0  0  0
  -18.1933  -26.7935   22.1609 C   0  0  0  0  0  0
  -19.1531  -28.8856   23.2872 C   0  0  0  0  0  0
  -18.9464  -30.1457   23.8889 C   0  0  0  0  0  0
  -17.6465  -30.6597   24.0560 C   0  0  0  0  0  0
  -25.9045  -34.9438   23.5084 C   0  0  0  0  0  0
  -16.5355  -29.9095   23.6331 C   0  0  0  0  0  0
  -16.7267  -28.6511   23.0350 C   0  0  0  0  0  0
  -26.4486  -31.6602   25.0749 C   0  0  0  0  0  0
  -25.3709  -31.3780   26.1478 C   0  0  0  0  0  0
  -27.0345  -30.3004   24.6278 C   0  0  0  0  0  0
  -27.6018  -32.4375   25.7520 C   0  0  0  0  0  0
  -27.5581  -37.1805   24.8456 C   0  0  0  0  0  0
  -21.4185  -29.3046   22.3655 N   0  0  0  0  0  0
  -26.4277  -37.3774   23.9418 N   0  0  0  0  0  0
  -24.6878  -31.0587   22.0966 N   0  0  0  0  0  0
  -23.4192  -28.8165   23.2999 O   0  0  0  0  0  0
  -28.3620  -26.4751   20.1907 O   0  0  0  0  0  0
  -26.5637  -34.8908   22.4666 O   0  0  0  0  0  0
  -23.5416  -32.1376   23.7344 O   0  0  0  0  0  0
  -28.9149  -19.4332   20.1513 C   0  0  0  0  0  0
  -30.9522  -17.8845   21.2991 C   0  0  0  0  0  0
  -28.8861  -18.0064   20.0699 C   0  0  0  0  0  0
  -29.9625  -20.1314   20.8024 C   0  0  0  0  0  0
  -29.8968  -17.1819   20.6617 C   0  0  0  0  0  0
  -30.9826  -19.3110   21.3619 C   0  0  0  0  0  0
  -29.0708  -22.9699   18.9176 C   0  0  0  0  0  0
  -29.5040  -22.1181   17.9692 C   0  0  0  0  0  0
  -28.5927  -24.4161   18.7102 C   0  0  0  0  0  0
  -29.0368  -24.0523   21.0141 C   0  0  0  0  0  0
  -28.2065  -24.9972   20.0827 C   0  0  1  0  0  0
  -27.7238  -17.3988   19.3116 C   0  0  0  0  0  0
  -30.0586  -21.7015   20.9665 C   0  0  0  0  0  0
  -29.7500  -15.7204   20.7156 N   0  0  0  0  0  0
  -29.0393  -22.6768   20.3875 N   0  3  2  0  0  0
  -32.0143  -19.9069   22.0089 F   0  0  0  0  0  0
  -31.4841  -12.5489   19.1521 H   0  0  0  0  0  0
  -30.3906  -11.4170   19.9022 H   0  0  0  0  0  0
  -29.7917  -11.7408   17.4931 H   0  0  0  0  0  0
  -29.6433  -13.4657   17.7289 H   0  0  0  0  0  0
  -27.8882  -11.2735   18.8842 H   0  0  0  0  0  0
  -27.3755  -12.5326   17.7970 H   0  0  0  0  0  0
  -27.6606  -14.2320   19.5050 H   0  0  0  0  0  0
  -28.7191  -12.0619   21.3805 H   0  0  0  0  0  0
  -28.4357  -13.7210   21.8330 H   0  0  0  0  0  0
  -25.2761   -9.5666   22.4745 H   0  0  0  0  0  0
  -24.0009   -7.4604   22.7474 H   0  0  0  0  0  0
  -21.0820   -8.8731   19.8975 H   0  0  0  0  0  0
  -22.3654  -10.9644   19.6163 H   0  0  0  0  0  0
  -21.2000   -7.6145   23.9715 H   0  0  0  0  0  0
  -21.1464   -6.0515   25.9081 H   0  0  0  0  0  0
  -22.0615   -2.7604   23.2834 H   0  0  0  0  0  0
  -22.4071  -11.9867   22.4842 H   0  0  0  0  0  0
  -21.1099  -13.1260   22.2637 H   0  0  0  0  0  0
  -24.6502  -15.8252   20.5203 H   0  0  0  0  0  0
  -26.2622  -15.6135   20.0646 H   0  0  0  0  0  0
  -26.7172  -32.5427   23.1098 H   0  0  0  0  0  0
  -25.0025  -33.9694   25.0369 H   0  0  0  0  0  0
  -22.7168  -31.3020   21.3978 H   0  0  0  0  0  0
  -23.3738  -35.9642   23.3296 H   0  0  0  0  0  0
  -24.3579  -36.8929   22.2059 H   0  0  0  0  0  0
  -23.7237  -37.6493   23.6677 H   0  0  0  0  0  0
  -26.1072  -31.5524   20.6182 H   0  0  0  0  0  0
  -26.8363  -30.8227   22.0215 H   0  0  0  0  0  0
  -28.1133  -28.9805   21.2044 H   0  0  0  0  0  0
  -25.9911  -25.9410   18.9766 H   0  0  0  0  0  0
  -23.9842  -27.3022   19.0036 H   0  0  0  0  0  0
  -23.7635  -30.5912   19.4008 H   0  0  0  0  0  0
  -22.7589  -29.2459   19.8537 H   0  0  0  0  0  0
  -25.1295  -36.1920   25.0820 H   0  0  0  0  0  0
  -20.9970  -28.3278   24.1384 H   0  0  0  0  0  0
  -20.5649  -26.2315   23.3618 H   0  0  0  0  0  0
  -21.6647  -26.7451   22.1212 H   0  0  0  0  0  0
  -19.6920  -25.6282   21.1248 H   0  0  0  0  0  0
  -19.6691  -27.3172   20.6714 H   0  0  0  0  0  0
  -17.4207  -26.6664   21.4010 H   0  0  0  0  0  0
  -18.0346  -26.0075   22.9001 H   0  0  0  0  0  0
  -19.7947  -30.7269   24.2249 H   0  0  0  0  0  0
  -17.5035  -31.6277   24.5167 H   0  0  0  0  0  0
  -15.5356  -30.3005   23.7671 H   0  0  0  0  0  0
  -15.8664  -28.0841   22.7065 H   0  0  0  0  0  0
  -24.5834  -30.7181   25.7828 H   0  0  0  0  0  0
  -24.8961  -32.2967   26.4930 H   0  0  0  0  0  0
  -25.8009  -30.8932   27.0246 H   0  0  0  0  0  0
  -26.2953  -29.6749   24.1256 H   0  0  0  0  0  0
  -27.3936  -29.7291   25.4854 H   0  0  0  0  0  0
  -27.8871  -30.4259   23.9597 H   0  0  0  0  0  0
  -27.2565  -33.3633   26.2137 H   0  0  0  0  0  0
  -28.3792  -32.7014   25.0340 H   0  0  0  0  0  0
  -28.0734  -31.8503   26.5408 H   0  0  0  0  0  0
  -28.2590  -38.0113   24.7512 H   0  0  0  0  0  0
  -28.1073  -36.2641   24.6250 H   0  0  0  0  0  0
  -27.2309  -37.1427   25.8860 H   0  0  0  0  0  0
  -20.9355  -29.8779   21.6875 H   0  0  0  0  0  0
  -26.0156  -38.2847   24.1414 H   0  0  0  0  0  0
  -28.1062  -19.9927   19.7013 H   0  0  0  0  0  0
  -31.7409  -17.3302   21.7876 H   0  0  0  0  0  0
  -29.5252  -22.4140   16.9305 H   0  0  0  0  0  0
  -29.8533  -21.1229   18.1964 H   0  0  0  0  0  0
  -27.7609  -24.4594   18.0062 H   0  0  0  0  0  0
  -29.4171  -24.9848   18.2784 H   0  0  0  0  0  0
  -28.6424  -24.0319   22.0293 H   0  0  0  0  0  0
  -30.0645  -24.4155   21.0731 H   0  0  0  0  0  0
  -27.1732  -24.7219   20.2978 H   0  0  0  0  0  0
  -27.5023  -17.9918   18.4246 H   0  0  0  0  0  0
  -26.8335  -17.4044   19.9388 H   0  0  0  0  0  0
  -27.9344  -16.3870   18.9689 H   0  0  0  0  0  0
  -31.0485  -22.0094   20.6267 H   0  0  0  0  0  0
  -30.0614  -21.8691   22.0435 H   0  0  0  0  0  0
  -28.7996  -15.4046   20.8350 H   0  0  0  0  0  0
  -28.1392  -22.2742   20.6109 H   0  0  0  0  0  0
  1 25  1  0  0  0
  1 30  2  0  0  0
  1 84  1  0  0  0
  2  3  1  0  0  0
  2 25  1  0  0  0
  2 87  1  0  0  0
  2 88  1  0  0  0
  3  4  1  0  0  0
  3 89  1  0  0  0
  3 90  1  0  0  0
  4  5  1  0  0  0
  4 91  1  0  0  0
  4 92  1  0  0  0
  5  6  1  0  0  0
  5 26  1  0  0  0
  5 93  1  0  0  0
  6 25  1  0  0  0
  6 94  1  0  0  0
  6 95  1  0  0  0
  7  8  2  0  0  0
  7 26  1  0  0  0
  7 29  1  0  0  0
  8  9  1  0  0  0
  8 22  1  0  0  0
  9 10  1  0  0  0
  9 27  2  0  0  0
 10 11  2  0  0  0
 10 15  1  0  0  0
 11 12  1  0  0  0
 11 96  1  0  0  0
 12 13  2  0  0  0
 12 97  1  0  0  0
 13 14  1  0  0  0
 13 31  1  0  0  0
 14 15  2  0  0  0
 14 98  1  0  0  0
 15 99  1  0  0  0
 16 17  2  0  0  0
 16 21  1  0  0  0
 16 31  1  0  0  0
 17 18  1  0  0  0
 17100  1  0  0  0
 18 19  2  0  0  0
 18101  1  0  0  0
 19 20  1  0  0  0
 19 24  1  0  0  0
 20 21  2  0  0  0
 20102  1  0  0  0
 21 23  1  0  0  0
 22 28  1  0  0  0
 22 32  2  0  0  0
 26 27  1  0  0  0
 28103  1  0  0  0
 28104  1  0  0  0
 29105  1  0  0  0
 29106  1  0  0  0
 33 34  1  0  0  0
 33 66  1  0  0  0
 33 70  2  0  0  0
 34 36  1  0  0  0
 34 59  1  0  0  0
 34107  1  0  0  0
 35 44  2  0  0  0
 35 45  1  0  0  0
 35 68  1  0  0  0
 36 56  1  0  0  0
 36108  1  0  0  0
 37 39  1  0  0  0
 37 47  1  0  0  0
 37 66  1  0  0  0
 37109  1  0  0  0
 38 43  2  0  0  0
 38 46  1  0  0  0
 38 47  1  0  0  0
 39 64  1  0  0  0
 39 67  2  0  0  0
 40 52  1  0  0  0
 40 53  2  0  0  0
 40 58  1  0  0  0
 41110  1  0  0  0
 41111  1  0  0  0
 41112  1  0  0  0
 41 48  1  0  0  0
 42 43  1  0  0  0
 42 66  1  0  0  0
 42113  1  0  0  0
 42114  1  0  0  0
 43 44  1  0  0  0
 44115  1  0  0  0
 45 46  2  0  0  0
 45116  1  0  0  0
 46117  1  0  0  0
 47118  1  0  0  0
 47119  1  0  0  0
 48 56  1  0  0  0
 48 65  1  0  0  0
 48120  1  0  0  0
 49 50  1  0  0  0
 49 53  1  0  0  0
 49 64  1  0  0  0
 49121  1  0  0  0
 50 51  1  0  0  0
 50122  1  0  0  0
 50123  1  0  0  0
 51 52  1  0  0  0
 51124  1  0  0  0
 51125  1  0  0  0
 52126  1  0  0  0
 52127  1  0  0  0
 53 54  1  0  0  0
 54 55  2  0  0  0
 54128  1  0  0  0
 55 57  1  0  0  0
 55129  1  0  0  0
 56 69  2  0  0  0
 57 58  2  0  0  0
 57130  1  0  0  0
 58131  1  0  0  0
 59 60  1  0  0  0
 59 61  1  0  0  0
 59 62  1  0  0  0
 60132  1  0  0  0
 60133  1  0  0  0
 60134  1  0  0  0
 61135  1  0  0  0
 61136  1  0  0  0
 61137  1  0  0  0
 62138  1  0  0  0
 62139  1  0  0  0
 62140  1  0  0  0
 63 65  1  0  0  0
 63141  1  0  0  0
 63142  1  0  0  0
 63143  1  0  0  0
 64144  1  0  0  0
 65145  1  0  0  0
 68 81  1  0  0  0
 71 73  2  0  0  0
 71 74  1  0  0  0
 71146  1  0  0  0
 72 75  2  0  0  0
 72 76  1  0  0  0
 72147  1  0  0  0
 73 75  1  0  0  0
 73 82  1  0  0  0
 74 76  2  0  0  0
 74 83  1  0  0  0
 75 84  1  0  0  0
 76 86  1  0  0  0
 77 78  2  0  0  0
 77 79  1  0  0  0
 77 85  1  0  0  0
 78148  1  0  0  0
 78149  1  0  0  0
 79 81  1  0  0  0
 79150  1  0  0  0
 79151  1  0  0  0
 80 81  1  0  0  0
 80 85  1  0  0  0
 80152  1  0  0  0
 80153  1  0  0  0
 81154  1  0  0  0
 82155  1  0  0  0
 82156  1  0  0  0
 82157  1  0  0  0
 83158  1  0  0  0
 83159  1  0  0  0
 83 85  1  0  0  0
 84160  1  0  0  0
 85161  1  0  0  0
M  CHG  1  85   1
M  ISO  4   1 100  68 101  81 101  84 100
M  END
> <chiral flag>
0

> <version>
0

> <s_m_source_file>
/data/baiqing/PycharmProjects/Reinvent-master-3.2/result/LINK_invent/BTK/process_docking_weight1_custom_product_contain_oxygen_bond_distance_aromatic_linkinvent_7_9_3/rearranged_h_0030.sdf

> <i_m_source_file_index>
44

> <r_mmod_Potential_Energy-OPLS-2005>
-15.8967895507812

> <r_mmod_Stretch_Energy-OPLS-2005>
81.2766494750977

> <r_mmod_Bend_Energy-OPLS-2005>
181.748916625977

> <r_mmod_Torsional_Energy-OPLS-2005>
248.021499633789

> <r_mmod_Improper_Torsional_Energy-OPLS-2005>
6.00293159484863

> <r_mmod_Van_der_Waal_Energy-OPLS-2005>
136.217712402344

> <r_mmod_Electrostatic_Energy-OPLS-2005>
-289.019989013672

> <r_mmod_Solvation_Energy-OPLS-2005>
-436.394256591797

> <b_mmod_Minimization_Converged-OPLS-2005>
0

> <r_mmod_RMS_Derivative-OPLS-2005>
2.75572371482849

$$$$
44
                    3D
 Structure written by MMmdl.
163172  0  0  1  0            999 V2000
  -30.5552  -14.8332   20.3864 C   0  0  0  0  0  0
  -30.4370  -12.4910   19.4889 C   0  0  0  0  0  0
  -29.5169  -12.4649   18.2461 C   0  0  0  0  0  0
  -28.0300  -12.3460   18.6391 C   0  0  0  0  0  0
  -27.6360  -13.2394   19.8469 C   0  0  2  0  0  0
  -28.6832  -13.1987   20.9782 C   0  0  0  0  0  0
  -25.2472  -13.8204   20.5702 C   0  0  0  0  0  0
  -24.1772  -13.0442   20.9208 C   0  0  0  0  0  0
  -24.6376  -11.6919   20.8746 C   0  0  0  0  0  0
  -23.9045  -10.4293   21.0401 C   0  0  0  0  0  0
  -24.3610   -9.4210   21.9180 C   0  0  0  0  0  0
  -23.6304   -8.2236   22.0733 C   0  0  0  0  0  0
  -22.4279   -8.0283   21.3527 C   0  0  0  0  0  0
  -21.9905   -9.0237   20.4624 C   0  0  0  0  0  0
  -22.7219  -10.2127   20.3039 C   0  0  0  0  0  0
  -21.6861   -6.0728   22.5267 C   0  0  0  0  0  0
  -21.4023   -6.5621   23.8209 C   0  0  0  0  0  0
  -21.3662   -5.6774   24.9166 C   0  0  0  0  0  0
  -21.6073   -4.3042   24.7210 C   0  0  0  0  0  0
  -21.8821   -3.8131   23.4327 C   0  0  0  0  0  0
  -21.9191   -4.6952   22.3389 C   0  0  0  0  0  0
  -22.7806  -13.5202   21.1870 C   0  0  0  0  0  0
  -22.1658   -4.2123   21.0980 F   0  0  0  0  0  0
  -21.5635   -3.4528   25.7729 F   0  0  0  0  0  0
  -29.9717  -13.5774   20.3889 N   0  0  0  0  0  0
  -26.2906  -12.9421   20.3287 N   0  0  0  0  0  0
  -25.9309  -11.6565   20.5779 N   0  0  0  0  0  0
  -22.0462  -12.8196   22.0448 N   0  0  0  0  0  0
  -25.4144  -15.1936   20.4112 N   0  0  0  0  0  0
  -31.7480  -14.9327   20.0829 O   0  0  0  0  0  0
  -21.6646   -6.8875   21.4231 O   0  0  0  0  0  0
  -22.3494  -14.5506   20.6741 O   0  0  0  0  0  0
  -24.6384  -31.8516   23.1947 C   0  0  0  0  0  0
  -25.9195  -32.4727   23.8323 C   0  0  1  0  0  0
  -27.2060  -27.2004   20.1410 C   0  0  0  0  0  0
  -25.5974  -33.8532   24.2224 N   0  0  0  0  0  0
  -23.4366  -30.4760   21.5394 C   0  0  2  0  0  0
  -24.8805  -28.9138   20.1153 C   0  0  0  0  0  0
  -22.7550  -29.4594   22.4899 C   0  0  0  0  0  0
  -18.0303  -28.1396   22.8495 C   0  0  0  0  0  0
  -24.1478  -36.7261   23.2644 C   0  0  0  0  0  0
  -25.9883  -30.7485   21.3825 C   0  0  0  0  0  0
  -26.0561  -29.3658   20.7236 C   0  0  0  0  0  0
  -27.2216  -28.5242   20.7203 C   0  0  0  0  0  0
  -25.9967  -26.8265   19.5143 C   0  0  0  0  0  0
  -24.8584  -27.6565   19.4972 C   0  0  0  0  0  0
  -23.6575  -29.8113   20.1554 C   0  0  0  0  0  0
  -25.4107  -36.3043   24.0318 C   0  0  1  0  0  0
  -20.5907  -28.3718   23.1274 C   0  0  2  0  0  0
  -20.6786  -26.9431   22.5418 C   0  0  0  0  0  0
  -19.5754  -26.6377   21.5237 C   0  0  0  0  0  0
  -18.1939  -26.7938   22.1641 C   0  0  0  0  0  0
  -19.1553  -28.8874   23.2878 C   0  0  0  0  0  0
  -18.9466  -30.1476   23.8907 C   0  0  0  0  0  0
  -17.6454  -30.6602   24.0552 C   0  0  0  0  0  0
  -25.9082  -34.9425   23.5077 C   0  0  0  0  0  0
  -16.5353  -29.9098   23.6315 C   0  0  0  0  0  0
  -16.7284  -28.6506   23.0365 C   0  0  0  0  0  0
  -26.4540  -31.6593   25.0758 C   0  0  0  0  0  0
  -25.3712  -31.3777   26.1445 C   0  0  0  0  0  0
  -27.0391  -30.2998   24.6321 C   0  0  0  0  0  0
  -27.6051  -32.4361   25.7557 C   0  0  0  0  0  0
  -27.5558  -37.1786   24.8454 C   0  0  0  0  0  0
  -21.4248  -29.3062   22.3659 N   0  0  0  0  0  0
  -26.4262  -37.3747   23.9423 N   0  0  0  0  0  0
  -24.7069  -31.0461   22.0938 N   0  0  0  0  0  0
  -23.4227  -28.8126   23.3007 O   0  0  0  0  0  0
  -28.2921  -26.2771   20.2055 O   0  0  0  0  0  0
  -26.5636  -34.8906   22.4637 O   0  0  0  0  0  0
  -23.5526  -32.1350   23.7214 O   0  0  0  0  0  0
  -29.4829  -18.6177   20.5017 C   0  0  0  0  0  0
  -29.3237  -19.9099   19.8140 C   0  0  0  0  0  0
  -29.4202  -19.8447   18.3887 C   0  0  0  0  0  0
  -29.6967  -18.6072   17.7291 C   0  0  0  0  0  0
  -29.7407  -17.3689   18.4340 C   0  0  0  0  0  0
  -29.7094  -17.3171   19.8561 C   0  0  0  0  0  0
  -27.7768  -23.6378   20.8514 C   0  0  0  0  0  0
  -29.3958  -23.8470   19.7048 C   0  0  0  0  0  0
  -28.1466  -24.7956   19.8423 C   0  0  2  0  0  0
  -29.1944  -21.0977   17.5374 C   0  0  0  0  0  0
  -29.9472  -18.6073   16.2153 C   0  0  0  0  0  0
  -29.7178  -16.0666   17.6367 C   0  0  0  0  0  0
  -29.1273  -21.3272   20.6103 C   0  0  0  0  0  0
  -29.7466  -15.9739   20.5554 N   0  0  0  0  0  0
  -28.5408  -22.6480   20.0097 N   0  3  1  0  0  0
  -31.4740  -12.6312   19.1799 H   0  0  0  0  0  0
  -30.4126  -11.5321   20.0088 H   0  0  0  0  0  0
  -29.7928  -11.6310   17.5984 H   0  0  0  0  0  0
  -29.6750  -13.3556   17.6440 H   0  0  0  0  0  0
  -27.8373  -11.3000   18.8783 H   0  0  0  0  0  0
  -27.3950  -12.5824   17.7842 H   0  0  0  0  0  0
  -27.6135  -14.2596   19.4641 H   0  0  0  0  0  0
  -28.7410  -12.2041   21.4231 H   0  0  0  0  0  0
  -28.4127  -13.8815   21.7839 H   0  0  0  0  0  0
  -25.2749   -9.5678   22.4750 H   0  0  0  0  0  0
  -24.0009   -7.4617   22.7432 H   0  0  0  0  0  0
  -21.0838   -8.8737   19.8938 H   0  0  0  0  0  0
  -22.3663  -10.9657   19.6142 H   0  0  0  0  0  0
  -21.2021   -7.6128   23.9713 H   0  0  0  0  0  0
  -21.1495   -6.0495   25.9078 H   0  0  0  0  0  0
  -22.0604   -2.7589   23.2828 H   0  0  0  0  0  0
  -22.4086  -11.9839   22.4806 H   0  0  0  0  0  0
  -21.1088  -13.1215   22.2661 H   0  0  0  0  0  0
  -24.6482  -15.8473   20.5290 H   0  0  0  0  0  0
  -26.2581  -15.6337   20.0692 H   0  0  0  0  0  0
  -26.7277  -32.5351   23.1077 H   0  0  0  0  0  0
  -25.0148  -33.9651   25.0392 H   0  0  0  0  0  0
  -22.7351  -31.2989   21.3922 H   0  0  0  0  0  0
  -23.3752  -35.9577   23.3283 H   0  0  0  0  0  0
  -24.3570  -36.8907   22.2060 H   0  0  0  0  0  0
  -23.7201  -37.6446   23.6692 H   0  0  0  0  0  0
  -26.1383  -31.5092   20.6147 H   0  0  0  0  0  0
  -26.8592  -30.7916   22.0239 H   0  0  0  0  0  0
  -28.1230  -28.8650   21.2094 H   0  0  0  0  0  0
  -25.8762  -25.8596   19.0548 H   0  0  0  0  0  0
  -23.9533  -27.3077   19.0203 H   0  0  0  0  0  0
  -23.7948  -30.5886   19.4018 H   0  0  0  0  0  0
  -22.7722  -29.2546   19.8429 H   0  0  0  0  0  0
  -25.1291  -36.1860   25.0803 H   0  0  0  0  0  0
  -21.0004  -28.3292   24.1389 H   0  0  0  0  0  0
  -20.5698  -26.2335   23.3631 H   0  0  0  0  0  0
  -21.6644  -26.7463   22.1190 H   0  0  0  0  0  0
  -19.6911  -25.6276   21.1297 H   0  0  0  0  0  0
  -19.6702  -27.3156   20.6746 H   0  0  0  0  0  0
  -17.4215  -26.6716   21.4038 H   0  0  0  0  0  0
  -18.0333  -26.0081   22.9034 H   0  0  0  0  0  0
  -19.7941  -30.7295   24.2296 H   0  0  0  0  0  0
  -17.5007  -31.6272   24.5163 H   0  0  0  0  0  0
  -15.5347  -30.2985   23.7662 H   0  0  0  0  0  0
  -15.8684  -28.0809   22.7096 H   0  0  0  0  0  0
  -24.5877  -30.7161   25.7764 H   0  0  0  0  0  0
  -24.8936  -32.2966   26.4876 H   0  0  0  0  0  0
  -25.7985  -30.8938   27.0238 H   0  0  0  0  0  0
  -26.3019  -29.6749   24.1298 H   0  0  0  0  0  0
  -27.3982  -29.7298   25.4903 H   0  0  0  0  0  0
  -27.8928  -30.4282   23.9658 H   0  0  0  0  0  0
  -27.2643  -33.3670   26.2128 H   0  0  0  0  0  0
  -28.3894  -32.6921   25.0411 H   0  0  0  0  0  0
  -28.0711  -31.8498   26.5501 H   0  0  0  0  0  0
  -28.2553  -38.0105   24.7516 H   0  0  0  0  0  0
  -28.1068  -36.2631   24.6249 H   0  0  0  0  0  0
  -27.2292  -37.1388   25.8860 H   0  0  0  0  0  0
  -20.9453  -29.8809   21.6874 H   0  0  0  0  0  0
  -26.0130  -38.2814   24.1432 H   0  0  0  0  0  0
  -29.4232  -18.6273   21.5807 H   0  0  0  0  0  0
  -26.7110  -23.4151   20.9235 H   0  0  0  0  0  0
  -28.2129  -23.7591   21.8459 H   0  0  0  0  0  0
  -30.1635  -24.0221   20.4625 H   0  0  0  0  0  0
  -29.8345  -23.8517   18.7093 H   0  0  0  0  0  0
  -27.5833  -24.7000   18.9141 H   0  0  0  0  0  0
  -28.2454  -21.5704   17.7828 H   0  0  0  0  0  0
  -29.0998  -20.9172   16.4690 H   0  0  0  0  0  0
  -30.0123  -21.8044   17.6631 H   0  0  0  0  0  0
  -30.5340  -19.4694   15.9001 H   0  0  0  0  0  0
  -29.0039  -18.6059   15.6684 H   0  0  0  0  0  0
  -30.5494  -17.7644   15.8783 H   0  0  0  0  0  0
  -29.3299  -16.1722   16.6247 H   0  0  0  0  0  0
  -29.0207  -15.3759   18.1007 H   0  0  0  0  0  0
  -30.7060  -15.6071   17.5878 H   0  0  0  0  0  0
  -30.0864  -21.5773   21.0626 H   0  0  0  0  0  0
  -28.4759  -21.0845   21.4506 H   0  0  0  0  0  0
  -28.8871  -15.7567   21.0380 H   0  0  0  0  0  0
  -27.9672  -22.4099   19.2163 H   0  0  0  0  0  0
  1 25  1  0  0  0
  1 30  2  0  0  0
  1 84  1  0  0  0
  2  3  1  0  0  0
  2 25  1  0  0  0
  2 86  1  0  0  0
  2 87  1  0  0  0
  3  4  1  0  0  0
  3 88  1  0  0  0
  3 89  1  0  0  0
  4  5  1  0  0  0
  4 90  1  0  0  0
  4 91  1  0  0  0
  5  6  1  0  0  0
  5 26  1  0  0  0
  5 92  1  0  0  0
  6 25  1  0  0  0
  6 93  1  0  0  0
  6 94  1  0  0  0
  7  8  2  0  0  0
  7 26  1  0  0  0
  7 29  1  0  0  0
  8  9  1  0  0  0
  8 22  1  0  0  0
  9 10  1  0  0  0
  9 27  2  0  0  0
 10 11  2  0  0  0
 10 15  1  0  0  0
 11 12  1  0  0  0
 11 95  1  0  0  0
 12 13  2  0  0  0
 12 96  1  0  0  0
 13 14  1  0  0  0
 13 31  1  0  0  0
 14 15  2  0  0  0
 14 97  1  0  0  0
 15 98  1  0  0  0
 16 17  2  0  0  0
 16 21  1  0  0  0
 16 31  1  0  0  0
 17 18  1  0  0  0
 17 99  1  0  0  0
 18 19  2  0  0  0
 18100  1  0  0  0
 19 20  1  0  0  0
 19 24  1  0  0  0
 20 21  2  0  0  0
 20101  1  0  0  0
 21 23  1  0  0  0
 22 28  1  0  0  0
 22 32  2  0  0  0
 26 27  1  0  0  0
 28102  1  0  0  0
 28103  1  0  0  0
 29104  1  0  0  0
 29105  1  0  0  0
 33 34  1  0  0  0
 33 66  1  0  0  0
 33 70  2  0  0  0
 34 36  1  0  0  0
 34 59  1  0  0  0
 34106  1  0  0  0
 35 44  2  0  0  0
 35 45  1  0  0  0
 35 68  1  0  0  0
 36 56  1  0  0  0
 36107  1  0  0  0
 37 39  1  0  0  0
 37 47  1  0  0  0
 37 66  1  0  0  0
 37108  1  0  0  0
 38 43  2  0  0  0
 38 46  1  0  0  0
 38 47  1  0  0  0
 39 64  1  0  0  0
 39 67  2  0  0  0
 40 52  1  0  0  0
 40 53  2  0  0  0
 40 58  1  0  0  0
 41109  1  0  0  0
 41110  1  0  0  0
 41111  1  0  0  0
 41 48  1  0  0  0
 42 43  1  0  0  0
 42 66  1  0  0  0
 42112  1  0  0  0
 42113  1  0  0  0
 43 44  1  0  0  0
 44114  1  0  0  0
 45 46  2  0  0  0
 45115  1  0  0  0
 46116  1  0  0  0
 47117  1  0  0  0
 47118  1  0  0  0
 48 56  1  0  0  0
 48 65  1  0  0  0
 48119  1  0  0  0
 49 50  1  0  0  0
 49 53  1  0  0  0
 49 64  1  0  0  0
 49120  1  0  0  0
 50 51  1  0  0  0
 50121  1  0  0  0
 50122  1  0  0  0
 51 52  1  0  0  0
 51123  1  0  0  0
 51124  1  0  0  0
 52125  1  0  0  0
 52126  1  0  0  0
 53 54  1  0  0  0
 54 55  2  0  0  0
 54127  1  0  0  0
 55 57  1  0  0  0
 55128  1  0  0  0
 56 69  2  0  0  0
 57 58  2  0  0  0
 57129  1  0  0  0
 58130  1  0  0  0
 59 60  1  0  0  0
 59 61  1  0  0  0
 59 62  1  0  0  0
 60131  1  0  0  0
 60132  1  0  0  0
 60133  1  0  0  0
 61134  1  0  0  0
 61135  1  0  0  0
 61136  1  0  0  0
 62137  1  0  0  0
 62138  1  0  0  0
 62139  1  0  0  0
 63 65  1  0  0  0
 63140  1  0  0  0
 63141  1  0  0  0
 63142  1  0  0  0
 64143  1  0  0  0
 65144  1  0  0  0
 68 79  1  0  0  0
 71 72  2  0  0  0
 71 76  1  0  0  0
 71145  1  0  0  0
 72 73  1  0  0  0
 72 83  1  0  0  0
 73 74  2  0  0  0
 73 80  1  0  0  0
 74 75  1  0  0  0
 74 81  1  0  0  0
 75 76  2  0  0  0
 75 82  1  0  0  0
 76 84  1  0  0  0
 77 79  1  0  0  0
 77 85  1  0  0  0
 77146  1  0  0  0
 77147  1  0  0  0
 78 79  1  0  0  0
 78 85  1  0  0  0
 78148  1  0  0  0
 78149  1  0  0  0
 79150  1  0  0  0
 80151  1  0  0  0
 80152  1  0  0  0
 80153  1  0  0  0
 81154  1  0  0  0
 81155  1  0  0  0
 81156  1  0  0  0
 82157  1  0  0  0
 82158  1  0  0  0
 82159  1  0  0  0
 83160  1  0  0  0
 83161  1  0  0  0
 83 85  1  0  0  0
 84162  1  0  0  0
 85163  1  0  0  0
M  CHG  1  85   1
M  ISO  4   1 100  68 101  79 101  84 100
M  END
> <chiral flag>
0

> <version>
0

> <s_m_source_file>
/data/baiqing/PycharmProjects/Reinvent-master-3.2/result/LINK_invent/BTK/process_docking_weight1_custom_product_contain_oxygen_bond_distance_aromatic_linkinvent_7_9_3/rearranged_h_0030.sdf

> <i_m_source_file_index>
45

> <r_mmod_Potential_Energy-OPLS-2005>
143.125885009766

> <r_mmod_Stretch_Energy-OPLS-2005>
176.327331542969

> <r_mmod_Bend_Energy-OPLS-2005>
234.130874633789

> <r_mmod_Torsional_Energy-OPLS-2005>
260.901641845703

> <r_mmod_Improper_Torsional_Energy-OPLS-2005>
5.72587585449219

> <r_mmod_Van_der_Waal_Energy-OPLS-2005>
163.798278808594

> <r_mmod_Electrostatic_Energy-OPLS-2005>
-348.853118896484

> <r_mmod_Solvation_Energy-OPLS-2005>
-477.2001953125

> <b_mmod_Minimization_Converged-OPLS-2005>
0

> <r_mmod_RMS_Derivative-OPLS-2005>
3.79073810577393

$$$$
45
                    3D
 Structure written by MMmdl.
166175  0  0  1  0            999 V2000
  -30.5844  -14.6597   20.4933 C   0  0  0  0  0  0
  -30.4395  -12.4043   19.4537 C   0  0  0  0  0  0
  -29.5095  -12.5209   18.2249 C   0  0  0  0  0  0
  -28.0321  -12.3478   18.6317 C   0  0  0  0  0  0
  -27.6495  -13.2126   19.8611 C   0  0  2  0  0  0
  -28.6900  -13.0580   20.9924 C   0  0  0  0  0  0
  -25.2506  -13.8141   20.5596 C   0  0  0  0  0  0
  -24.1773  -13.0422   20.9123 C   0  0  0  0  0  0
  -24.6316  -11.6885   20.8669 C   0  0  0  0  0  0
  -23.8970  -10.4277   21.0368 C   0  0  0  0  0  0
  -24.3533   -9.4210   21.9149 C   0  0  0  0  0  0
  -23.6241   -8.2235   22.0734 C   0  0  0  0  0  0
  -22.4233   -8.0250   21.3531 C   0  0  0  0  0  0
  -21.9838   -9.0205   20.4634 C   0  0  0  0  0  0
  -22.7131  -10.2105   20.3026 C   0  0  0  0  0  0
  -21.6857   -6.0704   22.5274 C   0  0  0  0  0  0
  -21.4013   -6.5611   23.8204 C   0  0  0  0  0  0
  -21.3667   -5.6765   24.9178 C   0  0  0  0  0  0
  -21.6051   -4.3023   24.7232 C   0  0  0  0  0  0
  -21.8818   -3.8105   23.4351 C   0  0  0  0  0  0
  -21.9182   -4.6919   22.3400 C   0  0  0  0  0  0
  -22.7801  -13.5229   21.1808 C   0  0  0  0  0  0
  -22.1657   -4.2094   21.0977 F   0  0  0  0  0  0
  -21.5635   -3.4514   25.7750 F   0  0  0  0  0  0
  -30.0070  -13.4156   20.4399 N   0  0  0  0  0  0
  -26.2934  -12.9316   20.3241 N   0  0  0  0  0  0
  -25.9238  -11.6481   20.5629 N   0  0  0  0  0  0
  -22.0409  -12.8278   22.0409 N   0  0  0  0  0  0
  -25.4199  -15.1863   20.4005 N   0  0  0  0  0  0
  -31.7345  -14.8465   20.0840 O   0  0  0  0  0  0
  -21.6628   -6.8834   21.4239 O   0  0  0  0  0  0
  -22.3491  -14.5542   20.6655 O   0  0  0  0  0  0
  -24.6215  -31.8611   23.2033 C   0  0  0  0  0  0
  -25.9084  -32.4787   23.8352 C   0  0  1  0  0  0
  -27.2210  -27.3478   20.1247 C   0  0  0  0  0  0
  -25.5905  -33.8585   24.2281 N   0  0  0  0  0  0
  -23.4131  -30.4843   21.5449 C   0  0  2  0  0  0
  -24.8572  -28.9311   20.1210 C   0  0  0  0  0  0
  -22.7446  -29.4634   22.4953 C   0  0  0  0  0  0
  -18.0275  -28.1387   22.8475 C   0  0  0  0  0  0
  -24.1488  -36.7313   23.2638 C   0  0  0  0  0  0
  -25.9479  -30.8018   21.3658 C   0  0  0  0  0  0
  -26.0231  -29.4266   20.7196 C   0  0  0  0  0  0
  -27.2115  -28.6460   20.7081 C   0  0  0  0  0  0
  -26.0366  -26.8824   19.5203 C   0  0  0  0  0  0
  -24.8622  -27.6626   19.5149 C   0  0  0  0  0  0
  -23.6256  -29.8120   20.1627 C   0  0  0  0  0  0
  -25.4107  -36.3090   24.0330 C   0  0  1  0  0  0
  -20.5873  -28.3676   23.1297 C   0  0  2  0  0  0
  -20.6767  -26.9409   22.5407 C   0  0  0  0  0  0
  -19.5748  -26.6387   21.5206 C   0  0  0  0  0  0
  -18.1926  -26.7933   22.1615 C   0  0  0  0  0  0
  -19.1528  -28.8849   23.2885 C   0  0  0  0  0  0
  -18.9457  -30.1453   23.8896 C   0  0  0  0  0  0
  -17.6460  -30.6590   24.0565 C   0  0  0  0  0  0
  -25.9037  -34.9458   23.5102 C   0  0  0  0  0  0
  -16.5348  -29.9088   23.6336 C   0  0  0  0  0  0
  -16.7265  -28.6511   23.0346 C   0  0  0  0  0  0
  -26.4482  -31.6588   25.0708 C   0  0  0  0  0  0
  -25.3737  -31.3730   26.1458 C   0  0  0  0  0  0
  -27.0310  -30.3012   24.6129 C   0  0  0  0  0  0
  -27.6045  -32.4318   25.7470 C   0  0  0  0  0  0
  -27.5587  -37.1800   24.8458 C   0  0  0  0  0  0
  -21.4160  -29.3042   22.3697 N   0  0  0  0  0  0
  -26.4292  -37.3782   23.9410 N   0  0  0  0  0  0
  -24.6800  -31.0661   22.0951 N   0  0  0  0  0  0
  -23.4186  -28.8178   23.3026 O   0  0  0  0  0  0
  -28.3697  -26.5699   20.0449 O   0  0  0  0  0  0
  -26.5617  -34.8923   22.4677 O   0  0  0  0  0  0
  -23.5390  -32.1397   23.7386 O   0  0  0  0  0  0
  -29.5456  -19.1235   19.1650 C   0  0  0  0  0  0
  -29.1650  -17.9769   21.6639 C   0  0  0  0  0  0
  -29.8444  -17.7380   19.3649 C   0  0  0  0  0  0
  -29.0141  -19.9662   20.1789 C   0  0  0  0  0  0
  -29.6663  -17.1207   20.6414 C   0  0  0  0  0  0
  -28.8406  -19.3534   21.4477 C   0  0  0  0  0  0
  -30.1706  -24.5029   22.5963 C   0  0  0  0  0  0
  -30.8765  -23.2405   22.0693 C   0  0  0  0  0  0
  -29.8277  -25.5432   21.5227 C   0  0  0  0  0  0
  -30.4242  -22.7234   20.6919 C   0  0  0  0  0  0
  -28.3984  -23.9744   19.9578 C   0  0  0  0  0  0
  -28.4781  -25.3228   20.8096 C   0  0  2  0  0  0
  -30.2598  -16.9304   18.1491 C   0  0  0  0  0  0
  -28.4859  -21.4149   19.8178 C   0  0  0  0  0  0
  -29.7693  -15.6784   20.9243 N   0  0  0  0  0  0
  -28.9456  -22.6686   20.5503 N   0  3  1  0  0  0
  -28.1732  -20.2691   22.7501 Cl  0  0  0  0  0  0
  -31.4808  -12.5389   19.1563 H   0  0  0  0  0  0
  -30.3850  -11.4036   19.8868 H   0  0  0  0  0  0
  -29.7850  -11.7841   17.4687 H   0  0  0  0  0  0
  -29.6418  -13.4967   17.7579 H   0  0  0  0  0  0
  -27.8710  -11.2931   18.8570 H   0  0  0  0  0  0
  -27.3793  -12.5838   17.7909 H   0  0  0  0  0  0
  -27.6698  -14.2501   19.5242 H   0  0  0  0  0  0
  -28.6961  -12.0305   21.3633 H   0  0  0  0  0  0
  -28.4242  -13.6759   21.8497 H   0  0  0  0  0  0
  -25.2674   -9.5722   22.4710 H   0  0  0  0  0  0
  -23.9960   -7.4631   22.7463 H   0  0  0  0  0  0
  -21.0768   -8.8711   19.8940 H   0  0  0  0  0  0
  -22.3570  -10.9632   19.6132 H   0  0  0  0  0  0
  -21.2021   -7.6118   23.9709 H   0  0  0  0  0  0
  -21.1497   -6.0488   25.9082 H   0  0  0  0  0  0
  -22.0587   -2.7571   23.2871 H   0  0  0  0  0  0
  -22.4032  -12.0009   22.4897 H   0  0  0  0  0  0
  -21.1014  -13.1333   22.2518 H   0  0  0  0  0  0
  -24.6403  -15.8272   20.4825 H   0  0  0  0  0  0
  -26.2591  -15.6271   20.0432 H   0  0  0  0  0  0
  -26.7141  -32.5473   23.1100 H   0  0  0  0  0  0
  -25.0036  -33.9724   25.0410 H   0  0  0  0  0  0
  -22.7046  -31.3029   21.4017 H   0  0  0  0  0  0
  -23.3747  -35.9651   23.3285 H   0  0  0  0  0  0
  -24.3588  -36.8949   22.2059 H   0  0  0  0  0  0
  -23.7247  -37.6509   23.6670 H   0  0  0  0  0  0
  -26.0691  -31.5600   20.5913 H   0  0  0  0  0  0
  -26.8330  -30.8571   21.9878 H   0  0  0  0  0  0
  -28.1157  -29.0321   21.1569 H   0  0  0  0  0  0
  -26.0206  -25.9145   19.0397 H   0  0  0  0  0  0
  -23.9670  -27.2784   19.0433 H   0  0  0  0  0  0
  -23.7442  -30.5842   19.4013 H   0  0  0  0  0  0
  -22.7442  -29.2399   19.8650 H   0  0  0  0  0  0
  -25.1286  -36.1943   25.0824 H   0  0  0  0  0  0
  -20.9962  -28.3257   24.1422 H   0  0  0  0  0  0
  -20.5672  -26.2293   23.3602 H   0  0  0  0  0  0
  -21.6640  -26.7452   22.1211 H   0  0  0  0  0  0
  -19.6916  -25.6300   21.1237 H   0  0  0  0  0  0
  -19.6700  -27.3199   20.6739 H   0  0  0  0  0  0
  -17.4204  -26.6679   21.4014 H   0  0  0  0  0  0
  -18.0328  -26.0077   22.9008 H   0  0  0  0  0  0
  -19.7932  -30.7267   24.2271 H   0  0  0  0  0  0
  -17.5015  -31.6272   24.5167 H   0  0  0  0  0  0
  -15.5350  -30.2994   23.7659 H   0  0  0  0  0  0
  -15.8663  -28.0837   22.7051 H   0  0  0  0  0  0
  -24.5871  -30.7123   25.7799 H   0  0  0  0  0  0
  -24.8990  -32.2907   26.4933 H   0  0  0  0  0  0
  -25.8080  -30.8864   27.0201 H   0  0  0  0  0  0
  -26.2861  -29.6769   24.1181 H   0  0  0  0  0  0
  -27.4042  -29.7261   25.4614 H   0  0  0  0  0  0
  -27.8717  -30.4301   23.9311 H   0  0  0  0  0  0
  -27.2641  -33.3587   26.2098 H   0  0  0  0  0  0
  -28.3825  -32.6935   25.0286 H   0  0  0  0  0  0
  -28.0755  -31.8426   26.5346 H   0  0  0  0  0  0
  -28.2587  -38.0111   24.7517 H   0  0  0  0  0  0
  -28.1093  -36.2645   24.6255 H   0  0  0  0  0  0
  -27.2313  -37.1421   25.8860 H   0  0  0  0  0  0
  -20.9328  -29.8766   21.6914 H   0  0  0  0  0  0
  -26.0176  -38.2857   24.1412 H   0  0  0  0  0  0
  -29.6596  -19.5355   18.1706 H   0  0  0  0  0  0
  -28.9792  -17.5692   22.6466 H   0  0  0  0  0  0
  -30.8347  -24.9702   23.3258 H   0  0  0  0  0  0
  -29.2739  -24.2420   23.1582 H   0  0  0  0  0  0
  -30.7737  -22.4443   22.8080 H   0  0  0  0  0  0
  -31.9479  -23.4384   22.0090 H   0  0  0  0  0  0
  -30.6378  -25.6317   20.7972 H   0  0  0  0  0  0
  -29.7782  -26.5146   22.0170 H   0  0  0  0  0  0
  -30.8719  -21.7384   20.5605 H   0  0  0  0  0  0
  -30.8492  -23.3304   19.8913 H   0  0  0  0  0  0
  -28.8874  -24.1451   18.9988 H   0  0  0  0  0  0
  -27.3448  -23.8234   19.7184 H   0  0  0  0  0  0
  -27.6933  -25.2995   21.5685 H   0  0  0  0  0  0
  -30.1062  -17.4914   17.2265 H   0  0  0  0  0  0
  -29.6688  -16.0171   18.0724 H   0  0  0  0  0  0
  -31.3134  -16.6636   18.2037 H   0  0  0  0  0  0
  -27.3980  -21.3800   19.8890 H   0  0  0  0  0  0
  -28.6900  -21.5728   18.7562 H   0  0  0  0  0  0
  -28.9943  -15.3238   21.4632 H   0  0  0  0  0  0
  -28.5662  -22.5685   21.4817 H   0  0  0  0  0  0
  1 25  1  0  0  0
  1 30  2  0  0  0
  1 85  1  0  0  0
  2  3  1  0  0  0
  2 25  1  0  0  0
  2 88  1  0  0  0
  2 89  1  0  0  0
  3  4  1  0  0  0
  3 90  1  0  0  0
  3 91  1  0  0  0
  4  5  1  0  0  0
  4 92  1  0  0  0
  4 93  1  0  0  0
  5  6  1  0  0  0
  5 26  1  0  0  0
  5 94  1  0  0  0
  6 25  1  0  0  0
  6 95  1  0  0  0
  6 96  1  0  0  0
  7  8  2  0  0  0
  7 26  1  0  0  0
  7 29  1  0  0  0
  8  9  1  0  0  0
  8 22  1  0  0  0
  9 10  1  0  0  0
  9 27  2  0  0  0
 10 11  2  0  0  0
 10 15  1  0  0  0
 11 12  1  0  0  0
 11 97  1  0  0  0
 12 13  2  0  0  0
 12 98  1  0  0  0
 13 14  1  0  0  0
 13 31  1  0  0  0
 14 15  2  0  0  0
 14 99  1  0  0  0
 15100  1  0  0  0
 16 17  2  0  0  0
 16 21  1  0  0  0
 16 31  1  0  0  0
 17 18  1  0  0  0
 17101  1  0  0  0
 18 19  2  0  0  0
 18102  1  0  0  0
 19 20  1  0  0  0
 19 24  1  0  0  0
 20 21  2  0  0  0
 20103  1  0  0  0
 21 23  1  0  0  0
 22 28  1  0  0  0
 22 32  2  0  0  0
 26 27  1  0  0  0
 28104  1  0  0  0
 28105  1  0  0  0
 29106  1  0  0  0
 29107  1  0  0  0
 33 34  1  0  0  0
 33 66  1  0  0  0
 33 70  2  0  0  0
 34 36  1  0  0  0
 34 59  1  0  0  0
 34108  1  0  0  0
 35 44  2  0  0  0
 35 45  1  0  0  0
 35 68  1  0  0  0
 36 56  1  0  0  0
 36109  1  0  0  0
 37 39  1  0  0  0
 37 47  1  0  0  0
 37 66  1  0  0  0
 37110  1  0  0  0
 38 43  2  0  0  0
 38 46  1  0  0  0
 38 47  1  0  0  0
 39 64  1  0  0  0
 39 67  2  0  0  0
 40 52  1  0  0  0
 40 53  2  0  0  0
 40 58  1  0  0  0
 41111  1  0  0  0
 41112  1  0  0  0
 41113  1  0  0  0
 41 48  1  0  0  0
 42 43  1  0  0  0
 42 66  1  0  0  0
 42114  1  0  0  0
 42115  1  0  0  0
 43 44  1  0  0  0
 44116  1  0  0  0
 45 46  2  0  0  0
 45117  1  0  0  0
 46118  1  0  0  0
 47119  1  0  0  0
 47120  1  0  0  0
 48 56  1  0  0  0
 48 65  1  0  0  0
 48121  1  0  0  0
 49 50  1  0  0  0
 49 53  1  0  0  0
 49 64  1  0  0  0
 49122  1  0  0  0
 50 51  1  0  0  0
 50123  1  0  0  0
 50124  1  0  0  0
 51 52  1  0  0  0
 51125  1  0  0  0
 51126  1  0  0  0
 52127  1  0  0  0
 52128  1  0  0  0
 53 54  1  0  0  0
 54 55  2  0  0  0
 54129  1  0  0  0
 55 57  1  0  0  0
 55130  1  0  0  0
 56 69  2  0  0  0
 57 58  2  0  0  0
 57131  1  0  0  0
 58132  1  0  0  0
 59 60  1  0  0  0
 59 61  1  0  0  0
 59 62  1  0  0  0
 60133  1  0  0  0
 60134  1  0  0  0
 60135  1  0  0  0
 61136  1  0  0  0
 61137  1  0  0  0
 61138  1  0  0  0
 62139  1  0  0  0
 62140  1  0  0  0
 62141  1  0  0  0
 63 65  1  0  0  0
 63142  1  0  0  0
 63143  1  0  0  0
 63144  1  0  0  0
 64145  1  0  0  0
 65146  1  0  0  0
 68 82  1  0  0  0
 71 73  2  0  0  0
 71 74  1  0  0  0
 71147  1  0  0  0
 72 75  2  0  0  0
 72 76  1  0  0  0
 72148  1  0  0  0
 73 75  1  0  0  0
 73 83  1  0  0  0
 74 76  2  0  0  0
 74 84  1  0  0  0
 75 85  1  0  0  0
 76 87  1  0  0  0
 77 78  1  0  0  0
 77 79  1  0  0  0
 77149  1  0  0  0
 77150  1  0  0  0
 78 80  1  0  0  0
 78151  1  0  0  0
 78152  1  0  0  0
 79 82  1  0  0  0
 79153  1  0  0  0
 79154  1  0  0  0
 80 86  1  0  0  0
 80155  1  0  0  0
 80156  1  0  0  0
 81 82  1  0  0  0
 81 86  1  0  0  0
 81157  1  0  0  0
 81158  1  0  0  0
 82159  1  0  0  0
 83160  1  0  0  0
 83161  1  0  0  0
 83162  1  0  0  0
 84163  1  0  0  0
 84164  1  0  0  0
 84 86  1  0  0  0
 85165  1  0  0  0
 86166  1  0  0  0
M  CHG  1  86   1
M  ISO  4   1 100  68 101  82 101  85 100
M  END
> <chiral flag>
0

> <version>
0

> <s_m_source_file>
/data/baiqing/PycharmProjects/Reinvent-master-3.2/result/LINK_invent/BTK/process_docking_weight1_custom_product_contain_oxygen_bond_distance_aromatic_linkinvent_7_9_3/rearranged_h_0030.sdf

> <i_m_source_file_index>
46

> <r_mmod_Potential_Energy-OPLS-2005>
33.5322303771973

> <r_mmod_Stretch_Energy-OPLS-2005>
81.1069793701172

> <r_mmod_Bend_Energy-OPLS-2005>
160.673751831055

> <r_mmod_Torsional_Energy-OPLS-2005>
297.473266601562

> <r_mmod_Improper_Torsional_Energy-OPLS-2005>
5.53321170806885

> <r_mmod_Van_der_Waal_Energy-OPLS-2005>
133.024078369141

> <r_mmod_Electrostatic_Energy-OPLS-2005>
-277.823394775391

> <r_mmod_Solvation_Energy-OPLS-2005>
-410.132415771484

> <b_mmod_Minimization_Converged-OPLS-2005>
0

> <r_mmod_RMS_Derivative-OPLS-2005>
3.14980602264404

$$$$
46
                    3D
 Structure written by MMmdl.
159167  0  0  1  0            999 V2000
  -30.6973  -14.5462   20.5793 C   0  0  0  0  0  0
  -30.4134  -12.3590   19.4513 C   0  0  0  0  0  0
  -29.4982  -12.5052   18.2183 C   0  0  0  0  0  0
  -28.0218  -12.3505   18.6319 C   0  0  0  0  0  0
  -27.6488  -13.2102   19.8669 C   0  0  2  0  0  0
  -28.6827  -13.0551   21.0013 C   0  0  0  0  0  0
  -25.2494  -13.8101   20.5569 C   0  0  0  0  0  0
  -24.1786  -13.0375   20.9222 C   0  0  0  0  0  0
  -24.6392  -11.6853   20.8787 C   0  0  0  0  0  0
  -23.9060  -10.4234   21.0459 C   0  0  0  0  0  0
  -24.3609   -9.4159   21.9230 C   0  0  0  0  0  0
  -23.6277   -8.2207   22.0775 C   0  0  0  0  0  0
  -22.4270   -8.0261   21.3545 C   0  0  0  0  0  0
  -21.9914   -9.0248   20.4654 C   0  0  0  0  0  0
  -22.7248  -10.2117   20.3082 C   0  0  0  0  0  0
  -21.6845   -6.0694   22.5279 C   0  0  0  0  0  0
  -21.4007   -6.5608   23.8203 C   0  0  0  0  0  0
  -21.3674   -5.6781   24.9178 C   0  0  0  0  0  0
  -21.6062   -4.3040   24.7250 C   0  0  0  0  0  0
  -21.8812   -3.8112   23.4372 C   0  0  0  0  0  0
  -21.9180   -4.6917   22.3414 C   0  0  0  0  0  0
  -22.7833  -13.5241   21.1904 C   0  0  0  0  0  0
  -22.1646   -4.2104   21.0991 F   0  0  0  0  0  0
  -21.5649   -3.4524   25.7764 F   0  0  0  0  0  0
  -29.9964  -13.3804   20.4368 N   0  0  0  0  0  0
  -26.2934  -12.9287   20.3285 N   0  0  0  0  0  0
  -25.9314  -11.6457   20.5780 N   0  0  0  0  0  0
  -22.0431  -12.8223   22.0406 N   0  0  0  0  0  0
  -25.4149  -15.1759   20.3729 N   0  0  0  0  0  0
  -31.8708  -14.6248   20.2190 O   0  0  0  0  0  0
  -21.6617   -6.8855   21.4250 O   0  0  0  0  0  0
  -22.3590  -14.5621   20.6880 O   0  0  0  0  0  0
  -24.6136  -31.8652   23.2094 C   0  0  0  0  0  0
  -25.9031  -32.4804   23.8381 C   0  0  1  0  0  0
  -27.2155  -27.3813   20.1224 C   0  0  0  0  0  0
  -25.5874  -33.8596   24.2312 N   0  0  0  0  0  0
  -23.4037  -30.4873   21.5534 C   0  0  2  0  0  0
  -24.8434  -28.9444   20.1184 C   0  0  0  0  0  0
  -22.7486  -29.4571   22.5016 C   0  0  0  0  0  0
  -18.0288  -28.1303   22.8635 C   0  0  0  0  0  0
  -24.1477  -36.7311   23.2636 C   0  0  0  0  0  0
  -25.9354  -30.8176   21.3634 C   0  0  0  0  0  0
  -26.0074  -29.4460   20.7155 C   0  0  0  0  0  0
  -27.1948  -28.6792   20.7028 C   0  0  0  0  0  0
  -26.0368  -26.9033   19.5110 C   0  0  0  0  0  0
  -24.8576  -27.6776   19.5084 C   0  0  0  0  0  0
  -23.6122  -29.8253   20.1668 C   0  0  0  0  0  0
  -25.4102  -36.3117   24.0339 C   0  0  1  0  0  0
  -20.5920  -28.3515   23.1324 C   0  0  2  0  0  0
  -20.6681  -26.9283   22.5435 C   0  0  0  0  0  0
  -19.5637  -26.6408   21.5263 C   0  0  0  0  0  0
  -18.1877  -26.7817   22.1829 C   0  0  0  0  0  0
  -19.1569  -28.8758   23.2943 C   0  0  0  0  0  0
  -18.9579  -30.1439   23.8808 C   0  0  0  0  0  0
  -17.6600  -30.6675   24.0454 C   0  0  0  0  0  0
  -25.9053  -34.9465   23.5140 C   0  0  0  0  0  0
  -16.5421  -29.9110   23.6446 C   0  0  0  0  0  0
  -16.7315  -28.6472   23.0574 C   0  0  0  0  0  0
  -26.4458  -31.6599   25.0727 C   0  0  0  0  0  0
  -25.3708  -31.3695   26.1472 C   0  0  0  0  0  0
  -27.0296  -30.3040   24.6107 C   0  0  0  0  0  0
  -27.6051  -32.4308   25.7485 C   0  0  0  0  0  0
  -27.5582  -37.1817   24.8469 C   0  0  0  0  0  0
  -21.4194  -29.2975   22.3797 N   0  0  0  0  0  0
  -26.4292  -37.3799   23.9422 N   0  0  0  0  0  0
  -24.6703  -31.0720   22.1001 N   0  0  0  0  0  0
  -23.4260  -28.8087   23.3041 O   0  0  0  0  0  0
  -28.4032  -26.6557   20.1428 O   0  0  0  0  0  0
  -26.5614  -34.8921   22.4707 O   0  0  0  0  0  0
  -23.5309  -32.1421   23.7466 O   0  0  0  0  0  0
  -29.3737  -20.6356   22.2179 C   0  0  0  0  0  0
  -30.1744  -19.7131   22.9064 C   0  0  0  0  0  0
  -28.4298  -20.2216   21.2593 C   0  0  0  0  0  0
  -28.2809  -18.7984   21.0328 C   0  0  0  0  0  0
  -29.1015  -17.8432   21.7402 C   0  0  0  0  0  0
  -30.0448  -18.3366   22.6764 C   0  0  0  0  0  0
  -27.2128  -18.2578   20.0884 C   0  0  0  0  0  0
  -28.9939  -16.2915   21.5577 C   0  0  0  0  0  0
  -27.5540  -21.3501   20.6236 C   0  0  0  0  0  0
  -27.5477  -23.9403   20.4472 C   0  0  0  0  0  0
  -28.5097  -25.1924   20.2781 C   0  0  0  0  0  0
  -30.0414  -15.7319   20.6796 N   0  0  0  0  0  0
  -28.2849  -22.6272   20.3053 N   0  3  0  0  0  0
  -31.0469  -17.2784   23.6063 Cl  0  0  0  0  0  0
  -31.4652  -12.4511   19.1610 H   0  0  0  0  0  0
  -30.3216  -11.3585   19.8758 H   0  0  0  0  0  0
  -29.7515  -11.7611   17.4622 H   0  0  0  0  0  0
  -29.6492  -13.4790   17.7487 H   0  0  0  0  0  0
  -27.8491  -11.2925   18.8411 H   0  0  0  0  0  0
  -27.3711  -12.6069   17.7958 H   0  0  0  0  0  0
  -27.6780  -14.2467   19.5341 H   0  0  0  0  0  0
  -28.6810  -12.0369   21.3987 H   0  0  0  0  0  0
  -28.4372  -13.6976   21.8446 H   0  0  0  0  0  0
  -25.2747   -9.5649   22.4794 H   0  0  0  0  0  0
  -23.9975   -7.4581   22.7483 H   0  0  0  0  0  0
  -21.0852   -8.8794   19.8927 H   0  0  0  0  0  0
  -22.3732  -10.9664   19.6182 H   0  0  0  0  0  0
  -21.1992   -7.6112   23.9696 H   0  0  0  0  0  0
  -21.1518   -6.0509   25.9082 H   0  0  0  0  0  0
  -22.0580   -2.7568   23.2893 H   0  0  0  0  0  0
  -22.4054  -11.9889   22.4781 H   0  0  0  0  0  0
  -21.1054  -13.1244   22.2611 H   0  0  0  0  0  0
  -24.6151  -15.8005   20.3949 H   0  0  0  0  0  0
  -26.1972  -15.5497   19.8584 H   0  0  0  0  0  0
  -26.7076  -32.5494   23.1100 H   0  0  0  0  0  0
  -25.0049  -33.9758   25.0467 H   0  0  0  0  0  0
  -22.6853  -31.2982   21.4186 H   0  0  0  0  0  0
  -23.3750  -35.9637   23.3302 H   0  0  0  0  0  0
  -24.3583  -36.8927   22.2062 H   0  0  0  0  0  0
  -23.7223  -37.6501   23.6655 H   0  0  0  0  0  0
  -26.0498  -31.5808   20.5937 H   0  0  0  0  0  0
  -26.8179  -30.8689   21.9888 H   0  0  0  0  0  0
  -28.0953  -29.0747   21.1494 H   0  0  0  0  0  0
  -26.0080  -25.9446   19.0121 H   0  0  0  0  0  0
  -23.9639  -27.2952   19.0346 H   0  0  0  0  0  0
  -23.7378  -30.6031   19.4106 H   0  0  0  0  0  0
  -22.7314  -29.2585   19.8655 H   0  0  0  0  0  0
  -25.1282  -36.1982   25.0832 H   0  0  0  0  0  0
  -20.9983  -28.2912   24.1472 H   0  0  0  0  0  0
  -20.5485  -26.2205   23.3648 H   0  0  0  0  0  0
  -21.6473  -26.7083   22.1158 H   0  0  0  0  0  0
  -19.6660  -25.6365   21.1118 H   0  0  0  0  0  0
  -19.6625  -27.3364   20.6891 H   0  0  0  0  0  0
  -17.4069  -26.6517   21.4310 H   0  0  0  0  0  0
  -18.0490  -26.0025   22.9345 H   0  0  0  0  0  0
  -19.8106  -30.7310   24.1973 H   0  0  0  0  0  0
  -17.5314  -31.6535   24.4729 H   0  0  0  0  0  0
  -15.5437  -30.3063   23.7840 H   0  0  0  0  0  0
  -15.8695  -28.0710   22.7555 H   0  0  0  0  0  0
  -24.5881  -30.7044   25.7787 H   0  0  0  0  0  0
  -24.8885  -32.2848   26.4931 H   0  0  0  0  0  0
  -25.8044  -30.8844   27.0231 H   0  0  0  0  0  0
  -26.2848  -29.6815   24.1123 H   0  0  0  0  0  0
  -27.4032  -29.7273   25.4584 H   0  0  0  0  0  0
  -27.8699  -30.4383   23.9283 H   0  0  0  0  0  0
  -27.2698  -33.3601   26.2092 H   0  0  0  0  0  0
  -28.3839  -32.6864   25.0293 H   0  0  0  0  0  0
  -28.0731  -31.8404   26.5374 H   0  0  0  0  0  0
  -28.2613  -38.0102   24.7530 H   0  0  0  0  0  0
  -28.1069  -36.2650   24.6278 H   0  0  0  0  0  0
  -27.2313  -37.1441   25.8869 H   0  0  0  0  0  0
  -20.9273  -29.8881   21.7254 H   0  0  0  0  0  0
  -26.0186  -38.2876   24.1407 H   0  0  0  0  0  0
  -29.4870  -21.6795   22.4681 H   0  0  0  0  0  0
  -30.8878  -20.0743   23.6334 H   0  0  0  0  0  0
  -26.4990  -17.6500   20.6469 H   0  0  0  0  0  0
  -27.6713  -17.6256   19.3315 H   0  0  0  0  0  0
  -26.6192  -19.0063   19.5679 H   0  0  0  0  0  0
  -28.0280  -15.9919   21.1634 H   0  0  0  0  0  0
  -29.0369  -15.8262   22.5488 H   0  0  0  0  0  0
  -26.7523  -21.5466   21.3381 H   0  0  0  0  0  0
  -27.0691  -21.0287   19.7017 H   0  0  0  0  0  0
  -26.7121  -23.9585   19.7466 H   0  0  0  0  0  0
  -27.0771  -23.9292   21.4322 H   0  0  0  0  0  0
  -28.1380  -25.5400   21.2430 H   0  0  0  0  0  0
  -28.2099  -25.2770   19.2343 H   0  0  0  0  0  0
  -30.6576  -16.4710   20.3753 H   0  0  0  0  0  0
  -28.6499  -22.5536   19.3698 H   0  0  0  0  0  0
  -29.0769  -22.6563   20.9245 H   0  0  0  0  0  0
  1 25  1  0  0  0
  1 30  2  0  0  0
  1 82  1  0  0  0
  2  3  1  0  0  0
  2 25  1  0  0  0
  2 85  1  0  0  0
  2 86  1  0  0  0
  3  4  1  0  0  0
  3 87  1  0  0  0
  3 88  1  0  0  0
  4  5  1  0  0  0
  4 89  1  0  0  0
  4 90  1  0  0  0
  5  6  1  0  0  0
  5 26  1  0  0  0
  5 91  1  0  0  0
  6 25  1  0  0  0
  6 92  1  0  0  0
  6 93  1  0  0  0
  7  8  2  0  0  0
  7 26  1  0  0  0
  7 29  1  0  0  0
  8  9  1  0  0  0
  8 22  1  0  0  0
  9 10  1  0  0  0
  9 27  2  0  0  0
 10 11  2  0  0  0
 10 15  1  0  0  0
 11 12  1  0  0  0
 11 94  1  0  0  0
 12 13  2  0  0  0
 12 95  1  0  0  0
 13 14  1  0  0  0
 13 31  1  0  0  0
 14 15  2  0  0  0
 14 96  1  0  0  0
 15 97  1  0  0  0
 16 17  2  0  0  0
 16 21  1  0  0  0
 16 31  1  0  0  0
 17 18  1  0  0  0
 17 98  1  0  0  0
 18 19  2  0  0  0
 18 99  1  0  0  0
 19 20  1  0  0  0
 19 24  1  0  0  0
 20 21  2  0  0  0
 20100  1  0  0  0
 21 23  1  0  0  0
 22 28  1  0  0  0
 22 32  2  0  0  0
 26 27  1  0  0  0
 28101  1  0  0  0
 28102  1  0  0  0
 29103  1  0  0  0
 29104  1  0  0  0
 33 34  1  0  0  0
 33 66  1  0  0  0
 33 70  2  0  0  0
 34 36  1  0  0  0
 34 59  1  0  0  0
 34105  1  0  0  0
 35 44  2  0  0  0
 35 45  1  0  0  0
 35 68  1  0  0  0
 36 56  1  0  0  0
 36106  1  0  0  0
 37 39  1  0  0  0
 37 47  1  0  0  0
 37 66  1  0  0  0
 37107  1  0  0  0
 38 43  2  0  0  0
 38 46  1  0  0  0
 38 47  1  0  0  0
 39 64  1  0  0  0
 39 67  2  0  0  0
 40 52  1  0  0  0
 40 53  2  0  0  0
 40 58  1  0  0  0
 41108  1  0  0  0
 41109  1  0  0  0
 41110  1  0  0  0
 41 48  1  0  0  0
 42 43  1  0  0  0
 42 66  1  0  0  0
 42111  1  0  0  0
 42112  1  0  0  0
 43 44  1  0  0  0
 44113  1  0  0  0
 45 46  2  0  0  0
 45114  1  0  0  0
 46115  1  0  0  0
 47116  1  0  0  0
 47117  1  0  0  0
 48 56  1  0  0  0
 48 65  1  0  0  0
 48118  1  0  0  0
 49 50  1  0  0  0
 49 53  1  0  0  0
 49 64  1  0  0  0
 49119  1  0  0  0
 50 51  1  0  0  0
 50120  1  0  0  0
 50121  1  0  0  0
 51 52  1  0  0  0
 51122  1  0  0  0
 51123  1  0  0  0
 52124  1  0  0  0
 52125  1  0  0  0
 53 54  1  0  0  0
 54 55  2  0  0  0
 54126  1  0  0  0
 55 57  1  0  0  0
 55127  1  0  0  0
 56 69  2  0  0  0
 57 58  2  0  0  0
 57128  1  0  0  0
 58129  1  0  0  0
 59 60  1  0  0  0
 59 61  1  0  0  0
 59 62  1  0  0  0
 60130  1  0  0  0
 60131  1  0  0  0
 60132  1  0  0  0
 61133  1  0  0  0
 61134  1  0  0  0
 61135  1  0  0  0
 62136  1  0  0  0
 62137  1  0  0  0
 62138  1  0  0  0
 63 65  1  0  0  0
 63139  1  0  0  0
 63140  1  0  0  0
 63141  1  0  0  0
 64142  1  0  0  0
 65143  1  0  0  0
 68 81  1  0  0  0
 71 72  2  0  0  0
 71 73  1  0  0  0
 71144  1  0  0  0
 72 76  1  0  0  0
 72145  1  0  0  0
 73 74  2  0  0  0
 73 79  1  0  0  0
 74 75  1  0  0  0
 74 77  1  0  0  0
 75 76  2  0  0  0
 75 78  1  0  0  0
 76 84  1  0  0  0
 77146  1  0  0  0
 77147  1  0  0  0
 77148  1  0  0  0
 78 82  1  0  0  0
 78149  1  0  0  0
 78150  1  0  0  0
 79 83  1  0  0  0
 79151  1  0  0  0
 79152  1  0  0  0
 80 81  1  0  0  0
 80 83  1  0  0  0
 80153  1  0  0  0
 80154  1  0  0  0
 81155  1  0  0  0
 81156  1  0  0  0
 82157  1  0  0  0
 83158  1  0  0  0
 83159  1  0  0  0
M  CHG  1  83   1
M  ISO  4   1 100  68 101  81 101  82 100
M  END
> <chiral flag>
0

> <version>
0

> <s_m_source_file>
/data/baiqing/PycharmProjects/Reinvent-master-3.2/result/LINK_invent/BTK/process_docking_weight1_custom_product_contain_oxygen_bond_distance_aromatic_linkinvent_7_9_3/rearranged_h_0030.sdf

> <i_m_source_file_index>
47

> <r_mmod_Potential_Energy-OPLS-2005>
155.3310546875

> <r_mmod_Stretch_Energy-OPLS-2005>
66.5235214233398

> <r_mmod_Bend_Energy-OPLS-2005>
383.319458007812

> <r_mmod_Torsional_Energy-OPLS-2005>
261.810302734375

> <r_mmod_Improper_Torsional_Energy-OPLS-2005>
17.3368225097656

> <r_mmod_Van_der_Waal_Energy-OPLS-2005>
151.114196777344

> <r_mmod_Electrostatic_Energy-OPLS-2005>
-286.117004394531

> <r_mmod_Solvation_Energy-OPLS-2005>
-465.878112792969

> <b_mmod_Minimization_Converged-OPLS-2005>
0

> <r_mmod_RMS_Derivative-OPLS-2005>
8.56133842468262

$$$$
47
                    3D
 Structure written by MMmdl.
175185  0  0  1  0            999 V2000
  -30.5223  -14.9811   20.4158 C   0  0  0  0  0  0
  -30.4623  -12.6203   19.4699 C   0  0  0  0  0  0
  -29.5204  -12.5420   18.2429 C   0  0  0  0  0  0
  -28.0559  -12.3210   18.6680 C   0  0  0  0  0  0
  -27.6311  -13.2433   19.8384 C   0  0  2  0  0  0
  -28.6914  -13.2423   20.9607 C   0  0  0  0  0  0
  -25.2330  -13.8031   20.5540 C   0  0  0  0  0  0
  -24.1720  -13.0320   20.9317 C   0  0  0  0  0  0
  -24.6394  -11.6850   20.8843 C   0  0  0  0  0  0
  -23.9071  -10.4239   21.0448 C   0  0  0  0  0  0
  -24.3609   -9.4147   21.9197 C   0  0  0  0  0  0
  -23.6270   -8.2188   22.0749 C   0  0  0  0  0  0
  -22.4251   -8.0247   21.3543 C   0  0  0  0  0  0
  -21.9904   -9.0231   20.4648 C   0  0  0  0  0  0
  -22.7254  -10.2105   20.3065 C   0  0  0  0  0  0
  -21.6840   -6.0700   22.5259 C   0  0  0  0  0  0
  -21.4000   -6.5595   23.8191 C   0  0  0  0  0  0
  -21.3673   -5.6757   24.9155 C   0  0  0  0  0  0
  -21.6048   -4.3015   24.7200 C   0  0  0  0  0  0
  -21.8825   -3.8115   23.4314 C   0  0  0  0  0  0
  -21.9196   -4.6935   22.3383 C   0  0  0  0  0  0
  -22.7744  -13.5143   21.1932 C   0  0  0  0  0  0
  -22.1655   -4.2128   21.0956 F   0  0  0  0  0  0
  -21.5659   -3.4506   25.7714 F   0  0  0  0  0  0
  -29.9583  -13.7006   20.3642 N   0  0  0  0  0  0
  -26.2870  -12.9358   20.3244 N   0  0  0  0  0  0
  -25.9343  -11.6508   20.5795 N   0  0  0  0  0  0
  -22.0348  -12.8196   22.0504 N   0  0  0  0  0  0
  -25.3638  -15.1625   20.3388 N   0  0  0  0  0  0
  -31.7240  -15.0834   20.1587 O   0  0  0  0  0  0
  -21.6617   -6.8843   21.4217 O   0  0  0  0  0  0
  -22.3508  -14.5471   20.6743 O   0  0  0  0  0  0
  -24.6415  -31.8468   23.1878 C   0  0  0  0  0  0
  -25.9217  -32.4692   23.8269 C   0  0  1  0  0  0
  -27.2747  -27.1848   20.1415 C   0  0  0  0  0  0
  -25.5995  -33.8487   24.2195 N   0  0  0  0  0  0
  -23.4459  -30.4608   21.5345 C   0  0  2  0  0  0
  -24.9080  -28.8880   20.1209 C   0  0  0  0  0  0
  -22.7583  -29.4546   22.4893 C   0  0  0  0  0  0
  -18.0331  -28.1405   22.8480 C   0  0  0  0  0  0
  -24.1502  -36.7197   23.2642 C   0  0  0  0  0  0
  -26.0007  -30.7346   21.3857 C   0  0  0  0  0  0
  -26.0827  -29.3482   20.7291 C   0  0  0  0  0  0
  -27.2620  -28.5180   20.7189 C   0  0  0  0  0  0
  -26.0697  -26.8146   19.5009 C   0  0  0  0  0  0
  -24.9140  -27.6306   19.4931 C   0  0  0  0  0  0
  -23.6766  -29.7834   20.1579 C   0  0  0  0  0  0
  -25.4125  -36.2995   24.0321 C   0  0  1  0  0  0
  -20.5937  -28.3710   23.1253 C   0  0  2  0  0  0
  -20.6803  -26.9413   22.5416 C   0  0  0  0  0  0
  -19.5774  -26.6389   21.5217 C   0  0  0  0  0  0
  -18.1951  -26.7950   22.1630 C   0  0  0  0  0  0
  -19.1591  -28.8884   23.2847 C   0  0  0  0  0  0
  -18.9490  -30.1498   23.8844 C   0  0  0  0  0  0
  -17.6478  -30.6583   24.0566 C   0  0  0  0  0  0
  -25.9088  -34.9399   23.5051 C   0  0  0  0  0  0
  -16.5371  -29.9067   23.6358 C   0  0  0  0  0  0
  -16.7314  -28.6513   23.0330 C   0  0  0  0  0  0
  -26.4544  -31.6539   25.0693 C   0  0  0  0  0  0
  -25.3733  -31.3749   26.1402 C   0  0  0  0  0  0
  -27.0395  -30.2935   24.6255 C   0  0  0  0  0  0
  -27.6094  -32.4290   25.7460 C   0  0  0  0  0  0
  -27.5577  -37.1761   24.8467 C   0  0  0  0  0  0
  -21.4283  -29.3031   22.3635 N   0  0  0  0  0  0
  -26.4280  -37.3715   23.9425 N   0  0  0  0  0  0
  -24.7139  -31.0362   22.0901 N   0  0  0  0  0  0
  -23.4227  -28.8122   23.3059 O   0  0  0  0  0  0
  -28.3892  -26.2693   20.1382 O   0  0  0  0  0  0
  -26.5645  -34.8888   22.4618 O   0  0  0  0  0  0
  -23.5539  -32.1349   23.7110 O   0  0  0  0  0  0
  -30.7135  -18.5892   20.2967 C   0  0  0  0  0  0
  -30.6005  -20.0521   20.2955 C   0  0  0  0  0  0
  -28.2517  -19.8786   20.5642 C   0  0  0  0  0  0
  -28.3959  -18.4210   20.6523 C   0  0  0  0  0  0
  -29.3543  -20.7962   20.4391 C   0  0  0  0  0  0
  -29.6326  -17.6676   20.4973 C   0  0  0  0  0  0
  -26.5405  -16.2146   24.3363 C   0  0  0  0  0  0
  -25.1571  -16.4777   23.7494 C   0  0  0  0  0  0
  -28.3995  -24.3297   21.8000 C   0  0  0  0  0  0
  -28.6653  -22.7859   21.9027 C   0  0  0  0  0  0
  -29.2011  -23.5167   19.7248 C   0  0  0  0  0  0
  -27.4650  -16.5317   23.1668 C   0  0  0  0  0  0
  -25.3769  -17.6219   22.7505 C   0  0  0  0  0  0
  -28.2556  -24.7293   20.3238 C   0  0  2  0  0  0
  -31.9227  -20.7910   20.1665 C   0  0  0  0  0  0
  -26.8265  -20.4637   20.5709 C   0  0  0  0  0  0
  -27.1303  -17.6349   20.9560 C   0  0  0  0  0  0
  -29.1798  -22.2731   20.6215 N   0  0  0  0  0  0
  -29.6558  -16.1089   20.5536 N   0  0  0  0  0  0
  -26.8227  -17.6294   22.4121 N   0  3  0  0  0  0
  -31.4811  -12.8230   19.1346 H   0  0  0  0  0  0
  -30.5037  -11.6657   19.9957 H   0  0  0  0  0  0
  -29.8393  -11.7416   17.5729 H   0  0  0  0  0  0
  -29.5986  -13.4658   17.6675 H   0  0  0  0  0  0
  -27.9584  -11.2796   18.9745 H   0  0  0  0  0  0
  -27.3890  -12.4538   17.8168 H   0  0  0  0  0  0
  -27.5935  -14.2471   19.4184 H   0  0  0  0  0  0
  -28.7941  -12.2410   21.3824 H   0  0  0  0  0  0
  -28.4007  -13.8761   21.7916 H   0  0  0  0  0  0
  -25.2761   -9.5590   22.4777 H   0  0  0  0  0  0
  -23.9985   -7.4550   22.7442 H   0  0  0  0  0  0
  -21.0850   -8.8744   19.8926 H   0  0  0  0  0  0
  -22.3722  -10.9635   19.6155 H   0  0  0  0  0  0
  -21.1961   -7.6098   23.9677 H   0  0  0  0  0  0
  -21.1502   -6.0483   25.9061 H   0  0  0  0  0  0
  -22.0602   -2.7576   23.2809 H   0  0  0  0  0  0
  -22.3909  -11.9857   22.4958 H   0  0  0  0  0  0
  -21.0932  -13.1226   22.2609 H   0  0  0  0  0  0
  -24.4594  -15.6203   20.2884 H   0  0  0  0  0  0
  -25.8905  -15.3468   19.4934 H   0  0  0  0  0  0
  -26.7292  -32.5316   23.1002 H   0  0  0  0  0  0
  -25.0198  -33.9592   25.0386 H   0  0  0  0  0  0
  -22.7458  -31.2842   21.3776 H   0  0  0  0  0  0
  -23.3770  -35.9518   23.3279 H   0  0  0  0  0  0
  -24.3606  -36.8848   22.2065 H   0  0  0  0  0  0
  -23.7266  -37.6391   23.6684 H   0  0  0  0  0  0
  -26.1717  -31.4960   20.6223 H   0  0  0  0  0  0
  -26.8623  -30.7698   22.0399 H   0  0  0  0  0  0
  -28.1622  -28.8881   21.1932 H   0  0  0  0  0  0
  -26.0113  -25.8694   18.9818 H   0  0  0  0  0  0
  -24.0259  -27.2699   18.9972 H   0  0  0  0  0  0
  -23.8103  -30.5564   19.3991 H   0  0  0  0  0  0
  -22.7930  -29.2215   19.8496 H   0  0  0  0  0  0
  -25.1316  -36.1794   25.0810 H   0  0  0  0  0  0
  -21.0035  -28.3298   24.1372 H   0  0  0  0  0  0
  -20.5711  -26.2302   23.3622 H   0  0  0  0  0  0
  -21.6665  -26.7440   22.1206 H   0  0  0  0  0  0
  -19.6894  -25.6294   21.1263 H   0  0  0  0  0  0
  -19.6695  -27.3188   20.6728 H   0  0  0  0  0  0
  -17.4225  -26.6735   21.4012 H   0  0  0  0  0  0
  -18.0307  -26.0089   22.9030 H   0  0  0  0  0  0
  -19.7956  -30.7353   24.2144 H   0  0  0  0  0  0
  -17.5019  -31.6245   24.5191 H   0  0  0  0  0  0
  -15.5365  -30.2919   23.7694 H   0  0  0  0  0  0
  -15.8744  -28.0814   22.7012 H   0  0  0  0  0  0
  -24.5884  -30.7113   25.7752 H   0  0  0  0  0  0
  -24.8932  -32.2930   26.4792 H   0  0  0  0  0  0
  -25.8018  -30.8964   27.0214 H   0  0  0  0  0  0
  -26.2994  -29.6651   24.1279 H   0  0  0  0  0  0
  -27.4050  -29.7242   25.4811 H   0  0  0  0  0  0
  -27.8889  -30.4170   23.9529 H   0  0  0  0  0  0
  -27.2726  -33.3628   26.1964 H   0  0  0  0  0  0
  -28.3924  -32.6801   25.0292 H   0  0  0  0  0  0
  -28.0715  -31.8452   26.5429 H   0  0  0  0  0  0
  -28.2590  -38.0069   24.7529 H   0  0  0  0  0  0
  -28.1094  -36.2606   24.6260 H   0  0  0  0  0  0
  -27.2312  -37.1371   25.8880 H   0  0  0  0  0  0
  -20.9484  -29.8704   21.6793 H   0  0  0  0  0  0
  -26.0123  -38.2782   24.1406 H   0  0  0  0  0  0
  -31.6981  -18.1578   20.1621 H   0  0  0  0  0  0
  -26.6563  -15.1888   24.6894 H   0  0  0  0  0  0
  -26.7404  -16.8868   25.1706 H   0  0  0  0  0  0
  -24.4138  -16.7174   24.5103 H   0  0  0  0  0  0
  -24.8081  -15.5931   23.2143 H   0  0  0  0  0  0
  -29.2319  -24.8749   22.2425 H   0  0  0  0  0  0
  -27.5056  -24.6151   22.3564 H   0  0  0  0  0  0
  -27.7307  -22.3099   22.1884 H   0  0  0  0  0  0
  -29.3783  -22.5385   22.6923 H   0  0  0  0  0  0
  -30.2321  -23.8766   19.6773 H   0  0  0  0  0  0
  -28.9264  -23.2648   18.7000 H   0  0  0  0  0  0
  -27.5019  -15.6468   22.5402 H   0  0  0  0  0  0
  -28.4849  -16.7757   23.4681 H   0  0  0  0  0  0
  -25.1238  -18.5785   23.2100 H   0  0  0  0  0  0
  -24.7303  -17.5089   21.8784 H   0  0  0  0  0  0
  -27.2440  -24.4591   20.0305 H   0  0  0  0  0  0
  -32.3703  -20.5817   19.1946 H   0  0  0  0  0  0
  -32.6227  -20.4356   20.9242 H   0  0  0  0  0  0
  -31.8258  -21.8682   20.2874 H   0  0  0  0  0  0
  -26.2843  -20.1430   21.4613 H   0  0  0  0  0  0
  -26.2979  -20.1069   19.6855 H   0  0  0  0  0  0
  -26.7431  -21.5492   20.5176 H   0  0  0  0  0  0
  -27.2569  -16.6316   20.5792 H   0  0  0  0  0  0
  -26.2977  -18.0162   20.3683 H   0  0  0  0  0  0
  -28.7279  -15.7348   20.6318 H   0  0  0  0  0  0
  -27.1822  -18.4938   22.7913 H   0  0  0  0  0  0
  1 25  1  0  0  0
  1 30  2  0  0  0
  1 89  1  0  0  0
  2  3  1  0  0  0
  2 25  1  0  0  0
  2 91  1  0  0  0
  2 92  1  0  0  0
  3  4  1  0  0  0
  3 93  1  0  0  0
  3 94  1  0  0  0
  4  5  1  0  0  0
  4 95  1  0  0  0
  4 96  1  0  0  0
  5  6  1  0  0  0
  5 26  1  0  0  0
  5 97  1  0  0  0
  6 25  1  0  0  0
  6 98  1  0  0  0
  6 99  1  0  0  0
  7  8  2  0  0  0
  7 26  1  0  0  0
  7 29  1  0  0  0
  8  9  1  0  0  0
  8 22  1  0  0  0
  9 10  1  0  0  0
  9 27  2  0  0  0
 10 11  2  0  0  0
 10 15  1  0  0  0
 11 12  1  0  0  0
 11100  1  0  0  0
 12 13  2  0  0  0
 12101  1  0  0  0
 13 14  1  0  0  0
 13 31  1  0  0  0
 14 15  2  0  0  0
 14102  1  0  0  0
 15103  1  0  0  0
 16 17  2  0  0  0
 16 21  1  0  0  0
 16 31  1  0  0  0
 17 18  1  0  0  0
 17104  1  0  0  0
 18 19  2  0  0  0
 18105  1  0  0  0
 19 20  1  0  0  0
 19 24  1  0  0  0
 20 21  2  0  0  0
 20106  1  0  0  0
 21 23  1  0  0  0
 22 28  1  0  0  0
 22 32  2  0  0  0
 26 27  1  0  0  0
 28107  1  0  0  0
 28108  1  0  0  0
 29109  1  0  0  0
 29110  1  0  0  0
 33 34  1  0  0  0
 33 66  1  0  0  0
 33 70  2  0  0  0
 34 36  1  0  0  0
 34 59  1  0  0  0
 34111  1  0  0  0
 35 44  2  0  0  0
 35 45  1  0  0  0
 35 68  1  0  0  0
 36 56  1  0  0  0
 36112  1  0  0  0
 37 39  1  0  0  0
 37 47  1  0  0  0
 37 66  1  0  0  0
 37113  1  0  0  0
 38 43  2  0  0  0
 38 46  1  0  0  0
 38 47  1  0  0  0
 39 64  1  0  0  0
 39 67  2  0  0  0
 40 52  1  0  0  0
 40 53  2  0  0  0
 40 58  1  0  0  0
 41114  1  0  0  0
 41115  1  0  0  0
 41116  1  0  0  0
 41 48  1  0  0  0
 42 43  1  0  0  0
 42 66  1  0  0  0
 42117  1  0  0  0
 42118  1  0  0  0
 43 44  1  0  0  0
 44119  1  0  0  0
 45 46  2  0  0  0
 45120  1  0  0  0
 46121  1  0  0  0
 47122  1  0  0  0
 47123  1  0  0  0
 48 56  1  0  0  0
 48 65  1  0  0  0
 48124  1  0  0  0
 49 50  1  0  0  0
 49 53  1  0  0  0
 49 64  1  0  0  0
 49125  1  0  0  0
 50 51  1  0  0  0
 50126  1  0  0  0
 50127  1  0  0  0
 51 52  1  0  0  0
 51128  1  0  0  0
 51129  1  0  0  0
 52130  1  0  0  0
 52131  1  0  0  0
 53 54  1  0  0  0
 54 55  2  0  0  0
 54132  1  0  0  0
 55 57  1  0  0  0
 55133  1  0  0  0
 56 69  2  0  0  0
 57 58  2  0  0  0
 57134  1  0  0  0
 58135  1  0  0  0
 59 60  1  0  0  0
 59 61  1  0  0  0
 59 62  1  0  0  0
 60136  1  0  0  0
 60137  1  0  0  0
 60138  1  0  0  0
 61139  1  0  0  0
 61140  1  0  0  0
 61141  1  0  0  0
 62142  1  0  0  0
 62143  1  0  0  0
 62144  1  0  0  0
 63 65  1  0  0  0
 63145  1  0  0  0
 63146  1  0  0  0
 63147  1  0  0  0
 64148  1  0  0  0
 65149  1  0  0  0
 68 84  1  0  0  0
 71 72  2  0  0  0
 71 76  1  0  0  0
 71150  1  0  0  0
 72 75  1  0  0  0
 72 85  1  0  0  0
 73 74  1  0  0  0
 73 75  2  0  0  0
 73 86  1  0  0  0
 74 76  2  0  0  0
 74 87  1  0  0  0
 75 88  1  0  0  0
 76 89  1  0  0  0
 77 78  1  0  0  0
 77 82  1  0  0  0
 77151  1  0  0  0
 77152  1  0  0  0
 78 83  1  0  0  0
 78153  1  0  0  0
 78154  1  0  0  0
 79 80  1  0  0  0
 79 84  1  0  0  0
 79155  1  0  0  0
 79156  1  0  0  0
 80 88  1  0  0  0
 80157  1  0  0  0
 80158  1  0  0  0
 81 84  1  0  0  0
 81 88  1  0  0  0
 81159  1  0  0  0
 81160  1  0  0  0
 82 90  1  0  0  0
 82161  1  0  0  0
 82162  1  0  0  0
 83 90  1  0  0  0
 83163  1  0  0  0
 83164  1  0  0  0
 84165  1  0  0  0
 85166  1  0  0  0
 85167  1  0  0  0
 85168  1  0  0  0
 86169  1  0  0  0
 86170  1  0  0  0
 86171  1  0  0  0
 87172  1  0  0  0
 87173  1  0  0  0
 87 90  1  0  0  0
 89174  1  0  0  0
 90175  1  0  0  0
M  CHG  1  90   1
M  ISO  4   1 100  68 101  84 101  89 100
M  END
> <chiral flag>
0

> <version>
0

> <s_m_source_file>
/data/baiqing/PycharmProjects/Reinvent-master-3.2/result/LINK_invent/BTK/process_docking_weight1_custom_product_contain_oxygen_bond_distance_aromatic_linkinvent_7_9_3/rearranged_h_0030.sdf

> <i_m_source_file_index>
48

> <r_mmod_Potential_Energy-OPLS-2005>
531.667846679688

> <r_mmod_Stretch_Energy-OPLS-2005>
237.980133056641

> <r_mmod_Bend_Energy-OPLS-2005>
346.246154785156

> <r_mmod_Torsional_Energy-OPLS-2005>
380.828796386719

> <r_mmod_Improper_Torsional_Energy-OPLS-2005>
11.7336101531982

> <r_mmod_Van_der_Waal_Energy-OPLS-2005>
133.364669799805

> <r_mmod_Electrostatic_Energy-OPLS-2005>
-314.741973876953

> <r_mmod_Solvation_Energy-OPLS-2005>
-444.369049072266

> <b_mmod_Minimization_Converged-OPLS-2005>
0

> <r_mmod_RMS_Derivative-OPLS-2005>
6.33773136138916

$$$$
48
                    3D
 Structure written by MMmdl.
156165  0  0  1  0            999 V2000
  -30.6199  -14.7266   20.4561 C   0  0  0  0  0  0
  -30.4231  -12.4422   19.4695 C   0  0  0  0  0  0
  -29.5019  -12.4982   18.2319 C   0  0  0  0  0  0
  -28.0295  -12.3240   18.6499 C   0  0  0  0  0  0
  -27.6380  -13.2293   19.8482 C   0  0  2  0  0  0
  -28.6819  -13.1692   20.9830 C   0  0  0  0  0  0
  -25.2507  -13.8197   20.5702 C   0  0  0  0  0  0
  -24.1796  -13.0445   20.9208 C   0  0  0  0  0  0
  -24.6387  -11.6919   20.8759 C   0  0  0  0  0  0
  -23.9069  -10.4295   21.0417 C   0  0  0  0  0  0
  -24.3621   -9.4208   21.9194 C   0  0  0  0  0  0
  -23.6298   -8.2242   22.0757 C   0  0  0  0  0  0
  -22.4280   -8.0283   21.3546 C   0  0  0  0  0  0
  -21.9917   -9.0257   20.4645 C   0  0  0  0  0  0
  -22.7245  -10.2137   20.3060 C   0  0  0  0  0  0
  -21.6852   -6.0741   22.5281 C   0  0  0  0  0  0
  -21.4014   -6.5644   23.8215 C   0  0  0  0  0  0
  -21.3657   -5.6795   24.9177 C   0  0  0  0  0  0
  -21.6044   -4.3058   24.7225 C   0  0  0  0  0  0
  -21.8818   -3.8150   23.4344 C   0  0  0  0  0  0
  -21.9194   -4.6969   22.3403 C   0  0  0  0  0  0
  -22.7819  -13.5228   21.1870 C   0  0  0  0  0  0
  -22.1662   -4.2156   21.0980 F   0  0  0  0  0  0
  -21.5627   -3.4541   25.7737 F   0  0  0  0  0  0
  -29.9794  -13.5114   20.3929 N   0  0  0  0  0  0
  -26.2922  -12.9400   20.3288 N   0  0  0  0  0  0
  -25.9315  -11.6545   20.5768 N   0  0  0  0  0  0
  -22.0471  -12.8208   22.0416 N   0  0  0  0  0  0
  -25.4219  -15.1922   20.4113 N   0  0  0  0  0  0
  -31.8178  -14.7970   20.1695 O   0  0  0  0  0  0
  -21.6642   -6.8883   21.4242 O   0  0  0  0  0  0
  -22.3502  -14.5537   20.6721 O   0  0  0  0  0  0
  -24.6281  -31.8534   23.1941 C   0  0  0  0  0  0
  -25.9113  -32.4744   23.8289 C   0  0  1  0  0  0
  -27.2323  -27.2736   20.1364 C   0  0  0  0  0  0
  -25.5925  -33.8546   24.2226 N   0  0  0  0  0  0
  -23.4234  -30.4705   21.5379 C   0  0  2  0  0  0
  -24.8700  -28.9031   20.1159 C   0  0  0  0  0  0
  -22.7479  -29.4574   22.4924 C   0  0  0  0  0  0
  -18.0283  -28.1373   22.8489 C   0  0  0  0  0  0
  -24.1495  -36.7273   23.2645 C   0  0  0  0  0  0
  -25.9631  -30.7726   21.3649 C   0  0  0  0  0  0
  -26.0363  -29.3915   20.7153 C   0  0  0  0  0  0
  -27.2170  -28.5902   20.7044 C   0  0  0  0  0  0
  -26.0417  -26.8285   19.5292 C   0  0  0  0  0  0
  -24.8766  -27.6304   19.5136 C   0  0  0  0  0  0
  -23.6393  -29.7905   20.1579 C   0  0  0  0  0  0
  -25.4121  -36.3056   24.0324 C   0  0  1  0  0  0
  -20.5887  -28.3668   23.1291 C   0  0  2  0  0  0
  -20.6770  -26.9390   22.5413 C   0  0  0  0  0  0
  -19.5747  -26.6371   21.5213 C   0  0  0  0  0  0
  -18.1923  -26.7917   22.1620 C   0  0  0  0  0  0
  -19.1538  -28.8837   23.2888 C   0  0  0  0  0  0
  -18.9465  -30.1446   23.8891 C   0  0  0  0  0  0
  -17.6465  -30.6580   24.0560 C   0  0  0  0  0  0
  -25.9058  -34.9432   23.5078 C   0  0  0  0  0  0
  -16.5355  -29.9075   23.6335 C   0  0  0  0  0  0
  -16.7272  -28.6494   23.0349 C   0  0  0  0  0  0
  -26.4491  -31.6577   25.0683 C   0  0  0  0  0  0
  -25.3725  -31.3719   26.1415 C   0  0  0  0  0  0
  -27.0341  -30.3008   24.6134 C   0  0  0  0  0  0
  -27.6042  -32.4318   25.7465 C   0  0  0  0  0  0
  -27.5573  -37.1794   24.8467 C   0  0  0  0  0  0
  -21.4189  -29.3026   22.3689 N   0  0  0  0  0  0
  -26.4288  -37.3760   23.9409 N   0  0  0  0  0  0
  -24.6906  -31.0507   22.0900 N   0  0  0  0  0  0
  -23.4193  -28.8129   23.3019 O   0  0  0  0  0  0
  -28.4090  -26.5056   20.1523 O   0  0  0  0  0  0
  -26.5630  -34.8915   22.4648 O   0  0  0  0  0  0
  -23.5439  -32.1336   23.7265 O   0  0  0  0  0  0
  -30.2431  -19.6395   19.5253 C   0  0  0  0  0  0
  -28.1842  -20.5871   21.0657 C   0  0  0  0  0  0
  -29.7931  -20.9992   19.3926 C   0  0  0  0  0  0
  -29.7001  -18.6927   20.4368 C   0  0  0  0  0  0
  -28.7200  -21.5662   20.1639 C   0  0  0  0  0  0
  -28.6351  -19.2261   21.2142 C   0  0  0  0  0  0
  -28.1590  -23.9484   21.1730 C   0  0  0  0  0  0
  -28.2307  -23.9733   19.0230 C   0  0  0  0  0  0
  -28.6057  -25.0118   20.1204 C   0  0  0  0  0  0
  -30.5546  -21.8543   18.3970 C   0  0  0  0  0  0
  -30.4566  -17.2996   20.6835 C   0  0  0  0  0  0
  -28.1245  -22.9401   20.0879 N   0  0  0  0  0  0
  -29.8804  -15.8873   20.6356 N   0  0  0  0  0  0
  -27.8889  -18.2333   22.4146 Cl  0  0  0  0  0  0
  -31.4661  -12.5557   19.1685 H   0  0  0  0  0  0
  -30.3578  -11.4676   19.9565 H   0  0  0  0  0  0
  -29.7810  -11.7244   17.5157 H   0  0  0  0  0  0
  -29.6288  -13.4529   17.7189 H   0  0  0  0  0  0
  -27.8880  -11.2762   18.9182 H   0  0  0  0  0  0
  -27.3691  -12.5110   17.8025 H   0  0  0  0  0  0
  -27.6320  -14.2490   19.4631 H   0  0  0  0  0  0
  -28.7158  -12.1757   21.4326 H   0  0  0  0  0  0
  -28.4235  -13.8613   21.7864 H   0  0  0  0  0  0
  -25.2766   -9.5686   22.4767 H   0  0  0  0  0  0
  -24.0011   -7.4632   22.7471 H   0  0  0  0  0  0
  -21.0852   -8.8772   19.8945 H   0  0  0  0  0  0
  -22.3707  -10.9677   19.6164 H   0  0  0  0  0  0
  -21.2004   -7.6154   23.9720 H   0  0  0  0  0  0
  -21.1479   -6.0527   25.9081 H   0  0  0  0  0  0
  -22.0597   -2.7613   23.2843 H   0  0  0  0  0  0
  -22.4099  -11.9864   22.4781 H   0  0  0  0  0  0
  -21.1090  -13.1218   22.2635 H   0  0  0  0  0  0
  -24.6585  -15.8489   20.5320 H   0  0  0  0  0  0
  -26.2728  -15.6325   20.0865 H   0  0  0  0  0  0
  -26.7176  -32.5394   23.1026 H   0  0  0  0  0  0
  -25.0099  -33.9682   25.0390 H   0  0  0  0  0  0
  -22.7193  -31.2916   21.3870 H   0  0  0  0  0  0
  -23.3759  -35.9607   23.3305 H   0  0  0  0  0  0
  -24.3584  -36.8891   22.2061 H   0  0  0  0  0  0
  -23.7251  -37.6473   23.6670 H   0  0  0  0  0  0
  -26.0917  -31.5305   20.5908 H   0  0  0  0  0  0
  -26.8454  -30.8288   21.9911 H   0  0  0  0  0  0
  -28.1199  -28.9693   21.1624 H   0  0  0  0  0  0
  -26.0022  -25.8549   19.0660 H   0  0  0  0  0  0
  -23.9805  -27.2490   19.0443 H   0  0  0  0  0  0
  -23.7614  -30.5608   19.3957 H   0  0  0  0  0  0
  -22.7582  -29.2203   19.8577 H   0  0  0  0  0  0
  -25.1306  -36.1888   25.0815 H   0  0  0  0  0  0
  -20.9981  -28.3230   24.1410 H   0  0  0  0  0  0
  -20.5649  -26.2272   23.3607 H   0  0  0  0  0  0
  -21.6639  -26.7389   22.1219 H   0  0  0  0  0  0
  -19.6906  -25.6280   21.1238 H   0  0  0  0  0  0
  -19.6699  -27.3189   20.6751 H   0  0  0  0  0  0
  -17.4197  -26.6676   21.4017 H   0  0  0  0  0  0
  -18.0313  -26.0046   22.9000 H   0  0  0  0  0  0
  -19.7945  -30.7268   24.2243 H   0  0  0  0  0  0
  -17.5020  -31.6262   24.5156 H   0  0  0  0  0  0
  -15.5354  -30.2974   23.7664 H   0  0  0  0  0  0
  -15.8673  -28.0818   22.7055 H   0  0  0  0  0  0
  -24.5924  -30.7028   25.7760 H   0  0  0  0  0  0
  -24.8891  -32.2887   26.4807 H   0  0  0  0  0  0
  -25.8063  -30.8940   27.0209 H   0  0  0  0  0  0
  -26.2911  -29.6759   24.1168 H   0  0  0  0  0  0
  -27.4067  -29.7258   25.4621 H   0  0  0  0  0  0
  -27.8760  -30.4311   23.9330 H   0  0  0  0  0  0
  -27.2651  -33.3637   26.2003 H   0  0  0  0  0  0
  -28.3883  -32.6842   25.0313 H   0  0  0  0  0  0
  -28.0675  -31.8462   26.5416 H   0  0  0  0  0  0
  -28.2586  -38.0096   24.7502 H   0  0  0  0  0  0
  -28.1064  -36.2617   24.6296 H   0  0  0  0  0  0
  -27.2286  -37.1444   25.8870 H   0  0  0  0  0  0
  -20.9357  -29.8754   21.6915 H   0  0  0  0  0  0
  -26.0153  -38.2825   24.1420 H   0  0  0  0  0  0
  -31.0863  -19.3212   18.9281 H   0  0  0  0  0  0
  -27.3649  -20.8966   21.6978 H   0  0  0  0  0  0
  -27.1706  -24.1365   21.5945 H   0  0  0  0  0  0
  -28.9079  -23.7552   21.9421 H   0  0  0  0  0  0
  -29.0094  -23.8576   18.2758 H   0  0  0  0  0  0
  -27.2669  -24.1599   18.5512 H   0  0  0  0  0  0
  -29.6966  -24.9781   20.1534 H   0  0  0  0  0  0
  -31.4643  -21.3629   18.0510 H   0  0  0  0  0  0
  -30.8589  -22.7955   18.8550 H   0  0  0  0  0  0
  -29.9411  -22.0528   17.5187 H   0  0  0  0  0  0
  -30.9116  -17.3925   21.6704 H   0  0  0  0  0  0
  -31.3068  -17.3049   20.0002 H   0  0  0  0  0  0
  -28.8911  -15.7847   20.7993 H   0  0  0  0  0  0
  1 25  1  0  0  0
  1 30  2  0  0  0
  1 83  1  0  0  0
  2  3  1  0  0  0
  2 25  1  0  0  0
  2 85  1  0  0  0
  2 86  1  0  0  0
  3  4  1  0  0  0
  3 87  1  0  0  0
  3 88  1  0  0  0
  4  5  1  0  0  0
  4 89  1  0  0  0
  4 90  1  0  0  0
  5  6  1  0  0  0
  5 26  1  0  0  0
  5 91  1  0  0  0
  6 25  1  0  0  0
  6 92  1  0  0  0
  6 93  1  0  0  0
  7  8  2  0  0  0
  7 26  1  0  0  0
  7 29  1  0  0  0
  8  9  1  0  0  0
  8 22  1  0  0  0
  9 10  1  0  0  0
  9 27  2  0  0  0
 10 11  2  0  0  0
 10 15  1  0  0  0
 11 12  1  0  0  0
 11 94  1  0  0  0
 12 13  2  0  0  0
 12 95  1  0  0  0
 13 14  1  0  0  0
 13 31  1  0  0  0
 14 15  2  0  0  0
 14 96  1  0  0  0
 15 97  1  0  0  0
 16 17  2  0  0  0
 16 21  1  0  0  0
 16 31  1  0  0  0
 17 18  1  0  0  0
 17 98  1  0  0  0
 18 19  2  0  0  0
 18 99  1  0  0  0
 19 20  1  0  0  0
 19 24  1  0  0  0
 20 21  2  0  0  0
 20100  1  0  0  0
 21 23  1  0  0  0
 22 28  1  0  0  0
 22 32  2  0  0  0
 26 27  1  0  0  0
 28101  1  0  0  0
 28102  1  0  0  0
 29103  1  0  0  0
 29104  1  0  0  0
 33 34  1  0  0  0
 33 66  1  0  0  0
 33 70  2  0  0  0
 34 36  1  0  0  0
 34 59  1  0  0  0
 34105  1  0  0  0
 35 44  2  0  0  0
 35 45  1  0  0  0
 35 68  1  0  0  0
 36 56  1  0  0  0
 36106  1  0  0  0
 37 39  1  0  0  0
 37 47  1  0  0  0
 37 66  1  0  0  0
 37107  1  0  0  0
 38 43  2  0  0  0
 38 46  1  0  0  0
 38 47  1  0  0  0
 39 64  1  0  0  0
 39 67  2  0  0  0
 40 52  1  0  0  0
 40 53  2  0  0  0
 40 58  1  0  0  0
 41108  1  0  0  0
 41109  1  0  0  0
 41110  1  0  0  0
 41 48  1  0  0  0
 42 43  1  0  0  0
 42 66  1  0  0  0
 42111  1  0  0  0
 42112  1  0  0  0
 43 44  1  0  0  0
 44113  1  0  0  0
 45 46  2  0  0  0
 45114  1  0  0  0
 46115  1  0  0  0
 47116  1  0  0  0
 47117  1  0  0  0
 48 56  1  0  0  0
 48 65  1  0  0  0
 48118  1  0  0  0
 49 50  1  0  0  0
 49 53  1  0  0  0
 49 64  1  0  0  0
 49119  1  0  0  0
 50 51  1  0  0  0
 50120  1  0  0  0
 50121  1  0  0  0
 51 52  1  0  0  0
 51122  1  0  0  0
 51123  1  0  0  0
 52124  1  0  0  0
 52125  1  0  0  0
 53 54  1  0  0  0
 54 55  2  0  0  0
 54126  1  0  0  0
 55 57  1  0  0  0
 55127  1  0  0  0
 56 69  2  0  0  0
 57 58  2  0  0  0
 57128  1  0  0  0
 58129  1  0  0  0
 59 60  1  0  0  0
 59 61  1  0  0  0
 59 62  1  0  0  0
 60130  1  0  0  0
 60131  1  0  0  0
 60132  1  0  0  0
 61133  1  0  0  0
 61134  1  0  0  0
 61135  1  0  0  0
 62136  1  0  0  0
 62137  1  0  0  0
 62138  1  0  0  0
 63 65  1  0  0  0
 63139  1  0  0  0
 63140  1  0  0  0
 63141  1  0  0  0
 64142  1  0  0  0
 65143  1  0  0  0
 68 79  1  0  0  0
 71 73  2  0  0  0
 71 74  1  0  0  0
 71144  1  0  0  0
 72 75  2  0  0  0
 72 76  1  0  0  0
 72145  1  0  0  0
 73 75  1  0  0  0
 73 80  1  0  0  0
 74 76  2  0  0  0
 74 81  1  0  0  0
 75 82  1  0  0  0
 76 84  1  0  0  0
 77 79  1  0  0  0
 77 82  1  0  0  0
 77146  1  0  0  0
 77147  1  0  0  0
 78 79  1  0  0  0
 78 82  1  0  0  0
 78148  1  0  0  0
 78149  1  0  0  0
 79150  1  0  0  0
 80151  1  0  0  0
 80152  1  0  0  0
 80153  1  0  0  0
 81 83  1  0  0  0
 81154  1  0  0  0
 81155  1  0  0  0
 83156  1  0  0  0
M  ISO  4   1 100  68 101  79 101  83 100
M  END
> <chiral flag>
0

> <version>
0

> <s_m_source_file>
/data/baiqing/PycharmProjects/Reinvent-master-3.2/result/LINK_invent/BTK/process_docking_weight1_custom_product_contain_oxygen_bond_distance_aromatic_linkinvent_7_9_3/rearranged_h_0030.sdf

> <i_m_source_file_index>
49

> <r_mmod_Potential_Energy-OPLS-2005>
254.950302124023

> <r_mmod_Stretch_Energy-OPLS-2005>
111.265014648438

> <r_mmod_Bend_Energy-OPLS-2005>
307.319763183594

> <r_mmod_Torsional_Energy-OPLS-2005>
240.894638061523

> <r_mmod_Improper_Torsional_Energy-OPLS-2005>
10.5438375473022

> <r_mmod_Van_der_Waal_Energy-OPLS-2005>
134.219680786133

> <r_mmod_Electrostatic_Energy-OPLS-2005>
-401.733856201172

> <r_mmod_Solvation_Energy-OPLS-2005>
-219.392852783203

> <b_mmod_Minimization_Converged-OPLS-2005>
0

> <r_mmod_RMS_Derivative-OPLS-2005>
1.03646969795227

$$$$
49
                    3D
 Structure written by MMmdl.
164173  0  0  1  0            999 V2000
  -30.5174  -15.0182   20.2905 C   0  0  0  0  0  0
  -30.4577  -12.5929   19.5184 C   0  0  0  0  0  0
  -29.5393  -12.3367   18.2979 C   0  0  0  0  0  0
  -28.0496  -12.2495   18.6948 C   0  0  0  0  0  0
  -27.6196  -13.2307   19.8219 C   0  0  2  0  0  0
  -28.6690  -13.3428   20.9373 C   0  0  0  0  0  0
  -25.2471  -13.8186   20.5767 C   0  0  0  0  0  0
  -24.1762  -13.0433   20.9258 C   0  0  0  0  0  0
  -24.6347  -11.6908   20.8802 C   0  0  0  0  0  0
  -23.9039  -10.4284   21.0443 C   0  0  0  0  0  0
  -24.3603   -9.4192   21.9203 C   0  0  0  0  0  0
  -23.6286   -8.2219   22.0754 C   0  0  0  0  0  0
  -22.4264   -8.0262   21.3540 C   0  0  0  0  0  0
  -21.9903   -9.0236   20.4643 C   0  0  0  0  0  0
  -22.7222  -10.2123   20.3074 C   0  0  0  0  0  0
  -21.6840   -6.0727   22.5281 C   0  0  0  0  0  0
  -21.4006   -6.5631   23.8216 C   0  0  0  0  0  0
  -21.3667   -5.6781   24.9179 C   0  0  0  0  0  0
  -21.6046   -4.3043   24.7229 C   0  0  0  0  0  0
  -21.8819   -3.8140   23.4348 C   0  0  0  0  0  0
  -21.9186   -4.6958   22.3404 C   0  0  0  0  0  0
  -22.7786  -13.5219   21.1890 C   0  0  0  0  0  0
  -22.1654   -4.2151   21.0980 F   0  0  0  0  0  0
  -21.5638   -3.4528   25.7747 F   0  0  0  0  0  0
  -29.9327  -13.7457   20.3059 N   0  0  0  0  0  0
  -26.2858  -12.9367   20.3293 N   0  0  0  0  0  0
  -25.9273  -11.6528   20.5836 N   0  0  0  0  0  0
  -22.0410  -12.8226   22.0447 N   0  0  0  0  0  0
  -25.4196  -15.1905   20.4201 N   0  0  0  0  0  0
  -31.7505  -15.0428   20.2152 O   0  0  0  0  0  0
  -21.6620   -6.8861   21.4239 O   0  0  0  0  0  0
  -22.3481  -14.5518   20.6713 O   0  0  0  0  0  0
  -24.6420  -31.8436   23.1885 C   0  0  0  0  0  0
  -25.9198  -32.4686   23.8269 C   0  0  1  0  0  0
  -27.2206  -27.1319   20.1603 C   0  0  0  0  0  0
  -25.5950  -33.8494   24.2183 N   0  0  0  0  0  0
  -23.4466  -30.4625   21.5319 C   0  0  2  0  0  0
  -24.8987  -28.8908   20.1061 C   0  0  0  0  0  0
  -22.7558  -29.4542   22.4842 C   0  0  0  0  0  0
  -18.0300  -28.1396   22.8474 C   0  0  0  0  0  0
  -24.1491  -36.7253   23.2644 C   0  0  0  0  0  0
  -26.0016  -30.7151   21.3913 C   0  0  0  0  0  0
  -26.0715  -29.3265   20.7338 C   0  0  0  0  0  0
  -27.2270  -28.4606   20.7499 C   0  0  0  0  0  0
  -26.0277  -26.8079   19.4715 C   0  0  0  0  0  0
  -24.8910  -27.6461   19.4592 C   0  0  0  0  0  0
  -23.6743  -29.7914   20.1505 C   0  0  0  0  0  0
  -25.4123  -36.3026   24.0313 C   0  0  1  0  0  0
  -20.5914  -28.3721   23.1233 C   0  0  2  0  0  0
  -20.6789  -26.9424   22.5404 C   0  0  0  0  0  0
  -19.5762  -26.6382   21.5211 C   0  0  0  0  0  0
  -18.1940  -26.7936   22.1621 C   0  0  0  0  0  0
  -19.1560  -28.8879   23.2846 C   0  0  0  0  0  0
  -18.9478  -30.1472   23.8869 C   0  0  0  0  0  0
  -17.6476  -30.6593   24.0562 C   0  0  0  0  0  0
  -25.9074  -34.9402   23.5055 C   0  0  0  0  0  0
  -16.5365  -29.9083   23.6340 C   0  0  0  0  0  0
  -16.7287  -28.6507   23.0355 C   0  0  0  0  0  0
  -26.4523  -31.6564   25.0717 C   0  0  0  0  0  0
  -25.3708  -31.3766   26.1415 C   0  0  0  0  0  0
  -27.0399  -30.2958   24.6321 C   0  0  0  0  0  0
  -27.6041  -32.4343   25.7505 C   0  0  0  0  0  0
  -27.5574  -37.1781   24.8464 C   0  0  0  0  0  0
  -21.4253  -29.3045   22.3601 N   0  0  0  0  0  0
  -26.4284  -37.3742   23.9406 N   0  0  0  0  0  0
  -24.7161  -31.0289   22.0920 N   0  0  0  0  0  0
  -23.4206  -28.8090   23.2996 O   0  0  0  0  0  0
  -28.2807  -26.1591   20.2959 O   0  0  0  0  0  0
  -26.5658  -34.8902   22.4634 O   0  0  0  0  0  0
  -23.5543  -32.1318   23.7101 O   0  0  0  0  0  0
  -29.8383  -17.7579   20.6025 C   0  0  0  0  0  0
  -28.1147  -17.5887   18.4809 C   0  0  0  0  0  0
  -29.7210  -16.4045   19.9660 C   0  0  0  0  0  0
  -29.1095  -19.0132   20.2059 C   0  0  0  0  0  0
  -28.9653  -16.5004   18.7568 C   0  0  0  0  0  0
  -28.1251  -18.7900   19.2094 C   0  0  0  0  0  0
  -29.0077  -23.1811   17.9166 C   0  0  0  0  0  0
  -28.9843  -24.5915   18.5531 C   0  0  0  0  0  0
  -29.6459  -22.0916   18.8164 C   0  0  0  0  0  0
  -28.7473  -23.3187   20.7668 C   0  0  0  0  0  0
  -28.2178  -24.6515   19.8871 C   0  0  1  0  0  0
  -29.1393  -15.5523   17.5855 C   0  0  0  0  0  0
  -27.0658  -19.8143   18.8309 C   0  0  0  0  0  0
  -29.2556  -20.5507   20.8248 C   0  0  0  0  0  0
  -28.8652  -21.9001   20.0630 N   0  3  2  0  0  0
  -31.4797  -12.7652   19.1772 H   0  0  0  0  0  0
  -30.5031  -11.7048   20.1497 H   0  0  0  0  0  0
  -29.8319  -11.3913   17.8384 H   0  0  0  0  0  0
  -29.7013  -13.0551   17.5063 H   0  0  0  0  0  0
  -27.8927  -11.2256   19.0353 H   0  0  0  0  0  0
  -27.4102  -12.3665   17.8187 H   0  0  0  0  0  0
  -27.5439  -14.2133   19.3706 H   0  0  0  0  0  0
  -28.7733  -12.4011   21.4788 H   0  0  0  0  0  0
  -28.3651  -14.0926   21.6689 H   0  0  0  0  0  0
  -25.2750   -9.5673   22.4773 H   0  0  0  0  0  0
  -24.0001   -7.4610   22.7475 H   0  0  0  0  0  0
  -21.0830   -8.8752   19.8946 H   0  0  0  0  0  0
  -22.3683  -10.9661   19.6183 H   0  0  0  0  0  0
  -21.1986   -7.6138   23.9728 H   0  0  0  0  0  0
  -21.1493   -6.0504   25.9086 H   0  0  0  0  0  0
  -22.0595   -2.7603   23.2840 H   0  0  0  0  0  0
  -22.3998  -11.9896   22.4873 H   0  0  0  0  0  0
  -21.1021  -13.1263   22.2614 H   0  0  0  0  0  0
  -24.6590  -15.8492   20.5451 H   0  0  0  0  0  0
  -26.2825  -15.6322   20.1253 H   0  0  0  0  0  0
  -26.7262  -32.5294   23.0995 H   0  0  0  0  0  0
  -25.0076  -33.9612   25.0316 H   0  0  0  0  0  0
  -22.7488  -31.2882   21.3767 H   0  0  0  0  0  0
  -23.3756  -35.9580   23.3288 H   0  0  0  0  0  0
  -24.3580  -36.8906   22.2060 H   0  0  0  0  0  0
  -23.7243  -37.6443   23.6695 H   0  0  0  0  0  0
  -26.1607  -31.4688   20.6191 H   0  0  0  0  0  0
  -26.8710  -30.7641   22.0353 H   0  0  0  0  0  0
  -28.1129  -28.7839   21.2789 H   0  0  0  0  0  0
  -25.9246  -25.8696   18.9513 H   0  0  0  0  0  0
  -23.9984  -27.3112   18.9483 H   0  0  0  0  0  0
  -23.8100  -30.5658   19.3948 H   0  0  0  0  0  0
  -22.7905  -29.2314   19.8400 H   0  0  0  0  0  0
  -25.1310  -36.1848   25.0806 H   0  0  0  0  0  0
  -21.0004  -28.3313   24.1354 H   0  0  0  0  0  0
  -20.5680  -26.2331   23.3622 H   0  0  0  0  0  0
  -21.6654  -26.7425   22.1203 H   0  0  0  0  0  0
  -19.6921  -25.6284   21.1258 H   0  0  0  0  0  0
  -19.6700  -27.3179   20.6728 H   0  0  0  0  0  0
  -17.4207  -26.6673   21.4025 H   0  0  0  0  0  0
  -18.0340  -26.0084   22.9025 H   0  0  0  0  0  0
  -19.7956  -30.7298   24.2222 H   0  0  0  0  0  0
  -17.5032  -31.6272   24.5164 H   0  0  0  0  0  0
  -15.5367  -30.2979   23.7688 H   0  0  0  0  0  0
  -15.8685  -28.0825   22.7079 H   0  0  0  0  0  0
  -24.5879  -30.7122   25.7743 H   0  0  0  0  0  0
  -24.8913  -32.2958   26.4787 H   0  0  0  0  0  0
  -25.7992  -30.8973   27.0226 H   0  0  0  0  0  0
  -26.3034  -29.6665   24.1318 H   0  0  0  0  0  0
  -27.3991  -29.7273   25.4909 H   0  0  0  0  0  0
  -27.8944  -30.4184   23.9664 H   0  0  0  0  0  0
  -27.2616  -33.3655   26.2029 H   0  0  0  0  0  0
  -28.3881  -32.6888   25.0361 H   0  0  0  0  0  0
  -28.0679  -31.8513   26.5472 H   0  0  0  0  0  0
  -28.2576  -38.0091   24.7513 H   0  0  0  0  0  0
  -28.1083  -36.2618   24.6282 H   0  0  0  0  0  0
  -27.2293  -37.1420   25.8869 H   0  0  0  0  0  0
  -20.9457  -29.8756   21.6780 H   0  0  0  0  0  0
  -26.0145  -38.2806   24.1416 H   0  0  0  0  0  0
  -30.5340  -17.8382   21.4262 H   0  0  0  0  0  0
  -27.4677  -17.5275   17.6142 H   0  0  0  0  0  0
  -29.5642  -23.2328   16.9805 H   0  0  0  0  0  0
  -27.9941  -22.8890   17.6404 H   0  0  0  0  0  0
  -28.5437  -25.2996   17.8504 H   0  0  0  0  0  0
  -30.0082  -24.9287   18.7186 H   0  0  0  0  0  0
  -30.6717  -22.3640   19.0694 H   0  0  0  0  0  0
  -29.7105  -21.1533   18.2643 H   0  0  0  0  0  0
  -28.1008  -23.2060   21.6371 H   0  0  0  0  0  0
  -29.7325  -23.5564   21.1682 H   0  0  0  0  0  0
  -27.1792  -24.4079   19.6821 H   0  0  0  0  0  0
  -28.3492  -14.8103   17.5132 H   0  0  0  0  0  0
  -30.1271  -15.0959   17.5886 H   0  0  0  0  0  0
  -29.0985  -16.1157   16.6524 H   0  0  0  0  0  0
  -26.1810  -19.3138   18.4343 H   0  0  0  0  0  0
  -27.4233  -20.4857   18.0515 H   0  0  0  0  0  0
  -26.7236  -20.3886   19.6907 H   0  0  0  0  0  0
  -30.2877  -20.6589   21.1581 H   0  0  0  0  0  0
  -28.6667  -20.5446   21.7421 H   0  0  0  0  0  0
  -27.9268  -21.6989   19.7533 H   0  0  0  0  0  0
  1 25  1  0  0  0
  1 30  2  0  0  0
  1 73  1  0  0  0
  2  3  1  0  0  0
  2 25  1  0  0  0
  2 86  1  0  0  0
  2 87  1  0  0  0
  3  4  1  0  0  0
  3 88  1  0  0  0
  3 89  1  0  0  0
  4  5  1  0  0  0
  4 90  1  0  0  0
  4 91  1  0  0  0
  5  6  1  0  0  0
  5 26  1  0  0  0
  5 92  1  0  0  0
  6 25  1  0  0  0
  6 93  1  0  0  0
  6 94  1  0  0  0
  7  8  2  0  0  0
  7 26  1  0  0  0
  7 29  1  0  0  0
  8  9  1  0  0  0
  8 22  1  0  0  0
  9 10  1  0  0  0
  9 27  2  0  0  0
 10 11  2  0  0  0
 10 15  1  0  0  0
 11 12  1  0  0  0
 11 95  1  0  0  0
 12 13  2  0  0  0
 12 96  1  0  0  0
 13 14  1  0  0  0
 13 31  1  0  0  0
 14 15  2  0  0  0
 14 97  1  0  0  0
 15 98  1  0  0  0
 16 17  2  0  0  0
 16 21  1  0  0  0
 16 31  1  0  0  0
 17 18  1  0  0  0
 17 99  1  0  0  0
 18 19  2  0  0  0
 18100  1  0  0  0
 19 20  1  0  0  0
 19 24  1  0  0  0
 20 21  2  0  0  0
 20101  1  0  0  0
 21 23  1  0  0  0
 22 28  1  0  0  0
 22 32  2  0  0  0
 26 27  1  0  0  0
 28102  1  0  0  0
 28103  1  0  0  0
 29104  1  0  0  0
 29105  1  0  0  0
 33 34  1  0  0  0
 33 66  1  0  0  0
 33 70  2  0  0  0
 34 36  1  0  0  0
 34 59  1  0  0  0
 34106  1  0  0  0
 35 44  2  0  0  0
 35 45  1  0  0  0
 35 68  1  0  0  0
 36 56  1  0  0  0
 36107  1  0  0  0
 37 39  1  0  0  0
 37 47  1  0  0  0
 37 66  1  0  0  0
 37108  1  0  0  0
 38 43  2  0  0  0
 38 46  1  0  0  0
 38 47  1  0  0  0
 39 64  1  0  0  0
 39 67  2  0  0  0
 40 52  1  0  0  0
 40 53  2  0  0  0
 40 58  1  0  0  0
 41109  1  0  0  0
 41110  1  0  0  0
 41111  1  0  0  0
 41 48  1  0  0  0
 42 43  1  0  0  0
 42 66  1  0  0  0
 42112  1  0  0  0
 42113  1  0  0  0
 43 44  1  0  0  0
 44114  1  0  0  0
 45 46  2  0  0  0
 45115  1  0  0  0
 46116  1  0  0  0
 47117  1  0  0  0
 47118  1  0  0  0
 48 56  1  0  0  0
 48 65  1  0  0  0
 48119  1  0  0  0
 49 50  1  0  0  0
 49 53  1  0  0  0
 49 64  1  0  0  0
 49120  1  0  0  0
 50 51  1  0  0  0
 50121  1  0  0  0
 50122  1  0  0  0
 51 52  1  0  0  0
 51123  1  0  0  0
 51124  1  0  0  0
 52125  1  0  0  0
 52126  1  0  0  0
 53 54  1  0  0  0
 54 55  2  0  0  0
 54127  1  0  0  0
 55 57  1  0  0  0
 55128  1  0  0  0
 56 69  2  0  0  0
 57 58  2  0  0  0
 57129  1  0  0  0
 58130  1  0  0  0
 59 60  1  0  0  0
 59 61  1  0  0  0
 59 62  1  0  0  0
 60131  1  0  0  0
 60132  1  0  0  0
 60133  1  0  0  0
 61134  1  0  0  0
 61135  1  0  0  0
 61136  1  0  0  0
 62137  1  0  0  0
 62138  1  0  0  0
 62139  1  0  0  0
 63 65  1  0  0  0
 63140  1  0  0  0
 63141  1  0  0  0
 63142  1  0  0  0
 64143  1  0  0  0
 65144  1  0  0  0
 68 81  1  0  0  0
 71 73  2  0  0  0
 71 74  1  0  0  0
 71145  1  0  0  0
 72 75  2  0  0  0
 72 76  1  0  0  0
 72146  1  0  0  0
 73 75  1  0  0  0
 74 76  2  0  0  0
 74 84  1  0  0  0
 75 82  1  0  0  0
 76 83  1  0  0  0
 77 78  1  0  0  0
 77 79  1  0  0  0
 77147  1  0  0  0
 77148  1  0  0  0
 78 81  1  0  0  0
 78149  1  0  0  0
 78150  1  0  0  0
 79 85  1  0  0  0
 79151  1  0  0  0
 79152  1  0  0  0
 80 81  1  0  0  0
 80 85  1  0  0  0
 80153  1  0  0  0
 80154  1  0  0  0
 81155  1  0  0  0
 82156  1  0  0  0
 82157  1  0  0  0
 82158  1  0  0  0
 83159  1  0  0  0
 83160  1  0  0  0
 83161  1  0  0  0
 84162  1  0  0  0
 84163  1  0  0  0
 84 85  1  0  0  0
 85164  1  0  0  0
M  CHG  1  85   1
M  ISO  4   1 100  68 101  73 100  81 101
M  END
> <chiral flag>
0

> <version>
0

> <s_m_source_file>
/data/baiqing/PycharmProjects/Reinvent-master-3.2/result/LINK_invent/BTK/process_docking_weight1_custom_product_contain_oxygen_bond_distance_aromatic_linkinvent_7_9_3/rearranged_h_0030.sdf

> <i_m_source_file_index>
50

> <r_mmod_Potential_Energy-OPLS-2005>
640.015869140625

> <r_mmod_Stretch_Energy-OPLS-2005>
277.679962158203

> <r_mmod_Bend_Energy-OPLS-2005>
263.887268066406

> <r_mmod_Torsional_Energy-OPLS-2005>
278.895874023438

> <r_mmod_Improper_Torsional_Energy-OPLS-2005>
11.3296680450439

> <r_mmod_Van_der_Waal_Energy-OPLS-2005>
140.337387084961

> <r_mmod_Electrostatic_Energy-OPLS-2005>
-166.77864074707

> <r_mmod_Solvation_Energy-OPLS-2005>
-403.532073974609

> <b_mmod_Minimization_Converged-OPLS-2005>
0

> <r_mmod_RMS_Derivative-OPLS-2005>
1.39200162887573

$$$$
50
                    3D
 Structure written by MMmdl.
161170  0  0  1  0            999 V2000
  -30.5719  -14.7591   20.4627 C   0  0  0  0  0  0
  -30.4432  -12.4683   19.4459 C   0  0  0  0  0  0
  -29.5051  -12.5059   18.2182 C   0  0  0  0  0  0
  -28.0305  -12.3252   18.6398 C   0  0  0  0  0  0
  -27.6378  -13.2220   19.8432 C   0  0  2  0  0  0
  -28.6890  -13.1431   20.9692 C   0  0  0  0  0  0
  -25.2502  -13.8180   20.5690 C   0  0  0  0  0  0
  -24.1788  -13.0435   20.9201 C   0  0  0  0  0  0
  -24.6373  -11.6910   20.8757 C   0  0  0  0  0  0
  -23.9053  -10.4295   21.0422 C   0  0  0  0  0  0
  -24.3607   -9.4214   21.9206 C   0  0  0  0  0  0
  -23.6282   -8.2245   22.0770 C   0  0  0  0  0  0
  -22.4265   -8.0290   21.3556 C   0  0  0  0  0  0
  -21.9898   -9.0268   20.4658 C   0  0  0  0  0  0
  -22.7227  -10.2146   20.3070 C   0  0  0  0  0  0
  -21.6852   -6.0739   22.5284 C   0  0  0  0  0  0
  -21.4023   -6.5641   23.8211 C   0  0  0  0  0  0
  -21.3656   -5.6785   24.9170 C   0  0  0  0  0  0
  -21.6030   -4.3047   24.7212 C   0  0  0  0  0  0
  -21.8816   -3.8149   23.4337 C   0  0  0  0  0  0
  -21.9194   -4.6970   22.3393 C   0  0  0  0  0  0
  -22.7810  -13.5236   21.1845 C   0  0  0  0  0  0
  -22.1658   -4.2155   21.0974 F   0  0  0  0  0  0
  -21.5621   -3.4535   25.7728 F   0  0  0  0  0  0
  -29.9813  -13.5182   20.3774 N   0  0  0  0  0  0
  -26.2917  -12.9364   20.3256 N   0  0  0  0  0  0
  -25.9298  -11.6518   20.5749 N   0  0  0  0  0  0
  -22.0430  -12.8262   22.0405 N   0  0  0  0  0  0
  -25.4164  -15.1911   20.4116 N   0  0  0  0  0  0
  -31.7796  -14.8885   20.2405 O   0  0  0  0  0  0
  -21.6630   -6.8889   21.4242 O   0  0  0  0  0  0
  -22.3507  -14.5537   20.6677 O   0  0  0  0  0  0
  -24.6319  -31.8525   23.1937 C   0  0  0  0  0  0
  -25.9134  -32.4743   23.8307 C   0  0  1  0  0  0
  -27.2396  -27.2634   20.1408 C   0  0  0  0  0  0
  -25.5919  -33.8546   24.2225 N   0  0  0  0  0  0
  -23.4304  -30.4714   21.5349 C   0  0  2  0  0  0
  -24.8816  -28.9051   20.1181 C   0  0  0  0  0  0
  -22.7515  -29.4587   22.4888 C   0  0  0  0  0  0
  -18.0300  -28.1378   22.8491 C   0  0  0  0  0  0
  -24.1478  -36.7293   23.2644 C   0  0  0  0  0  0
  -25.9745  -30.7703   21.3696 C   0  0  0  0  0  0
  -26.0515  -29.3878   20.7196 C   0  0  0  0  0  0
  -27.2351  -28.5826   20.7083 C   0  0  0  0  0  0
  -26.0445  -26.8307   19.5332 C   0  0  0  0  0  0
  -24.8829  -27.6346   19.5145 C   0  0  0  0  0  0
  -23.6504  -29.7928   20.1559 C   0  0  0  0  0  0
  -25.4105  -36.3060   24.0320 C   0  0  1  0  0  0
  -20.5904  -28.3690   23.1263 C   0  0  2  0  0  0
  -20.6764  -26.9400   22.5408 C   0  0  0  0  0  0
  -19.5738  -26.6365   21.5212 C   0  0  0  0  0  0
  -18.1925  -26.7920   22.1631 C   0  0  0  0  0  0
  -19.1555  -28.8851   23.2873 C   0  0  0  0  0  0
  -18.9471  -30.1447   23.8898 C   0  0  0  0  0  0
  -17.6468  -30.6578   24.0557 C   0  0  0  0  0  0
  -25.9056  -34.9438   23.5082 C   0  0  0  0  0  0
  -16.5360  -29.9078   23.6315 C   0  0  0  0  0  0
  -16.7284  -28.6489   23.0352 C   0  0  0  0  0  0
  -26.4484  -31.6590   25.0723 C   0  0  0  0  0  0
  -25.3697  -31.3782   26.1449 C   0  0  0  0  0  0
  -27.0331  -30.2998   24.6231 C   0  0  0  0  0  0
  -27.6020  -32.4347   25.7518 C   0  0  0  0  0  0
  -27.5567  -37.1798   24.8457 C   0  0  0  0  0  0
  -21.4220  -29.3045   22.3655 N   0  0  0  0  0  0
  -26.4274  -37.3760   23.9408 N   0  0  0  0  0  0
  -24.6976  -31.0499   22.0893 N   0  0  0  0  0  0
  -23.4217  -28.8140   23.2988 O   0  0  0  0  0  0
  -28.3719  -26.4206   20.1092 O   0  0  0  0  0  0
  -26.5639  -34.8917   22.4659 O   0  0  0  0  0  0
  -23.5466  -32.1341   23.7236 O   0  0  0  0  0  0
  -29.3916  -18.5979   23.0199 C   0  0  0  0  0  0
  -29.4827  -18.4512   20.2654 C   0  0  0  0  0  0
  -29.0702  -19.7538   22.2725 C   0  0  0  0  0  0
  -29.7343  -17.3626   22.4280 C   0  0  0  0  0  0
  -29.1919  -19.7603   20.8543 C   0  0  0  0  0  0
  -29.7357  -17.2242   21.0180 C   0  0  0  0  0  0
  -29.9177  -23.1526   21.1265 C   0  0  0  0  0  0
  -29.6869  -24.6679   21.3087 C   0  0  0  0  0  0
  -28.1676  -23.6783   19.7693 C   0  0  0  0  0  0
  -28.3416  -25.0090   20.6362 C   0  0  2  0  0  0
  -28.5258  -20.9303   23.0669 C   0  0  0  0  0  0
  -29.9971  -16.1822   23.3506 C   0  0  0  0  0  0
  -28.8946  -21.0713   19.9582 C   0  0  0  0  0  0
  -28.9572  -22.5509   20.4008 N   0  0  0  0  0  0
  -29.7091  -15.8488   20.4490 N   0  0  0  0  0  0
  -30.9082  -22.5927   21.6033 O   0  0  0  0  0  0
  -31.4777  -12.6248   19.1336 H   0  0  0  0  0  0
  -30.4174  -11.4908   19.9296 H   0  0  0  0  0  0
  -29.7885  -11.7352   17.4991 H   0  0  0  0  0  0
  -29.6174  -13.4601   17.7003 H   0  0  0  0  0  0
  -27.8831  -11.2766   18.8999 H   0  0  0  0  0  0
  -27.3700  -12.5223   17.7942 H   0  0  0  0  0  0
  -27.6289  -14.2427   19.4628 H   0  0  0  0  0  0
  -28.7339  -12.1374   21.3881 H   0  0  0  0  0  0
  -28.4226  -13.8069   21.7925 H   0  0  0  0  0  0
  -25.2749   -9.5694   22.4788 H   0  0  0  0  0  0
  -23.9989   -7.4634   22.7499 H   0  0  0  0  0  0
  -21.0829   -8.8805   19.8967 H   0  0  0  0  0  0
  -22.3704  -10.9695   19.6179 H   0  0  0  0  0  0
  -21.2038   -7.6152   23.9722 H   0  0  0  0  0  0
  -21.1465   -6.0512   25.9066 H   0  0  0  0  0  0
  -22.0604   -2.7618   23.2827 H   0  0  0  0  0  0
  -22.4021  -11.9939   22.4842 H   0  0  0  0  0  0
  -21.1068  -13.1369   22.2604 H   0  0  0  0  0  0
  -24.6450  -15.8390   20.5342 H   0  0  0  0  0  0
  -26.2540  -15.6426   20.0705 H   0  0  0  0  0  0
  -26.7228  -32.5388   23.1077 H   0  0  0  0  0  0
  -25.0016  -33.9660   25.0337 H   0  0  0  0  0  0
  -22.7283  -31.2935   21.3825 H   0  0  0  0  0  0
  -23.3724  -35.9641   23.3297 H   0  0  0  0  0  0
  -24.3569  -36.8931   22.2062 H   0  0  0  0  0  0
  -23.7253  -37.6498   23.6684 H   0  0  0  0  0  0
  -26.1107  -31.5283   20.5971 H   0  0  0  0  0  0
  -26.8536  -30.8261   22.0004 H   0  0  0  0  0  0
  -28.1409  -28.9596   21.1625 H   0  0  0  0  0  0
  -26.0100  -25.8544   19.0705 H   0  0  0  0  0  0
  -23.9867  -27.2578   19.0409 H   0  0  0  0  0  0
  -23.7777  -30.5632   19.3947 H   0  0  0  0  0  0
  -22.7703  -29.2230   19.8513 H   0  0  0  0  0  0
  -25.1286  -36.1894   25.0809 H   0  0  0  0  0  0
  -21.0011  -28.3259   24.1377 H   0  0  0  0  0  0
  -20.5626  -26.2307   23.3617 H   0  0  0  0  0  0
  -21.6631  -26.7379   22.1223 H   0  0  0  0  0  0
  -19.6882  -25.6269   21.1248 H   0  0  0  0  0  0
  -19.6663  -27.3164   20.6731 H   0  0  0  0  0  0
  -17.4182  -26.6673   21.4037 H   0  0  0  0  0  0
  -18.0324  -26.0061   22.9031 H   0  0  0  0  0  0
  -19.7944  -30.7259   24.2272 H   0  0  0  0  0  0
  -17.5019  -31.6261   24.5156 H   0  0  0  0  0  0
  -15.5356  -30.2980   23.7624 H   0  0  0  0  0  0
  -15.8688  -28.0800   22.7071 H   0  0  0  0  0  0
  -24.5818  -30.7194   25.7781 H   0  0  0  0  0  0
  -24.8958  -32.2983   26.4883 H   0  0  0  0  0  0
  -25.7992  -30.8934   27.0226 H   0  0  0  0  0  0
  -26.2930  -29.6767   24.1198 H   0  0  0  0  0  0
  -27.3937  -29.7248   25.4771 H   0  0  0  0  0  0
  -27.8835  -30.4259   23.9527 H   0  0  0  0  0  0
  -27.2590  -33.3633   26.2094 H   0  0  0  0  0  0
  -28.3841  -32.6940   25.0374 H   0  0  0  0  0  0
  -28.0681  -31.8489   26.5449 H   0  0  0  0  0  0
  -28.2574  -38.0102   24.7492 H   0  0  0  0  0  0
  -28.1066  -36.2631   24.6276 H   0  0  0  0  0  0
  -27.2297  -37.1451   25.8863 H   0  0  0  0  0  0
  -20.9405  -29.8800   21.6891 H   0  0  0  0  0  0
  -26.0144  -38.2829   24.1400 H   0  0  0  0  0  0
  -29.3110  -18.6448   24.0976 H   0  0  0  0  0  0
  -29.4599  -18.3799   19.1868 H   0  0  0  0  0  0
  -30.5082  -25.1964   20.8247 H   0  0  0  0  0  0
  -29.6904  -24.9441   22.3634 H   0  0  0  0  0  0
  -28.5635  -23.8412   18.7648 H   0  0  0  0  0  0
  -27.1181  -23.4097   19.6559 H   0  0  0  0  0  0
  -27.5782  -24.9794   21.4144 H   0  0  0  0  0  0
  -27.9984  -20.5825   23.9553 H   0  0  0  0  0  0
  -27.8008  -21.5091   22.4960 H   0  0  0  0  0  0
  -29.3298  -21.5785   23.4117 H   0  0  0  0  0  0
  -29.9893  -16.4789   24.4001 H   0  0  0  0  0  0
  -30.9748  -15.7451   23.1485 H   0  0  0  0  0  0
  -29.2348  -15.4152   23.2230 H   0  0  0  0  0  0
  -27.8907  -20.9244   19.5582 H   0  0  0  0  0  0
  -29.5476  -21.0011   19.0876 H   0  0  0  0  0  0
  -28.7681  -15.5395   20.2642 H   0  0  0  0  0  0
  1 25  1  0  0  0
  1 30  2  0  0  0
  1 85  1  0  0  0
  2  3  1  0  0  0
  2 25  1  0  0  0
  2 87  1  0  0  0
  2 88  1  0  0  0
  3  4  1  0  0  0
  3 89  1  0  0  0
  3 90  1  0  0  0
  4  5  1  0  0  0
  4 91  1  0  0  0
  4 92  1  0  0  0
  5  6  1  0  0  0
  5 26  1  0  0  0
  5 93  1  0  0  0
  6 25  1  0  0  0
  6 94  1  0  0  0
  6 95  1  0  0  0
  7  8  2  0  0  0
  7 26  1  0  0  0
  7 29  1  0  0  0
  8  9  1  0  0  0
  8 22  1  0  0  0
  9 10  1  0  0  0
  9 27  2  0  0  0
 10 11  2  0  0  0
 10 15  1  0  0  0
 11 12  1  0  0  0
 11 96  1  0  0  0
 12 13  2  0  0  0
 12 97  1  0  0  0
 13 14  1  0  0  0
 13 31  1  0  0  0
 14 15  2  0  0  0
 14 98  1  0  0  0
 15 99  1  0  0  0
 16 17  2  0  0  0
 16 21  1  0  0  0
 16 31  1  0  0  0
 17 18  1  0  0  0
 17100  1  0  0  0
 18 19  2  0  0  0
 18101  1  0  0  0
 19 20  1  0  0  0
 19 24  1  0  0  0
 20 21  2  0  0  0
 20102  1  0  0  0
 21 23  1  0  0  0
 22 28  1  0  0  0
 22 32  2  0  0  0
 26 27  1  0  0  0
 28103  1  0  0  0
 28104  1  0  0  0
 29105  1  0  0  0
 29106  1  0  0  0
 33 34  1  0  0  0
 33 66  1  0  0  0
 33 70  2  0  0  0
 34 36  1  0  0  0
 34 59  1  0  0  0
 34107  1  0  0  0
 35 44  2  0  0  0
 35 45  1  0  0  0
 35 68  1  0  0  0
 36 56  1  0  0  0
 36108  1  0  0  0
 37 39  1  0  0  0
 37 47  1  0  0  0
 37 66  1  0  0  0
 37109  1  0  0  0
 38 43  2  0  0  0
 38 46  1  0  0  0
 38 47  1  0  0  0
 39 64  1  0  0  0
 39 67  2  0  0  0
 40 52  1  0  0  0
 40 53  2  0  0  0
 40 58  1  0  0  0
 41110  1  0  0  0
 41111  1  0  0  0
 41112  1  0  0  0
 41 48  1  0  0  0
 42 43  1  0  0  0
 42 66  1  0  0  0
 42113  1  0  0  0
 42114  1  0  0  0
 43 44  1  0  0  0
 44115  1  0  0  0
 45 46  2  0  0  0
 45116  1  0  0  0
 46117  1  0  0  0
 47118  1  0  0  0
 47119  1  0  0  0
 48 56  1  0  0  0
 48 65  1  0  0  0
 48120  1  0  0  0
 49 50  1  0  0  0
 49 53  1  0  0  0
 49 64  1  0  0  0
 49121  1  0  0  0
 50 51  1  0  0  0
 50122  1  0  0  0
 50123  1  0  0  0
 51 52  1  0  0  0
 51124  1  0  0  0
 51125  1  0  0  0
 52126  1  0  0  0
 52127  1  0  0  0
 53 54  1  0  0  0
 54 55  2  0  0  0
 54128  1  0  0  0
 55 57  1  0  0  0
 55129  1  0  0  0
 56 69  2  0  0  0
 57 58  2  0  0  0
 57130  1  0  0  0
 58131  1  0  0  0
 59 60  1  0  0  0
 59 61  1  0  0  0
 59 62  1  0  0  0
 60132  1  0  0  0
 60133  1  0  0  0
 60134  1  0  0  0
 61135  1  0  0  0
 61136  1  0  0  0
 61137  1  0  0  0
 62138  1  0  0  0
 62139  1  0  0  0
 62140  1  0  0  0
 63 65  1  0  0  0
 63141  1  0  0  0
 63142  1  0  0  0
 63143  1  0  0  0
 64144  1  0  0  0
 65145  1  0  0  0
 68 80  1  0  0  0
 71 73  2  0  0  0
 71 74  1  0  0  0
 71146  1  0  0  0
 72 75  2  0  0  0
 72 76  1  0  0  0
 72147  1  0  0  0
 73 75  1  0  0  0
 73 81  1  0  0  0
 74 76  2  0  0  0
 74 82  1  0  0  0
 75 83  1  0  0  0
 76 85  1  0  0  0
 77 78  1  0  0  0
 77 84  1  0  0  0
 77 86  2  0  0  0
 78 80  1  0  0  0
 78148  1  0  0  0
 78149  1  0  0  0
 79 80  1  0  0  0
 79 84  1  0  0  0
 79150  1  0  0  0
 79151  1  0  0  0
 80152  1  0  0  0
 81153  1  0  0  0
 81154  1  0  0  0
 81155  1  0  0  0
 82156  1  0  0  0
 82157  1  0  0  0
 82158  1  0  0  0
 83 84  1  0  0  0
 83159  1  0  0  0
 83160  1  0  0  0
 85161  1  0  0  0
M  ISO  4   1 100  68 101  80 101  85 100
M  END
> <chiral flag>
0

> <version>
0

> <s_m_source_file>
/data/baiqing/PycharmProjects/Reinvent-master-3.2/result/LINK_invent/BTK/process_docking_weight1_custom_product_contain_oxygen_bond_distance_aromatic_linkinvent_7_9_3/rearranged_h_0030.sdf

> <i_m_source_file_index>
51

> <r_mmod_Potential_Energy-OPLS-2005>
222.647186279297

> <r_mmod_Stretch_Energy-OPLS-2005>
130.447265625

> <r_mmod_Bend_Energy-OPLS-2005>
221.079360961914

> <r_mmod_Torsional_Energy-OPLS-2005>
293.713500976562

> <r_mmod_Improper_Torsional_Energy-OPLS-2005>
13.5358610153198

> <r_mmod_Van_der_Waal_Energy-OPLS-2005>
126.714317321777

> <r_mmod_Electrostatic_Energy-OPLS-2005>
-412.643768310547

> <r_mmod_Solvation_Energy-OPLS-2005>
-236.579788208008

> <b_mmod_Minimization_Converged-OPLS-2005>
0

> <r_mmod_RMS_Derivative-OPLS-2005>
2.23520040512085

$$$$
51
                    3D
 Structure written by MMmdl.
163172  0  0  1  0            999 V2000
  -30.6804  -14.5449   20.4923 C   0  0  0  0  0  0
  -30.4204  -12.3296   19.4431 C   0  0  0  0  0  0
  -29.4998  -12.4831   18.2147 C   0  0  0  0  0  0
  -28.0203  -12.3446   18.6268 C   0  0  0  0  0  0
  -27.6510  -13.2161   19.8589 C   0  0  2  0  0  0
  -28.6963  -13.0733   20.9888 C   0  0  0  0  0  0
  -25.2557  -13.8166   20.5687 C   0  0  0  0  0  0
  -24.1821  -13.0438   20.9208 C   0  0  0  0  0  0
  -24.6392  -11.6913   20.8755 C   0  0  0  0  0  0
  -23.9064  -10.4291   21.0407 C   0  0  0  0  0  0
  -24.3618   -9.4204   21.9189 C   0  0  0  0  0  0
  -23.6294   -8.2236   22.0750 C   0  0  0  0  0  0
  -22.4275   -8.0281   21.3538 C   0  0  0  0  0  0
  -21.9914   -9.0254   20.4638 C   0  0  0  0  0  0
  -22.7233  -10.2137   20.3051 C   0  0  0  0  0  0
  -21.6859   -6.0738   22.5279 C   0  0  0  0  0  0
  -21.4012   -6.5634   23.8213 C   0  0  0  0  0  0
  -21.3662   -5.6783   24.9175 C   0  0  0  0  0  0
  -21.6048   -4.3045   24.7219 C   0  0  0  0  0  0
  -21.8819   -3.8142   23.4336 C   0  0  0  0  0  0
  -21.9192   -4.6966   22.3399 C   0  0  0  0  0  0
  -22.7837  -13.5237   21.1855 C   0  0  0  0  0  0
  -22.1658   -4.2151   21.0976 F   0  0  0  0  0  0
  -21.5642   -3.4530   25.7729 F   0  0  0  0  0  0
  -30.0164  -13.3590   20.4143 N   0  0  0  0  0  0
  -26.2981  -12.9351   20.3314 N   0  0  0  0  0  0
  -25.9313  -11.6509   20.5764 N   0  0  0  0  0  0
  -22.0458  -12.8255   22.0419 N   0  0  0  0  0  0
  -25.4265  -15.1883   20.4074 N   0  0  0  0  0  0
  -31.8646  -14.6612   20.1754 O   0  0  0  0  0  0
  -21.6634   -6.8879   21.4241 O   0  0  0  0  0  0
  -22.3533  -14.5545   20.6691 O   0  0  0  0  0  0
  -24.6201  -31.8667   23.2098 C   0  0  0  0  0  0
  -25.9078  -32.4814   23.8400 C   0  0  1  0  0  0
  -27.2136  -27.3795   20.1094 C   0  0  0  0  0  0
  -25.5940  -33.8618   24.2331 N   0  0  0  0  0  0
  -23.4087  -30.4953   21.5498 C   0  0  2  0  0  0
  -24.8523  -28.9629   20.1125 C   0  0  0  0  0  0
  -22.7438  -29.4674   22.4952 C   0  0  0  0  0  0
  -18.0285  -28.1378   22.8480 C   0  0  0  0  0  0
  -24.1489  -36.7314   23.2634 C   0  0  0  0  0  0
  -25.9452  -30.8172   21.3720 C   0  0  0  0  0  0
  -26.0183  -29.4491   20.7172 C   0  0  0  0  0  0
  -27.2033  -28.6675   20.7105 C   0  0  0  0  0  0
  -26.0308  -26.9429   19.4671 C   0  0  0  0  0  0
  -24.8580  -27.7134   19.4791 C   0  0  0  0  0  0
  -23.6206  -29.8376   20.1619 C   0  0  0  0  0  0
  -25.4110  -36.3111   24.0333 C   0  0  1  0  0  0
  -20.5882  -28.3688   23.1293 C   0  0  2  0  0  0
  -20.6783  -26.9419   22.5404 C   0  0  0  0  0  0
  -19.5761  -26.6383   21.5205 C   0  0  0  0  0  0
  -18.1940  -26.7924   22.1616 C   0  0  0  0  0  0
  -19.1533  -28.8844   23.2889 C   0  0  0  0  0  0
  -18.9459  -30.1448   23.8903 C   0  0  0  0  0  0
  -17.6462  -30.6583   24.0564 C   0  0  0  0  0  0
  -25.9035  -34.9477   23.5119 C   0  0  0  0  0  0
  -16.5354  -29.9081   23.6327 C   0  0  0  0  0  0
  -16.7274  -28.6501   23.0340 C   0  0  0  0  0  0
  -26.4490  -31.6598   25.0736 C   0  0  0  0  0  0
  -25.3741  -31.3722   26.1469 C   0  0  0  0  0  0
  -27.0327  -30.3038   24.6136 C   0  0  0  0  0  0
  -27.6069  -32.4312   25.7499 C   0  0  0  0  0  0
  -27.5579  -37.1817   24.8464 C   0  0  0  0  0  0
  -21.4161  -29.3061   22.3698 N   0  0  0  0  0  0
  -26.4293  -37.3799   23.9403 N   0  0  0  0  0  0
  -24.6766  -31.0749   22.1016 N   0  0  0  0  0  0
  -23.4193  -28.8182   23.2982 O   0  0  0  0  0  0
  -28.3475  -26.5748   20.1441 O   0  0  0  0  0  0
  -26.5589  -34.8929   22.4675 O   0  0  0  0  0  0
  -23.5383  -32.1440   23.7464 O   0  0  0  0  0  0
  -31.9257  -19.5889   21.3904 C   0  0  0  0  0  0
  -31.3905  -18.2994   21.5341 C   0  0  0  0  0  0
  -31.1123  -20.6461   20.9495 C   0  0  0  0  0  0
  -30.0391  -18.0338   21.2352 C   0  0  0  0  0  0
  -29.7485  -20.4442   20.6414 C   0  0  0  0  0  0
  -29.2119  -19.1107   20.7643 C   0  0  0  0  0  0
  -27.8483  -24.7737   21.8038 C   0  0  0  0  0  0
  -28.1044  -23.2555   21.8560 C   0  0  0  0  0  0
  -29.3262  -24.2095   20.0312 C   0  0  0  0  0  0
  -28.1388  -25.1411   20.3508 C   0  0  2  0  0  0
  -27.7682  -18.8069   20.3751 C   0  0  0  0  0  0
  -29.5518  -16.5800   21.4700 C   0  0  0  0  0  0
  -28.9699  -21.6719   20.0900 C   0  0  0  0  0  0
  -29.9003  -15.6426   20.3906 N   0  0  0  0  0  0
  -29.1576  -22.9598   20.8492 N   0  3  2  0  0  0
  -31.4669  -12.4233   19.1465 H   0  0  0  0  0  0
  -30.3203  -11.3365   19.8824 H   0  0  0  0  0  0
  -29.7465  -11.7279   17.4669 H   0  0  0  0  0  0
  -29.6682  -13.4514   17.7415 H   0  0  0  0  0  0
  -27.8455  -11.2917   18.8522 H   0  0  0  0  0  0
  -27.3705  -12.5824   17.7836 H   0  0  0  0  0  0
  -27.6684  -14.2506   19.5169 H   0  0  0  0  0  0
  -28.6826  -12.0656   21.4058 H   0  0  0  0  0  0
  -28.4726  -13.7554   21.8111 H   0  0  0  0  0  0
  -25.2764   -9.5697   22.4758 H   0  0  0  0  0  0
  -24.0016   -7.4633   22.7466 H   0  0  0  0  0  0
  -21.0849   -8.8765   19.8944 H   0  0  0  0  0  0
  -22.3689  -10.9678   19.6157 H   0  0  0  0  0  0
  -21.1991   -7.6139   23.9725 H   0  0  0  0  0  0
  -21.1494   -6.0503   25.9083 H   0  0  0  0  0  0
  -22.0597   -2.7604   23.2827 H   0  0  0  0  0  0
  -22.4060  -11.9941   22.4872 H   0  0  0  0  0  0
  -21.1059  -13.1275   22.2549 H   0  0  0  0  0  0
  -24.6584  -15.8438   20.5029 H   0  0  0  0  0  0
  -26.2808  -15.6186   20.0778 H   0  0  0  0  0  0
  -26.7150  -32.5512   23.1156 H   0  0  0  0  0  0
  -25.0132  -33.9780   25.0508 H   0  0  0  0  0  0
  -22.7000  -31.3146   21.4131 H   0  0  0  0  0  0
  -23.3751  -35.9648   23.3310 H   0  0  0  0  0  0
  -24.3580  -36.8911   22.2045 H   0  0  0  0  0  0
  -23.7238  -37.6523   23.6639 H   0  0  0  0  0  0
  -26.0673  -31.5841   20.6050 H   0  0  0  0  0  0
  -26.8304  -30.8667   21.9950 H   0  0  0  0  0  0
  -28.0994  -29.0375   21.1895 H   0  0  0  0  0  0
  -25.9775  -26.0118   18.9268 H   0  0  0  0  0  0
  -23.9697  -27.3440   18.9859 H   0  0  0  0  0  0
  -23.7407  -30.6176   19.4086 H   0  0  0  0  0  0
  -22.7419  -29.2670   19.8557 H   0  0  0  0  0  0
  -25.1290  -36.1976   25.0830 H   0  0  0  0  0  0
  -20.9971  -28.3249   24.1414 H   0  0  0  0  0  0
  -20.5684  -26.2300   23.3593 H   0  0  0  0  0  0
  -21.6654  -26.7453   22.1200 H   0  0  0  0  0  0
  -19.6928  -25.6293   21.1233 H   0  0  0  0  0  0
  -19.6697  -27.3192   20.6734 H   0  0  0  0  0  0
  -17.4210  -26.6665   21.4020 H   0  0  0  0  0  0
  -18.0351  -26.0061   22.9010 H   0  0  0  0  0  0
  -19.7936  -30.7262   24.2270 H   0  0  0  0  0  0
  -17.5020  -31.6261   24.5172 H   0  0  0  0  0  0
  -15.5358  -30.2989   23.7646 H   0  0  0  0  0  0
  -15.8675  -28.0825   22.7045 H   0  0  0  0  0  0
  -24.5911  -30.7070   25.7801 H   0  0  0  0  0  0
  -24.8936  -32.2889   26.4911 H   0  0  0  0  0  0
  -25.8080  -30.8889   27.0229 H   0  0  0  0  0  0
  -26.2886  -29.6791   24.1172 H   0  0  0  0  0  0
  -27.4075  -29.7285   25.4612 H   0  0  0  0  0  0
  -27.8742  -30.4360   23.9323 H   0  0  0  0  0  0
  -27.2698  -33.3605   26.2106 H   0  0  0  0  0  0
  -28.3874  -32.6866   25.0318 H   0  0  0  0  0  0
  -28.0742  -31.8404   26.5386 H   0  0  0  0  0  0
  -28.2610  -38.0102   24.7508 H   0  0  0  0  0  0
  -28.1062  -36.2634   24.6304 H   0  0  0  0  0  0
  -27.2295  -37.1486   25.8868 H   0  0  0  0  0  0
  -20.9309  -29.8835   21.6975 H   0  0  0  0  0  0
  -26.0184  -38.2880   24.1404 H   0  0  0  0  0  0
  -32.9693  -19.7680   21.6135 H   0  0  0  0  0  0
  -32.0294  -17.4984   21.8833 H   0  0  0  0  0  0
  -31.5654  -21.6217   20.8294 H   0  0  0  0  0  0
  -28.5386  -25.2956   22.4660 H   0  0  0  0  0  0
  -26.8334  -25.0353   22.1029 H   0  0  0  0  0  0
  -27.1765  -22.7382   21.6104 H   0  0  0  0  0  0
  -28.4034  -22.9221   22.8503 H   0  0  0  0  0  0
  -30.2546  -24.6879   20.3440 H   0  0  0  0  0  0
  -29.4113  -24.0281   18.9608 H   0  0  0  0  0  0
  -27.3276  -24.7505   19.7428 H   0  0  0  0  0  0
  -27.1118  -18.8735   21.2438 H   0  0  0  0  0  0
  -27.6783  -17.8044   19.9562 H   0  0  0  0  0  0
  -27.3853  -19.4669   19.5984 H   0  0  0  0  0  0
  -29.9811  -16.2240   22.4097 H   0  0  0  0  0  0
  -28.4753  -16.5509   21.6308 H   0  0  0  0  0  0
  -27.9064  -21.4752   19.9808 H   0  0  0  0  0  0
  -29.3309  -21.8028   19.0706 H   0  0  0  0  0  0
  -30.1887  -16.1788   19.5877 H   0  0  0  0  0  0
  -30.0206  -22.8420   21.3589 H   0  0  0  0  0  0
  1 25  1  0  0  0
  1 30  2  0  0  0
  1 84  1  0  0  0
  2  3  1  0  0  0
  2 25  1  0  0  0
  2 86  1  0  0  0
  2 87  1  0  0  0
  3  4  1  0  0  0
  3 88  1  0  0  0
  3 89  1  0  0  0
  4  5  1  0  0  0
  4 90  1  0  0  0
  4 91  1  0  0  0
  5  6  1  0  0  0
  5 26  1  0  0  0
  5 92  1  0  0  0
  6 25  1  0  0  0
  6 93  1  0  0  0
  6 94  1  0  0  0
  7  8  2  0  0  0
  7 26  1  0  0  0
  7 29  1  0  0  0
  8  9  1  0  0  0
  8 22  1  0  0  0
  9 10  1  0  0  0
  9 27  2  0  0  0
 10 11  2  0  0  0
 10 15  1  0  0  0
 11 12  1  0  0  0
 11 95  1  0  0  0
 12 13  2  0  0  0
 12 96  1  0  0  0
 13 14  1  0  0  0
 13 31  1  0  0  0
 14 15  2  0  0  0
 14 97  1  0  0  0
 15 98  1  0  0  0
 16 17  2  0  0  0
 16 21  1  0  0  0
 16 31  1  0  0  0
 17 18  1  0  0  0
 17 99  1  0  0  0
 18 19  2  0  0  0
 18100  1  0  0  0
 19 20  1  0  0  0
 19 24  1  0  0  0
 20 21  2  0  0  0
 20101  1  0  0  0
 21 23  1  0  0  0
 22 28  1  0  0  0
 22 32  2  0  0  0
 26 27  1  0  0  0
 28102  1  0  0  0
 28103  1  0  0  0
 29104  1  0  0  0
 29105  1  0  0  0
 33 34  1  0  0  0
 33 66  1  0  0  0
 33 70  2  0  0  0
 34 36  1  0  0  0
 34 59  1  0  0  0
 34106  1  0  0  0
 35 44  2  0  0  0
 35 45  1  0  0  0
 35 68  1  0  0  0
 36 56  1  0  0  0
 36107  1  0  0  0
 37 39  1  0  0  0
 37 47  1  0  0  0
 37 66  1  0  0  0
 37108  1  0  0  0
 38 43  2  0  0  0
 38 46  1  0  0  0
 38 47  1  0  0  0
 39 64  1  0  0  0
 39 67  2  0  0  0
 40 52  1  0  0  0
 40 53  2  0  0  0
 40 58  1  0  0  0
 41109  1  0  0  0
 41110  1  0  0  0
 41111  1  0  0  0
 41 48  1  0  0  0
 42 43  1  0  0  0
 42 66  1  0  0  0
 42112  1  0  0  0
 42113  1  0  0  0
 43 44  1  0  0  0
 44114  1  0  0  0
 45 46  2  0  0  0
 45115  1  0  0  0
 46116  1  0  0  0
 47117  1  0  0  0
 47118  1  0  0  0
 48 56  1  0  0  0
 48 65  1  0  0  0
 48119  1  0  0  0
 49 50  1  0  0  0
 49 53  1  0  0  0
 49 64  1  0  0  0
 49120  1  0  0  0
 50 51  1  0  0  0
 50121  1  0  0  0
 50122  1  0  0  0
 51 52  1  0  0  0
 51123  1  0  0  0
 51124  1  0  0  0
 52125  1  0  0  0
 52126  1  0  0  0
 53 54  1  0  0  0
 54 55  2  0  0  0
 54127  1  0  0  0
 55 57  1  0  0  0
 55128  1  0  0  0
 56 69  2  0  0  0
 57 58  2  0  0  0
 57129  1  0  0  0
 58130  1  0  0  0
 59 60  1  0  0  0
 59 61  1  0  0  0
 59 62  1  0  0  0
 60131  1  0  0  0
 60132  1  0  0  0
 60133  1  0  0  0
 61134  1  0  0  0
 61135  1  0  0  0
 61136  1  0  0  0
 62137  1  0  0  0
 62138  1  0  0  0
 62139  1  0  0  0
 63 65  1  0  0  0
 63140  1  0  0  0
 63141  1  0  0  0
 63142  1  0  0  0
 64143  1  0  0  0
 65144  1  0  0  0
 68 80  1  0  0  0
 71 72  2  0  0  0
 71 73  1  0  0  0
 71145  1  0  0  0
 72 74  1  0  0  0
 72146  1  0  0  0
 73 75  2  0  0  0
 73147  1  0  0  0
 74 76  2  0  0  0
 74 82  1  0  0  0
 75 76  1  0  0  0
 75 83  1  0  0  0
 76 81  1  0  0  0
 77 78  1  0  0  0
 77 80  1  0  0  0
 77148  1  0  0  0
 77149  1  0  0  0
 78 85  1  0  0  0
 78150  1  0  0  0
 78151  1  0  0  0
 79 80  1  0  0  0
 79 85  1  0  0  0
 79152  1  0  0  0
 79153  1  0  0  0
 80154  1  0  0  0
 81155  1  0  0  0
 81156  1  0  0  0
 81157  1  0  0  0
 82 84  1  0  0  0
 82158  1  0  0  0
 82159  1  0  0  0
 83160  1  0  0  0
 83161  1  0  0  0
 83 85  1  0  0  0
 84162  1  0  0  0
 85163  1  0  0  0
M  CHG  1  85   1
M  ISO  4   1 100  68 101  80 101  84 100
M  END
> <chiral flag>
0

> <version>
0

> <s_m_source_file>
/data/baiqing/PycharmProjects/Reinvent-master-3.2/result/LINK_invent/BTK/process_docking_weight1_custom_product_contain_oxygen_bond_distance_aromatic_linkinvent_7_9_3/rearranged_h_0030.sdf

> <i_m_source_file_index>
52

> <r_mmod_Potential_Energy-OPLS-2005>
-27.0569190979004

> <r_mmod_Stretch_Energy-OPLS-2005>
53.0717468261719

> <r_mmod_Bend_Energy-OPLS-2005>
144.212356567383

> <r_mmod_Torsional_Energy-OPLS-2005>
334.862640380859

> <r_mmod_Improper_Torsional_Energy-OPLS-2005>
22.3300228118896

> <r_mmod_Van_der_Waal_Energy-OPLS-2005>
145.266296386719

> <r_mmod_Electrostatic_Energy-OPLS-2005>
-329.699737548828

> <r_mmod_Solvation_Energy-OPLS-2005>
-426.955810546875

> <b_mmod_Minimization_Converged-OPLS-2005>
0

> <r_mmod_RMS_Derivative-OPLS-2005>
2.20588159561157

$$$$
52
                    3D
 Structure written by MMmdl.
165174  0  0  1  0            999 V2000
  -30.6410  -14.7202   20.3695 C   0  0  0  0  0  0
  -30.4272  -12.4178   19.4540 C   0  0  0  0  0  0
  -29.4896  -12.4051   18.2261 C   0  0  0  0  0  0
  -28.0170  -12.2875   18.6569 C   0  0  0  0  0  0
  -27.6359  -13.2260   19.8341 C   0  0  2  0  0  0
  -28.6932  -13.2045   20.9569 C   0  0  0  0  0  0
  -25.2523  -13.8206   20.5732 C   0  0  0  0  0  0
  -24.1800  -13.0458   20.9213 C   0  0  0  0  0  0
  -24.6381  -11.6931   20.8778 C   0  0  0  0  0  0
  -23.9062  -10.4304   21.0427 C   0  0  0  0  0  0
  -24.3615   -9.4208   21.9193 C   0  0  0  0  0  0
  -23.6293   -8.2241   22.0758 C   0  0  0  0  0  0
  -22.4275   -8.0280   21.3550 C   0  0  0  0  0  0
  -21.9911   -9.0254   20.4654 C   0  0  0  0  0  0
  -22.7239  -10.2137   20.3070 C   0  0  0  0  0  0
  -21.6853   -6.0731   22.5275 C   0  0  0  0  0  0
  -21.4012   -6.5639   23.8205 C   0  0  0  0  0  0
  -21.3660   -5.6794   24.9170 C   0  0  0  0  0  0
  -21.6046   -4.3057   24.7226 C   0  0  0  0  0  0
  -21.8819   -3.8146   23.4349 C   0  0  0  0  0  0
  -21.9194   -4.6959   22.3403 C   0  0  0  0  0  0
  -22.7821  -13.5236   21.1866 C   0  0  0  0  0  0
  -22.1665   -4.2139   21.0983 F   0  0  0  0  0  0
  -21.5627   -3.4548   25.7744 F   0  0  0  0  0  0
  -29.9829  -13.5157   20.3348 N   0  0  0  0  0  0
  -26.2936  -12.9402   20.3310 N   0  0  0  0  0  0
  -25.9313  -11.6556   20.5826 N   0  0  0  0  0  0
  -22.0470  -12.8219   22.0418 N   0  0  0  0  0  0
  -25.4264  -15.1927   20.4196 N   0  0  0  0  0  0
  -31.8746  -14.7341   20.3244 O   0  0  0  0  0  0
  -21.6646   -6.8874   21.4238 O   0  0  0  0  0  0
  -22.3499  -14.5538   20.6708 O   0  0  0  0  0  0
  -24.6261  -31.8580   23.2001 C   0  0  0  0  0  0
  -25.9105  -32.4766   23.8338 C   0  0  1  0  0  0
  -27.2211  -27.3061   20.1387 C   0  0  0  0  0  0
  -25.5924  -33.8566   24.2270 N   0  0  0  0  0  0
  -23.4206  -30.4793   21.5412 C   0  0  2  0  0  0
  -24.8668  -28.9211   20.1181 C   0  0  0  0  0  0
  -22.7474  -29.4623   22.4931 C   0  0  0  0  0  0
  -18.0292  -28.1390   22.8489 C   0  0  0  0  0  0
  -24.1492  -36.7292   23.2641 C   0  0  0  0  0  0
  -25.9599  -30.7879   21.3675 C   0  0  0  0  0  0
  -26.0348  -29.4102   20.7175 C   0  0  0  0  0  0
  -27.2187  -28.6161   20.7097 C   0  0  0  0  0  0
  -26.0335  -26.8571   19.5298 C   0  0  0  0  0  0
  -24.8679  -27.6508   19.5150 C   0  0  0  0  0  0
  -23.6366  -29.8052   20.1590 C   0  0  0  0  0  0
  -25.4116  -36.3073   24.0328 C   0  0  1  0  0  0
  -20.5893  -28.3693   23.1277 C   0  0  2  0  0  0
  -20.6791  -26.9421   22.5386 C   0  0  0  0  0  0
  -19.5742  -26.6385   21.5219 C   0  0  0  0  0  0
  -18.1938  -26.7920   22.1662 C   0  0  0  0  0  0
  -19.1546  -28.8856   23.2884 C   0  0  0  0  0  0
  -18.9470  -30.1455   23.8910 C   0  0  0  0  0  0
  -17.6472  -30.6583   24.0585 C   0  0  0  0  0  0
  -25.9051  -34.9443   23.5097 C   0  0  0  0  0  0
  -16.5362  -29.9083   23.6344 C   0  0  0  0  0  0
  -16.7280  -28.6508   23.0350 C   0  0  0  0  0  0
  -26.4492  -31.6579   25.0708 C   0  0  0  0  0  0
  -25.3733  -31.3715   26.1440 C   0  0  0  0  0  0
  -27.0336  -30.3007   24.6158 C   0  0  0  0  0  0
  -27.6052  -32.4308   25.7484 C   0  0  0  0  0  0
  -27.5579  -37.1804   24.8464 C   0  0  0  0  0  0
  -21.4187  -29.3051   22.3674 N   0  0  0  0  0  0
  -26.4294  -37.3770   23.9405 N   0  0  0  0  0  0
  -24.6879  -31.0590   22.0939 N   0  0  0  0  0  0
  -23.4196  -28.8166   23.3015 O   0  0  0  0  0  0
  -28.3553  -26.4896   20.1087 O   0  0  0  0  0  0
  -26.5618  -34.8908   22.4663 O   0  0  0  0  0  0
  -23.5424  -32.1378   23.7334 O   0  0  0  0  0  0
  -28.5240  -19.3202   19.5289 C   0  0  0  0  0  0
  -29.7266  -19.2230   21.5905 C   0  0  0  0  0  0
  -28.7818  -17.9261   19.3165 C   0  0  0  0  0  0
  -30.0339  -17.8339   21.3846 C   0  0  0  0  0  0
  -29.5911  -17.1432   20.2112 C   0  0  0  0  0  0
  -28.9956  -20.0177   20.6630 C   0  0  0  0  0  0
  -29.1598  -16.2513   17.4297 C   0  0  0  0  0  0
  -30.3533  -15.8722   18.3190 C   0  0  0  0  0  0
  -28.1625  -17.2038   18.1123 C   0  0  2  0  0  0
  -30.8828  -17.1397   22.4356 C   0  0  0  0  0  0
  -27.4510  -18.0947   17.0778 C   0  0  0  0  0  0
  -28.0168  -23.8161   19.8929 C   0  0  0  0  0  0
  -28.9541  -22.5059   19.9355 C   0  0  0  0  0  0
  -28.3385  -25.1399   20.7278 C   0  0  0  0  0  0
  -29.9850  -15.7813   19.7486 N   0  0  0  0  0  0
  -28.6901  -21.4040   20.9187 N   0  0  0  0  0  0
  -31.4633  -12.5389   19.1330 H   0  0  0  0  0  0
  -30.3833  -11.4657   19.9852 H   0  0  0  0  0  0
  -29.7484  -11.5699   17.5741 H   0  0  0  0  0  0
  -29.6147  -13.2939   17.6163 H   0  0  0  0  0  0
  -27.8595  -11.2491   18.9508 H   0  0  0  0  0  0
  -27.3576  -12.4620   17.8061 H   0  0  0  0  0  0
  -27.6183  -14.2348   19.4211 H   0  0  0  0  0  0
  -28.7273  -12.2329   21.4521 H   0  0  0  0  0  0
  -28.4528  -13.9447   21.7222 H   0  0  0  0  0  0
  -25.2759   -9.5679   22.4768 H   0  0  0  0  0  0
  -24.0004   -7.4628   22.7472 H   0  0  0  0  0  0
  -21.0842   -8.8768   19.8959 H   0  0  0  0  0  0
  -22.3691  -10.9674   19.6180 H   0  0  0  0  0  0
  -21.2001   -7.6146   23.9705 H   0  0  0  0  0  0
  -21.1486   -6.0527   25.9071 H   0  0  0  0  0  0
  -22.0600   -2.7609   23.2852 H   0  0  0  0  0  0
  -22.4099  -11.9883   22.4802 H   0  0  0  0  0  0
  -21.1087  -13.1238   22.2645 H   0  0  0  0  0  0
  -24.6681  -15.8536   20.5466 H   0  0  0  0  0  0
  -26.3010  -15.6353   20.1707 H   0  0  0  0  0  0
  -26.7175  -32.5440   23.1090 H   0  0  0  0  0  0
  -25.0068  -33.9711   25.0412 H   0  0  0  0  0  0
  -22.7147  -31.2995   21.3938 H   0  0  0  0  0  0
  -23.3745  -35.9634   23.3301 H   0  0  0  0  0  0
  -24.3585  -36.8916   22.2057 H   0  0  0  0  0  0
  -23.7258  -37.6500   23.6660 H   0  0  0  0  0  0
  -26.0884  -31.5474   20.5947 H   0  0  0  0  0  0
  -26.8412  -30.8426   21.9949 H   0  0  0  0  0  0
  -28.1228  -28.9923   21.1674 H   0  0  0  0  0  0
  -26.0079  -25.8831   19.0621 H   0  0  0  0  0  0
  -23.9709  -27.2716   19.0450 H   0  0  0  0  0  0
  -23.7591  -30.5763   19.3979 H   0  0  0  0  0  0
  -22.7557  -29.2349   19.8580 H   0  0  0  0  0  0
  -25.1300  -36.1924   25.0823 H   0  0  0  0  0  0
  -20.9994  -28.3257   24.1395 H   0  0  0  0  0  0
  -20.5741  -26.2301   23.3584 H   0  0  0  0  0  0
  -21.6651  -26.7487   22.1140 H   0  0  0  0  0  0
  -19.6898  -25.6294   21.1261 H   0  0  0  0  0  0
  -19.6654  -27.3192   20.6745 H   0  0  0  0  0  0
  -17.4173  -26.6607   21.4112 H   0  0  0  0  0  0
  -18.0404  -26.0098   22.9108 H   0  0  0  0  0  0
  -19.7946  -30.7267   24.2285 H   0  0  0  0  0  0
  -17.5023  -31.6248   24.5217 H   0  0  0  0  0  0
  -15.5363  -30.2970   23.7691 H   0  0  0  0  0  0
  -15.8679  -28.0823   22.7076 H   0  0  0  0  0  0
  -24.5907  -30.7064   25.7772 H   0  0  0  0  0  0
  -24.8926  -32.2880   26.4869 H   0  0  0  0  0  0
  -25.8067  -30.8893   27.0213 H   0  0  0  0  0  0
  -26.2908  -29.6757   24.1188 H   0  0  0  0  0  0
  -27.4048  -29.7263   25.4656 H   0  0  0  0  0  0
  -27.8765  -30.4296   23.9366 H   0  0  0  0  0  0
  -27.2664  -33.3603   26.2069 H   0  0  0  0  0  0
  -28.3862  -32.6879   25.0315 H   0  0  0  0  0  0
  -28.0716  -31.8428   26.5399 H   0  0  0  0  0  0
  -28.2598  -38.0098   24.7497 H   0  0  0  0  0  0
  -28.1074  -36.2630   24.6302 H   0  0  0  0  0  0
  -27.2295  -37.1467   25.8866 H   0  0  0  0  0  0
  -20.9368  -29.8761   21.6870 H   0  0  0  0  0  0
  -26.0171  -38.2846   24.1390 H   0  0  0  0  0  0
  -27.9210  -19.8745   18.8274 H   0  0  0  0  0  0
  -30.0900  -19.6992   22.4904 H   0  0  0  0  0  0
  -28.6277  -15.3608   17.0930 H   0  0  0  0  0  0
  -29.5600  -16.7119   16.5249 H   0  0  0  0  0  0
  -31.1070  -16.6583   18.2337 H   0  0  0  0  0  0
  -30.8575  -14.9932   17.9162 H   0  0  0  0  0  0
  -27.3894  -16.5730   18.5523 H   0  0  0  0  0  0
  -31.0490  -17.7785   23.3031 H   0  0  0  0  0  0
  -31.8612  -16.8837   22.0287 H   0  0  0  0  0  0
  -30.3971  -16.2312   22.7911 H   0  0  0  0  0  0
  -28.1312  -18.8283   16.6449 H   0  0  0  0  0  0
  -26.6054  -18.6253   17.5163 H   0  0  0  0  0  0
  -27.0533  -17.4927   16.2604 H   0  0  0  0  0  0
  -26.9775  -23.5302   20.0580 H   0  0  0  0  0  0
  -28.0360  -24.1401   18.8518 H   0  0  0  0  0  0
  -29.9925  -22.8226   20.0472 H   0  0  0  0  0  0
  -28.9090  -22.0534   18.9435 H   0  0  0  0  0  0
  -27.6880  -25.1676   21.6035 H   0  0  0  0  0  0
  -29.3402  -25.0142   21.1383 H   0  0  0  0  0  0
  -28.8914  -21.6839   21.8761 H   0  0  0  0  0  0
  1 25  1  0  0  0
  1 30  2  0  0  0
  1 85  1  0  0  0
  2  3  1  0  0  0
  2 25  1  0  0  0
  2 87  1  0  0  0
  2 88  1  0  0  0
  3  4  1  0  0  0
  3 89  1  0  0  0
  3 90  1  0  0  0
  4  5  1  0  0  0
  4 91  1  0  0  0
  4 92  1  0  0  0
  5  6  1  0  0  0
  5 26  1  0  0  0
  5 93  1  0  0  0
  6 25  1  0  0  0
  6 94  1  0  0  0
  6 95  1  0  0  0
  7  8  2  0  0  0
  7 26  1  0  0  0
  7 29  1  0  0  0
  8  9  1  0  0  0
  8 22  1  0  0  0
  9 10  1  0  0  0
  9 27  2  0  0  0
 10 11  2  0  0  0
 10 15  1  0  0  0
 11 12  1  0  0  0
 11 96  1  0  0  0
 12 13  2  0  0  0
 12 97  1  0  0  0
 13 14  1  0  0  0
 13 31  1  0  0  0
 14 15  2  0  0  0
 14 98  1  0  0  0
 15 99  1  0  0  0
 16 17  2  0  0  0
 16 21  1  0  0  0
 16 31  1  0  0  0
 17 18  1  0  0  0
 17100  1  0  0  0
 18 19  2  0  0  0
 18101  1  0  0  0
 19 20  1  0  0  0
 19 24  1  0  0  0
 20 21  2  0  0  0
 20102  1  0  0  0
 21 23  1  0  0  0
 22 28  1  0  0  0
 22 32  2  0  0  0
 26 27  1  0  0  0
 28103  1  0  0  0
 28104  1  0  0  0
 29105  1  0  0  0
 29106  1  0  0  0
 33 34  1  0  0  0
 33 66  1  0  0  0
 33 70  2  0  0  0
 34 36  1  0  0  0
 34 59  1  0  0  0
 34107  1  0  0  0
 35 44  2  0  0  0
 35 45  1  0  0  0
 35 68  1  0  0  0
 36 56  1  0  0  0
 36108  1  0  0  0
 37 39  1  0  0  0
 37 47  1  0  0  0
 37 66  1  0  0  0
 37109  1  0  0  0
 38 43  2  0  0  0
 38 46  1  0  0  0
 38 47  1  0  0  0
 39 64  1  0  0  0
 39 67  2  0  0  0
 40 52  1  0  0  0
 40 53  2  0  0  0
 40 58  1  0  0  0
 41110  1  0  0  0
 41111  1  0  0  0
 41112  1  0  0  0
 41 48  1  0  0  0
 42 43  1  0  0  0
 42 66  1  0  0  0
 42113  1  0  0  0
 42114  1  0  0  0
 43 44  1  0  0  0
 44115  1  0  0  0
 45 46  2  0  0  0
 45116  1  0  0  0
 46117  1  0  0  0
 47118  1  0  0  0
 47119  1  0  0  0
 48 56  1  0  0  0
 48 65  1  0  0  0
 48120  1  0  0  0
 49 50  1  0  0  0
 49 53  1  0  0  0
 49 64  1  0  0  0
 49121  1  0  0  0
 50 51  1  0  0  0
 50122  1  0  0  0
 50123  1  0  0  0
 51 52  1  0  0  0
 51124  1  0  0  0
 51125  1  0  0  0
 52126  1  0  0  0
 52127  1  0  0  0
 53 54  1  0  0  0
 54 55  2  0  0  0
 54128  1  0  0  0
 55 57  1  0  0  0
 55129  1  0  0  0
 56 69  2  0  0  0
 57 58  2  0  0  0
 57130  1  0  0  0
 58131  1  0  0  0
 59 60  1  0  0  0
 59 61  1  0  0  0
 59 62  1  0  0  0
 60132  1  0  0  0
 60133  1  0  0  0
 60134  1  0  0  0
 61135  1  0  0  0
 61136  1  0  0  0
 61137  1  0  0  0
 62138  1  0  0  0
 62139  1  0  0  0
 62140  1  0  0  0
 63 65  1  0  0  0
 63141  1  0  0  0
 63142  1  0  0  0
 63143  1  0  0  0
 64144  1  0  0  0
 65145  1  0  0  0
 68 84  1  0  0  0
 71 73  2  0  0  0
 71 76  1  0  0  0
 71146  1  0  0  0
 72 74  1  0  0  0
 72 76  2  0  0  0
 72147  1  0  0  0
 73 75  1  0  0  0
 73 79  1  0  0  0
 74 75  2  0  0  0
 74 80  1  0  0  0
 75 85  1  0  0  0
 76 86  1  0  0  0
 77 78  1  0  0  0
 77 79  1  0  0  0
 77148  1  0  0  0
 77149  1  0  0  0
 78 85  1  0  0  0
 78150  1  0  0  0
 78151  1  0  0  0
 79 81  1  0  0  0
 79152  1  0  0  0
 80153  1  0  0  0
 80154  1  0  0  0
 80155  1  0  0  0
 81156  1  0  0  0
 81157  1  0  0  0
 81158  1  0  0  0
 82 83  1  0  0  0
 82 84  1  0  0  0
 82159  1  0  0  0
 82160  1  0  0  0
 83 86  1  0  0  0
 83161  1  0  0  0
 83162  1  0  0  0
 84163  1  0  0  0
 84164  1  0  0  0
 86165  1  0  0  0
M  ISO  4   1 100  68 101  84 101  85 100
M  END
> <chiral flag>
0

> <version>
0

> <s_m_source_file>
/data/baiqing/PycharmProjects/Reinvent-master-3.2/result/LINK_invent/BTK/process_docking_weight1_custom_product_contain_oxygen_bond_distance_aromatic_linkinvent_7_9_3/rearranged_h_0030.sdf

> <i_m_source_file_index>
53

> <r_mmod_Potential_Energy-OPLS-2005>
409.5947265625

> <r_mmod_Stretch_Energy-OPLS-2005>
98.4243545532227

> <r_mmod_Bend_Energy-OPLS-2005>
200.479522705078

> <r_mmod_Torsional_Energy-OPLS-2005>
360.409851074219

> <r_mmod_Improper_Torsional_Energy-OPLS-2005>
33.9888496398926

> <r_mmod_Van_der_Waal_Energy-OPLS-2005>
144.69303894043

> <r_mmod_Electrostatic_Energy-OPLS-2005>
-312.648590087891

> <r_mmod_Solvation_Energy-OPLS-2005>
-196.305282592773

> <b_mmod_Minimization_Converged-OPLS-2005>
0

> <r_mmod_RMS_Derivative-OPLS-2005>
0.929072737693787

$$$$
53
                    3D
 Structure written by MMmdl.
168177  0  0  1  0            999 V2000
  -30.6175  -14.7298   20.4704 C   0  0  0  0  0  0
  -30.4316  -12.4444   19.4846 C   0  0  0  0  0  0
  -29.5116  -12.5275   18.2449 C   0  0  0  0  0  0
  -28.0363  -12.3524   18.6509 C   0  0  0  0  0  0
  -27.6478  -13.2375   19.8660 C   0  0  2  0  0  0
  -28.6914  -13.1476   21.0038 C   0  0  0  0  0  0
  -25.2511  -13.8221   20.5722 C   0  0  0  0  0  0
  -24.1803  -13.0445   20.9208 C   0  0  0  0  0  0
  -24.6415  -11.6937   20.8764 C   0  0  0  0  0  0
  -23.9097  -10.4299   21.0409 C   0  0  0  0  0  0
  -24.3640   -9.4219   21.9189 C   0  0  0  0  0  0
  -23.6309   -8.2257   22.0753 C   0  0  0  0  0  0
  -22.4287   -8.0303   21.3548 C   0  0  0  0  0  0
  -21.9938   -9.0271   20.4649 C   0  0  0  0  0  0
  -22.7271  -10.2145   20.3053 C   0  0  0  0  0  0
  -21.6853   -6.0752   22.5280 C   0  0  0  0  0  0
  -21.4019   -6.5645   23.8214 C   0  0  0  0  0  0
  -21.3663   -5.6795   24.9175 C   0  0  0  0  0  0
  -21.6035   -4.3055   24.7228 C   0  0  0  0  0  0
  -21.8818   -3.8153   23.4342 C   0  0  0  0  0  0
  -21.9193   -4.6978   22.3400 C   0  0  0  0  0  0
  -22.7817  -13.5224   21.1855 C   0  0  0  0  0  0
  -22.1657   -4.2162   21.0977 F   0  0  0  0  0  0
  -21.5630   -3.4533   25.7734 F   0  0  0  0  0  0
  -30.0027  -13.4955   20.4381 N   0  0  0  0  0  0
  -26.2969  -12.9447   20.3353 N   0  0  0  0  0  0
  -25.9355  -11.6583   20.5796 N   0  0  0  0  0  0
  -22.0470  -12.8205   22.0419 N   0  0  0  0  0  0
  -25.4164  -15.1951   20.4140 N   0  0  0  0  0  0
  -31.7740  -14.8513   20.0569 O   0  0  0  0  0  0
  -21.6639   -6.8906   21.4248 O   0  0  0  0  0  0
  -22.3502  -14.5535   20.6720 O   0  0  0  0  0  0
  -24.6295  -31.8570   23.2023 C   0  0  0  0  0  0
  -25.9131  -32.4762   23.8356 C   0  0  1  0  0  0
  -27.2044  -27.2496   20.1420 C   0  0  0  0  0  0
  -25.5931  -33.8568   24.2268 N   0  0  0  0  0  0
  -23.4270  -30.4812   21.5455 C   0  0  2  0  0  0
  -24.8760  -28.9362   20.1070 C   0  0  0  0  0  0
  -22.7500  -29.4597   22.4914 C   0  0  0  0  0  0
  -18.0291  -28.1387   22.8480 C   0  0  0  0  0  0
  -24.1489  -36.7284   23.2641 C   0  0  0  0  0  0
  -25.9747  -30.7615   21.3927 C   0  0  0  0  0  0
  -26.0445  -29.3830   20.7381 C   0  0  0  0  0  0
  -27.2113  -28.5495   20.7548 C   0  0  0  0  0  0
  -26.0410  -26.9185   19.4130 C   0  0  0  0  0  0
  -24.8799  -27.7102   19.4316 C   0  0  0  0  0  0
  -23.6466  -29.8229   20.1586 C   0  0  0  0  0  0
  -25.4116  -36.3074   24.0326 C   0  0  1  0  0  0
  -20.5893  -28.3700   23.1266 C   0  0  2  0  0  0
  -20.6781  -26.9420   22.5404 C   0  0  0  0  0  0
  -19.5758  -26.6382   21.5207 C   0  0  0  0  0  0
  -18.1941  -26.7927   22.1621 C   0  0  0  0  0  0
  -19.1547  -28.8859   23.2866 C   0  0  0  0  0  0
  -18.9472  -30.1457   23.8887 C   0  0  0  0  0  0
  -17.6473  -30.6589   24.0560 C   0  0  0  0  0  0
  -25.9050  -34.9440   23.5095 C   0  0  0  0  0  0
  -16.5359  -29.9087   23.6336 C   0  0  0  0  0  0
  -16.7280  -28.6502   23.0358 C   0  0  0  0  0  0
  -26.4503  -31.6591   25.0746 C   0  0  0  0  0  0
  -25.3726  -31.3747   26.1465 C   0  0  0  0  0  0
  -27.0370  -30.3006   24.6258 C   0  0  0  0  0  0
  -27.6049  -32.4347   25.7518 C   0  0  0  0  0  0
  -27.5576  -37.1801   24.8466 C   0  0  0  0  0  0
  -21.4207  -29.3043   22.3653 N   0  0  0  0  0  0
  -26.4289  -37.3774   23.9403 N   0  0  0  0  0  0
  -24.6957  -31.0514   22.1024 N   0  0  0  0  0  0
  -23.4194  -28.8126   23.3008 O   0  0  0  0  0  0
  -28.2714  -26.3145   20.1772 O   0  0  0  0  0  0
  -26.5627  -34.8915   22.4668 O   0  0  0  0  0  0
  -23.5443  -32.1408   23.7309 O   0  0  0  0  0  0
  -29.2449  -18.4529   18.2031 C   0  0  0  0  0  0
  -29.3309  -19.6822   18.8888 C   0  0  0  0  0  0
  -29.4731  -17.2241   18.8559 C   0  0  0  0  0  0
  -29.6598  -19.7396   20.2586 C   0  0  0  0  0  0
  -29.7953  -17.1726   20.2287 C   0  0  0  0  0  0
  -29.8920  -18.4506   20.9204 C   0  0  0  0  0  0
  -26.6585  -24.3548   20.7656 C   0  0  0  0  0  0
  -26.5228  -23.0715   21.5908 C   0  0  0  0  0  0
  -29.0316  -23.6787   20.2971 C   0  0  0  0  0  0
  -28.0974  -24.9194   20.7732 C   0  0  1  0  0  0
  -27.4020  -21.8978   21.1026 C   0  0  2  0  0  0
  -27.1565  -20.7281   22.0798 C   0  0  0  0  0  0
  -31.6911  -18.6173   22.4406 C   0  0  0  0  0  0
  -29.8905  -21.1986   20.8798 C   0  0  0  0  0  0
  -29.8874  -15.8368   20.8656 N   0  0  0  0  0  0
  -30.2612  -18.3964   22.2669 N   0  0  0  0  0  0
  -28.8329  -22.3207   21.0240 N   0  3  1  0  0  0
  -31.4757  -12.5533   19.1882 H   0  0  0  0  0  0
  -30.3602  -11.4607   19.9509 H   0  0  0  0  0  0
  -29.7938  -11.7687   17.5135 H   0  0  0  0  0  0
  -29.6446  -13.4935   17.7549 H   0  0  0  0  0  0
  -27.3817  -12.5653   17.8046 H   0  0  0  0  0  0
  -27.8821  -11.3012   18.8946 H   0  0  0  0  0  0
  -27.6500  -14.2659   19.5043 H   0  0  0  0  0  0
  -28.7164  -12.1416   21.4263 H   0  0  0  0  0  0
  -28.4262  -13.8129   21.8264 H   0  0  0  0  0  0
  -25.2787   -9.5682   22.4769 H   0  0  0  0  0  0
  -24.0011   -7.4640   22.7464 H   0  0  0  0  0  0
  -21.0874   -8.8805   19.8944 H   0  0  0  0  0  0
  -22.3745  -10.9692   19.6157 H   0  0  0  0  0  0
  -21.2012   -7.6148   23.9730 H   0  0  0  0  0  0
  -21.1483   -6.0515   25.9080 H   0  0  0  0  0  0
  -22.0596   -2.7618   23.2830 H   0  0  0  0  0  0
  -22.4096  -11.9864   22.4794 H   0  0  0  0  0  0
  -21.1085  -13.1215   22.2629 H   0  0  0  0  0  0
  -24.6434  -15.8434   20.5230 H   0  0  0  0  0  0
  -26.2643  -15.6432   20.0900 H   0  0  0  0  0  0
  -26.7188  -32.5402   23.1091 H   0  0  0  0  0  0
  -25.0083  -33.9719   25.0416 H   0  0  0  0  0  0
  -22.7239  -31.3045   21.4034 H   0  0  0  0  0  0
  -23.3749  -35.9616   23.3299 H   0  0  0  0  0  0
  -24.3578  -36.8915   22.2054 H   0  0  0  0  0  0
  -23.7240  -37.6485   23.6670 H   0  0  0  0  0  0
  -26.1195  -31.5189   20.6211 H   0  0  0  0  0  0
  -26.8490  -30.8082   22.0290 H   0  0  0  0  0  0
  -28.0979  -28.8791   21.2795 H   0  0  0  0  0  0
  -26.0059  -26.0138   18.8288 H   0  0  0  0  0  0
  -24.0008  -27.3785   18.8965 H   0  0  0  0  0  0
  -23.7729  -30.6041   19.4076 H   0  0  0  0  0  0
  -22.7636  -29.2606   19.8486 H   0  0  0  0  0  0
  -25.1299  -36.1931   25.0817 H   0  0  0  0  0  0
  -20.9990  -28.3279   24.1383 H   0  0  0  0  0  0
  -20.5693  -26.2311   23.3608 H   0  0  0  0  0  0
  -21.6651  -26.7453   22.1194 H   0  0  0  0  0  0
  -19.6926  -25.6291   21.1246 H   0  0  0  0  0  0
  -19.6693  -27.3185   20.6730 H   0  0  0  0  0  0
  -17.4211  -26.6673   21.4024 H   0  0  0  0  0  0
  -18.0342  -26.0071   22.9020 H   0  0  0  0  0  0
  -19.7949  -30.7274   24.2257 H   0  0  0  0  0  0
  -17.5030  -31.6272   24.5160 H   0  0  0  0  0  0
  -15.5363  -30.2990   23.7663 H   0  0  0  0  0  0
  -15.8676  -28.0816   22.7085 H   0  0  0  0  0  0
  -24.5897  -30.7103   25.7790 H   0  0  0  0  0  0
  -24.8921  -32.2919   26.4876 H   0  0  0  0  0  0
  -25.8034  -30.8932   27.0251 H   0  0  0  0  0  0
  -26.2968  -29.6731   24.1278 H   0  0  0  0  0  0
  -27.4041  -29.7297   25.4794 H   0  0  0  0  0  0
  -27.8849  -30.4273   23.9523 H   0  0  0  0  0  0
  -27.2645  -33.3655   26.2069 H   0  0  0  0  0  0
  -28.3868  -32.6900   25.0353 H   0  0  0  0  0  0
  -28.0708  -31.8498   26.5460 H   0  0  0  0  0  0
  -28.2600  -38.0094   24.7506 H   0  0  0  0  0  0
  -28.1069  -36.2624   24.6305 H   0  0  0  0  0  0
  -27.2290  -37.1461   25.8871 H   0  0  0  0  0  0
  -20.9395  -29.8777   21.6864 H   0  0  0  0  0  0
  -26.0170  -38.2847   24.1406 H   0  0  0  0  0  0
  -29.0008  -18.4545   17.1503 H   0  0  0  0  0  0
  -29.1708  -20.5990   18.3374 H   0  0  0  0  0  0
  -29.3774  -16.3106   18.2860 H   0  0  0  0  0  0
  -26.3396  -24.1391   19.7466 H   0  0  0  0  0  0
  -25.9629  -25.0727   21.1982 H   0  0  0  0  0  0
  -25.4766  -22.7632   21.5740 H   0  0  0  0  0  0
  -26.7477  -23.2963   22.6343 H   0  0  0  0  0  0
  -28.8854  -23.5163   19.2285 H   0  0  0  0  0  0
  -30.0730  -23.9771   20.4101 H   0  0  0  0  0  0
  -28.3449  -25.0833   21.8224 H   0  0  0  0  0  0
  -27.0800  -21.6018   20.1029 H   0  0  0  0  0  0
  -26.0892  -20.5267   22.1719 H   0  0  0  0  0  0
  -27.5255  -20.9563   23.0799 H   0  0  0  0  0  0
  -27.6036  -19.7905   21.7652 H   0  0  0  0  0  0
  -31.9895  -18.3400   23.4535 H   0  0  0  0  0  0
  -31.9660  -19.6615   22.2907 H   0  0  0  0  0  0
  -32.2744  -18.0114   21.7430 H   0  0  0  0  0  0
  -30.7493  -21.6236   20.3618 H   0  0  0  0  0  0
  -30.2459  -21.0451   21.8976 H   0  0  0  0  0  0
  -29.0687  -15.5949   21.4027 H   0  0  0  0  0  0
  -30.0094  -17.4934   22.6609 H   0  0  0  0  0  0
  -29.0248  -22.5912   21.9768 H   0  0  0  0  0  0
  1 25  1  0  0  0
  1 30  2  0  0  0
  1 85  1  0  0  0
  2  3  1  0  0  0
  2 25  1  0  0  0
  2 88  1  0  0  0
  2 89  1  0  0  0
  3  4  1  0  0  0
  3 90  1  0  0  0
  3 91  1  0  0  0
  4  5  1  0  0  0
  4 92  1  0  0  0
  4 93  1  0  0  0
  5  6  1  0  0  0
  5 26  1  0  0  0
  5 94  1  0  0  0
  6 25  1  0  0  0
  6 95  1  0  0  0
  6 96  1  0  0  0
  7  8  2  0  0  0
  7 26  1  0  0  0
  7 29  1  0  0  0
  8  9  1  0  0  0
  8 22  1  0  0  0
  9 10  1  0  0  0
  9 27  2  0  0  0
 10 11  2  0  0  0
 10 15  1  0  0  0
 11 12  1  0  0  0
 11 97  1  0  0  0
 12 13  2  0  0  0
 12 98  1  0  0  0
 13 14  1  0  0  0
 13 31  1  0  0  0
 14 15  2  0  0  0
 14 99  1  0  0  0
 15100  1  0  0  0
 16 17  2  0  0  0
 16 21  1  0  0  0
 16 31  1  0  0  0
 17 18  1  0  0  0
 17101  1  0  0  0
 18 19  2  0  0  0
 18102  1  0  0  0
 19 20  1  0  0  0
 19 24  1  0  0  0
 20 21  2  0  0  0
 20103  1  0  0  0
 21 23  1  0  0  0
 22 28  1  0  0  0
 22 32  2  0  0  0
 26 27  1  0  0  0
 28104  1  0  0  0
 28105  1  0  0  0
 29106  1  0  0  0
 29107  1  0  0  0
 33 34  1  0  0  0
 33 66  1  0  0  0
 33 70  2  0  0  0
 34 36  1  0  0  0
 34 59  1  0  0  0
 34108  1  0  0  0
 35 44  2  0  0  0
 35 45  1  0  0  0
 35 68  1  0  0  0
 36 56  1  0  0  0
 36109  1  0  0  0
 37 39  1  0  0  0
 37 47  1  0  0  0
 37 66  1  0  0  0
 37110  1  0  0  0
 38 43  2  0  0  0
 38 46  1  0  0  0
 38 47  1  0  0  0
 39 64  1  0  0  0
 39 67  2  0  0  0
 40 52  1  0  0  0
 40 53  2  0  0  0
 40 58  1  0  0  0
 41111  1  0  0  0
 41112  1  0  0  0
 41113  1  0  0  0
 41 48  1  0  0  0
 42 43  1  0  0  0
 42 66  1  0  0  0
 42114  1  0  0  0
 42115  1  0  0  0
 43 44  1  0  0  0
 44116  1  0  0  0
 45 46  2  0  0  0
 45117  1  0  0  0
 46118  1  0  0  0
 47119  1  0  0  0
 47120  1  0  0  0
 48 56  1  0  0  0
 48 65  1  0  0  0
 48121  1  0  0  0
 49 50  1  0  0  0
 49 53  1  0  0  0
 49 64  1  0  0  0
 49122  1  0  0  0
 50 51  1  0  0  0
 50123  1  0  0  0
 50124  1  0  0  0
 51 52  1  0  0  0
 51125  1  0  0  0
 51126  1  0  0  0
 52127  1  0  0  0
 52128  1  0  0  0
 53 54  1  0  0  0
 54 55  2  0  0  0
 54129  1  0  0  0
 55 57  1  0  0  0
 55130  1  0  0  0
 56 69  2  0  0  0
 57 58  2  0  0  0
 57131  1  0  0  0
 58132  1  0  0  0
 59 60  1  0  0  0
 59 61  1  0  0  0
 59 62  1  0  0  0
 60133  1  0  0  0
 60134  1  0  0  0
 60135  1  0  0  0
 61136  1  0  0  0
 61137  1  0  0  0
 61138  1  0  0  0
 62139  1  0  0  0
 62140  1  0  0  0
 62141  1  0  0  0
 63 65  1  0  0  0
 63142  1  0  0  0
 63143  1  0  0  0
 63144  1  0  0  0
 64145  1  0  0  0
 65146  1  0  0  0
 68 80  1  0  0  0
 71 72  2  0  0  0
 71 73  1  0  0  0
 71147  1  0  0  0
 72 74  1  0  0  0
 72148  1  0  0  0
 73 75  2  0  0  0
 73149  1  0  0  0
 74 76  2  0  0  0
 74 84  1  0  0  0
 75 76  1  0  0  0
 75 85  1  0  0  0
 76 86  1  0  0  0
 77 78  1  0  0  0
 77 80  1  0  0  0
 77150  1  0  0  0
 77151  1  0  0  0
 78 81  1  0  0  0
 78152  1  0  0  0
 78153  1  0  0  0
 79 80  1  0  0  0
 79 87  1  0  0  0
 79154  1  0  0  0
 79155  1  0  0  0
 80156  1  0  0  0
 81 82  1  0  0  0
 81 87  1  0  0  0
 81157  1  0  0  0
 82158  1  0  0  0
 82159  1  0  0  0
 82160  1  0  0  0
 83 86  1  0  0  0
 83161  1  0  0  0
 83162  1  0  0  0
 83163  1  0  0  0
 84164  1  0  0  0
 84165  1  0  0  0
 84 87  1  0  0  0
 85166  1  0  0  0
 86167  1  0  0  0
 87168  1  0  0  0
M  CHG  1  87   1
M  ISO  4   1 100  68 101  80 101  85 100
M  END
> <chiral flag>
0

> <version>
0

> <s_m_source_file>
/data/baiqing/PycharmProjects/Reinvent-master-3.2/result/LINK_invent/BTK/process_docking_weight1_custom_product_contain_oxygen_bond_distance_aromatic_linkinvent_7_9_3/rearranged_h_0030.sdf

> <i_m_source_file_index>
54

> <r_mmod_Potential_Energy-OPLS-2005>
131.396331787109

> <r_mmod_Stretch_Energy-OPLS-2005>
135.924713134766

> <r_mmod_Bend_Energy-OPLS-2005>
201.325973510742

> <r_mmod_Torsional_Energy-OPLS-2005>
315.674468994141

> <r_mmod_Improper_Torsional_Energy-OPLS-2005>
11.4546308517456

> <r_mmod_Van_der_Waal_Energy-OPLS-2005>
143.360656738281

> <r_mmod_Electrostatic_Energy-OPLS-2005>
-338.775543212891

> <r_mmod_Solvation_Energy-OPLS-2005>
-425.015808105469

> <b_mmod_Minimization_Converged-OPLS-2005>
0

> <r_mmod_RMS_Derivative-OPLS-2005>
1.93661999702454

$$$$
54
                    3D
 Structure written by MMmdl.
161170  0  0  1  0            999 V2000
  -30.6779  -14.5497   20.5347 C   0  0  0  0  0  0
  -30.4226  -12.3483   19.4364 C   0  0  0  0  0  0
  -29.4957  -12.5090   18.2143 C   0  0  0  0  0  0
  -28.0173  -12.3581   18.6253 C   0  0  0  0  0  0
  -27.6522  -13.2142   19.8686 C   0  0  2  0  0  0
  -28.6978  -13.0499   20.9945 C   0  0  0  0  0  0
  -25.2543  -13.8171   20.5686 C   0  0  0  0  0  0
  -24.1822  -13.0435   20.9208 C   0  0  0  0  0  0
  -24.6392  -11.6910   20.8759 C   0  0  0  0  0  0
  -23.9056  -10.4296   21.0401 C   0  0  0  0  0  0
  -24.3615   -9.4218   21.9177 C   0  0  0  0  0  0
  -23.6303   -8.2245   22.0739 C   0  0  0  0  0  0
  -22.4278   -8.0283   21.3538 C   0  0  0  0  0  0
  -21.9909   -9.0246   20.4637 C   0  0  0  0  0  0
  -22.7225  -10.2136   20.3048 C   0  0  0  0  0  0
  -21.6855   -6.0744   22.5290 C   0  0  0  0  0  0
  -21.4013   -6.5642   23.8218 C   0  0  0  0  0  0
  -21.3663   -5.6793   24.9184 C   0  0  0  0  0  0
  -21.6050   -4.3056   24.7234 C   0  0  0  0  0  0
  -21.8821   -3.8148   23.4357 C   0  0  0  0  0  0
  -21.9193   -4.6967   22.3417 C   0  0  0  0  0  0
  -22.7842  -13.5220   21.1883 C   0  0  0  0  0  0
  -22.1657   -4.2159   21.0995 F   0  0  0  0  0  0
  -21.5634   -3.4539   25.7741 F   0  0  0  0  0  0
  -30.0175  -13.3617   20.4265 N   0  0  0  0  0  0
  -26.2980  -12.9354   20.3356 N   0  0  0  0  0  0
  -25.9320  -11.6510   20.5785 N   0  0  0  0  0  0
  -22.0490  -12.8198   22.0439 N   0  0  0  0  0  0
  -25.4263  -15.1889   20.4086 N   0  0  0  0  0  0
  -31.8403  -14.6876   20.1503 O   0  0  0  0  0  0
  -21.6654   -6.8869   21.4236 O   0  0  0  0  0  0
  -22.3537  -14.5530   20.6741 O   0  0  0  0  0  0
  -24.6187  -31.8649   23.2076 C   0  0  0  0  0  0
  -25.9059  -32.4814   23.8383 C   0  0  1  0  0  0
  -27.2301  -27.3779   20.0972 C   0  0  0  0  0  0
  -25.5898  -33.8614   24.2312 N   0  0  0  0  0  0
  -23.4094  -30.4888   21.5499 C   0  0  2  0  0  0
  -24.8544  -28.9490   20.1151 C   0  0  0  0  0  0
  -22.7439  -29.4641   22.4975 C   0  0  0  0  0  0
  -18.0278  -28.1372   22.8490 C   0  0  0  0  0  0
  -24.1483  -36.7310   23.2638 C   0  0  0  0  0  0
  -25.9451  -30.8098   21.3718 C   0  0  0  0  0  0
  -26.0189  -29.4404   20.7172 C   0  0  0  0  0  0
  -27.2056  -28.6617   20.7085 C   0  0  0  0  0  0
  -26.0403  -26.9218   19.4811 C   0  0  0  0  0  0
  -24.8628  -27.6904   19.4958 C   0  0  0  0  0  0
  -23.6207  -29.8228   20.1648 C   0  0  0  0  0  0
  -25.4108  -36.3114   24.0338 C   0  0  1  0  0  0
  -20.5872  -28.3669   23.1301 C   0  0  2  0  0  0
  -20.6768  -26.9398   22.5412 C   0  0  0  0  0  0
  -19.5742  -26.6376   21.5212 C   0  0  0  0  0  0
  -18.1924  -26.7917   22.1624 C   0  0  0  0  0  0
  -19.1526  -28.8838   23.2893 C   0  0  0  0  0  0
  -18.9453  -30.1442   23.8906 C   0  0  0  0  0  0
  -17.6454  -30.6583   24.0558 C   0  0  0  0  0  0
  -25.9039  -34.9477   23.5131 C   0  0  0  0  0  0
  -16.5347  -29.9083   23.6324 C   0  0  0  0  0  0
  -16.7264  -28.6496   23.0354 C   0  0  0  0  0  0
  -26.4457  -31.6605   25.0736 C   0  0  0  0  0  0
  -25.3714  -31.3731   26.1478 C   0  0  0  0  0  0
  -27.0283  -30.3042   24.6143 C   0  0  0  0  0  0
  -27.6036  -32.4325   25.7493 C   0  0  0  0  0  0
  -27.5583  -37.1812   24.8464 C   0  0  0  0  0  0
  -21.4163  -29.3036   22.3711 N   0  0  0  0  0  0
  -26.4295  -37.3801   23.9409 N   0  0  0  0  0  0
  -24.6760  -31.0706   22.1004 N   0  0  0  0  0  0
  -23.4195  -28.8181   23.3030 O   0  0  0  0  0  0
  -28.3863  -26.6008   20.1333 O   0  0  0  0  0  0
  -26.5608  -34.8928   22.4695 O   0  0  0  0  0  0
  -23.5365  -32.1420   23.7442 O   0  0  0  0  0  0
  -28.6785  -20.3986   18.7924 C   0  0  0  0  0  0
  -28.7939  -19.1295   18.1929 C   0  0  0  0  0  0
  -29.6419  -19.4829   20.8225 C   0  0  0  0  0  0
  -29.1281  -20.6132   20.1134 C   0  0  0  0  0  0
  -29.3510  -18.0314   18.8838 C   0  0  0  0  0  0
  -29.7552  -18.1795   20.2388 C   0  0  0  0  0  0
  -29.5565  -24.3927   19.8222 C   0  0  0  0  0  0
  -30.8574  -24.6105   20.0806 C   0  0  0  0  0  0
  -27.6659  -24.1022   20.2042 C   0  0  0  0  0  0
  -28.3824  -25.2940   19.4902 C   0  0  1  0  0  0
  -29.5461  -16.7391   18.1098 C   0  0  0  0  0  0
  -30.4079  -17.0280   21.0638 C   0  0  0  0  0  0
  -29.0617  -22.0266   20.7712 C   0  0  0  0  0  0
  -29.9360  -15.6232   20.9082 N   0  0  0  0  0  0
  -28.7747  -23.1782   19.8437 N   0  3  2  0  0  0
  -31.4661  -12.4520   19.1341 H   0  0  0  0  0  0
  -30.3329  -11.3482   19.8631 H   0  0  0  0  0  0
  -29.7482  -11.7748   17.4481 H   0  0  0  0  0  0
  -29.6530  -13.4890   17.7614 H   0  0  0  0  0  0
  -27.8367  -11.3034   18.8343 H   0  0  0  0  0  0
  -27.3662  -12.6157   17.7901 H   0  0  0  0  0  0
  -27.6735  -14.2553   19.5476 H   0  0  0  0  0  0
  -28.6930  -12.0297   21.3803 H   0  0  0  0  0  0
  -28.4600  -13.6912   21.8451 H   0  0  0  0  0  0
  -25.2750   -9.5716   22.4778 H   0  0  0  0  0  0
  -24.0029   -7.4631   22.7444 H   0  0  0  0  0  0
  -21.0842   -8.8748   19.8937 H   0  0  0  0  0  0
  -22.3654  -10.9680   19.6178 H   0  0  0  0  0  0
  -21.1995   -7.6147   23.9724 H   0  0  0  0  0  0
  -21.1481   -6.0527   25.9087 H   0  0  0  0  0  0
  -22.0594   -2.7615   23.2857 H   0  0  0  0  0  0
  -22.4090  -11.9841   22.4813 H   0  0  0  0  0  0
  -21.1114  -13.1216   22.2653 H   0  0  0  0  0  0
  -24.6549  -15.8389   20.5101 H   0  0  0  0  0  0
  -26.2742  -15.6301   20.0759 H   0  0  0  0  0  0
  -26.7131  -32.5495   23.1137 H   0  0  0  0  0  0
  -25.0030  -33.9766   25.0449 H   0  0  0  0  0  0
  -22.7007  -31.3075   21.4100 H   0  0  0  0  0  0
  -23.3755  -35.9630   23.3300 H   0  0  0  0  0  0
  -24.3578  -36.8931   22.2053 H   0  0  0  0  0  0
  -23.7217  -37.6508   23.6656 H   0  0  0  0  0  0
  -26.0686  -31.5723   20.6010 H   0  0  0  0  0  0
  -26.8292  -30.8615   21.9955 H   0  0  0  0  0  0
  -28.1001  -29.0373   21.1860 H   0  0  0  0  0  0
  -25.9831  -25.9646   18.9874 H   0  0  0  0  0  0
  -23.9679  -27.3068   19.0262 H   0  0  0  0  0  0
  -23.7349  -30.5976   19.4063 H   0  0  0  0  0  0
  -22.7425  -29.2478   19.8672 H   0  0  0  0  0  0
  -25.1285  -36.1979   25.0834 H   0  0  0  0  0  0
  -20.9957  -28.3228   24.1421 H   0  0  0  0  0  0
  -20.5664  -26.2274   23.3606 H   0  0  0  0  0  0
  -21.6635  -26.7432   22.1201 H   0  0  0  0  0  0
  -19.6904  -25.6286   21.1241 H   0  0  0  0  0  0
  -19.6685  -27.3187   20.6744 H   0  0  0  0  0  0
  -17.4192  -26.6659   21.4030 H   0  0  0  0  0  0
  -18.0328  -26.0058   22.9021 H   0  0  0  0  0  0
  -19.7932  -30.7253   24.2284 H   0  0  0  0  0  0
  -17.5014  -31.6269   24.5146 H   0  0  0  0  0  0
  -15.5348  -30.2991   23.7648 H   0  0  0  0  0  0
  -15.8660  -28.0818   22.7076 H   0  0  0  0  0  0
  -24.5861  -30.7110   25.7805 H   0  0  0  0  0  0
  -24.8927  -32.2895   26.4948 H   0  0  0  0  0  0
  -25.8043  -30.8866   27.0231 H   0  0  0  0  0  0
  -26.2834  -29.6822   24.1159 H   0  0  0  0  0  0
  -27.3994  -29.7262   25.4618 H   0  0  0  0  0  0
  -27.8702  -30.4348   23.9340 H   0  0  0  0  0  0
  -27.2663  -33.3623   26.2087 H   0  0  0  0  0  0
  -28.3833  -32.6891   25.0309 H   0  0  0  0  0  0
  -28.0717  -31.8439   26.5394 H   0  0  0  0  0  0
  -28.2605  -38.0105   24.7522 H   0  0  0  0  0  0
  -28.1079  -36.2644   24.6283 H   0  0  0  0  0  0
  -27.2305  -37.1448   25.8867 H   0  0  0  0  0  0
  -20.9330  -29.8763   21.6931 H   0  0  0  0  0  0
  -26.0189  -38.2880   24.1413 H   0  0  0  0  0  0
  -28.2530  -21.1960   18.2005 H   0  0  0  0  0  0
  -28.4740  -19.0125   17.1662 H   0  0  0  0  0  0
  -29.9794  -19.6262   21.8405 H   0  0  0  0  0  0
  -31.2657  -25.6101   20.0413 H   0  0  0  0  0  0
  -31.5319  -23.8043   20.3283 H   0  0  0  0  0  0
  -26.7141  -23.8131   19.7598 H   0  0  0  0  0  0
  -27.5591  -24.2579   21.2808 H   0  0  0  0  0  0
  -28.1511  -25.3658   18.4249 H   0  0  0  0  0  0
  -29.3587  -16.8757   17.0444 H   0  0  0  0  0  0
  -28.8685  -15.9636   18.4609 H   0  0  0  0  0  0
  -30.5731  -16.3877   18.2090 H   0  0  0  0  0  0
  -30.2905  -17.2671   22.1214 H   0  0  0  0  0  0
  -31.4826  -17.0811   20.8820 H   0  0  0  0  0  0
  -30.0085  -22.2030   21.2797 H   0  0  0  0  0  0
  -28.3063  -21.9958   21.5570 H   0  0  0  0  0  0
  -28.9740  -15.4425   21.1495 H   0  0  0  0  0  0
  -28.6525  -22.8285   18.9068 H   0  0  0  0  0  0
  1 25  1  0  0  0
  1 30  2  0  0  0
  1 84  1  0  0  0
  2  3  1  0  0  0
  2 25  1  0  0  0
  2 86  1  0  0  0
  2 87  1  0  0  0
  3  4  1  0  0  0
  3 88  1  0  0  0
  3 89  1  0  0  0
  4  5  1  0  0  0
  4 90  1  0  0  0
  4 91  1  0  0  0
  5  6  1  0  0  0
  5 26  1  0  0  0
  5 92  1  0  0  0
  6 25  1  0  0  0
  6 93  1  0  0  0
  6 94  1  0  0  0
  7  8  2  0  0  0
  7 26  1  0  0  0
  7 29  1  0  0  0
  8  9  1  0  0  0
  8 22  1  0  0  0
  9 10  1  0  0  0
  9 27  2  0  0  0
 10 11  2  0  0  0
 10 15  1  0  0  0
 11 12  1  0  0  0
 11 95  1  0  0  0
 12 13  2  0  0  0
 12 96  1  0  0  0
 13 14  1  0  0  0
 13 31  1  0  0  0
 14 15  2  0  0  0
 14 97  1  0  0  0
 15 98  1  0  0  0
 16 17  2  0  0  0
 16 21  1  0  0  0
 16 31  1  0  0  0
 17 18  1  0  0  0
 17 99  1  0  0  0
 18 19  2  0  0  0
 18100  1  0  0  0
 19 20  1  0  0  0
 19 24  1  0  0  0
 20 21  2  0  0  0
 20101  1  0  0  0
 21 23  1  0  0  0
 22 28  1  0  0  0
 22 32  2  0  0  0
 26 27  1  0  0  0
 28102  1  0  0  0
 28103  1  0  0  0
 29104  1  0  0  0
 29105  1  0  0  0
 33 34  1  0  0  0
 33 66  1  0  0  0
 33 70  2  0  0  0
 34 36  1  0  0  0
 34 59  1  0  0  0
 34106  1  0  0  0
 35 44  2  0  0  0
 35 45  1  0  0  0
 35 68  1  0  0  0
 36 56  1  0  0  0
 36107  1  0  0  0
 37 39  1  0  0  0
 37 47  1  0  0  0
 37 66  1  0  0  0
 37108  1  0  0  0
 38 43  2  0  0  0
 38 46  1  0  0  0
 38 47  1  0  0  0
 39 64  1  0  0  0
 39 67  2  0  0  0
 40 52  1  0  0  0
 40 53  2  0  0  0
 40 58  1  0  0  0
 41109  1  0  0  0
 41110  1  0  0  0
 41111  1  0  0  0
 41 48  1  0  0  0
 42 43  1  0  0  0
 42 66  1  0  0  0
 42112  1  0  0  0
 42113  1  0  0  0
 43 44  1  0  0  0
 44114  1  0  0  0
 45 46  2  0  0  0
 45115  1  0  0  0
 46116  1  0  0  0
 47117  1  0  0  0
 47118  1  0  0  0
 48 56  1  0  0  0
 48 65  1  0  0  0
 48119  1  0  0  0
 49 50  1  0  0  0
 49 53  1  0  0  0
 49 64  1  0  0  0
 49120  1  0  0  0
 50 51  1  0  0  0
 50121  1  0  0  0
 50122  1  0  0  0
 51 52  1  0  0  0
 51123  1  0  0  0
 51124  1  0  0  0
 52125  1  0  0  0
 52126  1  0  0  0
 53 54  1  0  0  0
 54 55  2  0  0  0
 54127  1  0  0  0
 55 57  1  0  0  0
 55128  1  0  0  0
 56 69  2  0  0  0
 57 58  2  0  0  0
 57129  1  0  0  0
 58130  1  0  0  0
 59 60  1  0  0  0
 59 61  1  0  0  0
 59 62  1  0  0  0
 60131  1  0  0  0
 60132  1  0  0  0
 60133  1  0  0  0
 61134  1  0  0  0
 61135  1  0  0  0
 61136  1  0  0  0
 62137  1  0  0  0
 62138  1  0  0  0
 62139  1  0  0  0
 63 65  1  0  0  0
 63140  1  0  0  0
 63141  1  0  0  0
 63142  1  0  0  0
 64143  1  0  0  0
 65144  1  0  0  0
 68 80  1  0  0  0
 71 72  2  0  0  0
 71 74  1  0  0  0
 71145  1  0  0  0
 72 75  1  0  0  0
 72146  1  0  0  0
 73 74  2  0  0  0
 73 76  1  0  0  0
 73147  1  0  0  0
 74 83  1  0  0  0
 75 76  2  0  0  0
 75 81  1  0  0  0
 76 82  1  0  0  0
 77 78  2  0  0  0
 77 80  1  0  0  0
 77 85  1  0  0  0
 78148  1  0  0  0
 78149  1  0  0  0
 79 80  1  0  0  0
 79 85  1  0  0  0
 79150  1  0  0  0
 79151  1  0  0  0
 80152  1  0  0  0
 81153  1  0  0  0
 81154  1  0  0  0
 81155  1  0  0  0
 82 84  1  0  0  0
 82156  1  0  0  0
 82157  1  0  0  0
 83158  1  0  0  0
 83159  1  0  0  0
 83 85  1  0  0  0
 84160  1  0  0  0
 85161  1  0  0  0
M  CHG  1  85   1
M  ISO  4   1 100  68 101  80 101  84 100
M  END
> <chiral flag>
0

> <version>
0

> <s_m_source_file>
/data/baiqing/PycharmProjects/Reinvent-master-3.2/result/LINK_invent/BTK/process_docking_weight1_custom_product_contain_oxygen_bond_distance_aromatic_linkinvent_7_9_3/rearranged_h_0030.sdf

> <i_m_source_file_index>
55

> <r_mmod_Potential_Energy-OPLS-2005>
-210.892730712891

> <r_mmod_Stretch_Energy-OPLS-2005>
56.6166229248047

> <r_mmod_Bend_Energy-OPLS-2005>
156.174835205078

> <r_mmod_Torsional_Energy-OPLS-2005>
198.502502441406

> <r_mmod_Improper_Torsional_Energy-OPLS-2005>
4.39332103729248

> <r_mmod_Van_der_Waal_Energy-OPLS-2005>
147.455474853516

> <r_mmod_Electrostatic_Energy-OPLS-2005>
-343.562042236328

> <r_mmod_Solvation_Energy-OPLS-2005>
-456.458892822266

> <b_mmod_Minimization_Converged-OPLS-2005>
0

> <r_mmod_RMS_Derivative-OPLS-2005>
1.84766411781311

$$$$
55
                    3D
 Structure written by MMmdl.
163172  0  0  1  0            999 V2000
  -30.7021  -14.5327   20.5346 C   0  0  0  0  0  0
  -30.4291  -12.3390   19.4358 C   0  0  0  0  0  0
  -29.5024  -12.4827   18.2109 C   0  0  0  0  0  0
  -28.0208  -12.3497   18.6206 C   0  0  0  0  0  0
  -27.6541  -13.2162   19.8556 C   0  0  2  0  0  0
  -28.6995  -13.0585   20.9817 C   0  0  0  0  0  0
  -25.2571  -13.8202   20.5694 C   0  0  0  0  0  0
  -24.1831  -13.0468   20.9206 C   0  0  0  0  0  0
  -24.6394  -11.6934   20.8744 C   0  0  0  0  0  0
  -23.9068  -10.4309   21.0403 C   0  0  0  0  0  0
  -24.3620   -9.4215   21.9179 C   0  0  0  0  0  0
  -23.6307   -8.2245   22.0739 C   0  0  0  0  0  0
  -22.4283   -8.0291   21.3537 C   0  0  0  0  0  0
  -21.9925   -9.0254   20.4623 C   0  0  0  0  0  0
  -22.7250  -10.2143   20.3038 C   0  0  0  0  0  0
  -21.6859   -6.0752   22.5296 C   0  0  0  0  0  0
  -21.3998   -6.5646   23.8225 C   0  0  0  0  0  0
  -21.3648   -5.6782   24.9190 C   0  0  0  0  0  0
  -21.6051   -4.3055   24.7223 C   0  0  0  0  0  0
  -21.8818   -3.8160   23.4335 C   0  0  0  0  0  0
  -21.9188   -4.6978   22.3408 C   0  0  0  0  0  0
  -22.7845  -13.5238   21.1890 C   0  0  0  0  0  0
  -22.1666   -4.2171   21.0979 F   0  0  0  0  0  0
  -21.5628   -3.4532   25.7730 F   0  0  0  0  0  0
  -30.0207  -13.3604   20.4102 N   0  0  0  0  0  0
  -26.2994  -12.9375   20.3294 N   0  0  0  0  0  0
  -25.9317  -11.6531   20.5735 N   0  0  0  0  0  0
  -22.0463  -12.8207   22.0407 N   0  0  0  0  0  0
  -25.4317  -15.1911   20.4087 N   0  0  0  0  0  0
  -31.8905  -14.6410   20.2320 O   0  0  0  0  0  0
  -21.6642   -6.8895   21.4256 O   0  0  0  0  0  0
  -22.3543  -14.5560   20.6774 O   0  0  0  0  0  0
  -24.6242  -31.8640   23.2008 C   0  0  0  0  0  0
  -25.9103  -32.4807   23.8336 C   0  0  1  0  0  0
  -27.2451  -27.3913   20.0938 C   0  0  0  0  0  0
  -25.5964  -33.8602   24.2307 N   0  0  0  0  0  0
  -23.4122  -30.4887   21.5407 C   0  0  2  0  0  0
  -24.8563  -28.9439   20.1121 C   0  0  0  0  0  0
  -22.7459  -29.4681   22.4957 C   0  0  0  0  0  0
  -18.0318  -28.1416   22.8521 C   0  0  0  0  0  0
  -24.1464  -36.7252   23.2642 C   0  0  0  0  0  0
  -25.9424  -30.8214   21.3524 C   0  0  0  0  0  0
  -26.0208  -29.4469   20.7074 C   0  0  0  0  0  0
  -27.2124  -28.6824   20.6925 C   0  0  0  0  0  0
  -26.0538  -26.9187   19.4887 C   0  0  0  0  0  0
  -24.8727  -27.6821   19.4956 C   0  0  0  0  0  0
  -23.6220  -29.8171   20.1575 C   0  0  0  0  0  0
  -25.4106  -36.3096   24.0337 C   0  0  1  0  0  0
  -20.5904  -28.3695   23.1287 C   0  0  2  0  0  0
  -20.6794  -26.9423   22.5401 C   0  0  0  0  0  0
  -19.5747  -26.6403   21.5206 C   0  0  0  0  0  0
  -18.1946  -26.7980   22.1610 C   0  0  0  0  0  0
  -19.1563  -28.8866   23.2898 C   0  0  0  0  0  0
  -18.9485  -30.1483   23.8891 C   0  0  0  0  0  0
  -17.6474  -30.6597   24.0610 C   0  0  0  0  0  0
  -25.9053  -34.9467   23.5111 C   0  0  0  0  0  0
  -16.5369  -29.9111   23.6320 C   0  0  0  0  0  0
  -16.7296  -28.6535   23.0336 C   0  0  0  0  0  0
  -26.4530  -31.6587   25.0670 C   0  0  0  0  0  0
  -25.3817  -31.3642   26.1430 C   0  0  0  0  0  0
  -27.0409  -30.3092   24.5979 C   0  0  0  0  0  0
  -27.6137  -32.4296   25.7411 C   0  0  0  0  0  0
  -27.5556  -37.1767   24.8494 C   0  0  0  0  0  0
  -21.4177  -29.3073   22.3697 N   0  0  0  0  0  0
  -26.4249  -37.3818   23.9479 N   0  0  0  0  0  0
  -24.6791  -31.0747   22.0882 N   0  0  0  0  0  0
  -23.4220  -28.8215   23.2996 O   0  0  0  0  0  0
  -28.4169  -26.6399   20.1171 O   0  0  0  0  0  0
  -26.5555  -34.8924   22.4644 O   0  0  0  0  0  0
  -23.5425  -32.1354   23.7414 O   0  0  0  0  0  0
  -30.7604  -20.4417   18.4542 C   0  0  0  0  0  0
  -30.7177  -19.1435   17.9313 C   0  0  0  0  0  0
  -30.5518  -20.6900   19.8259 C   0  0  0  0  0  0
  -30.3704  -19.5492   20.6908 C   0  0  0  0  0  0
  -30.4093  -18.1968   20.1720 C   0  0  0  0  0  0
  -30.5369  -18.0295   18.7612 C   0  0  0  0  0  0
  -28.5661  -24.7293   18.4954 C   0  0  0  0  0  0
  -29.1187  -23.2898   18.5969 C   0  0  0  0  0  0
  -29.4367  -24.3819   20.6710 C   0  0  0  0  0  0
  -28.3442  -25.1945   19.9435 C   0  0  1  0  0  0
  -30.1555  -19.7486   22.1959 C   0  0  0  0  0  0
  -30.4638  -16.9835   21.1647 C   0  0  0  0  0  0
  -30.6506  -22.1802   20.2841 C   0  0  0  0  0  0
  -29.9608  -15.6274   20.8249 N   0  0  0  0  0  0
  -29.4451  -23.0354   20.0212 N   0  3  2  0  0  0
  -30.5178  -16.5028   17.9480 Cl  0  0  0  0  0  0
  -31.4717  -12.4513   19.1310 H   0  0  0  0  0  0
  -30.3478  -11.3447   19.8774 H   0  0  0  0  0  0
  -29.7504  -11.7259   17.4659 H   0  0  0  0  0  0
  -29.6668  -13.4492   17.7324 H   0  0  0  0  0  0
  -27.8331  -11.2979   18.8402 H   0  0  0  0  0  0
  -27.3741  -12.6028   17.7791 H   0  0  0  0  0  0
  -27.6767  -14.2535   19.5209 H   0  0  0  0  0  0
  -28.6885  -12.0415   21.3736 H   0  0  0  0  0  0
  -28.4602  -13.7070   21.8256 H   0  0  0  0  0  0
  -25.2771   -9.5708   22.4747 H   0  0  0  0  0  0
  -24.0034   -7.4631   22.7436 H   0  0  0  0  0  0
  -21.0877   -8.8771   19.8900 H   0  0  0  0  0  0
  -22.3727  -10.9677   19.6126 H   0  0  0  0  0  0
  -21.1974   -7.6150   23.9750 H   0  0  0  0  0  0
  -21.1467   -6.0504   25.9094 H   0  0  0  0  0  0
  -22.0594   -2.7624   23.2833 H   0  0  0  0  0  0
  -22.4057  -11.9853   22.4772 H   0  0  0  0  0  0
  -21.1042  -13.1196   22.2530 H   0  0  0  0  0  0
  -24.6745  -15.8550   20.5306 H   0  0  0  0  0  0
  -26.2845  -15.6241   20.0784 H   0  0  0  0  0  0
  -26.7188  -32.5465   23.1098 H   0  0  0  0  0  0
  -25.0418  -33.9775   25.0659 H   0  0  0  0  0  0
  -22.7029  -31.3057   21.3953 H   0  0  0  0  0  0
  -23.3750  -35.9560   23.3322 H   0  0  0  0  0  0
  -24.3585  -36.8832   22.2059 H   0  0  0  0  0  0
  -23.7141  -37.6431   23.6619 H   0  0  0  0  0  0
  -26.0557  -31.5775   20.5722 H   0  0  0  0  0  0
  -26.8301  -30.8803   21.9688 H   0  0  0  0  0  0
  -28.1093  -29.0836   21.1452 H   0  0  0  0  0  0
  -26.0100  -25.9573   19.0017 H   0  0  0  0  0  0
  -23.9836  -27.2899   19.0208 H   0  0  0  0  0  0
  -23.7392  -30.5841   19.3914 H   0  0  0  0  0  0
  -22.7447  -29.2459   19.8537 H   0  0  0  0  0  0
  -25.1286  -36.1926   25.0810 H   0  0  0  0  0  0
  -21.0020  -28.3251   24.1381 H   0  0  0  0  0  0
  -20.5699  -26.2333   23.3615 H   0  0  0  0  0  0
  -21.6678  -26.7475   22.1179 H   0  0  0  0  0  0
  -19.6884  -25.6305   21.1220 H   0  0  0  0  0  0
  -19.6651  -27.3239   20.6739 H   0  0  0  0  0  0
  -17.4230  -26.6793   21.3965 H   0  0  0  0  0  0
  -18.0266  -26.0108   22.8953 H   0  0  0  0  0  0
  -19.7949  -30.7353   24.2196 H   0  0  0  0  0  0
  -17.5011  -31.6242   24.5268 H   0  0  0  0  0  0
  -15.5363  -30.3021   23.7614 H   0  0  0  0  0  0
  -15.8711  -28.0857   22.7007 H   0  0  0  0  0  0
  -24.6074  -30.6897   25.7749 H   0  0  0  0  0  0
  -24.8916  -32.2765   26.4808 H   0  0  0  0  0  0
  -25.8211  -30.8871   27.0201 H   0  0  0  0  0  0
  -26.2928  -29.6805   24.1166 H   0  0  0  0  0  0
  -27.4441  -29.7363   25.4327 H   0  0  0  0  0  0
  -27.8618  -30.4532   23.8981 H   0  0  0  0  0  0
  -27.2823  -33.3660   26.1917 H   0  0  0  0  0  0
  -28.3956  -32.6742   25.0202 H   0  0  0  0  0  0
  -28.0802  -31.8454   26.5351 H   0  0  0  0  0  0
  -28.2627  -38.0028   24.7641 H   0  0  0  0  0  0
  -28.0986  -36.2589   24.6207 H   0  0  0  0  0  0
  -27.2303  -37.1296   25.8897 H   0  0  0  0  0  0
  -20.9330  -29.8828   21.6974 H   0  0  0  0  0  0
  -26.0116  -38.2859   24.1572 H   0  0  0  0  0  0
  -30.9635  -21.2486   17.7650 H   0  0  0  0  0  0
  -30.8563  -18.9927   16.8692 H   0  0  0  0  0  0
  -27.6647  -24.7803   17.8881 H   0  0  0  0  0  0
  -29.3132  -25.3613   18.0135 H   0  0  0  0  0  0
  -30.0036  -23.2054   17.9607 H   0  0  0  0  0  0
  -28.3947  -22.5491   18.2511 H   0  0  0  0  0  0
  -29.2658  -24.3212   21.7476 H   0  0  0  0  0  0
  -30.4037  -24.8628   20.5204 H   0  0  0  0  0  0
  -27.3899  -24.8182   20.3127 H   0  0  0  0  0  0
  -30.1250  -20.7794   22.5350 H   0  0  0  0  0  0
  -30.9385  -19.2512   22.7691 H   0  0  0  0  0  0
  -29.1958  -19.3242   22.4969 H   0  0  0  0  0  0
  -29.9132  -17.2312   22.0686 H   0  0  0  0  0  0
  -31.5036  -16.8973   21.4856 H   0  0  0  0  0  0
  -31.5139  -22.6345   19.7941 H   0  0  0  0  0  0
  -30.9037  -22.2570   21.3371 H   0  0  0  0  0  0
  -28.9709  -15.4721   20.9398 H   0  0  0  0  0  0
  -28.6609  -22.5272   20.4025 H   0  0  0  0  0  0
  1 25  1  0  0  0
  1 30  2  0  0  0
  1 84  1  0  0  0
  2  3  1  0  0  0
  2 25  1  0  0  0
  2 87  1  0  0  0
  2 88  1  0  0  0
  3  4  1  0  0  0
  3 89  1  0  0  0
  3 90  1  0  0  0
  4  5  1  0  0  0
  4 91  1  0  0  0
  4 92  1  0  0  0
  5  6  1  0  0  0
  5 26  1  0  0  0
  5 93  1  0  0  0
  6 25  1  0  0  0
  6 94  1  0  0  0
  6 95  1  0  0  0
  7  8  2  0  0  0
  7 26  1  0  0  0
  7 29  1  0  0  0
  8  9  1  0  0  0
  8 22  1  0  0  0
  9 10  1  0  0  0
  9 27  2  0  0  0
 10 11  2  0  0  0
 10 15  1  0  0  0
 11 12  1  0  0  0
 11 96  1  0  0  0
 12 13  2  0  0  0
 12 97  1  0  0  0
 13 14  1  0  0  0
 13 31  1  0  0  0
 14 15  2  0  0  0
 14 98  1  0  0  0
 15 99  1  0  0  0
 16 17  2  0  0  0
 16 21  1  0  0  0
 16 31  1  0  0  0
 17 18  1  0  0  0
 17100  1  0  0  0
 18 19  2  0  0  0
 18101  1  0  0  0
 19 20  1  0  0  0
 19 24  1  0  0  0
 20 21  2  0  0  0
 20102  1  0  0  0
 21 23  1  0  0  0
 22 28  1  0  0  0
 22 32  2  0  0  0
 26 27  1  0  0  0
 28103  1  0  0  0
 28104  1  0  0  0
 29105  1  0  0  0
 29106  1  0  0  0
 33 34  1  0  0  0
 33 66  1  0  0  0
 33 70  2  0  0  0
 34 36  1  0  0  0
 34 59  1  0  0  0
 34107  1  0  0  0
 35 44  2  0  0  0
 35 45  1  0  0  0
 35 68  1  0  0  0
 36 56  1  0  0  0
 36108  1  0  0  0
 37 39  1  0  0  0
 37 47  1  0  0  0
 37 66  1  0  0  0
 37109  1  0  0  0
 38 43  2  0  0  0
 38 46  1  0  0  0
 38 47  1  0  0  0
 39 64  1  0  0  0
 39 67  2  0  0  0
 40 52  1  0  0  0
 40 53  2  0  0  0
 40 58  1  0  0  0
 41110  1  0  0  0
 41111  1  0  0  0
 41112  1  0  0  0
 41 48  1  0  0  0
 42 43  1  0  0  0
 42 66  1  0  0  0
 42113  1  0  0  0
 42114  1  0  0  0
 43 44  1  0  0  0
 44115  1  0  0  0
 45 46  2  0  0  0
 45116  1  0  0  0
 46117  1  0  0  0
 47118  1  0  0  0
 47119  1  0  0  0
 48 56  1  0  0  0
 48 65  1  0  0  0
 48120  1  0  0  0
 49 50  1  0  0  0
 49 53  1  0  0  0
 49 64  1  0  0  0
 49121  1  0  0  0
 50 51  1  0  0  0
 50122  1  0  0  0
 50123  1  0  0  0
 51 52  1  0  0  0
 51124  1  0  0  0
 51125  1  0  0  0
 52126  1  0  0  0
 52127  1  0  0  0
 53 54  1  0  0  0
 54 55  2  0  0  0
 54128  1  0  0  0
 55 57  1  0  0  0
 55129  1  0  0  0
 56 69  2  0  0  0
 57 58  2  0  0  0
 57130  1  0  0  0
 58131  1  0  0  0
 59 60  1  0  0  0
 59 61  1  0  0  0
 59 62  1  0  0  0
 60132  1  0  0  0
 60133  1  0  0  0
 60134  1  0  0  0
 61135  1  0  0  0
 61136  1  0  0  0
 61137  1  0  0  0
 62138  1  0  0  0
 62139  1  0  0  0
 62140  1  0  0  0
 63 65  1  0  0  0
 63141  1  0  0  0
 63142  1  0  0  0
 63143  1  0  0  0
 64144  1  0  0  0
 65145  1  0  0  0
 68 80  1  0  0  0
 71 72  2  0  0  0
 71 73  1  0  0  0
 71146  1  0  0  0
 72 76  1  0  0  0
 72147  1  0  0  0
 73 74  2  0  0  0
 73 83  1  0  0  0
 74 75  1  0  0  0
 74 81  1  0  0  0
 75 76  2  0  0  0
 75 82  1  0  0  0
 76 86  1  0  0  0
 77 78  1  0  0  0
 77 80  1  0  0  0
 77148  1  0  0  0
 77149  1  0  0  0
 78 85  1  0  0  0
 78150  1  0  0  0
 78151  1  0  0  0
 79 80  1  0  0  0
 79 85  1  0  0  0
 79152  1  0  0  0
 79153  1  0  0  0
 80154  1  0  0  0
 81155  1  0  0  0
 81156  1  0  0  0
 81157  1  0  0  0
 82 84  1  0  0  0
 82158  1  0  0  0
 82159  1  0  0  0
 83160  1  0  0  0
 83161  1  0  0  0
 83 85  1  0  0  0
 84162  1  0  0  0
 85163  1  0  0  0
M  CHG  1  85   1
M  ISO  4   1 100  68 101  80 101  84 100
M  END
> <chiral flag>
0

> <version>
0

> <s_m_source_file>
/data/baiqing/PycharmProjects/Reinvent-master-3.2/result/LINK_invent/BTK/process_docking_weight1_custom_product_contain_oxygen_bond_distance_aromatic_linkinvent_7_9_3/rearranged_h_0030.sdf

> <i_m_source_file_index>
56

> <r_mmod_Potential_Energy-OPLS-2005>
-67.9996109008789

> <r_mmod_Stretch_Energy-OPLS-2005>
60.0112342834473

> <r_mmod_Bend_Energy-OPLS-2005>
155.176727294922

> <r_mmod_Torsional_Energy-OPLS-2005>
251.118682861328

> <r_mmod_Improper_Torsional_Energy-OPLS-2005>
4.73015356063843

> <r_mmod_Van_der_Waal_Energy-OPLS-2005>
154.404052734375

> <r_mmod_Electrostatic_Energy-OPLS-2005>
-271.9970703125

> <r_mmod_Solvation_Energy-OPLS-2005>
-447.914428710938

> <b_mmod_Minimization_Converged-OPLS-2005>
0

> <r_mmod_RMS_Derivative-OPLS-2005>
5.37720966339111

$$$$
56
                    3D
 Structure written by MMmdl.
160169  0  0  1  0            999 V2000
  -30.5893  -14.7657   20.4108 C   0  0  0  0  0  0
  -30.4390  -12.4521   19.4882 C   0  0  0  0  0  0
  -29.5163  -12.4677   18.2484 C   0  0  0  0  0  0
  -28.0389  -12.3173   18.6543 C   0  0  0  0  0  0
  -27.6421  -13.2297   19.8450 C   0  0  2  0  0  0
  -28.6840  -13.1762   20.9834 C   0  0  0  0  0  0
  -25.2524  -13.8206   20.5682 C   0  0  0  0  0  0
  -24.1815  -13.0455   20.9203 C   0  0  0  0  0  0
  -24.6399  -11.6930   20.8749 C   0  0  0  0  0  0
  -23.9075  -10.4306   21.0418 C   0  0  0  0  0  0
  -24.3630   -9.4219   21.9191 C   0  0  0  0  0  0
  -23.6305   -8.2250   22.0763 C   0  0  0  0  0  0
  -22.4288   -8.0289   21.3549 C   0  0  0  0  0  0
  -21.9923   -9.0260   20.4647 C   0  0  0  0  0  0
  -22.7251  -10.2143   20.3060 C   0  0  0  0  0  0
  -21.6860   -6.0743   22.5282 C   0  0  0  0  0  0
  -21.4013   -6.5643   23.8217 C   0  0  0  0  0  0
  -21.3661   -5.6793   24.9177 C   0  0  0  0  0  0
  -21.6047   -4.3056   24.7224 C   0  0  0  0  0  0
  -21.8820   -3.8149   23.4346 C   0  0  0  0  0  0
  -21.9194   -4.6970   22.3403 C   0  0  0  0  0  0
  -22.7830  -13.5235   21.1856 C   0  0  0  0  0  0
  -22.1667   -4.2156   21.0979 F   0  0  0  0  0  0
  -21.5630   -3.4540   25.7738 F   0  0  0  0  0  0
  -29.9867  -13.5256   20.4045 N   0  0  0  0  0  0
  -26.2940  -12.9408   20.3249 N   0  0  0  0  0  0
  -25.9325  -11.6555   20.5746 N   0  0  0  0  0  0
  -22.0464  -12.8227   22.0399 N   0  0  0  0  0  0
  -25.4223  -15.1939   20.4118 N   0  0  0  0  0  0
  -31.7843  -14.8632   20.1182 O   0  0  0  0  0  0
  -21.6647   -6.8891   21.4248 O   0  0  0  0  0  0
  -22.3510  -14.5529   20.6686 O   0  0  0  0  0  0
  -24.6319  -31.8539   23.1963 C   0  0  0  0  0  0
  -25.9151  -32.4740   23.8316 C   0  0  1  0  0  0
  -27.2283  -27.2628   20.1285 C   0  0  0  0  0  0
  -25.5947  -33.8541   24.2249 N   0  0  0  0  0  0
  -23.4279  -30.4741   21.5393 C   0  0  2  0  0  0
  -24.8754  -28.9140   20.1080 C   0  0  0  0  0  0
  -22.7502  -29.4584   22.4906 C   0  0  0  0  0  0
  -18.0297  -28.1381   22.8478 C   0  0  0  0  0  0
  -24.1490  -36.7276   23.2637 C   0  0  0  0  0  0
  -25.9709  -30.7659   21.3743 C   0  0  0  0  0  0
  -26.0424  -29.3866   20.7192 C   0  0  0  0  0  0
  -27.2157  -28.5710   20.7206 C   0  0  0  0  0  0
  -26.0370  -26.8468   19.4950 C   0  0  0  0  0  0
  -24.8776  -27.6528   19.4870 C   0  0  0  0  0  0
  -23.6468  -29.8040   20.1556 C   0  0  0  0  0  0
  -25.4115  -36.3058   24.0326 C   0  0  1  0  0  0
  -20.5896  -28.3691   23.1272 C   0  0  2  0  0  0
  -20.6782  -26.9406   22.5413 C   0  0  0  0  0  0
  -19.5759  -26.6375   21.5213 C   0  0  0  0  0  0
  -18.1938  -26.7922   22.1619 C   0  0  0  0  0  0
  -19.1547  -28.8854   23.2869 C   0  0  0  0  0  0
  -18.9465  -30.1457   23.8885 C   0  0  0  0  0  0
  -17.6464  -30.6582   24.0558 C   0  0  0  0  0  0
  -25.9059  -34.9429   23.5088 C   0  0  0  0  0  0
  -16.5358  -29.9076   23.6330 C   0  0  0  0  0  0
  -16.7284  -28.6495   23.0350 C   0  0  0  0  0  0
  -26.4520  -31.6562   25.0706 C   0  0  0  0  0  0
  -25.3736  -31.3717   26.1422 C   0  0  0  0  0  0
  -27.0376  -30.2983   24.6183 C   0  0  0  0  0  0
  -27.6072  -32.4291   25.7494 C   0  0  0  0  0  0
  -27.5576  -37.1794   24.8465 C   0  0  0  0  0  0
  -21.4207  -29.3039   22.3662 N   0  0  0  0  0  0
  -26.4287  -37.3764   23.9407 N   0  0  0  0  0  0
  -24.6958  -31.0501   22.0934 N   0  0  0  0  0  0
  -23.4202  -28.8134   23.3012 O   0  0  0  0  0  0
  -28.3572  -26.4193   20.2160 O   0  0  0  0  0  0
  -26.5630  -34.8912   22.4656 O   0  0  0  0  0  0
  -23.5474  -32.1359   23.7265 O   0  0  0  0  0  0
  -29.3933  -18.4896   20.5099 C   0  0  0  0  0  0
  -29.8107  -18.5042   17.7852 C   0  0  0  0  0  0
  -29.2014  -19.7630   19.8058 C   0  0  0  0  0  0
  -29.3732  -19.6989   18.3929 C   0  0  0  0  0  0
  -29.7842  -17.2222   19.8875 C   0  0  0  0  0  0
  -30.0097  -17.3005   18.4842 C   0  0  0  0  0  0
  -29.9558  -24.6589   19.5142 C   0  0  0  0  0  0
  -30.1560  -23.1407   19.8191 C   0  0  0  0  0  0
  -27.9611  -23.6850   20.3933 C   0  0  0  0  0  0
  -28.4606  -25.0197   19.6732 C   0  0  1  0  0  0
  -29.0521  -20.8423   17.4398 C   0  0  0  0  0  0
  -28.7213  -21.1160   20.5437 C   0  0  0  0  0  0
  -29.7955  -15.8973   20.5875 N   0  0  0  0  0  0
  -28.8149  -22.5209   19.8949 N   0  3  2  0  0  0
  -30.4249  -15.9453   17.4954 Cl  0  0  0  0  0  0
  -31.4773  -12.5836   19.1801 H   0  0  0  0  0  0
  -30.3973  -11.4846   19.9903 H   0  0  0  0  0  0
  -29.7963  -11.6685   17.5613 H   0  0  0  0  0  0
  -29.6489  -13.3936   17.6952 H   0  0  0  0  0  0
  -27.8814  -11.2719   18.9229 H   0  0  0  0  0  0
  -27.3917  -12.5094   17.7982 H   0  0  0  0  0  0
  -27.6350  -14.2466   19.4513 H   0  0  0  0  0  0
  -28.7184  -12.1829   21.4329 H   0  0  0  0  0  0
  -28.4149  -13.8654   21.7845 H   0  0  0  0  0  0
  -25.2783   -9.5690   22.4758 H   0  0  0  0  0  0
  -24.0019   -7.4639   22.7482 H   0  0  0  0  0  0
  -21.0860   -8.8783   19.8943 H   0  0  0  0  0  0
  -22.3726  -10.9682   19.6161 H   0  0  0  0  0  0
  -21.2004   -7.6152   23.9724 H   0  0  0  0  0  0
  -21.1482   -6.0521   25.9082 H   0  0  0  0  0  0
  -22.0595   -2.7611   23.2845 H   0  0  0  0  0  0
  -22.4089  -11.9913   22.4821 H   0  0  0  0  0  0
  -21.1070  -13.1241   22.2566 H   0  0  0  0  0  0
  -24.6513  -15.8448   20.5183 H   0  0  0  0  0  0
  -26.2660  -15.6348   20.0682 H   0  0  0  0  0  0
  -26.7213  -32.5388   23.1054 H   0  0  0  0  0  0
  -25.0115  -33.9677   25.0408 H   0  0  0  0  0  0
  -22.7244  -31.2963   21.3920 H   0  0  0  0  0  0
  -23.3754  -35.9607   23.3292 H   0  0  0  0  0  0
  -24.3583  -36.8911   22.2054 H   0  0  0  0  0  0
  -23.7244  -37.6472   23.6672 H   0  0  0  0  0  0
  -26.1077  -31.5240   20.6021 H   0  0  0  0  0  0
  -26.8490  -30.8175   22.0066 H   0  0  0  0  0  0
  -28.1084  -28.9267   21.2159 H   0  0  0  0  0  0
  -25.9741  -25.8769   19.0254 H   0  0  0  0  0  0
  -23.9809  -27.2835   19.0082 H   0  0  0  0  0  0
  -23.7760  -30.5805   19.4004 H   0  0  0  0  0  0
  -22.7636  -29.2424   19.8470 H   0  0  0  0  0  0
  -25.1299  -36.1899   25.0820 H   0  0  0  0  0  0
  -20.9993  -28.3266   24.1392 H   0  0  0  0  0  0
  -20.5679  -26.2299   23.3616 H   0  0  0  0  0  0
  -21.6650  -26.7425   22.1209 H   0  0  0  0  0  0
  -19.6919  -25.6284   21.1250 H   0  0  0  0  0  0
  -19.6700  -27.3181   20.6738 H   0  0  0  0  0  0
  -17.4211  -26.6679   21.4017 H   0  0  0  0  0  0
  -18.0327  -26.0064   22.9012 H   0  0  0  0  0  0
  -19.7942  -30.7280   24.2242 H   0  0  0  0  0  0
  -17.5018  -31.6261   24.5162 H   0  0  0  0  0  0
  -15.5358  -30.2976   23.7654 H   0  0  0  0  0  0
  -15.8686  -28.0817   22.7059 H   0  0  0  0  0  0
  -24.5921  -30.7059   25.7750 H   0  0  0  0  0  0
  -24.8920  -32.2890   26.4815 H   0  0  0  0  0  0
  -25.8049  -30.8917   27.0214 H   0  0  0  0  0  0
  -26.2965  -29.6712   24.1215 H   0  0  0  0  0  0
  -27.4083  -29.7262   25.4698 H   0  0  0  0  0  0
  -27.8828  -30.4273   23.9417 H   0  0  0  0  0  0
  -27.2688  -33.3591   26.2074 H   0  0  0  0  0  0
  -28.3902  -32.6839   25.0338 H   0  0  0  0  0  0
  -28.0721  -31.8402   26.5414 H   0  0  0  0  0  0
  -28.2588  -38.0098   24.7513 H   0  0  0  0  0  0
  -28.1083  -36.2627   24.6290 H   0  0  0  0  0  0
  -27.2299  -37.1442   25.8871 H   0  0  0  0  0  0
  -20.9389  -29.8778   21.6881 H   0  0  0  0  0  0
  -26.0160  -38.2837   24.1407 H   0  0  0  0  0  0
  -29.1980  -18.4803   21.5731 H   0  0  0  0  0  0
  -29.9526  -18.4816   16.7138 H   0  0  0  0  0  0
  -30.2924  -24.9054   18.5071 H   0  0  0  0  0  0
  -30.5681  -25.2473   20.1980 H   0  0  0  0  0  0
  -30.6439  -23.0359   20.7892 H   0  0  0  0  0  0
  -30.8028  -22.6527   19.0906 H   0  0  0  0  0  0
  -26.9014  -23.5048   20.2109 H   0  0  0  0  0  0
  -28.0935  -23.7799   21.4714 H   0  0  0  0  0  0
  -28.0355  -25.0247   18.6689 H   0  0  0  0  0  0
  -28.8828  -20.4660   16.4297 H   0  0  0  0  0  0
  -29.8772  -21.5490   17.3691 H   0  0  0  0  0  0
  -28.1326  -21.3576   17.7114 H   0  0  0  0  0  0
  -29.2156  -21.1604   21.5144 H   0  0  0  0  0  0
  -27.6667  -20.9575   20.7704 H   0  0  0  0  0  0
  -28.9402  -15.6994   21.0852 H   0  0  0  0  0  0
  -28.5240  -22.3683   18.9405 H   0  0  0  0  0  0
  1 25  1  0  0  0
  1 30  2  0  0  0
  1 83  1  0  0  0
  2  3  1  0  0  0
  2 25  1  0  0  0
  2 86  1  0  0  0
  2 87  1  0  0  0
  3  4  1  0  0  0
  3 88  1  0  0  0
  3 89  1  0  0  0
  4  5  1  0  0  0
  4 90  1  0  0  0
  4 91  1  0  0  0
  5  6  1  0  0  0
  5 26  1  0  0  0
  5 92  1  0  0  0
  6 25  1  0  0  0
  6 93  1  0  0  0
  6 94  1  0  0  0
  7  8  2  0  0  0
  7 26  1  0  0  0
  7 29  1  0  0  0
  8  9  1  0  0  0
  8 22  1  0  0  0
  9 10  1  0  0  0
  9 27  2  0  0  0
 10 11  2  0  0  0
 10 15  1  0  0  0
 11 12  1  0  0  0
 11 95  1  0  0  0
 12 13  2  0  0  0
 12 96  1  0  0  0
 13 14  1  0  0  0
 13 31  1  0  0  0
 14 15  2  0  0  0
 14 97  1  0  0  0
 15 98  1  0  0  0
 16 17  2  0  0  0
 16 21  1  0  0  0
 16 31  1  0  0  0
 17 18  1  0  0  0
 17 99  1  0  0  0
 18 19  2  0  0  0
 18100  1  0  0  0
 19 20  1  0  0  0
 19 24  1  0  0  0
 20 21  2  0  0  0
 20101  1  0  0  0
 21 23  1  0  0  0
 22 28  1  0  0  0
 22 32  2  0  0  0
 26 27  1  0  0  0
 28102  1  0  0  0
 28103  1  0  0  0
 29104  1  0  0  0
 29105  1  0  0  0
 33 34  1  0  0  0
 33 66  1  0  0  0
 33 70  2  0  0  0
 34 36  1  0  0  0
 34 59  1  0  0  0
 34106  1  0  0  0
 35 44  2  0  0  0
 35 45  1  0  0  0
 35 68  1  0  0  0
 36 56  1  0  0  0
 36107  1  0  0  0
 37 39  1  0  0  0
 37 47  1  0  0  0
 37 66  1  0  0  0
 37108  1  0  0  0
 38 43  2  0  0  0
 38 46  1  0  0  0
 38 47  1  0  0  0
 39 64  1  0  0  0
 39 67  2  0  0  0
 40 52  1  0  0  0
 40 53  2  0  0  0
 40 58  1  0  0  0
 41109  1  0  0  0
 41110  1  0  0  0
 41111  1  0  0  0
 41 48  1  0  0  0
 42 43  1  0  0  0
 42 66  1  0  0  0
 42112  1  0  0  0
 42113  1  0  0  0
 43 44  1  0  0  0
 44114  1  0  0  0
 45 46  2  0  0  0
 45115  1  0  0  0
 46116  1  0  0  0
 47117  1  0  0  0
 47118  1  0  0  0
 48 56  1  0  0  0
 48 65  1  0  0  0
 48119  1  0  0  0
 49 50  1  0  0  0
 49 53  1  0  0  0
 49 64  1  0  0  0
 49120  1  0  0  0
 50 51  1  0  0  0
 50121  1  0  0  0
 50122  1  0  0  0
 51 52  1  0  0  0
 51123  1  0  0  0
 51124  1  0  0  0
 52125  1  0  0  0
 52126  1  0  0  0
 53 54  1  0  0  0
 54 55  2  0  0  0
 54127  1  0  0  0
 55 57  1  0  0  0
 55128  1  0  0  0
 56 69  2  0  0  0
 57 58  2  0  0  0
 57129  1  0  0  0
 58130  1  0  0  0
 59 60  1  0  0  0
 59 61  1  0  0  0
 59 62  1  0  0  0
 60131  1  0  0  0
 60132  1  0  0  0
 60133  1  0  0  0
 61134  1  0  0  0
 61135  1  0  0  0
 61136  1  0  0  0
 62137  1  0  0  0
 62138  1  0  0  0
 62139  1  0  0  0
 63 65  1  0  0  0
 63140  1  0  0  0
 63141  1  0  0  0
 63142  1  0  0  0
 64143  1  0  0  0
 65144  1  0  0  0
 68 80  1  0  0  0
 71 73  2  0  0  0
 71 75  1  0  0  0
 71145  1  0  0  0
 72 74  2  0  0  0
 72 76  1  0  0  0
 72146  1  0  0  0
 73 74  1  0  0  0
 73 82  1  0  0  0
 74 81  1  0  0  0
 75 76  2  0  0  0
 75 83  1  0  0  0
 76 85  1  0  0  0
 77 78  1  0  0  0
 77 80  1  0  0  0
 77147  1  0  0  0
 77148  1  0  0  0
 78 84  1  0  0  0
 78149  1  0  0  0
 78150  1  0  0  0
 79 80  1  0  0  0
 79 84  1  0  0  0
 79151  1  0  0  0
 79152  1  0  0  0
 80153  1  0  0  0
 81154  1  0  0  0
 81155  1  0  0  0
 81156  1  0  0  0
 82157  1  0  0  0
 82158  1  0  0  0
 82 84  1  0  0  0
 83159  1  0  0  0
 84160  1  0  0  0
M  CHG  1  84   1
M  ISO  4   1 100  68 101  80 101  83 100
M  END
> <chiral flag>
0

> <version>
0

> <s_m_source_file>
/data/baiqing/PycharmProjects/Reinvent-master-3.2/result/LINK_invent/BTK/process_docking_weight1_custom_product_contain_oxygen_bond_distance_aromatic_linkinvent_7_9_3/rearranged_h_0030.sdf

> <i_m_source_file_index>
57

> <r_mmod_Potential_Energy-OPLS-2005>
144.654846191406

> <r_mmod_Stretch_Energy-OPLS-2005>
130.674957275391

> <r_mmod_Bend_Energy-OPLS-2005>
219.003402709961

> <r_mmod_Torsional_Energy-OPLS-2005>
295.490631103516

> <r_mmod_Improper_Torsional_Energy-OPLS-2005>
5.69373798370361

> <r_mmod_Van_der_Waal_Energy-OPLS-2005>
136.215026855469

> <r_mmod_Electrostatic_Energy-OPLS-2005>
-274.394287109375

> <r_mmod_Solvation_Energy-OPLS-2005>
-457.80615234375

> <b_mmod_Minimization_Converged-OPLS-2005>
0

> <r_mmod_RMS_Derivative-OPLS-2005>
1.26627719402313

$$$$
57
                    3D
 Structure written by MMmdl.
154162  0  0  1  0            999 V2000
  -30.6497  -14.7421   20.4478 C   0  0  0  0  0  0
  -30.4194  -12.4363   19.5183 C   0  0  0  0  0  0
  -29.5214  -12.4996   18.2640 C   0  0  0  0  0  0
  -28.0400  -12.3389   18.6536 C   0  0  0  0  0  0
  -27.6394  -13.2415   19.8508 C   0  0  2  0  0  0
  -28.6776  -13.2036   20.9974 C   0  0  0  0  0  0
  -25.2467  -13.8241   20.5670 C   0  0  0  0  0  0
  -24.1773  -13.0461   20.9171 C   0  0  0  0  0  0
  -24.6356  -11.6955   20.8710 C   0  0  0  0  0  0
  -23.9035  -10.4317   21.0362 C   0  0  0  0  0  0
  -24.3602   -9.4223   21.9147 C   0  0  0  0  0  0
  -23.6310   -8.2236   22.0721 C   0  0  0  0  0  0
  -22.4296   -8.0264   21.3503 C   0  0  0  0  0  0
  -21.9918   -9.0221   20.4611 C   0  0  0  0  0  0
  -22.7211  -10.2120   20.3023 C   0  0  0  0  0  0
  -21.6868   -6.0701   22.5261 C   0  0  0  0  0  0
  -21.4025   -6.5612   23.8184 C   0  0  0  0  0  0
  -21.3676   -5.6780   24.9154 C   0  0  0  0  0  0
  -21.6069   -4.3040   24.7214 C   0  0  0  0  0  0
  -21.8810   -3.8107   23.4330 C   0  0  0  0  0  0
  -21.9208   -4.6926   22.3388 C   0  0  0  0  0  0
  -22.7794  -13.5198   21.1853 C   0  0  0  0  0  0
  -22.1660   -4.2094   21.0978 F   0  0  0  0  0  0
  -21.5639   -3.4530   25.7732 F   0  0  0  0  0  0
  -29.9922  -13.5260   20.4305 N   0  0  0  0  0  0
  -26.2913  -12.9440   20.3275 N   0  0  0  0  0  0
  -25.9287  -11.6567   20.5743 N   0  0  0  0  0  0
  -22.0470  -12.8196   22.0449 N   0  0  0  0  0  0
  -25.4158  -15.1973   20.4033 N   0  0  0  0  0  0
  -31.8229  -14.7960   20.0809 O   0  0  0  0  0  0
  -21.6660   -6.8856   21.4219 O   0  0  0  0  0  0
  -22.3462  -14.5466   20.6655 O   0  0  0  0  0  0
  -24.6358  -31.8502   23.2000 C   0  0  0  0  0  0
  -25.9144  -32.4748   23.8373 C   0  0  1  0  0  0
  -27.2298  -27.2462   20.0967 C   0  0  0  0  0  0
  -25.5921  -33.8568   24.2278 N   0  0  0  0  0  0
  -23.4403  -30.4713   21.5450 C   0  0  2  0  0  0
  -24.8837  -28.9220   20.1013 C   0  0  0  0  0  0
  -22.7571  -29.4555   22.4911 C   0  0  0  0  0  0
  -18.0272  -28.1399   22.8442 C   0  0  0  0  0  0
  -24.1484  -36.7270   23.2649 C   0  0  0  0  0  0
  -25.9916  -30.7471   21.3911 C   0  0  0  0  0  0
  -26.0586  -29.3795   20.7115 C   0  0  0  0  0  0
  -27.2337  -28.5562   20.6943 C   0  0  0  0  0  0
  -26.0190  -26.8553   19.4768 C   0  0  0  0  0  0
  -24.8708  -27.6676   19.4742 C   0  0  0  0  0  0
  -23.6573  -29.8098   20.1595 C   0  0  0  0  0  0
  -25.4119  -36.3091   24.0336 C   0  0  1  0  0  0
  -20.5899  -28.3694   23.1243 C   0  0  2  0  0  0
  -20.6762  -26.9403   22.5388 C   0  0  0  0  0  0
  -19.5761  -26.6369   21.5173 C   0  0  0  0  0  0
  -18.1932  -26.7937   22.1574 C   0  0  0  0  0  0
  -19.1534  -28.8863   23.2827 C   0  0  0  0  0  0
  -18.9463  -30.1455   23.8871 C   0  0  0  0  0  0
  -17.6472  -30.6601   24.0549 C   0  0  0  0  0  0
  -25.9054  -34.9444   23.5107 C   0  0  0  0  0  0
  -16.5353  -29.9115   23.6327 C   0  0  0  0  0  0
  -16.7258  -28.6519   23.0355 C   0  0  0  0  0  0
  -26.4461  -31.6644   25.0815 C   0  0  0  0  0  0
  -25.3648  -31.3828   26.1518 C   0  0  0  0  0  0
  -27.0335  -30.3083   24.6373 C   0  0  0  0  0  0
  -27.6004  -32.4445   25.7545 C   0  0  0  0  0  0
  -27.5609  -37.1763   24.8441 C   0  0  0  0  0  0
  -21.4273  -29.3031   22.3646 N   0  0  0  0  0  0
  -26.4285  -37.3810   23.9441 N   0  0  0  0  0  0
  -24.7100  -31.0430   22.0999 N   0  0  0  0  0  0
  -23.4239  -28.8053   23.3001 O   0  0  0  0  0  0
  -28.3022  -26.3224   20.2163 O   0  0  0  0  0  0
  -26.5651  -34.8904   22.4704 O   0  0  0  0  0  0
  -23.5468  -32.1352   23.7208 O   0  0  0  0  0  0
  -30.8202  -21.4755   21.0631 C   0  0  0  0  0  0
  -31.5720  -20.4070   21.5993 C   0  0  0  0  0  0
  -29.4506  -19.8426   19.9051 C   0  0  0  0  0  0
  -29.7136  -21.2419   20.2253 C   0  0  0  0  0  0
  -30.2251  -18.7169   20.4178 C   0  0  0  0  0  0
  -31.2817  -19.0577   21.2972 C   0  0  0  0  0  0
  -28.4224  -25.0614   19.4691 C   0  0  0  0  0  0
  -28.8147  -23.9203   21.6896 C   0  0  0  0  0  0
  -28.9508  -22.4925   19.5702 C   0  0  0  0  0  0
  -30.1297  -17.2273   19.8342 C   0  0  0  0  0  0
  -29.9247  -15.9158   20.6115 N   0  0  0  0  0  0
  -28.7942  -23.8807   20.2258 N   0  0  0  0  0  0
  -28.2061  -25.0319   18.2535 O   0  0  0  0  0  0
  -32.3099  -17.8393   21.9617 Cl  0  0  0  0  0  0
  -31.4674  -12.5257   19.2339 H   0  0  0  0  0  0
  -30.3253  -11.4679   20.0105 H   0  0  0  0  0  0
  -29.8090  -11.7230   17.5513 H   0  0  0  0  0  0
  -29.6646  -13.4561   17.7618 H   0  0  0  0  0  0
  -27.8824  -11.2939   18.9181 H   0  0  0  0  0  0
  -27.4006  -12.5377   17.7920 H   0  0  0  0  0  0
  -27.6276  -14.2591   19.4601 H   0  0  0  0  0  0
  -28.6918  -12.2179   21.4653 H   0  0  0  0  0  0
  -28.4079  -13.9130   21.7820 H   0  0  0  0  0  0
  -25.2745   -9.5723   22.4730 H   0  0  0  0  0  0
  -24.0010   -7.4654   22.7470 H   0  0  0  0  0  0
  -21.0829   -8.8708   19.8977 H   0  0  0  0  0  0
  -22.3615  -10.9625   19.6134 H   0  0  0  0  0  0
  -21.1996   -7.6127   23.9671 H   0  0  0  0  0  0
  -21.1533   -6.0518   25.9077 H   0  0  0  0  0  0
  -22.0589   -2.7567   23.2850 H   0  0  0  0  0  0
  -22.4130  -11.9877   22.4833 H   0  0  0  0  0  0
  -21.1068  -13.1172   22.2626 H   0  0  0  0  0  0
  -24.6390  -15.8469   20.4682 H   0  0  0  0  0  0
  -26.2569  -15.6266   20.0375 H   0  0  0  0  0  0
  -26.7208  -32.5336   23.1092 H   0  0  0  0  0  0
  -25.0001  -33.9741   25.0370 H   0  0  0  0  0  0
  -22.7373  -31.2941   21.4031 H   0  0  0  0  0  0
  -23.3798  -35.9552   23.3255 H   0  0  0  0  0  0
  -24.3543  -36.8935   22.2067 H   0  0  0  0  0  0
  -23.7124  -37.6411   23.6694 H   0  0  0  0  0  0
  -26.1609  -31.5155   20.6363 H   0  0  0  0  0  0
  -26.8545  -30.7696   22.0466 H   0  0  0  0  0  0
  -28.1366  -28.8971   21.1822 H   0  0  0  0  0  0
  -25.9094  -25.8781   19.0303 H   0  0  0  0  0  0
  -23.9682  -27.3042   19.0034 H   0  0  0  0  0  0
  -23.7869  -30.5913   19.4108 H   0  0  0  0  0  0
  -22.7723  -29.2495   19.8524 H   0  0  0  0  0  0
  -25.1283  -36.1962   25.0826 H   0  0  0  0  0  0
  -20.9927  -28.3225   24.1393 H   0  0  0  0  0  0
  -20.5592  -26.2300   23.3580 H   0  0  0  0  0  0
  -21.6638  -26.7386   22.1222 H   0  0  0  0  0  0
  -19.6940  -25.6270   21.1224 H   0  0  0  0  0  0
  -19.6755  -27.3138   20.6677 H   0  0  0  0  0  0
  -17.4203  -26.6615   21.3989 H   0  0  0  0  0  0
  -18.0383  -26.0113   22.9007 H   0  0  0  0  0  0
  -19.7940  -30.7249   24.2258 H   0  0  0  0  0  0
  -17.5037  -31.6276   24.5159 H   0  0  0  0  0  0
  -15.5357  -30.3020   23.7714 H   0  0  0  0  0  0
  -15.8625  -28.0837   22.7149 H   0  0  0  0  0  0
  -24.5697  -30.7377   25.7779 H   0  0  0  0  0  0
  -24.8980  -32.3013   26.5106 H   0  0  0  0  0  0
  -25.7862  -30.8795   27.0225 H   0  0  0  0  0  0
  -26.2967  -29.6831   24.1343 H   0  0  0  0  0  0
  -27.3928  -29.7384   25.4934 H   0  0  0  0  0  0
  -27.8869  -30.4383   23.9729 H   0  0  0  0  0  0
  -27.2593  -33.3689   26.2237 H   0  0  0  0  0  0
  -28.3704  -32.7150   25.0309 H   0  0  0  0  0  0
  -28.0843  -31.8569   26.5351 H   0  0  0  0  0  0
  -28.2559  -38.0146   24.7643 H   0  0  0  0  0  0
  -28.1179  -36.2671   24.6081 H   0  0  0  0  0  0
  -27.2329  -37.1168   25.8840 H   0  0  0  0  0  0
  -20.9518  -29.8773   21.6827 H   0  0  0  0  0  0
  -26.0173  -38.2871   24.1559 H   0  0  0  0  0  0
  -31.1286  -22.4903   21.2715 H   0  0  0  0  0  0
  -32.4252  -20.6321   22.2215 H   0  0  0  0  0  0
  -28.6746  -19.6260   19.1835 H   0  0  0  0  0  0
  -28.0655  -24.6011   22.0952 H   0  0  0  0  0  0
  -29.7951  -24.2325   22.0483 H   0  0  0  0  0  0
  -28.5898  -22.9422   22.1133 H   0  0  0  0  0  0
  -27.9594  -22.1528   19.2616 H   0  0  0  0  0  0
  -29.4913  -22.6720   18.6394 H   0  0  0  0  0  0
  -31.0710  -17.1138   19.2945 H   0  0  0  0  0  0
  -29.3770  -17.2389   19.0466 H   0  0  0  0  0  0
  -28.9990  -15.7962   20.9912 H   0  0  0  0  0  0
  1 25  1  0  0  0
  1 30  2  0  0  0
  1 81  1  0  0  0
  2  3  1  0  0  0
  2 25  1  0  0  0
  2 85  1  0  0  0
  2 86  1  0  0  0
  3  4  1  0  0  0
  3 87  1  0  0  0
  3 88  1  0  0  0
  4  5  1  0  0  0
  4 89  1  0  0  0
  4 90  1  0  0  0
  5  6  1  0  0  0
  5 26  1  0  0  0
  5 91  1  0  0  0
  6 25  1  0  0  0
  6 92  1  0  0  0
  6 93  1  0  0  0
  7  8  2  0  0  0
  7 26  1  0  0  0
  7 29  1  0  0  0
  8  9  1  0  0  0
  8 22  1  0  0  0
  9 10  1  0  0  0
  9 27  2  0  0  0
 10 11  2  0  0  0
 10 15  1  0  0  0
 11 12  1  0  0  0
 11 94  1  0  0  0
 12 13  2  0  0  0
 12 95  1  0  0  0
 13 14  1  0  0  0
 13 31  1  0  0  0
 14 15  2  0  0  0
 14 96  1  0  0  0
 15 97  1  0  0  0
 16 17  2  0  0  0
 16 21  1  0  0  0
 16 31  1  0  0  0
 17 18  1  0  0  0
 17 98  1  0  0  0
 18 19  2  0  0  0
 18 99  1  0  0  0
 19 20  1  0  0  0
 19 24  1  0  0  0
 20 21  2  0  0  0
 20100  1  0  0  0
 21 23  1  0  0  0
 22 28  1  0  0  0
 22 32  2  0  0  0
 26 27  1  0  0  0
 28101  1  0  0  0
 28102  1  0  0  0
 29103  1  0  0  0
 29104  1  0  0  0
 33 34  1  0  0  0
 33 66  1  0  0  0
 33 70  2  0  0  0
 34 36  1  0  0  0
 34 59  1  0  0  0
 34105  1  0  0  0
 35 44  2  0  0  0
 35 45  1  0  0  0
 35 68  1  0  0  0
 36 56  1  0  0  0
 36106  1  0  0  0
 37 39  1  0  0  0
 37 47  1  0  0  0
 37 66  1  0  0  0
 37107  1  0  0  0
 38 43  2  0  0  0
 38 46  1  0  0  0
 38 47  1  0  0  0
 39 64  1  0  0  0
 39 67  2  0  0  0
 40 52  1  0  0  0
 40 53  2  0  0  0
 40 58  1  0  0  0
 41108  1  0  0  0
 41109  1  0  0  0
 41110  1  0  0  0
 41 48  1  0  0  0
 42 43  1  0  0  0
 42 66  1  0  0  0
 42111  1  0  0  0
 42112  1  0  0  0
 43 44  1  0  0  0
 44113  1  0  0  0
 45 46  2  0  0  0
 45114  1  0  0  0
 46115  1  0  0  0
 47116  1  0  0  0
 47117  1  0  0  0
 48 56  1  0  0  0
 48 65  1  0  0  0
 48118  1  0  0  0
 49 50  1  0  0  0
 49 53  1  0  0  0
 49 64  1  0  0  0
 49119  1  0  0  0
 50 51  1  0  0  0
 50120  1  0  0  0
 50121  1  0  0  0
 51 52  1  0  0  0
 51122  1  0  0  0
 51123  1  0  0  0
 52124  1  0  0  0
 52125  1  0  0  0
 53 54  1  0  0  0
 54 55  2  0  0  0
 54126  1  0  0  0
 55 57  1  0  0  0
 55127  1  0  0  0
 56 69  2  0  0  0
 57 58  2  0  0  0
 57128  1  0  0  0
 58129  1  0  0  0
 59 60  1  0  0  0
 59 61  1  0  0  0
 59 62  1  0  0  0
 60130  1  0  0  0
 60131  1  0  0  0
 60132  1  0  0  0
 61133  1  0  0  0
 61134  1  0  0  0
 61135  1  0  0  0
 62136  1  0  0  0
 62137  1  0  0  0
 62138  1  0  0  0
 63 65  1  0  0  0
 63139  1  0  0  0
 63140  1  0  0  0
 63141  1  0  0  0
 64142  1  0  0  0
 65143  1  0  0  0
 68 77  1  0  0  0
 71 72  2  0  0  0
 71 74  1  0  0  0
 71144  1  0  0  0
 72 76  1  0  0  0
 72145  1  0  0  0
 73 74  2  0  0  0
 73 75  1  0  0  0
 73146  1  0  0  0
 74 79  1  0  0  0
 75 76  2  0  0  0
 75 80  1  0  0  0
 76 84  1  0  0  0
 77 82  1  0  0  0
 77 83  2  0  0  0
 78 82  1  0  0  0
 78147  1  0  0  0
 78148  1  0  0  0
 78149  1  0  0  0
 79 82  1  0  0  0
 79150  1  0  0  0
 79151  1  0  0  0
 80 81  1  0  0  0
 80152  1  0  0  0
 80153  1  0  0  0
 81154  1  0  0  0
M  ISO  4   1 100  68 101  77 101  81 100
M  END
> <chiral flag>
0

> <version>
0

> <s_m_source_file>
/data/baiqing/PycharmProjects/Reinvent-master-3.2/result/LINK_invent/BTK/process_docking_weight1_custom_product_contain_oxygen_bond_distance_aromatic_linkinvent_7_9_3/rearranged_h_0030.sdf

> <i_m_source_file_index>
58

> <r_mmod_Potential_Energy-OPLS-2005>
194.914306640625

> <r_mmod_Stretch_Energy-OPLS-2005>
142.916839599609

> <r_mmod_Bend_Energy-OPLS-2005>
174.247039794922

> <r_mmod_Torsional_Energy-OPLS-2005>
236.136413574219

> <r_mmod_Improper_Torsional_Energy-OPLS-2005>
11.1998262405396

> <r_mmod_Van_der_Waal_Energy-OPLS-2005>
140.659713745117

> <r_mmod_Electrostatic_Energy-OPLS-2005>
-375.591552734375

> <r_mmod_Solvation_Energy-OPLS-2005>
-229.74609375

> <b_mmod_Minimization_Converged-OPLS-2005>
0

> <r_mmod_RMS_Derivative-OPLS-2005>
5.90550231933594

$$$$
58
                    3D
 Structure written by MMmdl.
159168  0  0  1  0            999 V2000
  -30.6343  -14.6594   20.4928 C   0  0  0  0  0  0
  -30.4270  -12.4083   19.4499 C   0  0  0  0  0  0
  -29.5003  -12.4983   18.2191 C   0  0  0  0  0  0
  -28.0249  -12.3356   18.6358 C   0  0  0  0  0  0
  -27.6435  -13.2223   19.8520 C   0  0  2  0  0  0
  -28.6884  -13.1134   20.9823 C   0  0  0  0  0  0
  -25.2521  -13.8181   20.5688 C   0  0  0  0  0  0
  -24.1802  -13.0438   20.9202 C   0  0  0  0  0  0
  -24.6377  -11.6911   20.8742 C   0  0  0  0  0  0
  -23.9053  -10.4290   21.0407 C   0  0  0  0  0  0
  -24.3612   -9.4207   21.9184 C   0  0  0  0  0  0
  -23.6291   -8.2240   22.0751 C   0  0  0  0  0  0
  -22.4274   -8.0276   21.3541 C   0  0  0  0  0  0
  -21.9906   -9.0247   20.4643 C   0  0  0  0  0  0
  -22.7229  -10.2130   20.3053 C   0  0  0  0  0  0
  -21.6853   -6.0731   22.5277 C   0  0  0  0  0  0
  -21.4014   -6.5638   23.8210 C   0  0  0  0  0  0
  -21.3660   -5.6792   24.9174 C   0  0  0  0  0  0
  -21.6045   -4.3054   24.7225 C   0  0  0  0  0  0
  -21.8820   -3.8143   23.4348 C   0  0  0  0  0  0
  -21.9194   -4.6959   22.3402 C   0  0  0  0  0  0
  -22.7826  -13.5226   21.1869 C   0  0  0  0  0  0
  -22.1662   -4.2143   21.0979 F   0  0  0  0  0  0
  -21.5631   -3.4537   25.7738 F   0  0  0  0  0  0
  -29.9931  -13.4516   20.4009 N   0  0  0  0  0  0
  -26.2938  -12.9371   20.3283 N   0  0  0  0  0  0
  -25.9303  -11.6522   20.5748 N   0  0  0  0  0  0
  -22.0475  -12.8211   22.0424 N   0  0  0  0  0  0
  -25.4223  -15.1902   20.4103 N   0  0  0  0  0  0
  -31.8217  -14.7653   20.1751 O   0  0  0  0  0  0
  -21.6639   -6.8874   21.4238 O   0  0  0  0  0  0
  -22.3508  -14.5529   20.6714 O   0  0  0  0  0  0
  -24.6262  -31.8575   23.1988 C   0  0  0  0  0  0
  -25.9108  -32.4766   23.8318 C   0  0  1  0  0  0
  -27.2289  -27.3117   20.1147 C   0  0  0  0  0  0
  -25.5927  -33.8567   24.2256 N   0  0  0  0  0  0
  -23.4187  -30.4790   21.5417 C   0  0  2  0  0  0
  -24.8619  -28.9243   20.1129 C   0  0  0  0  0  0
  -22.7468  -29.4610   22.4932 C   0  0  0  0  0  0
  -18.0284  -28.1385   22.8486 C   0  0  0  0  0  0
  -24.1490  -36.7277   23.2641 C   0  0  0  0  0  0
  -25.9579  -30.7889   21.3641 C   0  0  0  0  0  0
  -26.0295  -29.4140   20.7075 C   0  0  0  0  0  0
  -27.2113  -28.6202   20.6919 C   0  0  0  0  0  0
  -26.0266  -26.8532   19.5366 C   0  0  0  0  0  0
  -24.8618  -27.6493   19.5212 C   0  0  0  0  0  0
  -23.6311  -29.8068   20.1585 C   0  0  0  0  0  0
  -25.4116  -36.3074   24.0331 C   0  0  1  0  0  0
  -20.5886  -28.3678   23.1293 C   0  0  2  0  0  0
  -20.6773  -26.9401   22.5421 C   0  0  0  0  0  0
  -19.5754  -26.6382   21.5215 C   0  0  0  0  0  0
  -18.1929  -26.7930   22.1621 C   0  0  0  0  0  0
  -19.1539  -28.8848   23.2886 C   0  0  0  0  0  0
  -18.9461  -30.1450   23.8896 C   0  0  0  0  0  0
  -17.6461  -30.6590   24.0555 C   0  0  0  0  0  0
  -25.9053  -34.9446   23.5095 C   0  0  0  0  0  0
  -16.5349  -29.9087   23.6329 C   0  0  0  0  0  0
  -16.7273  -28.6507   23.0351 C   0  0  0  0  0  0
  -26.4496  -31.6590   25.0695 C   0  0  0  0  0  0
  -25.3732  -31.3727   26.1425 C   0  0  0  0  0  0
  -27.0333  -30.3019   24.6136 C   0  0  0  0  0  0
  -27.6055  -32.4324   25.7468 C   0  0  0  0  0  0
  -27.5579  -37.1793   24.8467 C   0  0  0  0  0  0
  -21.4183  -29.3031   22.3685 N   0  0  0  0  0  0
  -26.4289  -37.3773   23.9414 N   0  0  0  0  0  0
  -24.6868  -31.0590   22.0923 N   0  0  0  0  0  0
  -23.4197  -28.8157   23.3017 O   0  0  0  0  0  0
  -28.4067  -26.5528   20.1603 O   0  0  0  0  0  0
  -26.5618  -34.8919   22.4659 O   0  0  0  0  0  0
  -23.5429  -32.1367   23.7330 O   0  0  0  0  0  0
  -30.5502  -19.2613   19.6808 C   0  0  0  0  0  0
  -28.4338  -20.5823   20.9136 C   0  0  0  0  0  0
  -30.2704  -20.6267   19.3665 C   0  0  0  0  0  0
  -29.8195  -18.5161   20.6364 C   0  0  0  0  0  0
  -29.1853  -21.3436   19.9729 C   0  0  0  0  0  0
  -28.7341  -19.2169   21.2399 C   0  0  0  0  0  0
  -28.3165  -24.6843   18.2925 C   0  0  0  0  0  0
  -28.7347  -23.1912   18.2645 C   0  0  0  0  0  0
  -28.4237  -23.8298   20.5458 C   0  0  0  0  0  0
  -28.6454  -25.1532   19.7156 C   0  0  2  0  0  0
  -31.2485  -21.3015   18.4184 C   0  0  0  0  0  0
  -30.3992  -17.1378   21.1584 C   0  0  0  0  0  0
  -28.8699  -22.7233   19.6518 N   0  0  0  0  0  0
  -29.8805  -15.7725   20.7809 N   0  0  0  0  0  0
  -27.7763  -18.4302   22.4435 Cl  0  0  0  0  0  0
  -31.4681  -12.5293   19.1456 H   0  0  0  0  0  0
  -30.3623  -11.4220   19.9119 H   0  0  0  0  0  0
  -29.7682  -11.7349   17.4873 H   0  0  0  0  0  0
  -29.6382  -13.4605   17.7228 H   0  0  0  0  0  0
  -27.8683  -11.2848   18.8827 H   0  0  0  0  0  0
  -27.3675  -12.5487   17.7919 H   0  0  0  0  0  0
  -27.6511  -14.2515   19.4926 H   0  0  0  0  0  0
  -28.7081  -12.1039   21.3957 H   0  0  0  0  0  0
  -28.4358  -13.7760   21.8115 H   0  0  0  0  0  0
  -25.2760   -9.5685   22.4755 H   0  0  0  0  0  0
  -24.0002   -7.4631   22.7467 H   0  0  0  0  0  0
  -21.0841   -8.8761   19.8947 H   0  0  0  0  0  0
  -22.3686  -10.9666   19.6157 H   0  0  0  0  0  0
  -21.2003   -7.6145   23.9711 H   0  0  0  0  0  0
  -21.1484   -6.0522   25.9078 H   0  0  0  0  0  0
  -22.0599   -2.7603   23.2847 H   0  0  0  0  0  0
  -22.4102  -11.9873   22.4807 H   0  0  0  0  0  0
  -21.1088  -13.1224   22.2627 H   0  0  0  0  0  0
  -24.6574  -15.8447   20.5315 H   0  0  0  0  0  0
  -26.2711  -15.6333   20.0837 H   0  0  0  0  0  0
  -26.7170  -32.5420   23.1057 H   0  0  0  0  0  0
  -25.0104  -33.9708   25.0422 H   0  0  0  0  0  0
  -22.7128  -31.2992   21.3960 H   0  0  0  0  0  0
  -23.3760  -35.9604   23.3307 H   0  0  0  0  0  0
  -24.3588  -36.8890   22.2057 H   0  0  0  0  0  0
  -23.7231  -37.6475   23.6658 H   0  0  0  0  0  0
  -26.0872  -31.5517   20.5954 H   0  0  0  0  0  0
  -26.8402  -30.8386   21.9911 H   0  0  0  0  0  0
  -28.1135  -28.9996   21.1505 H   0  0  0  0  0  0
  -25.9455  -25.8641   19.1238 H   0  0  0  0  0  0
  -23.9581  -27.2585   19.0741 H   0  0  0  0  0  0
  -23.7514  -30.5798   19.3986 H   0  0  0  0  0  0
  -22.7505  -29.2361   19.8583 H   0  0  0  0  0  0
  -25.1303  -36.1919   25.0825 H   0  0  0  0  0  0
  -20.9978  -28.3247   24.1414 H   0  0  0  0  0  0
  -20.5666  -26.2282   23.3617 H   0  0  0  0  0  0
  -21.6640  -26.7435   22.1207 H   0  0  0  0  0  0
  -19.6912  -25.6295   21.1236 H   0  0  0  0  0  0
  -19.6700  -27.3193   20.6744 H   0  0  0  0  0  0
  -17.4205  -26.6685   21.4016 H   0  0  0  0  0  0
  -18.0320  -26.0072   22.9016 H   0  0  0  0  0  0
  -19.7936  -30.7262   24.2271 H   0  0  0  0  0  0
  -17.5018  -31.6266   24.5159 H   0  0  0  0  0  0
  -15.5347  -30.2986   23.7659 H   0  0  0  0  0  0
  -15.8674  -28.0822   22.7070 H   0  0  0  0  0  0
  -24.5921  -30.7056   25.7760 H   0  0  0  0  0  0
  -24.8902  -32.2889   26.4830 H   0  0  0  0  0  0
  -25.8067  -30.8929   27.0208 H   0  0  0  0  0  0
  -26.2892  -29.6769   24.1182 H   0  0  0  0  0  0
  -27.4069  -29.7280   25.4624 H   0  0  0  0  0  0
  -27.8748  -30.4322   23.9325 H   0  0  0  0  0  0
  -27.2674  -33.3632   26.2033 H   0  0  0  0  0  0
  -28.3873  -32.6866   25.0301 H   0  0  0  0  0  0
  -28.0709  -31.8450   26.5392 H   0  0  0  0  0  0
  -28.2598  -38.0088   24.7518 H   0  0  0  0  0  0
  -28.1073  -36.2620   24.6293 H   0  0  0  0  0  0
  -27.2300  -37.1434   25.8870 H   0  0  0  0  0  0
  -20.9356  -29.8752   21.6896 H   0  0  0  0  0  0
  -26.0169  -38.2848   24.1422 H   0  0  0  0  0  0
  -31.4103  -18.7901   19.2256 H   0  0  0  0  0  0
  -27.6013  -21.0534   21.4146 H   0  0  0  0  0  0
  -27.2583  -24.7425   18.0608 H   0  0  0  0  0  0
  -28.8433  -25.2691   17.5379 H   0  0  0  0  0  0
  -29.6752  -23.1264   17.7257 H   0  0  0  0  0  0
  -28.0062  -22.5886   17.7197 H   0  0  0  0  0  0
  -27.3704  -23.7032   20.8002 H   0  0  0  0  0  0
  -28.9964  -23.8411   21.4745 H   0  0  0  0  0  0
  -29.7354  -25.2098   19.6949 H   0  0  0  0  0  0
  -32.2017  -20.7727   18.3898 H   0  0  0  0  0  0
  -31.4681  -22.3201   18.7387 H   0  0  0  0  0  0
  -30.8534  -21.3143   17.4030 H   0  0  0  0  0  0
  -30.3478  -17.1784   22.2467 H   0  0  0  0  0  0
  -31.4706  -17.1621   20.9550 H   0  0  0  0  0  0
  -28.8965  -15.6128   20.9324 H   0  0  0  0  0  0
  1 25  1  0  0  0
  1 30  2  0  0  0
  1 84  1  0  0  0
  2  3  1  0  0  0
  2 25  1  0  0  0
  2 86  1  0  0  0
  2 87  1  0  0  0
  3  4  1  0  0  0
  3 88  1  0  0  0
  3 89  1  0  0  0
  4  5  1  0  0  0
  4 90  1  0  0  0
  4 91  1  0  0  0
  5  6  1  0  0  0
  5 26  1  0  0  0
  5 92  1  0  0  0
  6 25  1  0  0  0
  6 93  1  0  0  0
  6 94  1  0  0  0
  7  8  2  0  0  0
  7 26  1  0  0  0
  7 29  1  0  0  0
  8  9  1  0  0  0
  8 22  1  0  0  0
  9 10  1  0  0  0
  9 27  2  0  0  0
 10 11  2  0  0  0
 10 15  1  0  0  0
 11 12  1  0  0  0
 11 95  1  0  0  0
 12 13  2  0  0  0
 12 96  1  0  0  0
 13 14  1  0  0  0
 13 31  1  0  0  0
 14 15  2  0  0  0
 14 97  1  0  0  0
 15 98  1  0  0  0
 16 17  2  0  0  0
 16 21  1  0  0  0
 16 31  1  0  0  0
 17 18  1  0  0  0
 17 99  1  0  0  0
 18 19  2  0  0  0
 18100  1  0  0  0
 19 20  1  0  0  0
 19 24  1  0  0  0
 20 21  2  0  0  0
 20101  1  0  0  0
 21 23  1  0  0  0
 22 28  1  0  0  0
 22 32  2  0  0  0
 26 27  1  0  0  0
 28102  1  0  0  0
 28103  1  0  0  0
 29104  1  0  0  0
 29105  1  0  0  0
 33 34  1  0  0  0
 33 66  1  0  0  0
 33 70  2  0  0  0
 34 36  1  0  0  0
 34 59  1  0  0  0
 34106  1  0  0  0
 35 44  2  0  0  0
 35 45  1  0  0  0
 35 68  1  0  0  0
 36 56  1  0  0  0
 36107  1  0  0  0
 37 39  1  0  0  0
 37 47  1  0  0  0
 37 66  1  0  0  0
 37108  1  0  0  0
 38 43  2  0  0  0
 38 46  1  0  0  0
 38 47  1  0  0  0
 39 64  1  0  0  0
 39 67  2  0  0  0
 40 52  1  0  0  0
 40 53  2  0  0  0
 40 58  1  0  0  0
 41109  1  0  0  0
 41110  1  0  0  0
 41111  1  0  0  0
 41 48  1  0  0  0
 42 43  1  0  0  0
 42 66  1  0  0  0
 42112  1  0  0  0
 42113  1  0  0  0
 43 44  1  0  0  0
 44114  1  0  0  0
 45 46  2  0  0  0
 45115  1  0  0  0
 46116  1  0  0  0
 47117  1  0  0  0
 47118  1  0  0  0
 48 56  1  0  0  0
 48 65  1  0  0  0
 48119  1  0  0  0
 49 50  1  0  0  0
 49 53  1  0  0  0
 49 64  1  0  0  0
 49120  1  0  0  0
 50 51  1  0  0  0
 50121  1  0  0  0
 50122  1  0  0  0
 51 52  1  0  0  0
 51123  1  0  0  0
 51124  1  0  0  0
 52125  1  0  0  0
 52126  1  0  0  0
 53 54  1  0  0  0
 54 55  2  0  0  0
 54127  1  0  0  0
 55 57  1  0  0  0
 55128  1  0  0  0
 56 69  2  0  0  0
 57 58  2  0  0  0
 57129  1  0  0  0
 58130  1  0  0  0
 59 60  1  0  0  0
 59 61  1  0  0  0
 59 62  1  0  0  0
 60131  1  0  0  0
 60132  1  0  0  0
 60133  1  0  0  0
 61134  1  0  0  0
 61135  1  0  0  0
 61136  1  0  0  0
 62137  1  0  0  0
 62138  1  0  0  0
 62139  1  0  0  0
 63 65  1  0  0  0
 63140  1  0  0  0
 63141  1  0  0  0
 63142  1  0  0  0
 64143  1  0  0  0
 65144  1  0  0  0
 68 80  1  0  0  0
 71 73  2  0  0  0
 71 74  1  0  0  0
 71145  1  0  0  0
 72 75  2  0  0  0
 72 76  1  0  0  0
 72146  1  0  0  0
 73 75  1  0  0  0
 73 81  1  0  0  0
 74 76  2  0  0  0
 74 82  1  0  0  0
 75 83  1  0  0  0
 76 85  1  0  0  0
 77 78  1  0  0  0
 77 80  1  0  0  0
 77147  1  0  0  0
 77148  1  0  0  0
 78 83  1  0  0  0
 78149  1  0  0  0
 78150  1  0  0  0
 79 80  1  0  0  0
 79 83  1  0  0  0
 79151  1  0  0  0
 79152  1  0  0  0
 80153  1  0  0  0
 81154  1  0  0  0
 81155  1  0  0  0
 81156  1  0  0  0
 82 84  1  0  0  0
 82157  1  0  0  0
 82158  1  0  0  0
 84159  1  0  0  0
M  ISO  4   1 100  68 101  80 101  84 100
M  END
> <chiral flag>
0

> <version>
0

> <s_m_source_file>
/data/baiqing/PycharmProjects/Reinvent-master-3.2/result/LINK_invent/BTK/process_docking_weight1_custom_product_contain_oxygen_bond_distance_aromatic_linkinvent_7_9_3/rearranged_h_0030.sdf

> <i_m_source_file_index>
59

> <r_mmod_Potential_Energy-OPLS-2005>
174.289413452148

> <r_mmod_Stretch_Energy-OPLS-2005>
83.9022674560547

> <r_mmod_Bend_Energy-OPLS-2005>
255.782196044922

> <r_mmod_Torsional_Energy-OPLS-2005>
262.586181640625

> <r_mmod_Improper_Torsional_Energy-OPLS-2005>
6.09814691543579

> <r_mmod_Van_der_Waal_Energy-OPLS-2005>
140.12890625

> <r_mmod_Electrostatic_Energy-OPLS-2005>
-410.924621582031

> <r_mmod_Solvation_Energy-OPLS-2005>
-214.468185424805

> <b_mmod_Minimization_Converged-OPLS-2005>
0

> <r_mmod_RMS_Derivative-OPLS-2005>
0.769906103610992

$$$$
59
                    3D
 Structure written by MMmdl.
157166  0  0  1  0            999 V2000
  -30.5852  -14.7212   20.4753 C   0  0  0  0  0  0
  -30.4434  -12.4401   19.4669 C   0  0  0  0  0  0
  -29.5139  -12.5172   18.2340 C   0  0  0  0  0  0
  -28.0383  -12.3407   18.6451 C   0  0  0  0  0  0
  -27.6500  -13.2237   19.8605 C   0  0  2  0  0  0
  -28.6941  -13.1113   20.9940 C   0  0  0  0  0  0
  -25.2547  -13.8180   20.5693 C   0  0  0  0  0  0
  -24.1821  -13.0436   20.9194 C   0  0  0  0  0  0
  -24.6401  -11.6910   20.8738 C   0  0  0  0  0  0
  -23.9071  -10.4291   21.0403 C   0  0  0  0  0  0
  -24.3620   -9.4207   21.9183 C   0  0  0  0  0  0
  -23.6292   -8.2243   22.0755 C   0  0  0  0  0  0
  -22.4275   -8.0282   21.3544 C   0  0  0  0  0  0
  -21.9911   -9.0256   20.4647 C   0  0  0  0  0  0
  -22.7241  -10.2134   20.3054 C   0  0  0  0  0  0
  -21.6854   -6.0735   22.5278 C   0  0  0  0  0  0
  -21.4015   -6.5639   23.8211 C   0  0  0  0  0  0
  -21.3659   -5.6792   24.9174 C   0  0  0  0  0  0
  -21.6044   -4.3055   24.7224 C   0  0  0  0  0  0
  -21.8819   -3.8147   23.4346 C   0  0  0  0  0  0
  -21.9193   -4.6963   22.3402 C   0  0  0  0  0  0
  -22.7842  -13.5226   21.1856 C   0  0  0  0  0  0
  -22.1661   -4.2149   21.0979 F   0  0  0  0  0  0
  -21.5629   -3.4539   25.7737 F   0  0  0  0  0  0
  -30.0017  -13.4755   20.4274 N   0  0  0  0  0  0
  -26.2976  -12.9373   20.3308 N   0  0  0  0  0  0
  -25.9332  -11.6522   20.5753 N   0  0  0  0  0  0
  -22.0487  -12.8217   22.0413 N   0  0  0  0  0  0
  -25.4250  -15.1904   20.4116 N   0  0  0  0  0  0
  -31.7524  -14.8782   20.1038 O   0  0  0  0  0  0
  -21.6639   -6.8879   21.4240 O   0  0  0  0  0  0
  -22.3527  -14.5533   20.6705 O   0  0  0  0  0  0
  -24.6305  -31.8556   23.1986 C   0  0  0  0  0  0
  -25.9133  -32.4757   23.8332 C   0  0  1  0  0  0
  -27.2228  -27.2735   20.1296 C   0  0  0  0  0  0
  -25.5933  -33.8559   24.2257 N   0  0  0  0  0  0
  -23.4269  -30.4777   21.5416 C   0  0  2  0  0  0
  -24.8752  -28.9252   20.1096 C   0  0  0  0  0  0
  -22.7499  -29.4602   22.4914 C   0  0  0  0  0  0
  -18.0289  -28.1388   22.8484 C   0  0  0  0  0  0
  -24.1490  -36.7283   23.2641 C   0  0  0  0  0  0
  -25.9717  -30.7724   21.3764 C   0  0  0  0  0  0
  -26.0460  -29.3959   20.7181 C   0  0  0  0  0  0
  -27.2239  -28.5835   20.7144 C   0  0  0  0  0  0
  -26.0327  -26.8702   19.4849 C   0  0  0  0  0  0
  -24.8735  -27.6705   19.4806 C   0  0  0  0  0  0
  -23.6448  -29.8105   20.1579 C   0  0  0  0  0  0
  -25.4117  -36.3070   24.0327 C   0  0  1  0  0  0
  -20.5892  -28.3697   23.1270 C   0  0  2  0  0  0
  -20.6778  -26.9415   22.5410 C   0  0  0  0  0  0
  -19.5755  -26.6383   21.5212 C   0  0  0  0  0  0
  -18.1933  -26.7930   22.1621 C   0  0  0  0  0  0
  -19.1543  -28.8860   23.2873 C   0  0  0  0  0  0
  -18.9465  -30.1459   23.8892 C   0  0  0  0  0  0
  -17.6465  -30.6589   24.0562 C   0  0  0  0  0  0
  -25.9056  -34.9441   23.5093 C   0  0  0  0  0  0
  -16.5355  -29.9086   23.6333 C   0  0  0  0  0  0
  -16.7275  -28.6504   23.0354 C   0  0  0  0  0  0
  -26.4504  -31.6583   25.0721 C   0  0  0  0  0  0
  -25.3728  -31.3735   26.1446 C   0  0  0  0  0  0
  -27.0350  -30.2999   24.6208 C   0  0  0  0  0  0
  -27.6059  -32.4325   25.7490 C   0  0  0  0  0  0
  -27.5577  -37.1797   24.8466 C   0  0  0  0  0  0
  -21.4206  -29.3045   22.3661 N   0  0  0  0  0  0
  -26.4290  -37.3769   23.9408 N   0  0  0  0  0  0
  -24.6954  -31.0529   22.0954 N   0  0  0  0  0  0
  -23.4202  -28.8144   23.3012 O   0  0  0  0  0  0
  -28.3183  -26.3837   20.1859 O   0  0  0  0  0  0
  -26.5627  -34.8916   22.4661 O   0  0  0  0  0  0
  -23.5458  -32.1370   23.7288 O   0  0  0  0  0  0
  -29.4790  -19.5576   21.5984 C   0  0  0  0  0  0
  -29.9327  -19.3342   19.2663 C   0  0  0  0  0  0
  -29.6804  -20.2219   20.3561 C   0  0  0  0  0  0
  -29.5345  -18.1276   21.7434 C   0  0  0  0  0  0
  -29.8310  -17.2476   20.6532 C   0  0  0  0  0  0
  -30.0033  -17.9051   19.3958 C   0  0  0  0  0  0
  -28.9904  -24.0425   21.2302 C   0  0  0  0  0  0
  -28.5142  -23.8620   19.2865 C   0  0  0  0  0  0
  -28.0472  -24.9110   20.3452 C   0  0  2  0  0  0
  -29.2774  -17.5365   23.1192 C   0  0  0  0  0  0
  -29.8618  -21.8093   20.2159 C   0  0  0  0  0  0
  -29.7677  -15.7750   20.8365 N   0  0  0  0  0  0
  -28.7373  -22.8474   20.3659 N   0  3  1  0  0  0
  -30.2524  -16.9805   17.9565 Cl  0  0  0  0  0  0
  -31.4828  -12.5787   19.1642 H   0  0  0  0  0  0
  -30.3953  -11.4515   19.9262 H   0  0  0  0  0  0
  -29.7919  -11.7567   17.5032 H   0  0  0  0  0  0
  -29.6425  -13.4804   17.7372 H   0  0  0  0  0  0
  -27.8889  -11.2889   18.8917 H   0  0  0  0  0  0
  -27.3819  -12.5504   17.7998 H   0  0  0  0  0  0
  -27.6576  -14.2536   19.5031 H   0  0  0  0  0  0
  -28.7235  -12.0958   21.3916 H   0  0  0  0  0  0
  -28.4272  -13.7527   21.8352 H   0  0  0  0  0  0
  -25.2767   -9.5681   22.4756 H   0  0  0  0  0  0
  -24.0001   -7.4635   22.7475 H   0  0  0  0  0  0
  -21.0842   -8.8775   19.8954 H   0  0  0  0  0  0
  -22.3701  -10.9672   19.6163 H   0  0  0  0  0  0
  -21.2008   -7.6147   23.9715 H   0  0  0  0  0  0
  -21.1481   -6.0522   25.9076 H   0  0  0  0  0  0
  -22.0599   -2.7609   23.2846 H   0  0  0  0  0  0
  -22.4101  -11.9875   22.4797 H   0  0  0  0  0  0
  -21.1106  -13.1241   22.2620 H   0  0  0  0  0  0
  -24.6558  -15.8425   20.5184 H   0  0  0  0  0  0
  -26.2707  -15.6306   20.0725 H   0  0  0  0  0  0
  -26.7201  -32.5412   23.1075 H   0  0  0  0  0  0
  -25.0089  -33.9700   25.0408 H   0  0  0  0  0  0
  -22.7231  -31.2996   21.3953 H   0  0  0  0  0  0
  -23.3753  -35.9615   23.3305 H   0  0  0  0  0  0
  -24.3579  -36.8902   22.2054 H   0  0  0  0  0  0
  -23.7245  -37.6486   23.6663 H   0  0  0  0  0  0
  -26.1095  -31.5338   20.6076 H   0  0  0  0  0  0
  -26.8496  -30.8211   22.0092 H   0  0  0  0  0  0
  -28.1201  -28.9382   21.2037 H   0  0  0  0  0  0
  -25.9803  -25.9125   18.9876 H   0  0  0  0  0  0
  -23.9792  -27.3074   18.9930 H   0  0  0  0  0  0
  -23.7679  -30.5865   19.4016 H   0  0  0  0  0  0
  -22.7637  -29.2426   19.8535 H   0  0  0  0  0  0
  -25.1300  -36.1916   25.0820 H   0  0  0  0  0  0
  -20.9982  -28.3277   24.1392 H   0  0  0  0  0  0
  -20.5674  -26.2310   23.3616 H   0  0  0  0  0  0
  -21.6647  -26.7439   22.1206 H   0  0  0  0  0  0
  -19.6919  -25.6292   21.1245 H   0  0  0  0  0  0
  -19.6694  -27.3192   20.6741 H   0  0  0  0  0  0
  -17.4204  -26.6678   21.4021 H   0  0  0  0  0  0
  -18.0332  -26.0070   22.9015 H   0  0  0  0  0  0
  -19.7942  -30.7277   24.2258 H   0  0  0  0  0  0
  -17.5020  -31.6269   24.5165 H   0  0  0  0  0  0
  -15.5356  -30.2988   23.7662 H   0  0  0  0  0  0
  -15.8673  -28.0822   22.7072 H   0  0  0  0  0  0
  -24.5912  -30.7069   25.7782 H   0  0  0  0  0  0
  -24.8910  -32.2906   26.4848 H   0  0  0  0  0  0
  -25.8050  -30.8937   27.0236 H   0  0  0  0  0  0
  -26.2933  -29.6741   24.1232 H   0  0  0  0  0  0
  -27.4031  -29.7268   25.4729 H   0  0  0  0  0  0
  -27.8811  -30.4272   23.9450 H   0  0  0  0  0  0
  -27.2674  -33.3641   26.2037 H   0  0  0  0  0  0
  -28.3884  -32.6857   25.0323 H   0  0  0  0  0  0
  -28.0711  -31.8467   26.5430 H   0  0  0  0  0  0
  -28.2598  -38.0091   24.7506 H   0  0  0  0  0  0
  -28.1068  -36.2621   24.6298 H   0  0  0  0  0  0
  -27.2295  -37.1454   25.8869 H   0  0  0  0  0  0
  -20.9391  -29.8768   21.6867 H   0  0  0  0  0  0
  -26.0167  -38.2843   24.1407 H   0  0  0  0  0  0
  -29.3069  -20.1628   22.4785 H   0  0  0  0  0  0
  -30.1128  -19.7563   18.2879 H   0  0  0  0  0  0
  -28.6523  -23.9149   22.2587 H   0  0  0  0  0  0
  -30.0284  -24.3811   21.2018 H   0  0  0  0  0  0
  -29.4332  -24.1556   18.7747 H   0  0  0  0  0  0
  -27.7453  -23.5718   18.5704 H   0  0  0  0  0  0
  -27.0167  -24.7247   20.6568 H   0  0  0  0  0  0
  -29.1767  -18.3113   23.8797 H   0  0  0  0  0  0
  -30.0992  -16.8846   23.4168 H   0  0  0  0  0  0
  -28.3578  -16.9507   23.1157 H   0  0  0  0  0  0
  -30.3362  -21.9891   19.2513 H   0  0  0  0  0  0
  -30.6320  -22.0731   20.9408 H   0  0  0  0  0  0
  -28.9112  -15.4594   21.2632 H   0  0  0  0  0  0
  -27.8695  -22.4041   20.6233 H   0  0  0  0  0  0
  1 25  1  0  0  0
  1 30  2  0  0  0
  1 82  1  0  0  0
  2  3  1  0  0  0
  2 25  1  0  0  0
  2 85  1  0  0  0
  2 86  1  0  0  0
  3  4  1  0  0  0
  3 87  1  0  0  0
  3 88  1  0  0  0
  4  5  1  0  0  0
  4 89  1  0  0  0
  4 90  1  0  0  0
  5  6  1  0  0  0
  5 26  1  0  0  0
  5 91  1  0  0  0
  6 25  1  0  0  0
  6 92  1  0  0  0
  6 93  1  0  0  0
  7  8  2  0  0  0
  7 26  1  0  0  0
  7 29  1  0  0  0
  8  9  1  0  0  0
  8 22  1  0  0  0
  9 10  1  0  0  0
  9 27  2  0  0  0
 10 11  2  0  0  0
 10 15  1  0  0  0
 11 12  1  0  0  0
 11 94  1  0  0  0
 12 13  2  0  0  0
 12 95  1  0  0  0
 13 14  1  0  0  0
 13 31  1  0  0  0
 14 15  2  0  0  0
 14 96  1  0  0  0
 15 97  1  0  0  0
 16 17  2  0  0  0
 16 21  1  0  0  0
 16 31  1  0  0  0
 17 18  1  0  0  0
 17 98  1  0  0  0
 18 19  2  0  0  0
 18 99  1  0  0  0
 19 20  1  0  0  0
 19 24  1  0  0  0
 20 21  2  0  0  0
 20100  1  0  0  0
 21 23  1  0  0  0
 22 28  1  0  0  0
 22 32  2  0  0  0
 26 27  1  0  0  0
 28101  1  0  0  0
 28102  1  0  0  0
 29103  1  0  0  0
 29104  1  0  0  0
 33 34  1  0  0  0
 33 66  1  0  0  0
 33 70  2  0  0  0
 34 36  1  0  0  0
 34 59  1  0  0  0
 34105  1  0  0  0
 35 44  2  0  0  0
 35 45  1  0  0  0
 35 68  1  0  0  0
 36 56  1  0  0  0
 36106  1  0  0  0
 37 39  1  0  0  0
 37 47  1  0  0  0
 37 66  1  0  0  0
 37107  1  0  0  0
 38 43  2  0  0  0
 38 46  1  0  0  0
 38 47  1  0  0  0
 39 64  1  0  0  0
 39 67  2  0  0  0
 40 52  1  0  0  0
 40 53  2  0  0  0
 40 58  1  0  0  0
 41108  1  0  0  0
 41109  1  0  0  0
 41110  1  0  0  0
 41 48  1  0  0  0
 42 43  1  0  0  0
 42 66  1  0  0  0
 42111  1  0  0  0
 42112  1  0  0  0
 43 44  1  0  0  0
 44113  1  0  0  0
 45 46  2  0  0  0
 45114  1  0  0  0
 46115  1  0  0  0
 47116  1  0  0  0
 47117  1  0  0  0
 48 56  1  0  0  0
 48 65  1  0  0  0
 48118  1  0  0  0
 49 50  1  0  0  0
 49 53  1  0  0  0
 49 64  1  0  0  0
 49119  1  0  0  0
 50 51  1  0  0  0
 50120  1  0  0  0
 50121  1  0  0  0
 51 52  1  0  0  0
 51122  1  0  0  0
 51123  1  0  0  0
 52124  1  0  0  0
 52125  1  0  0  0
 53 54  1  0  0  0
 54 55  2  0  0  0
 54126  1  0  0  0
 55 57  1  0  0  0
 55127  1  0  0  0
 56 69  2  0  0  0
 57 58  2  0  0  0
 57128  1  0  0  0
 58129  1  0  0  0
 59 60  1  0  0  0
 59 61  1  0  0  0
 59 62  1  0  0  0
 60130  1  0  0  0
 60131  1  0  0  0
 60132  1  0  0  0
 61133  1  0  0  0
 61134  1  0  0  0
 61135  1  0  0  0
 62136  1  0  0  0
 62137  1  0  0  0
 62138  1  0  0  0
 63 65  1  0  0  0
 63139  1  0  0  0
 63140  1  0  0  0
 63141  1  0  0  0
 64142  1  0  0  0
 65143  1  0  0  0
 68 79  1  0  0  0
 71 73  2  0  0  0
 71 74  1  0  0  0
 71144  1  0  0  0
 72 73  1  0  0  0
 72 76  2  0  0  0
 72145  1  0  0  0
 73 81  1  0  0  0
 74 75  2  0  0  0
 74 80  1  0  0  0
 75 76  1  0  0  0
 75 82  1  0  0  0
 76 84  1  0  0  0
 77 79  1  0  0  0
 77 83  1  0  0  0
 77146  1  0  0  0
 77147  1  0  0  0
 78 79  1  0  0  0
 78 83  1  0  0  0
 78148  1  0  0  0
 78149  1  0  0  0
 79150  1  0  0  0
 80151  1  0  0  0
 80152  1  0  0  0
 80153  1  0  0  0
 81154  1  0  0  0
 81155  1  0  0  0
 81 83  1  0  0  0
 82156  1  0  0  0
 83157  1  0  0  0
M  CHG  1  83   1
M  ISO  4   1 100  68 101  79 101  82 100
M  END
> <chiral flag>
0

> <version>
0

> <s_m_source_file>
/data/baiqing/PycharmProjects/Reinvent-master-3.2/result/LINK_invent/BTK/process_docking_weight1_custom_product_contain_oxygen_bond_distance_aromatic_linkinvent_7_9_3/rearranged_h_0030.sdf

> <i_m_source_file_index>
60

> <r_mmod_Potential_Energy-OPLS-2005>
-65.9589157104492

> <r_mmod_Stretch_Energy-OPLS-2005>
107.593765258789

> <r_mmod_Bend_Energy-OPLS-2005>
185.176803588867

> <r_mmod_Torsional_Energy-OPLS-2005>
256.247222900391

> <r_mmod_Improper_Torsional_Energy-OPLS-2005>
5.02852821350098

> <r_mmod_Van_der_Waal_Energy-OPLS-2005>
137.152069091797

> <r_mmod_Electrostatic_Energy-OPLS-2005>
-340.754608154297

> <r_mmod_Solvation_Energy-OPLS-2005>
-492.646179199219

> <b_mmod_Minimization_Converged-OPLS-2005>
0

> <r_mmod_RMS_Derivative-OPLS-2005>
0.269633084535599

$$$$
60
                    3D
 Structure written by MMmdl.
158167  0  0  1  0            999 V2000
  -30.6785  -14.5231   20.5301 C   0  0  0  0  0  0
  -30.4158  -12.3331   19.4150 C   0  0  0  0  0  0
  -29.4836  -12.4837   18.1935 C   0  0  0  0  0  0
  -28.0025  -12.3538   18.6113 C   0  0  0  0  0  0
  -27.6453  -13.2134   19.8539 C   0  0  2  0  0  0
  -28.6904  -13.0304   20.9756 C   0  0  0  0  0  0
  -25.2491  -13.8171   20.5653 C   0  0  0  0  0  0
  -24.1773  -13.0452   20.9195 C   0  0  0  0  0  0
  -24.6340  -11.6909   20.8752 C   0  0  0  0  0  0
  -23.9032  -10.4292   21.0420 C   0  0  0  0  0  0
  -24.3599   -9.4207   21.9202 C   0  0  0  0  0  0
  -23.6289   -8.2224   22.0772 C   0  0  0  0  0  0
  -22.4270   -8.0253   21.3558 C   0  0  0  0  0  0
  -21.9897   -9.0219   20.4653 C   0  0  0  0  0  0
  -22.7208  -10.2123   20.3065 C   0  0  0  0  0  0
  -21.6854   -6.0710   22.5278 C   0  0  0  0  0  0
  -21.4017   -6.5618   23.8214 C   0  0  0  0  0  0
  -21.3662   -5.6783   24.9176 C   0  0  0  0  0  0
  -21.6061   -4.3044   24.7247 C   0  0  0  0  0  0
  -21.8825   -3.8131   23.4375 C   0  0  0  0  0  0
  -21.9189   -4.6932   22.3418 C   0  0  0  0  0  0
  -22.7799  -13.5247   21.1880 C   0  0  0  0  0  0
  -22.1661   -4.2113   21.1006 F   0  0  0  0  0  0
  -21.5621   -3.4538   25.7771 F   0  0  0  0  0  0
  -30.0091  -13.3430   20.4068 N   0  0  0  0  0  0
  -26.2910  -12.9350   20.3259 N   0  0  0  0  0  0
  -25.9253  -11.6511   20.5741 N   0  0  0  0  0  0
  -22.0418  -12.8245   22.0431 N   0  0  0  0  0  0
  -25.4250  -15.1899   20.4064 N   0  0  0  0  0  0
  -31.8517  -14.6474   20.1775 O   0  0  0  0  0  0
  -21.6652   -6.8834   21.4232 O   0  0  0  0  0  0
  -22.3498  -14.5566   20.6720 O   0  0  0  0  0  0
  -24.6142  -31.8688   23.2113 C   0  0  0  0  0  0
  -25.9015  -32.4835   23.8433 C   0  0  1  0  0  0
  -27.2288  -27.4021   20.1053 C   0  0  0  0  0  0
  -25.5861  -33.8636   24.2352 N   0  0  0  0  0  0
  -23.4048  -30.4891   21.5508 C   0  0  2  0  0  0
  -24.8537  -28.9467   20.1202 C   0  0  0  0  0  0
  -22.7414  -29.4645   22.4999 C   0  0  0  0  0  0
  -18.0281  -28.1347   22.8503 C   0  0  0  0  0  0
  -24.1489  -36.7323   23.2643 C   0  0  0  0  0  0
  -25.9380  -30.8175   21.3761 C   0  0  0  0  0  0
  -26.0139  -29.4491   20.7219 C   0  0  0  0  0  0
  -27.2073  -28.6856   20.7069 C   0  0  0  0  0  0
  -26.0528  -26.9201   19.4981 C   0  0  0  0  0  0
  -24.8685  -27.6815   19.5056 C   0  0  0  0  0  0
  -23.6184  -29.8196   20.1669 C   0  0  0  0  0  0
  -25.4112  -36.3134   24.0355 C   0  0  1  0  0  0
  -20.5875  -28.3646   23.1323 C   0  0  2  0  0  0
  -20.6762  -26.9378   22.5414 C   0  0  0  0  0  0
  -19.5736  -26.6364   21.5219 C   0  0  0  0  0  0
  -18.1928  -26.7894   22.1644 C   0  0  0  0  0  0
  -19.1525  -28.8819   23.2909 C   0  0  0  0  0  0
  -18.9451  -30.1435   23.8899 C   0  0  0  0  0  0
  -17.6449  -30.6562   24.0559 C   0  0  0  0  0  0
  -25.9032  -34.9488   23.5160 C   0  0  0  0  0  0
  -16.5345  -29.9057   23.6321 C   0  0  0  0  0  0
  -16.7268  -28.6471   23.0348 C   0  0  0  0  0  0
  -26.4443  -31.6617   25.0762 C   0  0  0  0  0  0
  -25.3700  -31.3693   26.1505 C   0  0  0  0  0  0
  -27.0281  -30.3059   24.6157 C   0  0  0  0  0  0
  -27.6024  -32.4352   25.7488 C   0  0  0  0  0  0
  -27.5597  -37.1829   24.8467 C   0  0  0  0  0  0
  -21.4140  -29.3022   22.3733 N   0  0  0  0  0  0
  -26.4310  -37.3808   23.9403 N   0  0  0  0  0  0
  -24.6693  -31.0758   22.1022 N   0  0  0  0  0  0
  -23.4187  -28.8176   23.3038 O   0  0  0  0  0  0
  -28.3957  -26.6705   20.0152 O   0  0  0  0  0  0
  -26.5602  -34.8922   22.4727 O   0  0  0  0  0  0
  -23.5317  -32.1456   23.7484 O   0  0  0  0  0  0
  -29.3170  -20.5205   18.8684 C   0  0  0  0  0  0
  -29.9827  -19.4459   18.2516 C   0  0  0  0  0  0
  -29.2917  -19.2646   20.9526 C   0  0  0  0  0  0
  -28.9669  -20.4525   20.2311 C   0  0  0  0  0  0
  -29.9677  -18.1623   20.3426 C   0  0  0  0  0  0
  -30.3041  -18.2769   18.9686 C   0  0  0  0  0  0
  -29.9268  -23.4840   20.8394 C   0  0  0  0  0  0
  -29.9819  -24.9987   20.7272 C   0  0  0  0  0  0
  -27.7886  -24.1345   20.2500 C   0  0  0  0  0  0
  -28.5095  -25.4254   20.7468 C   0  0  2  0  0  0
  -28.2311  -21.6424   20.8940 C   0  0  0  0  0  0
  -30.4557  -16.9614   21.2000 C   0  0  0  0  0  0
  -28.6999  -23.0164   20.5733 N   0  0  0  0  0  0
  -29.9432  -15.5959   20.9137 N   0  0  0  0  0  0
  -30.9043  -22.8114   21.1748 O   0  0  0  0  0  0
  -31.1602  -17.0347   18.1313 Cl  0  0  0  0  0  0
  -31.4589  -12.4343   19.1093 H   0  0  0  0  0  0
  -30.3270  -11.3326   19.8381 H   0  0  0  0  0  0
  -29.7228  -11.7245   17.4465 H   0  0  0  0  0  0
  -29.6470  -13.4461   17.7095 H   0  0  0  0  0  0
  -27.8131  -11.3022   18.8230 H   0  0  0  0  0  0
  -27.3470  -12.6121   17.7777 H   0  0  0  0  0  0
  -27.6753  -14.2544   19.5310 H   0  0  0  0  0  0
  -28.6814  -12.0001   21.3333 H   0  0  0  0  0  0
  -28.4516  -13.6514   21.8420 H   0  0  0  0  0  0
  -25.2737   -9.5716   22.4775 H   0  0  0  0  0  0
  -24.0017   -7.4638   22.7508 H   0  0  0  0  0  0
  -21.0811   -8.8715   19.8979 H   0  0  0  0  0  0
  -22.3634  -10.9643   19.6164 H   0  0  0  0  0  0
  -21.2024   -7.6129   23.9706 H   0  0  0  0  0  0
  -21.1479   -6.0514   25.9079 H   0  0  0  0  0  0
  -22.0610   -2.7590   23.2897 H   0  0  0  0  0  0
  -22.3965  -11.9902   22.4878 H   0  0  0  0  0  0
  -21.1027  -13.1286   22.2582 H   0  0  0  0  0  0
  -26.2809  -15.6251   20.0869 H   0  0  0  0  0  0
  -24.6586  -15.8469   20.5097 H   0  0  0  0  0  0
  -26.7074  -32.5538   23.1182 H   0  0  0  0  0  0
  -25.0006  -33.9816   25.0496 H   0  0  0  0  0  0
  -22.6942  -31.3072   21.4083 H   0  0  0  0  0  0
  -23.3770  -35.9642   23.3314 H   0  0  0  0  0  0
  -24.3581  -36.8926   22.2058 H   0  0  0  0  0  0
  -23.7235  -37.6525   23.6648 H   0  0  0  0  0  0
  -26.0704  -31.5874   20.6140 H   0  0  0  0  0  0
  -26.8188  -30.8637   22.0040 H   0  0  0  0  0  0
  -28.1096  -29.0752   21.1566 H   0  0  0  0  0  0
  -26.0559  -25.9668   18.9918 H   0  0  0  0  0  0
  -23.9790  -27.2926   19.0277 H   0  0  0  0  0  0
  -23.7328  -30.5943   19.4090 H   0  0  0  0  0  0
  -22.7419  -29.2433   19.8671 H   0  0  0  0  0  0
  -25.1293  -36.2019   25.0856 H   0  0  0  0  0  0
  -20.9984  -28.3190   24.1441 H   0  0  0  0  0  0
  -20.5681  -26.2243   23.3595 H   0  0  0  0  0  0
  -21.6626  -26.7415   22.1198 H   0  0  0  0  0  0
  -19.6883  -25.6282   21.1230 H   0  0  0  0  0  0
  -19.6654  -27.3187   20.6759 H   0  0  0  0  0  0
  -17.4189  -26.6657   21.4048 H   0  0  0  0  0  0
  -18.0318  -26.0030   22.9032 H   0  0  0  0  0  0
  -19.7923  -30.7258   24.2258 H   0  0  0  0  0  0
  -17.4992  -31.6235   24.5152 H   0  0  0  0  0  0
  -15.5339  -30.2940   23.7634 H   0  0  0  0  0  0
  -15.8681  -28.0778   22.7055 H   0  0  0  0  0  0
  -24.5869  -30.7048   25.7834 H   0  0  0  0  0  0
  -24.8883  -32.2822   26.5015 H   0  0  0  0  0  0
  -25.8056  -30.8812   27.0236 H   0  0  0  0  0  0
  -26.2832  -29.6822   24.1187 H   0  0  0  0  0  0
  -27.4020  -29.7295   25.4639 H   0  0  0  0  0  0
  -27.8690  -30.4396   23.9341 H   0  0  0  0  0  0
  -27.2649  -33.3637   26.2107 H   0  0  0  0  0  0
  -28.3767  -32.6958   25.0256 H   0  0  0  0  0  0
  -28.0763  -31.8463   26.5347 H   0  0  0  0  0  0
  -28.2628  -38.0117   24.7515 H   0  0  0  0  0  0
  -28.1083  -36.2652   24.6290 H   0  0  0  0  0  0
  -27.2310  -37.1476   25.8869 H   0  0  0  0  0  0
  -20.9293  -29.8758   21.6971 H   0  0  0  0  0  0
  -26.0213  -38.2902   24.1357 H   0  0  0  0  0  0
  -29.0813  -21.4031   18.2854 H   0  0  0  0  0  0
  -30.2742  -19.5251   17.2147 H   0  0  0  0  0  0
  -29.0471  -19.2113   22.0054 H   0  0  0  0  0  0
  -30.4526  -25.2522   19.7782 H   0  0  0  0  0  0
  -30.5640  -25.4402   21.5365 H   0  0  0  0  0  0
  -27.6399  -24.1618   19.1704 H   0  0  0  0  0  0
  -26.8142  -24.0110   20.7231 H   0  0  0  0  0  0
  -28.2183  -25.6037   21.7845 H   0  0  0  0  0  0
  -28.2779  -21.5248   21.9781 H   0  0  0  0  0  0
  -27.1745  -21.5644   20.6356 H   0  0  0  0  0  0
  -31.5468  -16.9593   21.1405 H   0  0  0  0  0  0
  -30.2424  -17.1719   22.2496 H   0  0  0  0  0  0
  -28.9686  -15.4279   21.1115 H   0  0  0  0  0  0
  1 25  1  0  0  0
  1 30  2  0  0  0
  1 84  1  0  0  0
  2  3  1  0  0  0
  2 25  1  0  0  0
  2 87  1  0  0  0
  2 88  1  0  0  0
  3  4  1  0  0  0
  3 89  1  0  0  0
  3 90  1  0  0  0
  4  5  1  0  0  0
  4 91  1  0  0  0
  4 92  1  0  0  0
  5  6  1  0  0  0
  5 26  1  0  0  0
  5 93  1  0  0  0
  6 25  1  0  0  0
  6 94  1  0  0  0
  6 95  1  0  0  0
  7  8  2  0  0  0
  7 26  1  0  0  0
  7 29  1  0  0  0
  8  9  1  0  0  0
  8 22  1  0  0  0
  9 10  1  0  0  0
  9 27  2  0  0  0
 10 11  2  0  0  0
 10 15  1  0  0  0
 11 12  1  0  0  0
 11 96  1  0  0  0
 12 13  2  0  0  0
 12 97  1  0  0  0
 13 14  1  0  0  0
 13 31  1  0  0  0
 14 15  2  0  0  0
 14 98  1  0  0  0
 15 99  1  0  0  0
 16 17  2  0  0  0
 16 21  1  0  0  0
 16 31  1  0  0  0
 17 18  1  0  0  0
 17100  1  0  0  0
 18 19  2  0  0  0
 18101  1  0  0  0
 19 20  1  0  0  0
 19 24  1  0  0  0
 20 21  2  0  0  0
 20102  1  0  0  0
 21 23  1  0  0  0
 22 28  1  0  0  0
 22 32  2  0  0  0
 26 27  1  0  0  0
 28103  1  0  0  0
 28104  1  0  0  0
 29105  1  0  0  0
 29106  1  0  0  0
 33 34  1  0  0  0
 33 66  1  0  0  0
 33 70  2  0  0  0
 34 36  1  0  0  0
 34 59  1  0  0  0
 34107  1  0  0  0
 35 44  2  0  0  0
 35 45  1  0  0  0
 35 68  1  0  0  0
 36 56  1  0  0  0
 36108  1  0  0  0
 37 39  1  0  0  0
 37 47  1  0  0  0
 37 66  1  0  0  0
 37109  1  0  0  0
 38 43  2  0  0  0
 38 46  1  0  0  0
 38 47  1  0  0  0
 39 64  1  0  0  0
 39 67  2  0  0  0
 40 52  1  0  0  0
 40 53  2  0  0  0
 40 58  1  0  0  0
 41110  1  0  0  0
 41111  1  0  0  0
 41112  1  0  0  0
 41 48  1  0  0  0
 42 43  1  0  0  0
 42 66  1  0  0  0
 42113  1  0  0  0
 42114  1  0  0  0
 43 44  1  0  0  0
 44115  1  0  0  0
 45 46  2  0  0  0
 45116  1  0  0  0
 46117  1  0  0  0
 47118  1  0  0  0
 47119  1  0  0  0
 48 56  1  0  0  0
 48 65  1  0  0  0
 48120  1  0  0  0
 49 50  1  0  0  0
 49 53  1  0  0  0
 49 64  1  0  0  0
 49121  1  0  0  0
 50 51  1  0  0  0
 50122  1  0  0  0
 50123  1  0  0  0
 51 52  1  0  0  0
 51124  1  0  0  0
 51125  1  0  0  0
 52126  1  0  0  0
 52127  1  0  0  0
 53 54  1  0  0  0
 54 55  2  0  0  0
 54128  1  0  0  0
 55 57  1  0  0  0
 55129  1  0  0  0
 56 69  2  0  0  0
 57 58  2  0  0  0
 57130  1  0  0  0
 58131  1  0  0  0
 59 60  1  0  0  0
 59 61  1  0  0  0
 59 62  1  0  0  0
 60132  1  0  0  0
 60133  1  0  0  0
 60134  1  0  0  0
 61135  1  0  0  0
 61136  1  0  0  0
 61137  1  0  0  0
 62138  1  0  0  0
 62139  1  0  0  0
 62140  1  0  0  0
 63 65  1  0  0  0
 63141  1  0  0  0
 63142  1  0  0  0
 63143  1  0  0  0
 64144  1  0  0  0
 65145  1  0  0  0
 68 80  1  0  0  0
 71 72  2  0  0  0
 71 74  1  0  0  0
 71146  1  0  0  0
 72 76  1  0  0  0
 72147  1  0  0  0
 73 74  2  0  0  0
 73 75  1  0  0  0
 73148  1  0  0  0
 74 81  1  0  0  0
 75 76  2  0  0  0
 75 82  1  0  0  0
 76 86  1  0  0  0
 77 78  1  0  0  0
 77 83  1  0  0  0
 77 85  2  0  0  0
 78 80  1  0  0  0
 78149  1  0  0  0
 78150  1  0  0  0
 79 80  1  0  0  0
 79 83  1  0  0  0
 79151  1  0  0  0
 79152  1  0  0  0
 80153  1  0  0  0
 81 83  1  0  0  0
 81154  1  0  0  0
 81155  1  0  0  0
 82 84  1  0  0  0
 82156  1  0  0  0
 82157  1  0  0  0
 84158  1  0  0  0
M  ISO  4   1 100  68 101  80 101  84 100
M  END
> <chiral flag>
0

> <version>
0

> <s_m_source_file>
/data/baiqing/PycharmProjects/Reinvent-master-3.2/result/LINK_invent/BTK/process_docking_weight1_custom_product_contain_oxygen_bond_distance_aromatic_linkinvent_7_9_3/rearranged_h_0030.sdf

> <i_m_source_file_index>
61

> <r_mmod_Potential_Energy-OPLS-2005>
-50.5199813842773

> <r_mmod_Stretch_Energy-OPLS-2005>
48.80859375

> <r_mmod_Bend_Energy-OPLS-2005>
139.45133972168

> <r_mmod_Torsional_Energy-OPLS-2005>
246.101425170898

> <r_mmod_Improper_Torsional_Energy-OPLS-2005>
4.79185676574707

> <r_mmod_Van_der_Waal_Energy-OPLS-2005>
132.546005249023

> <r_mmod_Electrostatic_Energy-OPLS-2005>
-404.601715087891

> <r_mmod_Solvation_Energy-OPLS-2005>
-238.255752563477

> <b_mmod_Minimization_Converged-OPLS-2005>
0

> <r_mmod_RMS_Derivative-OPLS-2005>
3.71324896812439

$$$$
61
                    3D
 Structure written by MMmdl.
164173  0  0  1  0            999 V2000
  -30.5427  -14.8494   20.3892 C   0  0  0  0  0  0
  -30.4506  -12.4960   19.5068 C   0  0  0  0  0  0
  -29.5301  -12.4494   18.2636 C   0  0  0  0  0  0
  -28.0453  -12.3183   18.6652 C   0  0  0  0  0  0
  -27.6451  -13.2149   19.8687 C   0  0  2  0  0  0
  -28.6938  -13.1896   20.9983 C   0  0  0  0  0  0
  -25.2556  -13.8160   20.5734 C   0  0  0  0  0  0
  -24.1824  -13.0425   20.9202 C   0  0  0  0  0  0
  -24.6395  -11.6901   20.8775 C   0  0  0  0  0  0
  -23.9071  -10.4286   21.0406 C   0  0  0  0  0  0
  -24.3617   -9.4199   21.9179 C   0  0  0  0  0  0
  -23.6302   -8.2234   22.0734 C   0  0  0  0  0  0
  -22.4283   -8.0277   21.3530 C   0  0  0  0  0  0
  -21.9920   -9.0259   20.4633 C   0  0  0  0  0  0
  -22.7248  -10.2135   20.3048 C   0  0  0  0  0  0
  -21.6862   -6.0744   22.5281 C   0  0  0  0  0  0
  -21.4019   -6.5646   23.8217 C   0  0  0  0  0  0
  -21.3648   -5.6789   24.9174 C   0  0  0  0  0  0
  -21.6042   -4.3057   24.7208 C   0  0  0  0  0  0
  -21.8827   -3.8152   23.4334 C   0  0  0  0  0  0
  -21.9196   -4.6972   22.3392 C   0  0  0  0  0  0
  -22.7841  -13.5217   21.1837 C   0  0  0  0  0  0
  -22.1654   -4.2161   21.0969 F   0  0  0  0  0  0
  -21.5621   -3.4536   25.7720 F   0  0  0  0  0  0
  -29.9785  -13.5825   20.4034 N   0  0  0  0  0  0
  -26.2975  -12.9314   20.3425 N   0  0  0  0  0  0
  -25.9337  -11.6484   20.5866 N   0  0  0  0  0  0
  -22.0497  -12.8206   22.0395 N   0  0  0  0  0  0
  -25.4268  -15.1885   20.4134 N   0  0  0  0  0  0
  -31.7209  -14.9687   20.0379 O   0  0  0  0  0  0
  -21.6629   -6.8889   21.4249 O   0  0  0  0  0  0
  -22.3535  -14.5525   20.6691 O   0  0  0  0  0  0
  -24.6314  -31.8501   23.1910 C   0  0  0  0  0  0
  -25.9123  -32.4725   23.8275 C   0  0  1  0  0  0
  -27.2381  -27.2400   20.1382 C   0  0  0  0  0  0
  -25.5916  -33.8532   24.2210 N   0  0  0  0  0  0
  -23.4311  -30.4648   21.5328 C   0  0  2  0  0  0
  -24.8830  -28.8979   20.0993 C   0  0  0  0  0  0
  -22.7513  -29.4559   22.4895 C   0  0  0  0  0  0
  -18.0293  -28.1393   22.8490 C   0  0  0  0  0  0
  -24.1490  -36.7271   23.2644 C   0  0  0  0  0  0
  -25.9725  -30.7547   21.3719 C   0  0  0  0  0  0
  -26.0451  -29.3731   20.7161 C   0  0  0  0  0  0
  -27.2149  -28.5516   20.7281 C   0  0  0  0  0  0
  -26.0603  -26.8275   19.4820 C   0  0  0  0  0  0
  -24.8968  -27.6368   19.4704 C   0  0  0  0  0  0
  -23.6502  -29.7855   20.1504 C   0  0  0  0  0  0
  -25.4120  -36.3056   24.0326 C   0  0  1  0  0  0
  -20.5894  -28.3697   23.1280 C   0  0  2  0  0  0
  -20.6776  -26.9413   22.5423 C   0  0  0  0  0  0
  -19.5753  -26.6384   21.5224 C   0  0  0  0  0  0
  -18.1931  -26.7940   22.1628 C   0  0  0  0  0  0
  -19.1546  -28.8864   23.2877 C   0  0  0  0  0  0
  -18.9465  -30.1469   23.8889 C   0  0  0  0  0  0
  -17.6462  -30.6591   24.0563 C   0  0  0  0  0  0
  -25.9060  -34.9427   23.5077 C   0  0  0  0  0  0
  -16.5355  -29.9089   23.6333 C   0  0  0  0  0  0
  -16.7278  -28.6510   23.0349 C   0  0  0  0  0  0
  -26.4490  -31.6575   25.0685 C   0  0  0  0  0  0
  -25.3707  -31.3735   26.1405 C   0  0  0  0  0  0
  -27.0345  -30.2993   24.6187 C   0  0  0  0  0  0
  -27.6037  -32.4330   25.7462 C   0  0  0  0  0  0
  -27.5582  -37.1789   24.8464 C   0  0  0  0  0  0
  -21.4217  -29.3028   22.3654 N   0  0  0  0  0  0
  -26.4289  -37.3762   23.9414 N   0  0  0  0  0  0
  -24.6968  -31.0434   22.0887 N   0  0  0  0  0  0
  -23.4203  -28.8133   23.3027 O   0  0  0  0  0  0
  -28.3600  -26.3954   20.3118 O   0  0  0  0  0  0
  -26.5644  -34.8915   22.4655 O   0  0  0  0  0  0
  -23.5460  -32.1333   23.7198 O   0  0  0  0  0  0
  -28.5042  -19.7875   18.8134 C   0  0  0  0  0  0
  -28.2516  -18.5370   18.2377 C   0  0  0  0  0  0
  -29.3118  -19.9105   19.9517 C   0  0  0  0  0  0
  -28.7616  -17.3357   18.7699 C   0  0  0  0  0  0
  -29.7702  -18.6411   20.5629 C   0  0  0  0  0  0
  -29.4995  -17.3047   19.9936 C   0  0  0  0  0  0
  -30.1164  -23.6745   21.2129 C   0  0  0  0  0  0
  -30.7985  -23.5821   22.3671 C   0  0  0  0  0  0
  -30.1404  -24.8223   20.2066 C   0  0  0  0  0  0
  -28.1372  -23.5601   19.9768 C   0  0  0  0  0  0
  -28.7074  -25.0534   19.7025 C   0  0  1  0  0  0
  -28.4626  -16.1121   17.9309 C   0  0  0  0  0  0
  -30.6079  -18.7106   21.8269 C   0  0  0  0  0  0
  -29.8499  -21.4094   20.2008 C   0  0  0  0  0  0
  -29.7320  -15.9636   20.6612 N   0  0  0  0  0  0
  -29.1136  -22.6680   20.7613 N   0  3  1  0  0  0
  -31.4881  -12.6410   19.2005 H   0  0  0  0  0  0
  -30.4316  -11.5402   20.0338 H   0  0  0  0  0  0
  -29.8096  -11.6036   17.6348 H   0  0  0  0  0  0
  -29.6873  -13.3272   17.6421 H   0  0  0  0  0  0
  -27.8779  -11.2719   18.9235 H   0  0  0  0  0  0
  -27.4006  -12.5247   17.8094 H   0  0  0  0  0  0
  -27.6210  -14.2300   19.5015 H   0  0  0  0  0  0
  -28.7612  -12.1987   21.4503 H   0  0  0  0  0  0
  -28.4116  -13.8728   21.8007 H   0  0  0  0  0  0
  -25.2753   -9.5662   22.4768 H   0  0  0  0  0  0
  -24.0010   -7.4618   22.7449 H   0  0  0  0  0  0
  -21.0842   -8.8788   19.8947 H   0  0  0  0  0  0
  -22.3711  -10.9681   19.6157 H   0  0  0  0  0  0
  -21.2027   -7.6159   23.9725 H   0  0  0  0  0  0
  -21.1451   -6.0508   25.9076 H   0  0  0  0  0  0
  -22.0617   -2.7621   23.2817 H   0  0  0  0  0  0
  -22.4111  -11.9841   22.4741 H   0  0  0  0  0  0
  -21.1125  -13.1232   22.2635 H   0  0  0  0  0  0
  -24.6602  -15.8419   20.5283 H   0  0  0  0  0  0
  -26.2824  -15.6349   20.1100 H   0  0  0  0  0  0
  -26.7191  -32.5367   23.1014 H   0  0  0  0  0  0
  -25.0052  -33.9658   25.0349 H   0  0  0  0  0  0
  -22.7284  -31.2868   21.3803 H   0  0  0  0  0  0
  -23.3762  -35.9591   23.3287 H   0  0  0  0  0  0
  -24.3583  -36.8914   22.2062 H   0  0  0  0  0  0
  -23.7226  -37.6460   23.6681 H   0  0  0  0  0  0
  -26.1112  -31.5130   20.6001 H   0  0  0  0  0  0
  -26.8497  -30.8081   22.0054 H   0  0  0  0  0  0
  -28.0995  -28.9014   21.2409 H   0  0  0  0  0  0
  -26.0147  -25.8518   19.0196 H   0  0  0  0  0  0
  -24.0038  -27.2690   18.9840 H   0  0  0  0  0  0
  -23.7700  -30.5566   19.3883 H   0  0  0  0  0  0
  -22.7691  -29.2141   19.8527 H   0  0  0  0  0  0
  -25.1306  -36.1893   25.0819 H   0  0  0  0  0  0
  -20.9990  -28.3278   24.1401 H   0  0  0  0  0  0
  -20.5673  -26.2311   23.3631 H   0  0  0  0  0  0
  -21.6642  -26.7437   22.1215 H   0  0  0  0  0  0
  -19.6909  -25.6294   21.1258 H   0  0  0  0  0  0
  -19.6694  -27.3191   20.6752 H   0  0  0  0  0  0
  -17.4211  -26.6702   21.4020 H   0  0  0  0  0  0
  -18.0313  -26.0081   22.9020 H   0  0  0  0  0  0
  -19.7940  -30.7290   24.2252 H   0  0  0  0  0  0
  -17.5014  -31.6269   24.5173 H   0  0  0  0  0  0
  -15.5353  -30.2982   23.7663 H   0  0  0  0  0  0
  -15.8683  -28.0826   22.7060 H   0  0  0  0  0  0
  -24.5883  -30.7087   25.7728 H   0  0  0  0  0  0
  -24.8892  -32.2906   26.4812 H   0  0  0  0  0  0
  -25.8010  -30.8921   27.0195 H   0  0  0  0  0  0
  -26.2927  -29.6732   24.1214 H   0  0  0  0  0  0
  -27.4029  -29.7271   25.4712 H   0  0  0  0  0  0
  -27.8803  -30.4271   23.9427 H   0  0  0  0  0  0
  -27.2641  -33.3647   26.2004 H   0  0  0  0  0  0
  -28.3861  -32.6869   25.0295 H   0  0  0  0  0  0
  -28.0692  -31.8479   26.5405 H   0  0  0  0  0  0
  -28.2585  -38.0100   24.7532 H   0  0  0  0  0  0
  -28.1092  -36.2633   24.6262 H   0  0  0  0  0  0
  -27.2307  -37.1405   25.8867 H   0  0  0  0  0  0
  -20.9416  -29.8729   21.6832 H   0  0  0  0  0  0
  -26.0164  -38.2836   24.1416 H   0  0  0  0  0  0
  -28.1457  -20.6729   18.3058 H   0  0  0  0  0  0
  -27.6724  -18.5089   17.3252 H   0  0  0  0  0  0
  -31.4885  -24.3595   22.6626 H   0  0  0  0  0  0
  -30.6847  -22.7398   23.0346 H   0  0  0  0  0  0
  -30.7847  -24.5341   19.3753 H   0  0  0  0  0  0
  -30.5774  -25.7202   20.6456 H   0  0  0  0  0  0
  -27.9146  -23.0703   19.0291 H   0  0  0  0  0  0
  -27.1934  -23.6250   20.5171 H   0  0  0  0  0  0
  -28.7245  -25.2199   18.6244 H   0  0  0  0  0  0
  -28.6028  -16.3413   16.8741 H   0  0  0  0  0  0
  -27.4261  -15.8006   18.0542 H   0  0  0  0  0  0
  -29.1319  -15.2945   18.1502 H   0  0  0  0  0  0
  -31.6609  -18.8398   21.5747 H   0  0  0  0  0  0
  -30.5111  -17.8010   22.4186 H   0  0  0  0  0  0
  -30.2963  -19.5436   22.4569 H   0  0  0  0  0  0
  -30.2888  -21.7278   19.2536 H   0  0  0  0  0  0
  -30.7170  -21.2623   20.8442 H   0  0  0  0  0  0
  -28.9061  -15.6543   21.1497 H   0  0  0  0  0  0
  -28.6083  -22.3363   21.5696 H   0  0  0  0  0  0
  1 25  1  0  0  0
  1 30  2  0  0  0
  1 85  1  0  0  0
  2  3  1  0  0  0
  2 25  1  0  0  0
  2 87  1  0  0  0
  2 88  1  0  0  0
  3  4  1  0  0  0
  3 89  1  0  0  0
  3 90  1  0  0  0
  4  5  1  0  0  0
  4 91  1  0  0  0
  4 92  1  0  0  0
  5  6  1  0  0  0
  5 26  1  0  0  0
  5 93  1  0  0  0
  6 25  1  0  0  0
  6 94  1  0  0  0
  6 95  1  0  0  0
  7  8  2  0  0  0
  7 26  1  0  0  0
  7 29  1  0  0  0
  8  9  1  0  0  0
  8 22  1  0  0  0
  9 10  1  0  0  0
  9 27  2  0  0  0
 10 11  2  0  0  0
 10 15  1  0  0  0
 11 12  1  0  0  0
 11 96  1  0  0  0
 12 13  2  0  0  0
 12 97  1  0  0  0
 13 14  1  0  0  0
 13 31  1  0  0  0
 14 15  2  0  0  0
 14 98  1  0  0  0
 15 99  1  0  0  0
 16 17  2  0  0  0
 16 21  1  0  0  0
 16 31  1  0  0  0
 17 18  1  0  0  0
 17100  1  0  0  0
 18 19  2  0  0  0
 18101  1  0  0  0
 19 20  1  0  0  0
 19 24  1  0  0  0
 20 21  2  0  0  0
 20102  1  0  0  0
 21 23  1  0  0  0
 22 28  1  0  0  0
 22 32  2  0  0  0
 26 27  1  0  0  0
 28103  1  0  0  0
 28104  1  0  0  0
 29105  1  0  0  0
 29106  1  0  0  0
 33 34  1  0  0  0
 33 66  1  0  0  0
 33 70  2  0  0  0
 34 36  1  0  0  0
 34 59  1  0  0  0
 34107  1  0  0  0
 35 44  2  0  0  0
 35 45  1  0  0  0
 35 68  1  0  0  0
 36 56  1  0  0  0
 36108  1  0  0  0
 37 39  1  0  0  0
 37 47  1  0  0  0
 37 66  1  0  0  0
 37109  1  0  0  0
 38 43  2  0  0  0
 38 46  1  0  0  0
 38 47  1  0  0  0
 39 64  1  0  0  0
 39 67  2  0  0  0
 40 52  1  0  0  0
 40 53  2  0  0  0
 40 58  1  0  0  0
 41110  1  0  0  0
 41111  1  0  0  0
 41112  1  0  0  0
 41 48  1  0  0  0
 42 43  1  0  0  0
 42 66  1  0  0  0
 42113  1  0  0  0
 42114  1  0  0  0
 43 44  1  0  0  0
 44115  1  0  0  0
 45 46  2  0  0  0
 45116  1  0  0  0
 46117  1  0  0  0
 47118  1  0  0  0
 47119  1  0  0  0
 48 56  1  0  0  0
 48 65  1  0  0  0
 48120  1  0  0  0
 49 50  1  0  0  0
 49 53  1  0  0  0
 49 64  1  0  0  0
 49121  1  0  0  0
 50 51  1  0  0  0
 50122  1  0  0  0
 50123  1  0  0  0
 51 52  1  0  0  0
 51124  1  0  0  0
 51125  1  0  0  0
 52126  1  0  0  0
 52127  1  0  0  0
 53 54  1  0  0  0
 54 55  2  0  0  0
 54128  1  0  0  0
 55 57  1  0  0  0
 55129  1  0  0  0
 56 69  2  0  0  0
 57 58  2  0  0  0
 57130  1  0  0  0
 58131  1  0  0  0
 59 60  1  0  0  0
 59 61  1  0  0  0
 59 62  1  0  0  0
 60132  1  0  0  0
 60133  1  0  0  0
 60134  1  0  0  0
 61135  1  0  0  0
 61136  1  0  0  0
 61137  1  0  0  0
 62138  1  0  0  0
 62139  1  0  0  0
 62140  1  0  0  0
 63 65  1  0  0  0
 63141  1  0  0  0
 63142  1  0  0  0
 63143  1  0  0  0
 64144  1  0  0  0
 65145  1  0  0  0
 68 81  1  0  0  0
 71 72  2  0  0  0
 71 73  1  0  0  0
 71146  1  0  0  0
 72 74  1  0  0  0
 72147  1  0  0  0
 73 75  2  0  0  0
 73 84  1  0  0  0
 74 76  2  0  0  0
 74 82  1  0  0  0
 75 76  1  0  0  0
 75 83  1  0  0  0
 76 85  1  0  0  0
 77 78  2  0  0  0
 77 79  1  0  0  0
 77 86  1  0  0  0
 78148  1  0  0  0
 78149  1  0  0  0
 79 81  1  0  0  0
 79150  1  0  0  0
 79151  1  0  0  0
 80 81  1  0  0  0
 80 86  1  0  0  0
 80152  1  0  0  0
 80153  1  0  0  0
 81154  1  0  0  0
 82155  1  0  0  0
 82156  1  0  0  0
 82157  1  0  0  0
 83158  1  0  0  0
 83159  1  0  0  0
 83160  1  0  0  0
 84161  1  0  0  0
 84162  1  0  0  0
 84 86  1  0  0  0
 85163  1  0  0  0
 86164  1  0  0  0
M  CHG  1  86   1
M  ISO  4   1 100  68 101  81 101  85 100
M  END
> <chiral flag>
0

> <version>
0

> <s_m_source_file>
/data/baiqing/PycharmProjects/Reinvent-master-3.2/result/LINK_invent/BTK/process_docking_weight1_custom_product_contain_oxygen_bond_distance_aromatic_linkinvent_7_9_3/rearranged_h_0030.sdf

> <i_m_source_file_index>
62

> <r_mmod_Potential_Energy-OPLS-2005>
296.487091064453

> <r_mmod_Stretch_Energy-OPLS-2005>
160.525588989258

> <r_mmod_Bend_Energy-OPLS-2005>
319.491455078125

> <r_mmod_Torsional_Energy-OPLS-2005>
300.936462402344

> <r_mmod_Improper_Torsional_Energy-OPLS-2005>
8.19219017028809

> <r_mmod_Van_der_Waal_Energy-OPLS-2005>
125.776977539062

> <r_mmod_Electrostatic_Energy-OPLS-2005>
-309.328460693359

> <r_mmod_Solvation_Energy-OPLS-2005>
-432.466491699219

> <b_mmod_Minimization_Converged-OPLS-2005>
0

> <r_mmod_RMS_Derivative-OPLS-2005>
1.58627045154572

$$$$
62
                    3D
 Structure written by MMmdl.
156164  0  0  1  0            999 V2000
  -30.7147  -14.4861   20.6115 C   0  0  0  0  0  0
  -30.4201  -12.3405   19.4206 C   0  0  0  0  0  0
  -29.4906  -12.5103   18.2028 C   0  0  0  0  0  0
  -28.0134  -12.3462   18.6147 C   0  0  0  0  0  0
  -27.6556  -13.1880   19.8672 C   0  0  2  0  0  0
  -28.6965  -12.9721   20.9911 C   0  0  0  0  0  0
  -25.2567  -13.8113   20.5651 C   0  0  0  0  0  0
  -24.1818  -13.0410   20.9194 C   0  0  0  0  0  0
  -24.6348  -11.6872   20.8780 C   0  0  0  0  0  0
  -23.9025  -10.4271   21.0450 C   0  0  0  0  0  0
  -24.3579   -9.4171   21.9212 C   0  0  0  0  0  0
  -23.6254   -8.2203   22.0761 C   0  0  0  0  0  0
  -22.4242   -8.0253   21.3543 C   0  0  0  0  0  0
  -21.9882   -9.0240   20.4657 C   0  0  0  0  0  0
  -22.7211  -10.2121   20.3091 C   0  0  0  0  0  0
  -21.6826   -6.0715   22.5292 C   0  0  0  0  0  0
  -21.3992   -6.5623   23.8227 C   0  0  0  0  0  0
  -21.3669   -5.6777   24.9193 C   0  0  0  0  0  0
  -21.6044   -4.3039   24.7238 C   0  0  0  0  0  0
  -21.8811   -3.8130   23.4362 C   0  0  0  0  0  0
  -21.9174   -4.6945   22.3419 C   0  0  0  0  0  0
  -22.7860  -13.5264   21.1855 C   0  0  0  0  0  0
  -22.1651   -4.2132   21.0995 F   0  0  0  0  0  0
  -21.5635   -3.4518   25.7748 F   0  0  0  0  0  0
  -30.0161  -13.3221   20.4486 N   0  0  0  0  0  0
  -26.2968  -12.9234   20.3314 N   0  0  0  0  0  0
  -25.9257  -11.6425   20.5775 N   0  0  0  0  0  0
  -22.0432  -12.8314   22.0407 N   0  0  0  0  0  0
  -25.4294  -15.1826   20.4008 N   0  0  0  0  0  0
  -31.8129  -14.6565   20.0801 O   0  0  0  0  0  0
  -21.6602   -6.8853   21.4248 O   0  0  0  0  0  0
  -22.3605  -14.5585   20.6687 O   0  0  0  0  0  0
  -24.6159  -31.8674   23.2074 C   0  0  0  0  0  0
  -25.9062  -32.4811   23.8371 C   0  0  1  0  0  0
  -27.2231  -27.4070   20.1150 C   0  0  0  0  0  0
  -25.5932  -33.8609   24.2303 N   0  0  0  0  0  0
  -23.4039  -30.4895   21.5484 C   0  0  2  0  0  0
  -24.8493  -28.9476   20.1177 C   0  0  0  0  0  0
  -22.7413  -29.4652   22.4983 C   0  0  0  0  0  0
  -18.0283  -28.1358   22.8483 C   0  0  0  0  0  0
  -24.1485  -36.7307   23.2632 C   0  0  0  0  0  0
  -25.9322  -30.8248   21.3634 C   0  0  0  0  0  0
  -26.0094  -29.4553   20.7165 C   0  0  0  0  0  0
  -27.2020  -28.6928   20.7084 C   0  0  0  0  0  0
  -26.0508  -26.9231   19.5014 C   0  0  0  0  0  0
  -24.8655  -27.6820   19.5061 C   0  0  0  0  0  0
  -23.6136  -29.8190   20.1630 C   0  0  0  0  0  0
  -25.4110  -36.3103   24.0324 C   0  0  1  0  0  0
  -20.5869  -28.3649   23.1320 C   0  0  2  0  0  0
  -20.6772  -26.9377   22.5405 C   0  0  0  0  0  0
  -19.5748  -26.6341   21.5210 C   0  0  0  0  0  0
  -18.1923  -26.7904   22.1608 C   0  0  0  0  0  0
  -19.1523  -28.8823   23.2908 C   0  0  0  0  0  0
  -18.9448  -30.1433   23.8906 C   0  0  0  0  0  0
  -17.6438  -30.6559   24.0568 C   0  0  0  0  0  0
  -25.9047  -34.9469   23.5109 C   0  0  0  0  0  0
  -16.5340  -29.9055   23.6302 C   0  0  0  0  0  0
  -16.7271  -28.6481   23.0316 C   0  0  0  0  0  0
  -26.4472  -31.6597   25.0704 C   0  0  0  0  0  0
  -25.3746  -31.3725   26.1465 C   0  0  0  0  0  0
  -27.0281  -30.3037   24.6075 C   0  0  0  0  0  0
  -27.6033  -32.4319   25.7476 C   0  0  0  0  0  0
  -27.5580  -37.1809   24.8464 C   0  0  0  0  0  0
  -21.4139  -29.3047   22.3746 N   0  0  0  0  0  0
  -26.4294  -37.3791   23.9402 N   0  0  0  0  0  0
  -24.6685  -31.0753   22.0983 N   0  0  0  0  0  0
  -23.4184  -28.8195   23.3018 O   0  0  0  0  0  0
  -28.3808  -26.6562   20.0917 O   0  0  0  0  0  0
  -26.5588  -34.8926   22.4658 O   0  0  0  0  0  0
  -23.5363  -32.1440   23.7483 O   0  0  0  0  0  0
  -29.5899  -18.1533   20.2847 C   0  0  0  0  0  0
  -27.5759  -19.6917   21.4846 C   0  0  0  0  0  0
  -28.8014  -17.5605   21.2970 C   0  0  0  0  0  0
  -28.3352  -20.2712   20.4429 C   0  0  0  0  0  0
  -27.7987  -18.3610   21.9082 C   0  0  0  0  0  0
  -29.3693  -19.4881   19.8643 C   0  0  0  0  0  0
  -28.9568  -16.0712   21.6712 C   0  0  0  0  0  0
  -27.9271  -21.6514   19.8822 C   0  0  0  0  0  0
  -27.9260  -24.1513   20.0578 C   0  0  0  0  0  0
  -28.3797  -25.4193   20.8439 C   0  0  0  0  0  0
  -30.2786  -15.4564   21.4450 N   0  0  0  0  0  0
  -28.3822  -22.8480   20.6470 N   0  3  0  0  0  0
  -26.7929  -17.7241   23.1607 Cl  0  0  0  0  0  0
  -30.3640  -20.1179   18.5997 Cl  0  0  0  0  0  0
  -31.4601  -12.4533   19.1100 H   0  0  0  0  0  0
  -30.3467  -11.3283   19.8181 H   0  0  0  0  0  0
  -29.7441  -11.7819   17.4322 H   0  0  0  0  0  0
  -29.6444  -13.4953   17.7593 H   0  0  0  0  0  0
  -27.8374  -11.2885   18.8124 H   0  0  0  0  0  0
  -27.3585  -12.6104   17.7826 H   0  0  0  0  0  0
  -27.6948  -14.2256   19.5393 H   0  0  0  0  0  0
  -28.6920  -11.9246   21.2987 H   0  0  0  0  0  0
  -28.4510  -13.5221   21.8959 H   0  0  0  0  0  0
  -25.2725   -9.5626   22.4784 H   0  0  0  0  0  0
  -23.9935   -7.4584   22.7484 H   0  0  0  0  0  0
  -21.0806   -8.8798   19.8966 H   0  0  0  0  0  0
  -22.3699  -10.9668   19.6208 H   0  0  0  0  0  0
  -21.1978   -7.6128   23.9733 H   0  0  0  0  0  0
  -21.1513   -6.0503   25.9098 H   0  0  0  0  0  0
  -22.0578   -2.7582   23.2879 H   0  0  0  0  0  0
  -22.3955  -11.9972   22.4882 H   0  0  0  0  0  0
  -21.1076  -13.1457   22.2575 H   0  0  0  0  0  0
  -24.6576  -15.8309   20.5018 H   0  0  0  0  0  0
  -26.2654  -15.6162   20.0337 H   0  0  0  0  0  0
  -26.7124  -32.5490   23.1123 H   0  0  0  0  0  0
  -25.0131  -33.9772   25.0490 H   0  0  0  0  0  0
  -22.6954  -31.3086   21.4064 H   0  0  0  0  0  0
  -23.3738  -35.9644   23.3304 H   0  0  0  0  0  0
  -24.3596  -36.8915   22.2044 H   0  0  0  0  0  0
  -23.7239  -37.6518   23.6642 H   0  0  0  0  0  0
  -26.0466  -31.5871   20.5914 H   0  0  0  0  0  0
  -26.8201  -30.8807   21.9803 H   0  0  0  0  0  0
  -28.1003  -29.0790   21.1694 H   0  0  0  0  0  0
  -26.0484  -25.9675   19.0004 H   0  0  0  0  0  0
  -23.9764  -27.2874   19.0335 H   0  0  0  0  0  0
  -23.7296  -30.5909   19.4017 H   0  0  0  0  0  0
  -22.7359  -29.2414   19.8664 H   0  0  0  0  0  0
  -25.1289  -36.1961   25.0815 H   0  0  0  0  0  0
  -20.9978  -28.3205   24.1437 H   0  0  0  0  0  0
  -20.5705  -26.2252   23.3593 H   0  0  0  0  0  0
  -21.6640  -26.7417   22.1184 H   0  0  0  0  0  0
  -19.6913  -25.6246   21.1266 H   0  0  0  0  0  0
  -19.6686  -27.3104   20.6703 H   0  0  0  0  0  0
  -17.4207  -26.6678   21.3989 H   0  0  0  0  0  0
  -18.0299  -26.0018   22.8979 H   0  0  0  0  0  0
  -19.7929  -30.7239   24.2276 H   0  0  0  0  0  0
  -17.4988  -31.6226   24.5185 H   0  0  0  0  0  0
  -15.5341  -30.2947   23.7611 H   0  0  0  0  0  0
  -15.8679  -28.0810   22.6986 H   0  0  0  0  0  0
  -24.5916  -30.7071   25.7833 H   0  0  0  0  0  0
  -24.8954  -32.2893   26.4909 H   0  0  0  0  0  0
  -25.8135  -30.8919   27.0221 H   0  0  0  0  0  0
  -26.2822  -29.6825   24.1112 H   0  0  0  0  0  0
  -27.4032  -29.7252   25.4524 H   0  0  0  0  0  0
  -27.8662  -30.4351   23.9227 H   0  0  0  0  0  0
  -27.2638  -33.3602   26.2082 H   0  0  0  0  0  0
  -28.3838  -32.6914   25.0316 H   0  0  0  0  0  0
  -28.0692  -31.8425   26.5384 H   0  0  0  0  0  0
  -28.2598  -38.0105   24.7508 H   0  0  0  0  0  0
  -28.1076  -36.2635   24.6289 H   0  0  0  0  0  0
  -27.2304  -37.1456   25.8872 H   0  0  0  0  0  0
  -20.9291  -29.8824   21.7017 H   0  0  0  0  0  0
  -26.0173  -38.2864   24.1424 H   0  0  0  0  0  0
  -30.3567  -17.5743   19.7905 H   0  0  0  0  0  0
  -26.7744  -20.2567   21.9410 H   0  0  0  0  0  0
  -28.1659  -15.5593   21.1383 H   0  0  0  0  0  0
  -28.7424  -15.9370   22.7307 H   0  0  0  0  0  0
  -26.8367  -21.6742   19.8245 H   0  0  0  0  0  0
  -28.2589  -21.7438   18.8476 H   0  0  0  0  0  0
  -28.2983  -24.2124   19.0349 H   0  0  0  0  0  0
  -26.8382  -24.1379   19.9953 H   0  0  0  0  0  0
  -29.4097  -25.2755   21.1721 H   0  0  0  0  0  0
  -27.7928  -25.5285   21.7570 H   0  0  0  0  0  0
  -31.0287  -16.0949   21.6601 H   0  0  0  0  0  0
  -29.3900  -22.8337   20.6896 H   0  0  0  0  0  0
  -28.0386  -22.7675   21.5919 H   0  0  0  0  0  0
  1 25  1  0  0  0
  1 30  2  0  0  0
  1 81  1  0  0  0
  2  3  1  0  0  0
  2 25  1  0  0  0
  2 85  1  0  0  0
  2 86  1  0  0  0
  3  4  1  0  0  0
  3 87  1  0  0  0
  3 88  1  0  0  0
  4  5  1  0  0  0
  4 89  1  0  0  0
  4 90  1  0  0  0
  5  6  1  0  0  0
  5 26  1  0  0  0
  5 91  1  0  0  0
  6 25  1  0  0  0
  6 92  1  0  0  0
  6 93  1  0  0  0
  7  8  2  0  0  0
  7 26  1  0  0  0
  7 29  1  0  0  0
  8  9  1  0  0  0
  8 22  1  0  0  0
  9 10  1  0  0  0
  9 27  2  0  0  0
 10 11  2  0  0  0
 10 15  1  0  0  0
 11 12  1  0  0  0
 11 94  1  0  0  0
 12 13  2  0  0  0
 12 95  1  0  0  0
 13 14  1  0  0  0
 13 31  1  0  0  0
 14 15  2  0  0  0
 14 96  1  0  0  0
 15 97  1  0  0  0
 16 17  2  0  0  0
 16 21  1  0  0  0
 16 31  1  0  0  0
 17 18  1  0  0  0
 17 98  1  0  0  0
 18 19  2  0  0  0
 18 99  1  0  0  0
 19 20  1  0  0  0
 19 24  1  0  0  0
 20 21  2  0  0  0
 20100  1  0  0  0
 21 23  1  0  0  0
 22 28  1  0  0  0
 22 32  2  0  0  0
 26 27  1  0  0  0
 28101  1  0  0  0
 28102  1  0  0  0
 29103  1  0  0  0
 29104  1  0  0  0
 33 34  1  0  0  0
 33 66  1  0  0  0
 33 70  2  0  0  0
 34 36  1  0  0  0
 34 59  1  0  0  0
 34105  1  0  0  0
 35 44  2  0  0  0
 35 45  1  0  0  0
 35 68  1  0  0  0
 36 56  1  0  0  0
 36106  1  0  0  0
 37 39  1  0  0  0
 37 47  1  0  0  0
 37 66  1  0  0  0
 37107  1  0  0  0
 38 43  2  0  0  0
 38 46  1  0  0  0
 38 47  1  0  0  0
 39 64  1  0  0  0
 39 67  2  0  0  0
 40 52  1  0  0  0
 40 53  2  0  0  0
 40 58  1  0  0  0
 41108  1  0  0  0
 41109  1  0  0  0
 41110  1  0  0  0
 41 48  1  0  0  0
 42 43  1  0  0  0
 42 66  1  0  0  0
 42111  1  0  0  0
 42112  1  0  0  0
 43 44  1  0  0  0
 44113  1  0  0  0
 45 46  2  0  0  0
 45114  1  0  0  0
 46115  1  0  0  0
 47116  1  0  0  0
 47117  1  0  0  0
 48 56  1  0  0  0
 48 65  1  0  0  0
 48118  1  0  0  0
 49 50  1  0  0  0
 49 53  1  0  0  0
 49 64  1  0  0  0
 49119  1  0  0  0
 50 51  1  0  0  0
 50120  1  0  0  0
 50121  1  0  0  0
 51 52  1  0  0  0
 51122  1  0  0  0
 51123  1  0  0  0
 52124  1  0  0  0
 52125  1  0  0  0
 53 54  1  0  0  0
 54 55  2  0  0  0
 54126  1  0  0  0
 55 57  1  0  0  0
 55127  1  0  0  0
 56 69  2  0  0  0
 57 58  2  0  0  0
 57128  1  0  0  0
 58129  1  0  0  0
 59 60  1  0  0  0
 59 61  1  0  0  0
 59 62  1  0  0  0
 60130  1  0  0  0
 60131  1  0  0  0
 60132  1  0  0  0
 61133  1  0  0  0
 61134  1  0  0  0
 61135  1  0  0  0
 62136  1  0  0  0
 62137  1  0  0  0
 62138  1  0  0  0
 63 65  1  0  0  0
 63139  1  0  0  0
 63140  1  0  0  0
 63141  1  0  0  0
 64142  1  0  0  0
 65143  1  0  0  0
 68 80  1  0  0  0
 71 73  2  0  0  0
 71 76  1  0  0  0
 71144  1  0  0  0
 72 74  1  0  0  0
 72 75  2  0  0  0
 72145  1  0  0  0
 73 75  1  0  0  0
 73 77  1  0  0  0
 74 76  2  0  0  0
 74 78  1  0  0  0
 75 83  1  0  0  0
 76 84  1  0  0  0
 77 81  1  0  0  0
 77146  1  0  0  0
 77147  1  0  0  0
 78 82  1  0  0  0
 78148  1  0  0  0
 78149  1  0  0  0
 79 80  1  0  0  0
 79 82  1  0  0  0
 79150  1  0  0  0
 79151  1  0  0  0
 80152  1  0  0  0
 80153  1  0  0  0
 81154  1  0  0  0
 82155  1  0  0  0
 82156  1  0  0  0
M  CHG  1  82   1
M  ISO  4   1 100  68 101  80 101  81 100
M  END
> <chiral flag>
0

> <version>
0

> <s_m_source_file>
/data/baiqing/PycharmProjects/Reinvent-master-3.2/result/LINK_invent/BTK/process_docking_weight1_custom_product_contain_oxygen_bond_distance_aromatic_linkinvent_7_9_3/rearranged_h_0030.sdf

> <i_m_source_file_index>
63

> <r_mmod_Potential_Energy-OPLS-2005>
-220.431732177734

> <r_mmod_Stretch_Energy-OPLS-2005>
43.6197319030762

> <r_mmod_Bend_Energy-OPLS-2005>
126.763580322266

> <r_mmod_Torsional_Energy-OPLS-2005>
249.385482788086

> <r_mmod_Improper_Torsional_Energy-OPLS-2005>
4.98998880386353

> <r_mmod_Van_der_Waal_Energy-OPLS-2005>
141.418334960938

> <r_mmod_Electrostatic_Energy-OPLS-2005>
-333.249328613281

> <r_mmod_Solvation_Energy-OPLS-2005>
-467.997222900391

> <b_mmod_Minimization_Converged-OPLS-2005>
0

> <r_mmod_RMS_Derivative-OPLS-2005>
2.94629812240601

$$$$
63
                    3D
 Structure written by MMmdl.
162171  0  0  1  0            999 V2000
  -30.6702  -14.6605   20.4385 C   0  0  0  0  0  0
  -30.4153  -12.3963   19.4536 C   0  0  0  0  0  0
  -29.4962  -12.4813   18.2177 C   0  0  0  0  0  0
  -28.0191  -12.3437   18.6307 C   0  0  0  0  0  0
  -27.6403  -13.2371   19.8449 C   0  0  2  0  0  0
  -28.6909  -13.1664   20.9744 C   0  0  0  0  0  0
  -25.2508  -13.8192   20.5717 C   0  0  0  0  0  0
  -24.1814  -13.0428   20.9211 C   0  0  0  0  0  0
  -24.6412  -11.6914   20.8745 C   0  0  0  0  0  0
  -23.9092  -10.4286   21.0384 C   0  0  0  0  0  0
  -24.3647   -9.4199   21.9167 C   0  0  0  0  0  0
  -23.6313   -8.2244   22.0748 C   0  0  0  0  0  0
  -22.4293   -8.0283   21.3540 C   0  0  0  0  0  0
  -21.9932   -9.0248   20.4635 C   0  0  0  0  0  0
  -22.7265  -10.2126   20.3034 C   0  0  0  0  0  0
  -21.6858   -6.0732   22.5265 C   0  0  0  0  0  0
  -21.4017   -6.5635   23.8199 C   0  0  0  0  0  0
  -21.3669   -5.6783   24.9166 C   0  0  0  0  0  0
  -21.6054   -4.3048   24.7212 C   0  0  0  0  0  0
  -21.8823   -3.8145   23.4329 C   0  0  0  0  0  0
  -21.9202   -4.6963   22.3390 C   0  0  0  0  0  0
  -22.7831  -13.5208   21.1866 C   0  0  0  0  0  0
  -22.1658   -4.2150   21.0963 F   0  0  0  0  0  0
  -21.5642   -3.4528   25.7721 F   0  0  0  0  0  0
  -29.9946  -13.4700   20.3762 N   0  0  0  0  0  0
  -26.2946  -12.9423   20.3279 N   0  0  0  0  0  0
  -25.9349  -11.6559   20.5754 N   0  0  0  0  0  0
  -22.0493  -12.8193   22.0415 N   0  0  0  0  0  0
  -25.4175  -15.1901   20.4175 N   0  0  0  0  0  0
  -31.8866  -14.6878   20.2328 O   0  0  0  0  0  0
  -21.6655   -6.8879   21.4225 O   0  0  0  0  0  0
  -22.3504  -14.5510   20.6711 O   0  0  0  0  0  0
  -24.6247  -31.8603   23.2004 C   0  0  0  0  0  0
  -25.9096  -32.4790   23.8343 C   0  0  1  0  0  0
  -27.2374  -27.3380   20.1200 C   0  0  0  0  0  0
  -25.5904  -33.8587   24.2280 N   0  0  0  0  0  0
  -23.4194  -30.4809   21.5435 C   0  0  2  0  0  0
  -24.8688  -28.9275   20.1186 C   0  0  0  0  0  0
  -22.7471  -29.4627   22.4947 C   0  0  0  0  0  0
  -18.0285  -28.1402   22.8486 C   0  0  0  0  0  0
  -24.1483  -36.7297   23.2634 C   0  0  0  0  0  0
  -25.9557  -30.8000   21.3634 C   0  0  0  0  0  0
  -26.0363  -29.4243   20.7119 C   0  0  0  0  0  0
  -27.2276  -28.6435   20.6963 C   0  0  0  0  0  0
  -26.0489  -26.8773   19.5178 C   0  0  0  0  0  0
  -24.8751  -27.6586   19.5127 C   0  0  0  0  0  0
  -23.6354  -29.8077   20.1617 C   0  0  0  0  0  0
  -25.4108  -36.3096   24.0332 C   0  0  1  0  0  0
  -20.5885  -28.3701   23.1295 C   0  0  2  0  0  0
  -20.6788  -26.9423   22.5415 C   0  0  0  0  0  0
  -19.5763  -26.6391   21.5223 C   0  0  0  0  0  0
  -18.1938  -26.7944   22.1624 C   0  0  0  0  0  0
  -19.1534  -28.8867   23.2892 C   0  0  0  0  0  0
  -18.9458  -30.1467   23.8914 C   0  0  0  0  0  0
  -17.6458  -30.6599   24.0571 C   0  0  0  0  0  0
  -25.9047  -34.9463   23.5113 C   0  0  0  0  0  0
  -16.5350  -29.9106   23.6322 C   0  0  0  0  0  0
  -16.7268  -28.6526   23.0336 C   0  0  0  0  0  0
  -26.4480  -31.6580   25.0697 C   0  0  0  0  0  0
  -25.3706  -31.3699   26.1415 C   0  0  0  0  0  0
  -27.0298  -30.3010   24.6101 C   0  0  0  0  0  0
  -27.6041  -32.4297   25.7482 C   0  0  0  0  0  0
  -27.5589  -37.1802   24.8456 C   0  0  0  0  0  0
  -21.4186  -29.3047   22.3683 N   0  0  0  0  0  0
  -26.4284  -37.3795   23.9420 N   0  0  0  0  0  0
  -24.6858  -31.0627   22.0947 N   0  0  0  0  0  0
  -23.4193  -28.8171   23.3033 O   0  0  0  0  0  0
  -28.3712  -26.5221   20.1039 O   0  0  0  0  0  0
  -26.5625  -34.8931   22.4687 O   0  0  0  0  0  0
  -23.5413  -32.1390   23.7347 O   0  0  0  0  0  0
  -30.2745  -20.6991   21.1906 C   0  0  0  0  0  0
  -28.1722  -20.4511   20.0576 C   0  0  0  0  0  0
  -29.4256  -18.3945   20.8211 C   0  0  0  0  0  0
  -29.1390  -21.3465   20.6241 C   0  0  0  0  0  0
  -30.4268  -19.2886   21.2824 C   0  0  0  0  0  0
  -28.3064  -19.0157   20.1871 C   0  0  0  0  0  0
  -29.4590  -24.9706   21.6634 C   0  0  0  0  0  0
  -29.4584  -23.4612   21.9542 C   0  0  0  0  0  0
  -28.3711  -23.8372   19.8737 C   0  0  0  0  0  0
  -28.2807  -25.1800   20.7134 C   0  0  2  0  0  0
  -26.9547  -21.0267   19.3422 C   0  0  0  0  0  0
  -30.2195  -16.3868   18.8165 C   0  0  0  0  0  0
  -29.4870  -16.8323   21.1398 C   0  0  0  0  0  0
  -29.0365  -22.7954   20.7201 N   0  0  0  0  0  0
  -29.9478  -15.8033   20.1369 N   0  0  0  0  0  0
  -31.8650  -18.6810   22.0255 Cl  0  0  0  0  0  0
  -27.0512  -17.9717   19.6073 Cl  0  0  0  0  0  0
  -31.4593  -12.4881   19.1495 H   0  0  0  0  0  0
  -30.3257  -11.4213   19.9353 H   0  0  0  0  0  0
  -29.7547  -11.7000   17.5017 H   0  0  0  0  0  0
  -29.6468  -13.4297   17.7011 H   0  0  0  0  0  0
  -27.8449  -11.2946   18.8707 H   0  0  0  0  0  0
  -27.3710  -12.5694   17.7825 H   0  0  0  0  0  0
  -27.6322  -14.2620   19.4730 H   0  0  0  0  0  0
  -28.7039  -12.1787   21.4364 H   0  0  0  0  0  0
  -28.4549  -13.8826   21.7639 H   0  0  0  0  0  0
  -25.2783   -9.5683   22.4754 H   0  0  0  0  0  0
  -24.0010   -7.4650   22.7489 H   0  0  0  0  0  0
  -21.0863   -8.8769   19.8954 H   0  0  0  0  0  0
  -22.3707  -10.9672   19.6159 H   0  0  0  0  0  0
  -21.1981   -7.6137   23.9704 H   0  0  0  0  0  0
  -21.1497   -6.0510   25.9073 H   0  0  0  0  0  0
  -22.0599   -2.7606   23.2824 H   0  0  0  0  0  0
  -22.4122  -11.9834   22.4748 H   0  0  0  0  0  0
  -21.1112  -13.1213   22.2646 H   0  0  0  0  0  0
  -24.6542  -15.8451   20.5384 H   0  0  0  0  0  0
  -26.2693  -15.6386   20.1021 H   0  0  0  0  0  0
  -26.7159  -32.5475   23.1092 H   0  0  0  0  0  0
  -25.0029  -33.9726   25.0412 H   0  0  0  0  0  0
  -22.7135  -31.3007   21.3959 H   0  0  0  0  0  0
  -23.3762  -35.9609   23.3271 H   0  0  0  0  0  0
  -24.3585  -36.8945   22.2054 H   0  0  0  0  0  0
  -23.7207  -37.6480   23.6669 H   0  0  0  0  0  0
  -26.0730  -31.5602   20.5904 H   0  0  0  0  0  0
  -26.8415  -30.8599   21.9833 H   0  0  0  0  0  0
  -28.1316  -29.0288   21.1465 H   0  0  0  0  0  0
  -26.0307  -25.9036   19.0483 H   0  0  0  0  0  0
  -23.9799  -27.2709   19.0451 H   0  0  0  0  0  0
  -23.7563  -30.5809   19.4022 H   0  0  0  0  0  0
  -22.7560  -29.2368   19.8587 H   0  0  0  0  0  0
  -25.1287  -36.1951   25.0823 H   0  0  0  0  0  0
  -20.9977  -28.3277   24.1418 H   0  0  0  0  0  0
  -20.5704  -26.2310   23.3617 H   0  0  0  0  0  0
  -21.6657  -26.7478   22.1195 H   0  0  0  0  0  0
  -19.6932  -25.6300   21.1257 H   0  0  0  0  0  0
  -19.6713  -27.3203   20.6753 H   0  0  0  0  0  0
  -17.4216  -26.6693   21.4017 H   0  0  0  0  0  0
  -18.0328  -26.0083   22.9019 H   0  0  0  0  0  0
  -19.7935  -30.7275   24.2293 H   0  0  0  0  0  0
  -17.5014  -31.6280   24.5172 H   0  0  0  0  0  0
  -15.5354  -30.3019   23.7636 H   0  0  0  0  0  0
  -15.8666  -28.0855   22.7036 H   0  0  0  0  0  0
  -24.5902  -30.7035   25.7732 H   0  0  0  0  0  0
  -24.8868  -32.2848   26.4837 H   0  0  0  0  0  0
  -25.8021  -30.8878   27.0192 H   0  0  0  0  0  0
  -26.2848  -29.6790   24.1121 H   0  0  0  0  0  0
  -27.4010  -29.7235   25.4577 H   0  0  0  0  0  0
  -27.8711  -30.4317   23.9291 H   0  0  0  0  0  0
  -27.2660  -33.3595   26.2069 H   0  0  0  0  0  0
  -28.3855  -32.6855   25.0315 H   0  0  0  0  0  0
  -28.0691  -31.8401   26.5394 H   0  0  0  0  0  0
  -28.2568  -38.0140   24.7563 H   0  0  0  0  0  0
  -28.1127  -36.2676   24.6202 H   0  0  0  0  0  0
  -27.2319  -37.1346   25.8858 H   0  0  0  0  0  0
  -20.9368  -29.8747   21.6873 H   0  0  0  0  0  0
  -26.0170  -38.2861   24.1464 H   0  0  0  0  0  0
  -31.0812  -21.2935   21.5909 H   0  0  0  0  0  0
  -30.3903  -25.2400   21.1618 H   0  0  0  0  0  0
  -29.3874  -25.5706   22.5715 H   0  0  0  0  0  0
  -28.7313  -23.2382   22.7363 H   0  0  0  0  0  0
  -30.4350  -23.1471   22.3188 H   0  0  0  0  0  0
  -28.9744  -23.9941   18.9780 H   0  0  0  0  0  0
  -27.3712  -23.5573   19.5542 H   0  0  0  0  0  0
  -27.3742  -25.1280   21.3202 H   0  0  0  0  0  0
  -27.2795  -21.6632   18.5197 H   0  0  0  0  0  0
  -26.3532  -21.6127   20.0370 H   0  0  0  0  0  0
  -26.2984  -20.2849   18.8937 H   0  0  0  0  0  0
  -29.3802  -16.9737   18.4516 H   0  0  0  0  0  0
  -30.4018  -15.6160   18.0665 H   0  0  0  0  0  0
  -31.1006  -17.0296   18.8475 H   0  0  0  0  0  0
  -28.4873  -16.5275   21.4467 H   0  0  0  0  0  0
  -30.0781  -16.6976   22.0451 H   0  0  0  0  0  0
  1 25  1  0  0  0
  1 30  2  0  0  0
  1 85  1  0  0  0
  2  3  1  0  0  0
  2 25  1  0  0  0
  2 88  1  0  0  0
  2 89  1  0  0  0
  3  4  1  0  0  0
  3 90  1  0  0  0
  3 91  1  0  0  0
  4  5  1  0  0  0
  4 92  1  0  0  0
  4 93  1  0  0  0
  5  6  1  0  0  0
  5 26  1  0  0  0
  5 94  1  0  0  0
  6 25  1  0  0  0
  6 95  1  0  0  0
  6 96  1  0  0  0
  7  8  2  0  0  0
  7 26  1  0  0  0
  7 29  1  0  0  0
  8  9  1  0  0  0
  8 22  1  0  0  0
  9 10  1  0  0  0
  9 27  2  0  0  0
 10 11  2  0  0  0
 10 15  1  0  0  0
 11 12  1  0  0  0
 11 97  1  0  0  0
 12 13  2  0  0  0
 12 98  1  0  0  0
 13 14  1  0  0  0
 13 31  1  0  0  0
 14 15  2  0  0  0
 14 99  1  0  0  0
 15100  1  0  0  0
 16 17  2  0  0  0
 16 21  1  0  0  0
 16 31  1  0  0  0
 17 18  1  0  0  0
 17101  1  0  0  0
 18 19  2  0  0  0
 18102  1  0  0  0
 19 20  1  0  0  0
 19 24  1  0  0  0
 20 21  2  0  0  0
 20103  1  0  0  0
 21 23  1  0  0  0
 22 28  1  0  0  0
 22 32  2  0  0  0
 26 27  1  0  0  0
 28104  1  0  0  0
 28105  1  0  0  0
 29106  1  0  0  0
 29107  1  0  0  0
 33 34  1  0  0  0
 33 66  1  0  0  0
 33 70  2  0  0  0
 34 36  1  0  0  0
 34 59  1  0  0  0
 34108  1  0  0  0
 35 44  2  0  0  0
 35 45  1  0  0  0
 35 68  1  0  0  0
 36 56  1  0  0  0
 36109  1  0  0  0
 37 39  1  0  0  0
 37 47  1  0  0  0
 37 66  1  0  0  0
 37110  1  0  0  0
 38 43  2  0  0  0
 38 46  1  0  0  0
 38 47  1  0  0  0
 39 64  1  0  0  0
 39 67  2  0  0  0
 40 52  1  0  0  0
 40 53  2  0  0  0
 40 58  1  0  0  0
 41111  1  0  0  0
 41112  1  0  0  0
 41113  1  0  0  0
 41 48  1  0  0  0
 42 43  1  0  0  0
 42 66  1  0  0  0
 42114  1  0  0  0
 42115  1  0  0  0
 43 44  1  0  0  0
 44116  1  0  0  0
 45 46  2  0  0  0
 45117  1  0  0  0
 46118  1  0  0  0
 47119  1  0  0  0
 47120  1  0  0  0
 48 56  1  0  0  0
 48 65  1  0  0  0
 48121  1  0  0  0
 49 50  1  0  0  0
 49 53  1  0  0  0
 49 64  1  0  0  0
 49122  1  0  0  0
 50 51  1  0  0  0
 50123  1  0  0  0
 50124  1  0  0  0
 51 52  1  0  0  0
 51125  1  0  0  0
 51126  1  0  0  0
 52127  1  0  0  0
 52128  1  0  0  0
 53 54  1  0  0  0
 54 55  2  0  0  0
 54129  1  0  0  0
 55 57  1  0  0  0
 55130  1  0  0  0
 56 69  2  0  0  0
 57 58  2  0  0  0
 57131  1  0  0  0
 58132  1  0  0  0
 59 60  1  0  0  0
 59 61  1  0  0  0
 59 62  1  0  0  0
 60133  1  0  0  0
 60134  1  0  0  0
 60135  1  0  0  0
 61136  1  0  0  0
 61137  1  0  0  0
 61138  1  0  0  0
 62139  1  0  0  0
 62140  1  0  0  0
 62141  1  0  0  0
 63 65  1  0  0  0
 63142  1  0  0  0
 63143  1  0  0  0
 63144  1  0  0  0
 64145  1  0  0  0
 65146  1  0  0  0
 68 80  1  0  0  0
 71 74  2  0  0  0
 71 75  1  0  0  0
 71147  1  0  0  0
 72 74  1  0  0  0
 72 76  2  0  0  0
 72 81  1  0  0  0
 73 75  2  0  0  0
 73 76  1  0  0  0
 73 83  1  0  0  0
 74 84  1  0  0  0
 75 86  1  0  0  0
 76 87  1  0  0  0
 77 78  1  0  0  0
 77 80  1  0  0  0
 77148  1  0  0  0
 77149  1  0  0  0
 78 84  1  0  0  0
 78150  1  0  0  0
 78151  1  0  0  0
 79 80  1  0  0  0
 79 84  1  0  0  0
 79152  1  0  0  0
 79153  1  0  0  0
 80154  1  0  0  0
 81155  1  0  0  0
 81156  1  0  0  0
 81157  1  0  0  0
 82 85  1  0  0  0
 82158  1  0  0  0
 82159  1  0  0  0
 82160  1  0  0  0
 83 85  1  0  0  0
 83161  1  0  0  0
 83162  1  0  0  0
M  ISO  4   1 100  68 101  80 101  85 100
M  END
> <chiral flag>
0

> <version>
0

> <s_m_source_file>
/data/baiqing/PycharmProjects/Reinvent-master-3.2/result/LINK_invent/BTK/process_docking_weight1_custom_product_contain_oxygen_bond_distance_aromatic_linkinvent_7_9_3/rearranged_h_0030.sdf

> <i_m_source_file_index>
64

> <r_mmod_Potential_Energy-OPLS-2005>
355.204986572266

> <r_mmod_Stretch_Energy-OPLS-2005>
89.7596130371094

> <r_mmod_Bend_Energy-OPLS-2005>
206.455383300781

> <r_mmod_Torsional_Energy-OPLS-2005>
360.682586669922

> <r_mmod_Improper_Torsional_Energy-OPLS-2005>
23.4481029510498

> <r_mmod_Van_der_Waal_Energy-OPLS-2005>
141.879547119141

> <r_mmod_Electrostatic_Energy-OPLS-2005>
-318.540679931641

> <r_mmod_Solvation_Energy-OPLS-2005>
-202.841384887695

> <b_mmod_Minimization_Converged-OPLS-2005>
0

> <r_mmod_RMS_Derivative-OPLS-2005>
2.26170229911804

$$$$
64
                    3D
 Structure written by MMmdl.
172181  0  0  1  0            999 V2000
  -30.6329  -14.7736   20.5071 C   0  0  0  0  0  0
  -30.4286  -12.4914   19.4699 C   0  0  0  0  0  0
  -29.5046  -12.5055   18.2343 C   0  0  0  0  0  0
  -28.0361  -12.3179   18.6587 C   0  0  0  0  0  0
  -27.6356  -13.2346   19.8445 C   0  0  2  0  0  0
  -28.6810  -13.2043   20.9791 C   0  0  0  0  0  0
  -25.2493  -13.8200   20.5713 C   0  0  0  0  0  0
  -24.1793  -13.0447   20.9228 C   0  0  0  0  0  0
  -24.6389  -11.6920   20.8768 C   0  0  0  0  0  0
  -23.9071  -10.4296   21.0423 C   0  0  0  0  0  0
  -24.3619   -9.4206   21.9199 C   0  0  0  0  0  0
  -23.6295   -8.2243   22.0760 C   0  0  0  0  0  0
  -22.4279   -8.0284   21.3545 C   0  0  0  0  0  0
  -21.9917   -9.0259   20.4648 C   0  0  0  0  0  0
  -22.7246  -10.2140   20.3065 C   0  0  0  0  0  0
  -21.6849   -6.0738   22.5278 C   0  0  0  0  0  0
  -21.4011   -6.5641   23.8210 C   0  0  0  0  0  0
  -21.3658   -5.6794   24.9174 C   0  0  0  0  0  0
  -21.6044   -4.3057   24.7222 C   0  0  0  0  0  0
  -21.8821   -3.8149   23.4343 C   0  0  0  0  0  0
  -21.9193   -4.6967   22.3402 C   0  0  0  0  0  0
  -22.7816  -13.5223   21.1876 C   0  0  0  0  0  0
  -22.1664   -4.2155   21.0982 F   0  0  0  0  0  0
  -21.5631   -3.4537   25.7736 F   0  0  0  0  0  0
  -29.9699  -13.5697   20.3810 N   0  0  0  0  0  0
  -26.2915  -12.9415   20.3281 N   0  0  0  0  0  0
  -25.9317  -11.6554   20.5765 N   0  0  0  0  0  0
  -22.0454  -12.8216   22.0426 N   0  0  0  0  0  0
  -25.4187  -15.1929   20.4115 N   0  0  0  0  0  0
  -31.8226  -14.8311   20.1827 O   0  0  0  0  0  0
  -21.6643   -6.8885   21.4242 O   0  0  0  0  0  0
  -22.3516  -14.5534   20.6724 O   0  0  0  0  0  0
  -24.6348  -31.8547   23.1962 C   0  0  0  0  0  0
  -25.9162  -32.4754   23.8318 C   0  0  1  0  0  0
  -27.2111  -27.2282   20.1267 C   0  0  0  0  0  0
  -25.5937  -33.8553   24.2242 N   0  0  0  0  0  0
  -23.4334  -30.4768   21.5411 C   0  0  2  0  0  0
  -24.8785  -28.9243   20.1105 C   0  0  0  0  0  0
  -22.7517  -29.4598   22.4898 C   0  0  0  0  0  0
  -18.0291  -28.1399   22.8477 C   0  0  0  0  0  0
  -24.1500  -36.7293   23.2633 C   0  0  0  0  0  0
  -25.9820  -30.7586   21.3789 C   0  0  0  0  0  0
  -26.0550  -29.3776   20.7217 C   0  0  0  0  0  0
  -27.2263  -28.5434   20.7175 C   0  0  0  0  0  0
  -26.0061  -26.8562   19.4873 C   0  0  0  0  0  0
  -24.8615  -27.6734   19.4820 C   0  0  0  0  0  0
  -23.6516  -29.8139   20.1577 C   0  0  0  0  0  0
  -25.4122  -36.3064   24.0314 C   0  0  1  0  0  0
  -20.5896  -28.3718   23.1253 C   0  0  2  0  0  0
  -20.6792  -26.9439   22.5392 C   0  0  0  0  0  0
  -19.5771  -26.6392   21.5194 C   0  0  0  0  0  0
  -18.1947  -26.7939   22.1608 C   0  0  0  0  0  0
  -19.1541  -28.8869   23.2865 C   0  0  0  0  0  0
  -18.9467  -30.1457   23.8900 C   0  0  0  0  0  0
  -17.6471  -30.6603   24.0545 C   0  0  0  0  0  0
  -25.9061  -34.9433   23.5080 C   0  0  0  0  0  0
  -16.5359  -29.9097   23.6333 C   0  0  0  0  0  0
  -16.7273  -28.6511   23.0360 C   0  0  0  0  0  0
  -26.4515  -31.6585   25.0717 C   0  0  0  0  0  0
  -25.3704  -31.3737   26.1413 C   0  0  0  0  0  0
  -27.0350  -30.2994   24.6208 C   0  0  0  0  0  0
  -27.6069  -32.4317   25.7500 C   0  0  0  0  0  0
  -27.5588  -37.1799   24.8458 C   0  0  0  0  0  0
  -21.4217  -29.3064   22.3637 N   0  0  0  0  0  0
  -26.4300  -37.3763   23.9401 N   0  0  0  0  0  0
  -24.7031  -31.0483   22.0951 N   0  0  0  0  0  0
  -23.4190  -28.8127   23.3009 O   0  0  0  0  0  0
  -28.2856  -26.2946   20.1825 O   0  0  0  0  0  0
  -26.5644  -34.8907   22.4660 O   0  0  0  0  0  0
  -23.5485  -32.1383   23.7219 O   0  0  0  0  0  0
  -31.4899  -17.3888   23.8250 C   0  0  0  0  0  0
  -30.7906  -18.5671   24.0543 C   0  0  0  0  0  0
  -31.2366  -16.6635   22.6638 C   0  0  0  0  0  0
  -29.9517  -19.1276   23.0704 C   0  0  0  0  0  0
  -29.7970  -18.4923   21.7776 C   0  0  0  0  0  0
  -30.3290  -17.0959   21.6582 C   0  0  0  0  0  0
  -30.9331  -23.1179   25.3168 C   0  0  0  0  0  0
  -29.5465  -23.7073   25.0697 C   0  0  0  0  0  0
  -30.7766  -21.6423   24.9462 C   0  0  0  0  0  0
  -28.8614  -22.7382   24.0938 C   0  0  0  0  0  0
  -29.0996  -20.3183   23.5707 C   0  0  0  0  0  0
  -29.0303  -19.3696   20.6753 C   0  0  0  0  0  0
  -29.0240  -23.5811   20.2977 C   0  0  0  0  0  0
  -28.4876  -22.0261   20.3494 C   0  0  0  0  0  0
  -27.9710  -24.8109   20.0807 C   0  0  0  0  0  0
  -29.9295  -15.9589   20.7754 N   0  0  0  0  0  0
  -29.8003  -21.6150   23.8335 N   0  3  0  0  0  0
  -29.4849  -20.8348   20.4145 N   0  3  0  0  0  0
  -31.4662  -12.6209   19.1587 H   0  0  0  0  0  0
  -30.3865  -11.5248   19.9738 H   0  0  0  0  0  0
  -29.7951  -11.7191   17.5362 H   0  0  0  0  0  0
  -29.6167  -13.4499   17.6989 H   0  0  0  0  0  0
  -27.9117  -11.2735   18.9466 H   0  0  0  0  0  0
  -27.3706  -12.4795   17.8107 H   0  0  0  0  0  0
  -27.6206  -14.2490   19.4442 H   0  0  0  0  0  0
  -28.7336  -12.2171   21.4404 H   0  0  0  0  0  0
  -28.4073  -13.9022   21.7723 H   0  0  0  0  0  0
  -25.2754   -9.5688   22.4779 H   0  0  0  0  0  0
  -23.9997   -7.4639   22.7479 H   0  0  0  0  0  0
  -21.0847   -8.8779   19.8952 H   0  0  0  0  0  0
  -22.3698  -10.9685   19.6179 H   0  0  0  0  0  0
  -21.1999   -7.6152   23.9715 H   0  0  0  0  0  0
  -21.1479   -6.0525   25.9077 H   0  0  0  0  0  0
  -22.0600   -2.7609   23.2842 H   0  0  0  0  0  0
  -22.4055  -11.9859   22.4791 H   0  0  0  0  0  0
  -21.1076  -13.1248   22.2631 H   0  0  0  0  0  0
  -24.6465  -15.8421   20.5149 H   0  0  0  0  0  0
  -26.2567  -15.6289   20.0513 H   0  0  0  0  0  0
  -26.7225  -32.5403   23.1052 H   0  0  0  0  0  0
  -25.0039  -33.9708   25.0353 H   0  0  0  0  0  0
  -22.7319  -31.3004   21.3952 H   0  0  0  0  0  0
  -23.3757  -35.9637   23.3285 H   0  0  0  0  0  0
  -24.3574  -36.8946   22.2048 H   0  0  0  0  0  0
  -23.7273  -37.6491   23.6682 H   0  0  0  0  0  0
  -26.1168  -31.5163   20.6061 H   0  0  0  0  0  0
  -26.8589  -30.8152   22.0110 H   0  0  0  0  0  0
  -28.1254  -28.8818   21.2142 H   0  0  0  0  0  0
  -25.9030  -25.9050   18.9908 H   0  0  0  0  0  0
  -23.9587  -27.3222   19.0004 H   0  0  0  0  0  0
  -23.7761  -30.5895   19.4015 H   0  0  0  0  0  0
  -22.7693  -29.2482   19.8545 H   0  0  0  0  0  0
  -25.1309  -36.1903   25.0808 H   0  0  0  0  0  0
  -20.9973  -28.3309   24.1381 H   0  0  0  0  0  0
  -20.5710  -26.2332   23.3598 H   0  0  0  0  0  0
  -21.6667  -26.7491   22.1184 H   0  0  0  0  0  0
  -19.6949  -25.6292   21.1260 H   0  0  0  0  0  0
  -19.6717  -27.3174   20.6698 H   0  0  0  0  0  0
  -17.4217  -26.6651   21.4006 H   0  0  0  0  0  0
  -18.0362  -26.0088   22.9009 H   0  0  0  0  0  0
  -19.7944  -30.7247   24.2301 H   0  0  0  0  0  0
  -17.5040  -31.6292   24.5133 H   0  0  0  0  0  0
  -15.5363  -30.3001   23.7689 H   0  0  0  0  0  0
  -15.8666  -28.0827   22.7106 H   0  0  0  0  0  0
  -24.5917  -30.7052   25.7729 H   0  0  0  0  0  0
  -24.8828  -32.2886   26.4774 H   0  0  0  0  0  0
  -25.7988  -30.8959   27.0233 H   0  0  0  0  0  0
  -26.2932  -29.6727   24.1230 H   0  0  0  0  0  0
  -27.4029  -29.7274   25.4740 H   0  0  0  0  0  0
  -27.8825  -30.4272   23.9466 H   0  0  0  0  0  0
  -27.2714  -33.3654   26.2030 H   0  0  0  0  0  0
  -28.3910  -32.6805   25.0336 H   0  0  0  0  0  0
  -28.0698  -31.8447   26.5446 H   0  0  0  0  0  0
  -28.2582  -38.0117   24.7522 H   0  0  0  0  0  0
  -28.1109  -36.2639   24.6273 H   0  0  0  0  0  0
  -27.2294  -37.1430   25.8858 H   0  0  0  0  0  0
  -20.9404  -29.8803   21.6857 H   0  0  0  0  0  0
  -26.0170  -38.2841   24.1391 H   0  0  0  0  0  0
  -32.1371  -16.9824   24.5901 H   0  0  0  0  0  0
  -30.8900  -19.0147   25.0312 H   0  0  0  0  0  0
  -31.7120  -15.6944   22.6369 H   0  0  0  0  0  0
  -31.2731  -23.2597   26.3438 H   0  0  0  0  0  0
  -31.6623  -23.5941   24.6591 H   0  0  0  0  0  0
  -29.5999  -24.7215   24.6723 H   0  0  0  0  0  0
  -28.9806  -23.7513   26.0015 H   0  0  0  0  0  0
  -30.3831  -21.0984   25.8068 H   0  0  0  0  0  0
  -31.7312  -21.1958   24.6663 H   0  0  0  0  0  0
  -28.5790  -23.2404   23.1703 H   0  0  0  0  0  0
  -27.9377  -22.3727   24.5455 H   0  0  0  0  0  0
  -28.6182  -20.0059   24.4996 H   0  0  0  0  0  0
  -28.2620  -20.4910   22.9000 H   0  0  0  0  0  0
  -27.9644  -19.3583   20.9058 H   0  0  0  0  0  0
  -29.1047  -18.8344   19.7280 H   0  0  0  0  0  0
  -29.7649  -23.6514   19.5019 H   0  0  0  0  0  0
  -29.5827  -23.7829   21.2096 H   0  0  0  0  0  0
  -27.8547  -21.8583   19.4771 H   0  0  0  0  0  0
  -27.8089  -21.9441   21.1970 H   0  0  0  0  0  0
  -27.1414  -24.6300   20.7662 H   0  0  0  0  0  0
  -27.5789  -24.6423   19.0781 H   0  0  0  0  0  0
  -28.9347  -15.8818   20.6271 H   0  0  0  0  0  0
  -30.3389  -21.8735   23.0244 H   0  0  0  0  0  0
  -29.9013  -20.7972   19.4966 H   0  0  0  0  0  0
  -30.2621  -21.0394   21.0143 H   0  0  0  0  0  0
  1 25  1  0  0  0
  1 30  2  0  0  0
  1 86  1  0  0  0
  2  3  1  0  0  0
  2 25  1  0  0  0
  2 89  1  0  0  0
  2 90  1  0  0  0
  3  4  1  0  0  0
  3 91  1  0  0  0
  3 92  1  0  0  0
  4  5  1  0  0  0
  4 93  1  0  0  0
  4 94  1  0  0  0
  5  6  1  0  0  0
  5 26  1  0  0  0
  5 95  1  0  0  0
  6 25  1  0  0  0
  6 96  1  0  0  0
  6 97  1  0  0  0
  7  8  2  0  0  0
  7 26  1  0  0  0
  7 29  1  0  0  0
  8  9  1  0  0  0
  8 22  1  0  0  0
  9 10  1  0  0  0
  9 27  2  0  0  0
 10 11  2  0  0  0
 10 15  1  0  0  0
 11 12  1  0  0  0
 11 98  1  0  0  0
 12 13  2  0  0  0
 12 99  1  0  0  0
 13 14  1  0  0  0
 13 31  1  0  0  0
 14 15  2  0  0  0
 14100  1  0  0  0
 15101  1  0  0  0
 16 17  2  0  0  0
 16 21  1  0  0  0
 16 31  1  0  0  0
 17 18  1  0  0  0
 17102  1  0  0  0
 18 19  2  0  0  0
 18103  1  0  0  0
 19 20  1  0  0  0
 19 24  1  0  0  0
 20 21  2  0  0  0
 20104  1  0  0  0
 21 23  1  0  0  0
 22 28  1  0  0  0
 22 32  2  0  0  0
 26 27  1  0  0  0
 28105  1  0  0  0
 28106  1  0  0  0
 29107  1  0  0  0
 29108  1  0  0  0
 33 34  1  0  0  0
 33 66  1  0  0  0
 33 70  2  0  0  0
 34 36  1  0  0  0
 34 59  1  0  0  0
 34109  1  0  0  0
 35 44  2  0  0  0
 35 45  1  0  0  0
 35 68  1  0  0  0
 36 56  1  0  0  0
 36110  1  0  0  0
 37 39  1  0  0  0
 37 47  1  0  0  0
 37 66  1  0  0  0
 37111  1  0  0  0
 38 43  2  0  0  0
 38 46  1  0  0  0
 38 47  1  0  0  0
 39 64  1  0  0  0
 39 67  2  0  0  0
 40 52  1  0  0  0
 40 53  2  0  0  0
 40 58  1  0  0  0
 41112  1  0  0  0
 41113  1  0  0  0
 41114  1  0  0  0
 41 48  1  0  0  0
 42 43  1  0  0  0
 42 66  1  0  0  0
 42115  1  0  0  0
 42116  1  0  0  0
 43 44  1  0  0  0
 44117  1  0  0  0
 45 46  2  0  0  0
 45118  1  0  0  0
 46119  1  0  0  0
 47120  1  0  0  0
 47121  1  0  0  0
 48 56  1  0  0  0
 48 65  1  0  0  0
 48122  1  0  0  0
 49 50  1  0  0  0
 49 53  1  0  0  0
 49 64  1  0  0  0
 49123  1  0  0  0
 50 51  1  0  0  0
 50124  1  0  0  0
 50125  1  0  0  0
 51 52  1  0  0  0
 51126  1  0  0  0
 51127  1  0  0  0
 52128  1  0  0  0
 52129  1  0  0  0
 53 54  1  0  0  0
 54 55  2  0  0  0
 54130  1  0  0  0
 55 57  1  0  0  0
 55131  1  0  0  0
 56 69  2  0  0  0
 57 58  2  0  0  0
 57132  1  0  0  0
 58133  1  0  0  0
 59 60  1  0  0  0
 59 61  1  0  0  0
 59 62  1  0  0  0
 60134  1  0  0  0
 60135  1  0  0  0
 60136  1  0  0  0
 61137  1  0  0  0
 61138  1  0  0  0
 61139  1  0  0  0
 62140  1  0  0  0
 62141  1  0  0  0
 62142  1  0  0  0
 63 65  1  0  0  0
 63143  1  0  0  0
 63144  1  0  0  0
 63145  1  0  0  0
 64146  1  0  0  0
 65147  1  0  0  0
 68 85  1  0  0  0
 71 72  2  0  0  0
 71 73  1  0  0  0
 71148  1  0  0  0
 72 74  1  0  0  0
 72149  1  0  0  0
 73 76  2  0  0  0
 73150  1  0  0  0
 74 75  2  0  0  0
 74 81  1  0  0  0
 75 76  1  0  0  0
 75 82  1  0  0  0
 76 86  1  0  0  0
 77 78  1  0  0  0
 77 79  1  0  0  0
 77151  1  0  0  0
 77152  1  0  0  0
 78 80  1  0  0  0
 78153  1  0  0  0
 78154  1  0  0  0
 79 87  1  0  0  0
 79155  1  0  0  0
 79156  1  0  0  0
 80 87  1  0  0  0
 80157  1  0  0  0
 80158  1  0  0  0
 81159  1  0  0  0
 81160  1  0  0  0
 81 87  1  0  0  0
 82 88  1  0  0  0
 82161  1  0  0  0
 82162  1  0  0  0
 83 84  1  0  0  0
 83 85  1  0  0  0
 83163  1  0  0  0
 83164  1  0  0  0
 84 88  1  0  0  0
 84165  1  0  0  0
 84166  1  0  0  0
 85167  1  0  0  0
 85168  1  0  0  0
 86169  1  0  0  0
 87170  1  0  0  0
 88171  1  0  0  0
 88172  1  0  0  0
M  CHG  2  87   1  88   1
M  ISO  4   1 100  68 101  85 101  86 100
M  END
> <chiral flag>
0

> <version>
0

> <s_m_source_file>
/data/baiqing/PycharmProjects/Reinvent-master-3.2/result/LINK_invent/BTK/process_docking_weight1_custom_product_contain_oxygen_bond_distance_aromatic_linkinvent_7_9_3/rearranged_h_0030.sdf

> <i_m_source_file_index>
65

> <r_mmod_Potential_Energy-OPLS-2005>
126.397308349609

> <r_mmod_Stretch_Energy-OPLS-2005>
175.792098999023

> <r_mmod_Bend_Energy-OPLS-2005>
237.485595703125

> <r_mmod_Torsional_Energy-OPLS-2005>
328.707244873047

> <r_mmod_Improper_Torsional_Energy-OPLS-2005>
8.11912441253662

> <r_mmod_Van_der_Waal_Energy-OPLS-2005>
142.125183105469

> <r_mmod_Electrostatic_Energy-OPLS-2005>
166.136596679688

> <r_mmod_Solvation_Energy-OPLS-2005>
-1036.71423339844

> <b_mmod_Minimization_Converged-OPLS-2005>
0

> <r_mmod_RMS_Derivative-OPLS-2005>
2.01259064674377

$$$$
65
                    3D
 Structure written by MMmdl.
167176  0  0  1  0            999 V2000
  -30.6276  -14.8308   20.2705 C   0  0  0  0  0  0
  -30.4310  -12.4928   19.4166 C   0  0  0  0  0  0
  -29.5007  -12.4575   18.1913 C   0  0  0  0  0  0
  -28.0246  -12.3191   18.6296 C   0  0  0  0  0  0
  -27.6363  -13.2219   19.8369 C   0  0  2  0  0  0
  -28.7147  -13.2550   20.9296 C   0  0  0  0  0  0
  -25.2619  -13.8150   20.5875 C   0  0  0  0  0  0
  -24.1881  -13.0402   20.9250 C   0  0  0  0  0  0
  -24.6454  -11.6886   20.8733 C   0  0  0  0  0  0
  -23.9114  -10.4286   21.0340 C   0  0  0  0  0  0
  -24.3649   -9.4221   21.9136 C   0  0  0  0  0  0
  -23.6333   -8.2262   22.0725 C   0  0  0  0  0  0
  -22.4328   -8.0273   21.3523 C   0  0  0  0  0  0
  -21.9944   -9.0261   20.4648 C   0  0  0  0  0  0
  -22.7271  -10.2133   20.3013 C   0  0  0  0  0  0
  -21.6899   -6.0739   22.5268 C   0  0  0  0  0  0
  -21.4061   -6.5640   23.8205 C   0  0  0  0  0  0
  -21.3664   -5.6781   24.9155 C   0  0  0  0  0  0
  -21.6059   -4.3053   24.7208 C   0  0  0  0  0  0
  -21.8825   -3.8141   23.4332 C   0  0  0  0  0  0
  -21.9226   -4.6964   22.3393 C   0  0  0  0  0  0
  -22.7902  -13.5196   21.1834 C   0  0  0  0  0  0
  -22.1656   -4.2139   21.0974 F   0  0  0  0  0  0
  -21.5636   -3.4542   25.7729 F   0  0  0  0  0  0
  -29.9593  -13.6213   20.2439 N   0  0  0  0  0  0
  -26.3004  -12.9323   20.3383 N   0  0  0  0  0  0
  -25.9392  -11.6472   20.5785 N   0  0  0  0  0  0
  -22.0538  -12.8185   22.0350 N   0  0  0  0  0  0
  -25.4327  -15.1883   20.4484 N   0  0  0  0  0  0
  -31.8482  -14.7825   20.4436 O   0  0  0  0  0  0
  -21.6666   -6.8884   21.4239 O   0  0  0  0  0  0
  -22.3597  -14.5498   20.6658 O   0  0  0  0  0  0
  -24.6341  -31.8545   23.1972 C   0  0  0  0  0  0
  -25.9150  -32.4742   23.8328 C   0  0  1  0  0  0
  -27.2051  -27.2272   20.1356 C   0  0  0  0  0  0
  -25.5924  -33.8545   24.2262 N   0  0  0  0  0  0
  -23.4318  -30.4805   21.5409 C   0  0  2  0  0  0
  -24.8759  -28.9263   20.1115 C   0  0  0  0  0  0
  -22.7517  -29.4610   22.4884 C   0  0  0  0  0  0
  -18.0307  -28.1393   22.8490 C   0  0  0  0  0  0
  -24.1495  -36.7273   23.2647 C   0  0  0  0  0  0
  -25.9824  -30.7543   21.3859 C   0  0  0  0  0  0
  -26.0504  -29.3751   20.7295 C   0  0  0  0  0  0
  -27.2176  -28.5388   20.7305 C   0  0  0  0  0  0
  -26.0119  -26.8726   19.4619 C   0  0  0  0  0  0
  -24.8632  -27.6844   19.4657 C   0  0  0  0  0  0
  -23.6513  -29.8194   20.1565 C   0  0  0  0  0  0
  -25.4121  -36.3056   24.0338 C   0  0  1  0  0  0
  -20.5909  -28.3708   23.1255 C   0  0  2  0  0  0
  -20.6788  -26.9425   22.5406 C   0  0  0  0  0  0
  -19.5754  -26.6395   21.5216 C   0  0  0  0  0  0
  -18.1936  -26.7947   22.1632 C   0  0  0  0  0  0
  -19.1564  -28.8878   23.2872 C   0  0  0  0  0  0
  -18.9476  -30.1472   23.8889 C   0  0  0  0  0  0
  -17.6472  -30.6591   24.0574 C   0  0  0  0  0  0
  -25.9058  -34.9433   23.5102 C   0  0  0  0  0  0
  -16.5366  -29.9085   23.6338 C   0  0  0  0  0  0
  -16.7294  -28.6514   23.0357 C   0  0  0  0  0  0
  -26.4510  -31.6572   25.0726 C   0  0  0  0  0  0
  -25.3718  -31.3737   26.1439 C   0  0  0  0  0  0
  -27.0383  -30.2983   24.6245 C   0  0  0  0  0  0
  -27.6072  -32.4320   25.7469 C   0  0  0  0  0  0
  -27.5586  -37.1796   24.8468 C   0  0  0  0  0  0
  -21.4219  -29.3051   22.3630 N   0  0  0  0  0  0
  -26.4296  -37.3759   23.9410 N   0  0  0  0  0  0
  -24.7025  -31.0503   22.0968 N   0  0  0  0  0  0
  -23.4203  -28.8128   23.2988 O   0  0  0  0  0  0
  -28.2876  -26.3055   20.1747 O   0  0  0  0  0  0
  -26.5637  -34.8906   22.4675 O   0  0  0  0  0  0
  -23.5475  -32.1385   23.7250 O   0  0  0  0  0  0
  -27.7896  -19.5601   19.2347 C   0  0  0  0  0  0
  -27.3794  -18.3505   18.6509 C   0  0  0  0  0  0
  -29.6907  -18.3678   20.1929 C   0  0  0  0  0  0
  -28.9777  -19.6357   19.9849 C   0  0  0  0  0  0
  -28.1329  -17.1656   18.7591 C   0  0  0  0  0  0
  -29.2953  -17.0843   19.5974 C   0  0  0  0  0  0
  -27.9503  -22.7669   21.7132 C   0  0  0  0  0  0
  -27.4646  -21.9231   22.6411 C   0  0  0  0  0  0
  -27.8975  -24.3058   21.7482 C   0  0  0  0  0  0
  -28.9694  -23.6463   19.7571 C   0  0  0  0  0  0
  -28.0248  -24.8095   20.3021 C   0  0  2  0  0  0
  -27.7089  -16.0803   17.7740 C   0  0  0  0  0  0
  -32.1086  -17.0844   18.2831 C   0  0  0  0  0  0
  -29.4838  -21.1008   20.4086 C   0  0  0  0  0  0
  -30.9936  -16.0186   18.1954 C   0  0  0  0  0  0
  -30.1746  -15.8777   19.4298 N   0  0  0  0  0  0
  -28.5298  -22.3268   20.3963 N   0  3  2  0  0  0
  -31.4704  -12.6190   19.1045 H   0  0  0  0  0  0
  -30.3804  -11.5490   19.9595 H   0  0  0  0  0  0
  -29.7727  -11.6197   17.5470 H   0  0  0  0  0  0
  -29.6439  -13.3502   17.5857 H   0  0  0  0  0  0
  -27.8659  -11.2739   18.8928 H   0  0  0  0  0  0
  -27.3646  -12.5097   17.7815 H   0  0  0  0  0  0
  -27.5914  -14.2355   19.4725 H   0  0  0  0  0  0
  -28.8063  -12.2929   21.4369 H   0  0  0  0  0  0
  -28.4661  -14.0006   21.6832 H   0  0  0  0  0  0
  -25.2776   -9.5751   22.4705 H   0  0  0  0  0  0
  -24.0052   -7.4696   22.7482 H   0  0  0  0  0  0
  -21.0839   -8.8803   19.9019 H   0  0  0  0  0  0
  -22.3696  -10.9660   19.6126 H   0  0  0  0  0  0
  -21.2051   -7.6150   23.9701 H   0  0  0  0  0  0
  -21.1460   -6.0509   25.9055 H   0  0  0  0  0  0
  -22.0597   -2.7600   23.2842 H   0  0  0  0  0  0
  -22.4121  -11.9822   22.4731 H   0  0  0  0  0  0
  -21.1146  -13.1232   22.2464 H   0  0  0  0  0  0
  -24.6761  -15.8408   20.6170 H   0  0  0  0  0  0
  -26.2958  -15.6438   20.1767 H   0  0  0  0  0  0
  -26.7209  -32.5397   23.1069 H   0  0  0  0  0  0
  -25.0063  -33.9670   25.0388 H   0  0  0  0  0  0
  -22.7311  -31.3065   21.3966 H   0  0  0  0  0  0
  -23.3752  -35.9605   23.3303 H   0  0  0  0  0  0
  -24.3593  -36.8887   22.2058 H   0  0  0  0  0  0
  -23.7242  -37.6477   23.6663 H   0  0  0  0  0  0
  -26.1348  -31.5157   20.6193 H   0  0  0  0  0  0
  -26.8556  -30.7970   22.0252 H   0  0  0  0  0  0
  -28.1132  -28.8774   21.2340 H   0  0  0  0  0  0
  -25.9274  -25.9530   18.9061 H   0  0  0  0  0  0
  -23.9710  -27.3472   18.9554 H   0  0  0  0  0  0
  -23.7762  -30.5963   19.4013 H   0  0  0  0  0  0
  -22.7706  -29.2534   19.8481 H   0  0  0  0  0  0
  -25.1306  -36.1911   25.0832 H   0  0  0  0  0  0
  -21.0037  -28.3293   24.1361 H   0  0  0  0  0  0
  -20.5684  -26.2328   23.3619 H   0  0  0  0  0  0
  -21.6657  -26.7435   22.1200 H   0  0  0  0  0  0
  -19.6900  -25.6303   21.1251 H   0  0  0  0  0  0
  -19.6687  -27.3211   20.6747 H   0  0  0  0  0  0
  -17.4218  -26.6716   21.4015 H   0  0  0  0  0  0
  -18.0315  -26.0081   22.9022 H   0  0  0  0  0  0
  -19.7948  -30.7308   24.2230 H   0  0  0  0  0  0
  -17.5023  -31.6264   24.5192 H   0  0  0  0  0  0
  -15.5360  -30.2991   23.7660 H   0  0  0  0  0  0
  -15.8699  -28.0835   22.7051 H   0  0  0  0  0  0
  -24.5855  -30.7146   25.7744 H   0  0  0  0  0  0
  -24.8966  -32.2923   26.4894 H   0  0  0  0  0  0
  -25.8011  -30.8861   27.0201 H   0  0  0  0  0  0
  -26.2992  -29.6688   24.1283 H   0  0  0  0  0  0
  -27.4070  -29.7289   25.4788 H   0  0  0  0  0  0
  -27.8860  -30.4264   23.9510 H   0  0  0  0  0  0
  -27.2688  -33.3623   26.2050 H   0  0  0  0  0  0
  -28.3850  -32.6884   25.0258 H   0  0  0  0  0  0
  -28.0777  -31.8448   26.5367 H   0  0  0  0  0  0
  -28.2619  -38.0084   24.7515 H   0  0  0  0  0  0
  -28.1075  -36.2623   24.6302 H   0  0  0  0  0  0
  -27.2314  -37.1440   25.8874 H   0  0  0  0  0  0
  -20.9406  -29.8797   21.6860 H   0  0  0  0  0  0
  -26.0178  -38.2834   24.1398 H   0  0  0  0  0  0
  -27.2076  -20.4448   19.0187 H   0  0  0  0  0  0
  -26.5112  -18.3632   18.0033 H   0  0  0  0  0  0
  -30.6294  -18.4015   20.7284 H   0  0  0  0  0  0
  -27.0266  -22.3043   23.5526 H   0  0  0  0  0  0
  -27.4853  -20.8491   22.5177 H   0  0  0  0  0  0
  -28.7292  -24.6717   22.3533 H   0  0  0  0  0  0
  -26.9740  -24.6546   22.2095 H   0  0  0  0  0  0
  -30.0032  -23.8495   20.0355 H   0  0  0  0  0  0
  -28.9341  -23.5764   18.6690 H   0  0  0  0  0  0
  -27.0713  -24.5751   19.8393 H   0  0  0  0  0  0
  -26.6893  -15.7531   17.9763 H   0  0  0  0  0  0
  -28.3605  -15.2145   17.7453 H   0  0  0  0  0  0
  -27.7167  -16.4871   16.7603 H   0  0  0  0  0  0
  -32.7133  -17.0651   17.3750 H   0  0  0  0  0  0
  -32.7802  -16.9069   19.1241 H   0  0  0  0  0  0
  -31.7188  -18.0988   18.3804 H   0  0  0  0  0  0
  -30.3142  -21.3339   19.7400 H   0  0  0  0  0  0
  -29.9333  -21.0296   21.3987 H   0  0  0  0  0  0
  -31.4349  -15.0612   17.9094 H   0  0  0  0  0  0
  -30.3512  -16.2751   17.3527 H   0  0  0  0  0  0
  -27.7573  -22.0139   19.8284 H   0  0  0  0  0  0
  1 25  1  0  0  0
  1 30  2  0  0  0
  1 86  1  0  0  0
  2  3  1  0  0  0
  2 25  1  0  0  0
  2 88  1  0  0  0
  2 89  1  0  0  0
  3  4  1  0  0  0
  3 90  1  0  0  0
  3 91  1  0  0  0
  4  5  1  0  0  0
  4 92  1  0  0  0
  4 93  1  0  0  0
  5  6  1  0  0  0
  5 26  1  0  0  0
  5 94  1  0  0  0
  6 25  1  0  0  0
  6 95  1  0  0  0
  6 96  1  0  0  0
  7  8  2  0  0  0
  7 26  1  0  0  0
  7 29  1  0  0  0
  8  9  1  0  0  0
  8 22  1  0  0  0
  9 10  1  0  0  0
  9 27  2  0  0  0
 10 11  2  0  0  0
 10 15  1  0  0  0
 11 12  1  0  0  0
 11 97  1  0  0  0
 12 13  2  0  0  0
 12 98  1  0  0  0
 13 14  1  0  0  0
 13 31  1  0  0  0
 14 15  2  0  0  0
 14 99  1  0  0  0
 15100  1  0  0  0
 16 17  2  0  0  0
 16 21  1  0  0  0
 16 31  1  0  0  0
 17 18  1  0  0  0
 17101  1  0  0  0
 18 19  2  0  0  0
 18102  1  0  0  0
 19 20  1  0  0  0
 19 24  1  0  0  0
 20 21  2  0  0  0
 20103  1  0  0  0
 21 23  1  0  0  0
 22 28  1  0  0  0
 22 32  2  0  0  0
 26 27  1  0  0  0
 28104  1  0  0  0
 28105  1  0  0  0
 29106  1  0  0  0
 29107  1  0  0  0
 33 34  1  0  0  0
 33 66  1  0  0  0
 33 70  2  0  0  0
 34 36  1  0  0  0
 34 59  1  0  0  0
 34108  1  0  0  0
 35 44  2  0  0  0
 35 45  1  0  0  0
 35 68  1  0  0  0
 36 56  1  0  0  0
 36109  1  0  0  0
 37 39  1  0  0  0
 37 47  1  0  0  0
 37 66  1  0  0  0
 37110  1  0  0  0
 38 43  2  0  0  0
 38 46  1  0  0  0
 38 47  1  0  0  0
 39 64  1  0  0  0
 39 67  2  0  0  0
 40 52  1  0  0  0
 40 53  2  0  0  0
 40 58  1  0  0  0
 41111  1  0  0  0
 41112  1  0  0  0
 41113  1  0  0  0
 41 48  1  0  0  0
 42 43  1  0  0  0
 42 66  1  0  0  0
 42114  1  0  0  0
 42115  1  0  0  0
 43 44  1  0  0  0
 44116  1  0  0  0
 45 46  2  0  0  0
 45117  1  0  0  0
 46118  1  0  0  0
 47119  1  0  0  0
 47120  1  0  0  0
 48 56  1  0  0  0
 48 65  1  0  0  0
 48121  1  0  0  0
 49 50  1  0  0  0
 49 53  1  0  0  0
 49 64  1  0  0  0
 49122  1  0  0  0
 50 51  1  0  0  0
 50123  1  0  0  0
 50124  1  0  0  0
 51 52  1  0  0  0
 51125  1  0  0  0
 51126  1  0  0  0
 52127  1  0  0  0
 52128  1  0  0  0
 53 54  1  0  0  0
 54 55  2  0  0  0
 54129  1  0  0  0
 55 57  1  0  0  0
 55130  1  0  0  0
 56 69  2  0  0  0
 57 58  2  0  0  0
 57131  1  0  0  0
 58132  1  0  0  0
 59 60  1  0  0  0
 59 61  1  0  0  0
 59 62  1  0  0  0
 60133  1  0  0  0
 60134  1  0  0  0
 60135  1  0  0  0
 61136  1  0  0  0
 61137  1  0  0  0
 61138  1  0  0  0
 62139  1  0  0  0
 62140  1  0  0  0
 62141  1  0  0  0
 63 65  1  0  0  0
 63142  1  0  0  0
 63143  1  0  0  0
 63144  1  0  0  0
 64145  1  0  0  0
 65146  1  0  0  0
 68 81  1  0  0  0
 71 72  2  0  0  0
 71 74  1  0  0  0
 71147  1  0  0  0
 72 75  1  0  0  0
 72148  1  0  0  0
 73 74  2  0  0  0
 73 76  1  0  0  0
 73149  1  0  0  0
 74 84  1  0  0  0
 75 76  2  0  0  0
 75 82  1  0  0  0
 76 86  1  0  0  0
 77 78  2  0  0  0
 77 79  1  0  0  0
 77 87  1  0  0  0
 78150  1  0  0  0
 78151  1  0  0  0
 79 81  1  0  0  0
 79152  1  0  0  0
 79153  1  0  0  0
 80 81  1  0  0  0
 80 87  1  0  0  0
 80154  1  0  0  0
 80155  1  0  0  0
 81156  1  0  0  0
 82157  1  0  0  0
 82158  1  0  0  0
 82159  1  0  0  0
 83 85  1  0  0  0
 83160  1  0  0  0
 83161  1  0  0  0
 83162  1  0  0  0
 84163  1  0  0  0
 84164  1  0  0  0
 84 87  1  0  0  0
 85 86  1  0  0  0
 85165  1  0  0  0
 85166  1  0  0  0
 87167  1  0  0  0
M  CHG  1  87   1
M  ISO  4   1 100  68 101  81 101  86 100
M  END
> <chiral flag>
0

> <version>
0

> <s_m_source_file>
/data/baiqing/PycharmProjects/Reinvent-master-3.2/result/LINK_invent/BTK/process_docking_weight1_custom_product_contain_oxygen_bond_distance_aromatic_linkinvent_7_9_3/rearranged_h_0030.sdf

> <i_m_source_file_index>
66

> <r_mmod_Potential_Energy-OPLS-2005>
501.563385009766

> <r_mmod_Stretch_Energy-OPLS-2005>
151.89453125

> <r_mmod_Bend_Energy-OPLS-2005>
253.861526489258

> <r_mmod_Torsional_Energy-OPLS-2005>
371.668762207031

> <r_mmod_Improper_Torsional_Energy-OPLS-2005>
35.8208274841309

> <r_mmod_Van_der_Waal_Energy-OPLS-2005>
136.746200561523

> <r_mmod_Electrostatic_Energy-OPLS-2005>
-179.448577880859

> <r_mmod_Solvation_Energy-OPLS-2005>
-414.68896484375

> <b_mmod_Minimization_Converged-OPLS-2005>
0

> <r_mmod_RMS_Derivative-OPLS-2005>
4.17526197433472

$$$$
66
                    3D
 Structure written by MMmdl.
163172  0  0  1  0            999 V2000
  -30.6619  -14.5888   20.4778 C   0  0  0  0  0  0
  -30.4254  -12.3555   19.4590 C   0  0  0  0  0  0
  -29.5154  -12.5091   18.2207 C   0  0  0  0  0  0
  -28.0287  -12.3820   18.6159 C   0  0  0  0  0  0
  -27.6582  -13.2285   19.8660 C   0  0  2  0  0  0
  -28.7018  -13.0785   20.9968 C   0  0  0  0  0  0
  -25.2579  -13.8245   20.5661 C   0  0  0  0  0  0
  -24.1865  -13.0514   20.9169 C   0  0  0  0  0  0
  -24.6426  -11.6968   20.8713 C   0  0  0  0  0  0
  -23.9090  -10.4355   21.0383 C   0  0  0  0  0  0
  -24.3649   -9.4279   21.9155 C   0  0  0  0  0  0
  -23.6327   -8.2310   22.0728 C   0  0  0  0  0  0
  -22.4294   -8.0335   21.3542 C   0  0  0  0  0  0
  -21.9934   -9.0313   20.4647 C   0  0  0  0  0  0
  -22.7253  -10.2194   20.3056 C   0  0  0  0  0  0
  -21.6873   -6.0768   22.5275 C   0  0  0  0  0  0
  -21.4010   -6.5659   23.8208 C   0  0  0  0  0  0
  -21.3654   -5.6800   24.9172 C   0  0  0  0  0  0
  -21.6052   -4.3063   24.7212 C   0  0  0  0  0  0
  -21.8820   -3.8171   23.4327 C   0  0  0  0  0  0
  -21.9206   -4.6996   22.3394 C   0  0  0  0  0  0
  -22.7883  -13.5291   21.1854 C   0  0  0  0  0  0
  -22.1678   -4.2189   21.0963 F   0  0  0  0  0  0
  -21.5633   -3.4540   25.7714 F   0  0  0  0  0  0
  -30.0216  -13.3848   20.4290 N   0  0  0  0  0  0
  -26.3020  -12.9450   20.3310 N   0  0  0  0  0  0
  -25.9362  -11.6590   20.5733 N   0  0  0  0  0  0
  -22.0541  -12.8291   22.0425 N   0  0  0  0  0  0
  -25.4309  -15.1964   20.4000 N   0  0  0  0  0  0
  -31.8271  -14.7274   20.1001 O   0  0  0  0  0  0
  -21.6664   -6.8927   21.4245 O   0  0  0  0  0  0
  -22.3551  -14.5596   20.6711 O   0  0  0  0  0  0
  -24.6251  -31.8627   23.2068 C   0  0  0  0  0  0
  -25.9096  -32.4815   23.8405 C   0  0  1  0  0  0
  -27.2131  -27.3390   20.0877 C   0  0  0  0  0  0
  -25.5930  -33.8624   24.2330 N   0  0  0  0  0  0
  -23.4182  -30.4893   21.5522 C   0  0  2  0  0  0
  -24.8589  -28.9576   20.1063 C   0  0  0  0  0  0
  -22.7475  -29.4625   22.4945 C   0  0  0  0  0  0
  -18.0288  -28.1351   22.8501 C   0  0  0  0  0  0
  -24.1496  -36.7304   23.2637 C   0  0  0  0  0  0
  -25.9616  -30.7950   21.3827 C   0  0  0  0  0  0
  -26.0290  -29.4284   20.7141 C   0  0  0  0  0  0
  -27.2098  -28.6308   20.6941 C   0  0  0  0  0  0
  -26.0274  -26.9358   19.4307 C   0  0  0  0  0  0
  -24.8612  -27.7191   19.4488 C   0  0  0  0  0  0
  -23.6281  -29.8360   20.1643 C   0  0  0  0  0  0
  -25.4118  -36.3114   24.0342 C   0  0  1  0  0  0
  -20.5886  -28.3699   23.1304 C   0  0  2  0  0  0
  -20.6811  -26.9367   22.5555 C   0  0  0  0  0  0
  -19.5811  -26.6223   21.5379 C   0  0  0  0  0  0
  -18.1961  -26.7851   22.1737 C   0  0  0  0  0  0
  -19.1540  -28.8856   23.2862 C   0  0  0  0  0  0
  -18.9442  -30.1459   23.8856 C   0  0  0  0  0  0
  -17.6437  -30.6600   24.0460 C   0  0  0  0  0  0
  -25.9041  -34.9476   23.5129 C   0  0  0  0  0  0
  -16.5327  -29.9058   23.6276 C   0  0  0  0  0  0
  -16.7271  -28.6446   23.0364 C   0  0  0  0  0  0
  -26.4477  -31.6617   25.0775 C   0  0  0  0  0  0
  -25.3693  -31.3779   26.1501 C   0  0  0  0  0  0
  -27.0299  -30.3037   24.6220 C   0  0  0  0  0  0
  -27.6061  -32.4334   25.7519 C   0  0  0  0  0  0
  -27.5589  -37.1810   24.8463 C   0  0  0  0  0  0
  -21.4200  -29.3020   22.3666 N   0  0  0  0  0  0
  -26.4301  -37.3799   23.9405 N   0  0  0  0  0  0
  -24.6866  -31.0654   22.1026 N   0  0  0  0  0  0
  -23.4212  -28.8161   23.3026 O   0  0  0  0  0  0
  -28.3352  -26.5013   20.1262 O   0  0  0  0  0  0
  -26.5613  -34.8923   22.4692 O   0  0  0  0  0  0
  -23.5411  -32.1401   23.7398 O   0  0  0  0  0  0
  -27.7412  -19.2331   22.5768 C   0  0  0  0  0  0
  -29.3180  -19.5171   20.3091 C   0  0  0  0  0  0
  -28.5238  -18.1386   22.1554 C   0  0  0  0  0  0
  -27.7197  -20.4625   21.8867 C   0  0  0  0  0  0
  -29.3289  -18.2534   20.9891 C   0  0  0  0  0  0
  -28.5218  -20.6366   20.7256 C   0  0  0  0  0  0
  -29.0616  -24.2423   19.1003 C   0  0  0  0  0  0
  -28.7898  -24.1501   21.1329 C   0  0  0  0  0  0
  -28.1384  -25.0347   20.0488 C   0  0  1  0  0  0
  -28.4537  -16.8764   23.0005 C   0  0  0  0  0  0
  -26.8014  -21.5406   22.4537 C   0  0  0  0  0  0
  -30.2406  -17.0974   20.4579 C   0  0  0  0  0  0
  -28.3925  -21.9133   19.8264 C   0  0  0  0  0  0
  -29.8852  -15.6746   20.7328 N   0  0  0  0  0  0
  -29.2009  -23.1624   20.1078 N   0  3  1  0  0  0
  -31.4776  -12.4398   19.1838 H   0  0  0  0  0  0
  -30.3103  -11.3667   19.9031 H   0  0  0  0  0  0
  -29.7692  -11.7564   17.4744 H   0  0  0  0  0  0
  -29.6877  -13.4753   17.7403 H   0  0  0  0  0  0
  -27.8193  -11.3277   18.7992 H   0  0  0  0  0  0
  -27.3994  -12.6763   17.7747 H   0  0  0  0  0  0
  -27.6821  -14.2699   19.5427 H   0  0  0  0  0  0
  -28.6936  -12.0641   21.3988 H   0  0  0  0  0  0
  -28.4643  -13.7378   21.8332 H   0  0  0  0  0  0
  -25.2810   -9.5780   22.4700 H   0  0  0  0  0  0
  -24.0071   -7.4706   22.7417 H   0  0  0  0  0  0
  -21.0875   -8.8849   19.8936 H   0  0  0  0  0  0
  -22.3712  -10.9746   19.6167 H   0  0  0  0  0  0
  -21.1981   -7.6155   23.9730 H   0  0  0  0  0  0
  -21.1459   -6.0513   25.9068 H   0  0  0  0  0  0
  -22.0591   -2.7631   23.2812 H   0  0  0  0  0  0
  -22.4167  -11.9936   22.4798 H   0  0  0  0  0  0
  -21.1162  -13.1326   22.2646 H   0  0  0  0  0  0
  -24.6636  -15.8529   20.4918 H   0  0  0  0  0  0
  -26.2800  -15.6301   20.0621 H   0  0  0  0  0  0
  -26.7165  -32.5493   23.1160 H   0  0  0  0  0  0
  -25.0115  -33.9788   25.0502 H   0  0  0  0  0  0
  -22.7143  -31.3136   21.4205 H   0  0  0  0  0  0
  -23.3768  -35.9626   23.3308 H   0  0  0  0  0  0
  -24.3581  -36.8894   22.2043 H   0  0  0  0  0  0
  -23.7225  -37.6506   23.6638 H   0  0  0  0  0  0
  -26.1041  -31.5658   20.6239 H   0  0  0  0  0  0
  -26.8410  -30.8313   22.0145 H   0  0  0  0  0  0
  -28.1174  -28.9856   21.1619 H   0  0  0  0  0  0
  -25.9803  -26.0197   18.8597 H   0  0  0  0  0  0
  -23.9729  -27.3730   18.9362 H   0  0  0  0  0  0
  -23.7477  -30.6221   19.4195 H   0  0  0  0  0  0
  -22.7444  -29.2761   19.8559 H   0  0  0  0  0  0
  -25.1280  -36.1986   25.0836 H   0  0  0  0  0  0
  -20.9954  -28.3356   24.1437 H   0  0  0  0  0  0
  -20.5710  -26.2334   23.3837 H   0  0  0  0  0  0
  -21.6690  -26.7355   22.1409 H   0  0  0  0  0  0
  -19.6937  -25.6061   21.1572 H   0  0  0  0  0  0
  -19.6785  -27.2917   20.6828 H   0  0  0  0  0  0
  -17.4226  -26.6477   21.4166 H   0  0  0  0  0  0
  -18.0400  -26.0105   22.9258 H   0  0  0  0  0  0
  -19.7907  -30.7302   24.2205 H   0  0  0  0  0  0
  -17.4972  -31.6330   24.4944 H   0  0  0  0  0  0
  -15.5318  -30.2955   23.7559 H   0  0  0  0  0  0
  -15.8675  -28.0701   22.7166 H   0  0  0  0  0  0
  -24.5890  -30.7093   25.7855 H   0  0  0  0  0  0
  -24.8852  -32.2946   26.4878 H   0  0  0  0  0  0
  -25.7993  -30.9007   27.0311 H   0  0  0  0  0  0
  -26.2862  -29.6835   24.1210 H   0  0  0  0  0  0
  -27.3951  -29.7266   25.4724 H   0  0  0  0  0  0
  -27.8763  -30.4352   23.9480 H   0  0  0  0  0  0
  -27.2717  -33.3651   26.2102 H   0  0  0  0  0  0
  -28.3860  -32.6854   25.0322 H   0  0  0  0  0  0
  -28.0754  -31.8451   26.5412 H   0  0  0  0  0  0
  -28.2610  -38.0106   24.7513 H   0  0  0  0  0  0
  -28.1079  -36.2630   24.6288 H   0  0  0  0  0  0
  -27.2311  -37.1468   25.8870 H   0  0  0  0  0  0
  -20.9361  -29.8731   21.6867 H   0  0  0  0  0  0
  -26.0195  -38.2882   24.1391 H   0  0  0  0  0  0
  -27.1207  -19.1226   23.4574 H   0  0  0  0  0  0
  -29.9233  -19.6182   19.4189 H   0  0  0  0  0  0
  -30.0096  -24.7461   18.9081 H   0  0  0  0  0  0
  -28.5994  -23.9192   18.1663 H   0  0  0  0  0  0
  -28.1123  -23.7908   21.9011 H   0  0  0  0  0  0
  -29.6650  -24.6150   21.5876 H   0  0  0  0  0  0
  -27.1063  -24.7006   19.9528 H   0  0  0  0  0  0
  -27.7571  -16.1634   22.5566 H   0  0  0  0  0  0
  -28.1024  -17.0978   24.0088 H   0  0  0  0  0  0
  -29.4297  -16.4068   23.1145 H   0  0  0  0  0  0
  -25.9004  -21.0915   22.8742 H   0  0  0  0  0  0
  -26.4681  -22.2806   21.7272 H   0  0  0  0  0  0
  -27.2977  -22.0556   23.2776 H   0  0  0  0  0  0
  -31.2509  -17.2874   20.8245 H   0  0  0  0  0  0
  -30.3091  -17.1975   19.3728 H   0  0  0  0  0  0
  -27.3401  -22.1635   19.7041 H   0  0  0  0  0  0
  -28.6985  -21.5844   18.8323 H   0  0  0  0  0  0
  -28.9441  -15.4969   21.0396 H   0  0  0  0  0  0
  -30.1682  -22.9041   20.2178 H   0  0  0  0  0  0
  1 25  1  0  0  0
  1 30  2  0  0  0
  1 84  1  0  0  0
  2  3  1  0  0  0
  2 25  1  0  0  0
  2 86  1  0  0  0
  2 87  1  0  0  0
  3  4  1  0  0  0
  3 88  1  0  0  0
  3 89  1  0  0  0
  4  5  1  0  0  0
  4 90  1  0  0  0
  4 91  1  0  0  0
  5  6  1  0  0  0
  5 26  1  0  0  0
  5 92  1  0  0  0
  6 25  1  0  0  0
  6 93  1  0  0  0
  6 94  1  0  0  0
  7  8  2  0  0  0
  7 26  1  0  0  0
  7 29  1  0  0  0
  8  9  1  0  0  0
  8 22  1  0  0  0
  9 10  1  0  0  0
  9 27  2  0  0  0
 10 11  2  0  0  0
 10 15  1  0  0  0
 11 12  1  0  0  0
 11 95  1  0  0  0
 12 13  2  0  0  0
 12 96  1  0  0  0
 13 14  1  0  0  0
 13 31  1  0  0  0
 14 15  2  0  0  0
 14 97  1  0  0  0
 15 98  1  0  0  0
 16 17  2  0  0  0
 16 21  1  0  0  0
 16 31  1  0  0  0
 17 18  1  0  0  0
 17 99  1  0  0  0
 18 19  2  0  0  0
 18100  1  0  0  0
 19 20  1  0  0  0
 19 24  1  0  0  0
 20 21  2  0  0  0
 20101  1  0  0  0
 21 23  1  0  0  0
 22 28  1  0  0  0
 22 32  2  0  0  0
 26 27  1  0  0  0
 28102  1  0  0  0
 28103  1  0  0  0
 29104  1  0  0  0
 29105  1  0  0  0
 33 34  1  0  0  0
 33 66  1  0  0  0
 33 70  2  0  0  0
 34 36  1  0  0  0
 34 59  1  0  0  0
 34106  1  0  0  0
 35 44  2  0  0  0
 35 45  1  0  0  0
 35 68  1  0  0  0
 36 56  1  0  0  0
 36107  1  0  0  0
 37 39  1  0  0  0
 37 47  1  0  0  0
 37 66  1  0  0  0
 37108  1  0  0  0
 38 43  2  0  0  0
 38 46  1  0  0  0
 38 47  1  0  0  0
 39 64  1  0  0  0
 39 67  2  0  0  0
 40 52  1  0  0  0
 40 53  2  0  0  0
 40 58  1  0  0  0
 41109  1  0  0  0
 41110  1  0  0  0
 41111  1  0  0  0
 41 48  1  0  0  0
 42 43  1  0  0  0
 42 66  1  0  0  0
 42112  1  0  0  0
 42113  1  0  0  0
 43 44  1  0  0  0
 44114  1  0  0  0
 45 46  2  0  0  0
 45115  1  0  0  0
 46116  1  0  0  0
 47117  1  0  0  0
 47118  1  0  0  0
 48 56  1  0  0  0
 48 65  1  0  0  0
 48119  1  0  0  0
 49 50  1  0  0  0
 49 53  1  0  0  0
 49 64  1  0  0  0
 49120  1  0  0  0
 50 51  1  0  0  0
 50121  1  0  0  0
 50122  1  0  0  0
 51 52  1  0  0  0
 51123  1  0  0  0
 51124  1  0  0  0
 52125  1  0  0  0
 52126  1  0  0  0
 53 54  1  0  0  0
 54 55  2  0  0  0
 54127  1  0  0  0
 55 57  1  0  0  0
 55128  1  0  0  0
 56 69  2  0  0  0
 57 58  2  0  0  0
 57129  1  0  0  0
 58130  1  0  0  0
 59 60  1  0  0  0
 59 61  1  0  0  0
 59 62  1  0  0  0
 60131  1  0  0  0
 60132  1  0  0  0
 60133  1  0  0  0
 61134  1  0  0  0
 61135  1  0  0  0
 61136  1  0  0  0
 62137  1  0  0  0
 62138  1  0  0  0
 62139  1  0  0  0
 63 65  1  0  0  0
 63140  1  0  0  0
 63141  1  0  0  0
 63142  1  0  0  0
 64143  1  0  0  0
 65144  1  0  0  0
 68 79  1  0  0  0
 71 73  2  0  0  0
 71 74  1  0  0  0
 71145  1  0  0  0
 72 75  2  0  0  0
 72 76  1  0  0  0
 72146  1  0  0  0
 73 75  1  0  0  0
 73 80  1  0  0  0
 74 76  2  0  0  0
 74 81  1  0  0  0
 75 82  1  0  0  0
 76 83  1  0  0  0
 77 79  1  0  0  0
 77 85  1  0  0  0
 77147  1  0  0  0
 77148  1  0  0  0
 78 79  1  0  0  0
 78 85  1  0  0  0
 78149  1  0  0  0
 78150  1  0  0  0
 79151  1  0  0  0
 80152  1  0  0  0
 80153  1  0  0  0
 80154  1  0  0  0
 81155  1  0  0  0
 81156  1  0  0  0
 81157  1  0  0  0
 82 84  1  0  0  0
 82158  1  0  0  0
 82159  1  0  0  0
 83160  1  0  0  0
 83161  1  0  0  0
 83 85  1  0  0  0
 84162  1  0  0  0
 85163  1  0  0  0
M  CHG  1  85   1
M  ISO  4   1 100  68 101  79 101  84 100
M  END
> <chiral flag>
0

> <version>
0

> <s_m_source_file>
/data/baiqing/PycharmProjects/Reinvent-master-3.2/result/LINK_invent/BTK/process_docking_weight1_custom_product_contain_oxygen_bond_distance_aromatic_linkinvent_7_9_3/rearranged_h_0030.sdf

> <i_m_source_file_index>
67

> <r_mmod_Potential_Energy-OPLS-2005>
-191.460357666016

> <r_mmod_Stretch_Energy-OPLS-2005>
68.1746368408203

> <r_mmod_Bend_Energy-OPLS-2005>
152.454895019531

> <r_mmod_Torsional_Energy-OPLS-2005>
225.767242431641

> <r_mmod_Improper_Torsional_Energy-OPLS-2005>
6.44226121902466

> <r_mmod_Van_der_Waal_Energy-OPLS-2005>
152.383255004883

> <r_mmod_Electrostatic_Energy-OPLS-2005>
-374.905151367188

> <r_mmod_Solvation_Energy-OPLS-2005>
-461.503479003906

> <b_mmod_Minimization_Converged-OPLS-2005>
0

> <r_mmod_RMS_Derivative-OPLS-2005>
4.45964670181274

$$$$
67
                    3D
 Structure written by MMmdl.
162171  0  0  1  0            999 V2000
  -30.6955  -14.5846   20.5002 C   0  0  0  0  0  0
  -30.4020  -12.3617   19.4501 C   0  0  0  0  0  0
  -29.4928  -12.4930   18.2133 C   0  0  0  0  0  0
  -28.0154  -12.3509   18.6243 C   0  0  0  0  0  0
  -27.6425  -13.2288   19.8513 C   0  0  2  0  0  0
  -28.6846  -13.1132   20.9844 C   0  0  0  0  0  0
  -25.2523  -13.8214   20.5706 C   0  0  0  0  0  0
  -24.1818  -13.0462   20.9214 C   0  0  0  0  0  0
  -24.6391  -11.6934   20.8732 C   0  0  0  0  0  0
  -23.9067  -10.4308   21.0398 C   0  0  0  0  0  0
  -24.3624   -9.4214   21.9171 C   0  0  0  0  0  0
  -23.6298   -8.2243   22.0737 C   0  0  0  0  0  0
  -22.4276   -8.0282   21.3528 C   0  0  0  0  0  0
  -21.9912   -9.0262   20.4633 C   0  0  0  0  0  0
  -22.7243  -10.2142   20.3041 C   0  0  0  0  0  0
  -21.6857   -6.0732   22.5281 C   0  0  0  0  0  0
  -21.4024   -6.5636   23.8216 C   0  0  0  0  0  0
  -21.3655   -5.6783   24.9176 C   0  0  0  0  0  0
  -21.6044   -4.3047   24.7227 C   0  0  0  0  0  0
  -21.8817   -3.8141   23.4346 C   0  0  0  0  0  0
  -21.9206   -4.6962   22.3406 C   0  0  0  0  0  0
  -22.7840  -13.5235   21.1878 C   0  0  0  0  0  0
  -22.1665   -4.2146   21.0979 F   0  0  0  0  0  0
  -21.5624   -3.4531   25.7737 F   0  0  0  0  0  0
  -29.9981  -13.4128   20.4063 N   0  0  0  0  0  0
  -26.2932  -12.9413   20.3277 N   0  0  0  0  0  0
  -25.9314  -11.6551   20.5729 N   0  0  0  0  0  0
  -22.0471  -12.8220   22.0422 N   0  0  0  0  0  0
  -25.4232  -15.1933   20.4140 N   0  0  0  0  0  0
  -31.8784  -14.6284   20.1526 O   0  0  0  0  0  0
  -21.6634   -6.8878   21.4238 O   0  0  0  0  0  0
  -22.3526  -14.5538   20.6722 O   0  0  0  0  0  0
  -24.6268  -31.8624   23.2040 C   0  0  0  0  0  0
  -25.9117  -32.4798   23.8364 C   0  0  1  0  0  0
  -27.2119  -27.3199   20.1100 C   0  0  0  0  0  0
  -25.5938  -33.8601   24.2296 N   0  0  0  0  0  0
  -23.4205  -30.4865   21.5485 C   0  0  2  0  0  0
  -24.8615  -28.9495   20.1086 C   0  0  0  0  0  0
  -22.7480  -29.4641   22.4955 C   0  0  0  0  0  0
  -18.0289  -28.1401   22.8504 C   0  0  0  0  0  0
  -24.1477  -36.7284   23.2643 C   0  0  0  0  0  0
  -25.9627  -30.7884   21.3796 C   0  0  0  0  0  0
  -26.0322  -29.4186   20.7201 C   0  0  0  0  0  0
  -27.2096  -28.6135   20.7158 C   0  0  0  0  0  0
  -26.0209  -26.9167   19.4587 C   0  0  0  0  0  0
  -24.8593  -27.7047   19.4675 C   0  0  0  0  0  0
  -23.6310  -29.8274   20.1618 C   0  0  0  0  0  0
  -25.4109  -36.3104   24.0339 C   0  0  1  0  0  0
  -20.5895  -28.3705   23.1287 C   0  0  2  0  0  0
  -20.6789  -26.9436   22.5412 C   0  0  0  0  0  0
  -19.5752  -26.6407   21.5226 C   0  0  0  0  0  0
  -18.1931  -26.7947   22.1641 C   0  0  0  0  0  0
  -19.1547  -28.8870   23.2896 C   0  0  0  0  0  0
  -18.9460  -30.1470   23.8915 C   0  0  0  0  0  0
  -17.6458  -30.6605   24.0576 C   0  0  0  0  0  0
  -25.9053  -34.9475   23.5122 C   0  0  0  0  0  0
  -16.5352  -29.9102   23.6342 C   0  0  0  0  0  0
  -16.7278  -28.6523   23.0369 C   0  0  0  0  0  0
  -26.4489  -31.6600   25.0729 C   0  0  0  0  0  0
  -25.3703  -31.3733   26.1434 C   0  0  0  0  0  0
  -27.0316  -30.3029   24.6168 C   0  0  0  0  0  0
  -27.6065  -32.4311   25.7497 C   0  0  0  0  0  0
  -27.5577  -37.1803   24.8469 C   0  0  0  0  0  0
  -21.4196  -29.3054   22.3680 N   0  0  0  0  0  0
  -26.4292  -37.3793   23.9415 N   0  0  0  0  0  0
  -24.6892  -31.0616   22.1008 N   0  0  0  0  0  0
  -23.4203  -28.8192   23.3051 O   0  0  0  0  0  0
  -28.3194  -26.4582   20.1747 O   0  0  0  0  0  0
  -26.5610  -34.8944   22.4678 O   0  0  0  0  0  0
  -23.5429  -32.1426   23.7363 O   0  0  0  0  0  0
  -28.8230  -18.8316   20.9232 C   0  0  0  0  0  0
  -28.3703  -20.1826   20.8528 C   0  0  0  0  0  0
  -30.1770  -18.4998   20.7071 C   0  0  0  0  0  0
  -31.0453  -19.5899   20.3707 C   0  0  0  0  0  0
  -30.5565  -20.9328   20.1775 C   0  0  0  0  0  0
  -29.2059  -21.2880   20.5015 C   0  0  0  0  0  0
  -27.2203  -24.4452   21.2406 C   0  0  0  0  0  0
  -27.3966  -22.9114   21.1870 C   0  0  0  0  0  0
  -29.2552  -23.9621   20.1469 C   0  0  0  0  0  0
  -28.0775  -24.9965   20.0947 C   0  0  2  0  0  0
  -32.5479  -19.3125   20.2517 C   0  0  0  0  0  0
  -31.4918  -21.9876   19.5864 C   0  0  0  0  0  0
  -30.7745  -17.0538   20.9006 C   0  0  0  0  0  0
  -28.6627  -22.6364   20.5050 N   0  0  0  0  0  0
  -30.0380  -15.7471   20.8073 N   0  0  0  0  0  0
  -31.4496  -12.4326   19.1520 H   0  0  0  0  0  0
  -30.2901  -11.3748   19.9001 H   0  0  0  0  0  0
  -29.7478  -11.7296   17.4761 H   0  0  0  0  0  0
  -29.6572  -13.4572   17.7280 H   0  0  0  0  0  0
  -27.8410  -11.2996   18.8566 H   0  0  0  0  0  0
  -27.3658  -12.5842   17.7799 H   0  0  0  0  0  0
  -27.6553  -14.2608   19.5011 H   0  0  0  0  0  0
  -28.6826  -12.1086   21.4110 H   0  0  0  0  0  0
  -28.4446  -13.7945   21.8024 H   0  0  0  0  0  0
  -25.2769   -9.5696   22.4746 H   0  0  0  0  0  0
  -24.0017   -7.4628   22.7453 H   0  0  0  0  0  0
  -21.0839   -8.8781   19.8934 H   0  0  0  0  0  0
  -22.3700  -10.9679   19.6146 H   0  0  0  0  0  0
  -21.2003   -7.6142   23.9728 H   0  0  0  0  0  0
  -21.1478   -6.0502   25.9079 H   0  0  0  0  0  0
  -22.0601   -2.7603   23.2849 H   0  0  0  0  0  0
  -22.4095  -11.9902   22.4841 H   0  0  0  0  0  0
  -21.1066  -13.1221   22.2587 H   0  0  0  0  0  0
  -24.6554  -15.8473   20.5219 H   0  0  0  0  0  0
  -26.2704  -15.6306   20.0717 H   0  0  0  0  0  0
  -26.7189  -32.5458   23.1117 H   0  0  0  0  0  0
  -25.0105  -33.9741   25.0458 H   0  0  0  0  0  0
  -22.7162  -31.3095   21.4092 H   0  0  0  0  0  0
  -23.3753  -35.9597   23.3318 H   0  0  0  0  0  0
  -24.3577  -36.8877   22.2054 H   0  0  0  0  0  0
  -23.7204  -37.6490   23.6635 H   0  0  0  0  0  0
  -26.0984  -31.5488   20.6084 H   0  0  0  0  0  0
  -26.8440  -30.8335   22.0082 H   0  0  0  0  0  0
  -28.1032  -28.9624   21.2159 H   0  0  0  0  0  0
  -25.9414  -25.9767   18.9364 H   0  0  0  0  0  0
  -23.9701  -27.3445   18.9698 H   0  0  0  0  0  0
  -23.7489  -30.6035   19.4051 H   0  0  0  0  0  0
  -22.7521  -29.2528   19.8637 H   0  0  0  0  0  0
  -25.1288  -36.1977   25.0829 H   0  0  0  0  0  0
  -20.9989  -28.3283   24.1409 H   0  0  0  0  0  0
  -20.5717  -26.2314   23.3611 H   0  0  0  0  0  0
  -21.6650  -26.7489   22.1185 H   0  0  0  0  0  0
  -19.6911  -25.6320   21.1249 H   0  0  0  0  0  0
  -19.6680  -27.3226   20.6762 H   0  0  0  0  0  0
  -17.4207  -26.6709   21.4042 H   0  0  0  0  0  0
  -18.0326  -26.0092   22.9035 H   0  0  0  0  0  0
  -19.7936  -30.7288   24.2294 H   0  0  0  0  0  0
  -17.5016  -31.6287   24.5173 H   0  0  0  0  0  0
  -15.5359  -30.3010   23.7652 H   0  0  0  0  0  0
  -15.8678  -28.0838   22.7077 H   0  0  0  0  0  0
  -24.5913  -30.7050   25.7742 H   0  0  0  0  0  0
  -24.8842  -32.2884   26.4828 H   0  0  0  0  0  0
  -25.8007  -30.8938   27.0233 H   0  0  0  0  0  0
  -26.2880  -29.6811   24.1167 H   0  0  0  0  0  0
  -27.3986  -29.7265   25.4671 H   0  0  0  0  0  0
  -27.8770  -30.4328   23.9409 H   0  0  0  0  0  0
  -27.2714  -33.3620   26.2086 H   0  0  0  0  0  0
  -28.3876  -32.6846   25.0314 H   0  0  0  0  0  0
  -28.0729  -31.8415   26.5404 H   0  0  0  0  0  0
  -28.2612  -38.0091   24.7537 H   0  0  0  0  0  0
  -28.1063  -36.2628   24.6272 H   0  0  0  0  0  0
  -27.2304  -37.1429   25.8877 H   0  0  0  0  0  0
  -20.9382  -29.8736   21.6843 H   0  0  0  0  0  0
  -26.0184  -38.2873   24.1407 H   0  0  0  0  0  0
  -28.1202  -18.0554   21.1914 H   0  0  0  0  0  0
  -27.3266  -20.3427   21.0789 H   0  0  0  0  0  0
  -27.5904  -24.8295   22.1916 H   0  0  0  0  0  0
  -26.1716  -24.7330   21.1692 H   0  0  0  0  0  0
  -26.5805  -22.4642   20.6192 H   0  0  0  0  0  0
  -27.3764  -22.4826   22.1908 H   0  0  0  0  0  0
  -29.9886  -24.2547   20.9004 H   0  0  0  0  0  0
  -29.7454  -23.9670   19.1776 H   0  0  0  0  0  0
  -27.5883  -24.7762   19.1474 H   0  0  0  0  0  0
  -33.1590  -20.1689   20.5328 H   0  0  0  0  0  0
  -32.8040  -19.0115   19.2354 H   0  0  0  0  0  0
  -32.8842  -18.5311   20.9322 H   0  0  0  0  0  0
  -31.7302  -22.7561   20.3210 H   0  0  0  0  0  0
  -32.4254  -21.6014   19.1852 H   0  0  0  0  0  0
  -31.0186  -22.4408   18.7182 H   0  0  0  0  0  0
  -31.2791  -17.0516   21.8680 H   0  0  0  0  0  0
  -31.5585  -16.9892   20.1466 H   0  0  0  0  0  0
  -29.0555  -15.7115   21.0346 H   0  0  0  0  0  0
  1 25  1  0  0  0
  1 30  2  0  0  0
  1 85  1  0  0  0
  2  3  1  0  0  0
  2 25  1  0  0  0
  2 86  1  0  0  0
  2 87  1  0  0  0
  3  4  1  0  0  0
  3 88  1  0  0  0
  3 89  1  0  0  0
  4  5  1  0  0  0
  4 90  1  0  0  0
  4 91  1  0  0  0
  5  6  1  0  0  0
  5 26  1  0  0  0
  5 92  1  0  0  0
  6 25  1  0  0  0
  6 93  1  0  0  0
  6 94  1  0  0  0
  7  8  2  0  0  0
  7 26  1  0  0  0
  7 29  1  0  0  0
  8  9  1  0  0  0
  8 22  1  0  0  0
  9 10  1  0  0  0
  9 27  2  0  0  0
 10 11  2  0  0  0
 10 15  1  0  0  0
 11 12  1  0  0  0
 11 95  1  0  0  0
 12 13  2  0  0  0
 12 96  1  0  0  0
 13 14  1  0  0  0
 13 31  1  0  0  0
 14 15  2  0  0  0
 14 97  1  0  0  0
 15 98  1  0  0  0
 16 17  2  0  0  0
 16 21  1  0  0  0
 16 31  1  0  0  0
 17 18  1  0  0  0
 17 99  1  0  0  0
 18 19  2  0  0  0
 18100  1  0  0  0
 19 20  1  0  0  0
 19 24  1  0  0  0
 20 21  2  0  0  0
 20101  1  0  0  0
 21 23  1  0  0  0
 22 28  1  0  0  0
 22 32  2  0  0  0
 26 27  1  0  0  0
 28102  1  0  0  0
 28103  1  0  0  0
 29104  1  0  0  0
 29105  1  0  0  0
 33 34  1  0  0  0
 33 66  1  0  0  0
 33 70  2  0  0  0
 34 36  1  0  0  0
 34 59  1  0  0  0
 34106  1  0  0  0
 35 44  2  0  0  0
 35 45  1  0  0  0
 35 68  1  0  0  0
 36 56  1  0  0  0
 36107  1  0  0  0
 37 39  1  0  0  0
 37 47  1  0  0  0
 37 66  1  0  0  0
 37108  1  0  0  0
 38 43  2  0  0  0
 38 46  1  0  0  0
 38 47  1  0  0  0
 39 64  1  0  0  0
 39 67  2  0  0  0
 40 52  1  0  0  0
 40 53  2  0  0  0
 40 58  1  0  0  0
 41109  1  0  0  0
 41110  1  0  0  0
 41111  1  0  0  0
 41 48  1  0  0  0
 42 43  1  0  0  0
 42 66  1  0  0  0
 42112  1  0  0  0
 42113  1  0  0  0
 43 44  1  0  0  0
 44114  1  0  0  0
 45 46  2  0  0  0
 45115  1  0  0  0
 46116  1  0  0  0
 47117  1  0  0  0
 47118  1  0  0  0
 48 56  1  0  0  0
 48 65  1  0  0  0
 48119  1  0  0  0
 49 50  1  0  0  0
 49 53  1  0  0  0
 49 64  1  0  0  0
 49120  1  0  0  0
 50 51  1  0  0  0
 50121  1  0  0  0
 50122  1  0  0  0
 51 52  1  0  0  0
 51123  1  0  0  0
 51124  1  0  0  0
 52125  1  0  0  0
 52126  1  0  0  0
 53 54  1  0  0  0
 54 55  2  0  0  0
 54127  1  0  0  0
 55 57  1  0  0  0
 55128  1  0  0  0
 56 69  2  0  0  0
 57 58  2  0  0  0
 57129  1  0  0  0
 58130  1  0  0  0
 59 60  1  0  0  0
 59 61  1  0  0  0
 59 62  1  0  0  0
 60131  1  0  0  0
 60132  1  0  0  0
 60133  1  0  0  0
 61134  1  0  0  0
 61135  1  0  0  0
 61136  1  0  0  0
 62137  1  0  0  0
 62138  1  0  0  0
 62139  1  0  0  0
 63 65  1  0  0  0
 63140  1  0  0  0
 63141  1  0  0  0
 63142  1  0  0  0
 64143  1  0  0  0
 65144  1  0  0  0
 68 80  1  0  0  0
 71 72  2  0  0  0
 71 73  1  0  0  0
 71145  1  0  0  0
 72 76  1  0  0  0
 72146  1  0  0  0
 73 74  2  0  0  0
 73 83  1  0  0  0
 74 75  1  0  0  0
 74 81  1  0  0  0
 75 76  2  0  0  0
 75 82  1  0  0  0
 76 84  1  0  0  0
 77 78  1  0  0  0
 77 80  1  0  0  0
 77147  1  0  0  0
 77148  1  0  0  0
 78 84  1  0  0  0
 78149  1  0  0  0
 78150  1  0  0  0
 79 80  1  0  0  0
 79 84  1  0  0  0
 79151  1  0  0  0
 79152  1  0  0  0
 80153  1  0  0  0
 81154  1  0  0  0
 81155  1  0  0  0
 81156  1  0  0  0
 82157  1  0  0  0
 82158  1  0  0  0
 82159  1  0  0  0
 83 85  1  0  0  0
 83160  1  0  0  0
 83161  1  0  0  0
 85162  1  0  0  0
M  ISO  4   1 100  68 101  80 101  85 100
M  END
> <chiral flag>
0

> <version>
0

> <s_m_source_file>
/data/baiqing/PycharmProjects/Reinvent-master-3.2/result/LINK_invent/BTK/process_docking_weight1_custom_product_contain_oxygen_bond_distance_aromatic_linkinvent_7_9_3/rearranged_h_0030.sdf

> <i_m_source_file_index>
68

> <r_mmod_Potential_Energy-OPLS-2005>
106.723693847656

> <r_mmod_Stretch_Energy-OPLS-2005>
81.8531188964844

> <r_mmod_Bend_Energy-OPLS-2005>
212.65739440918

> <r_mmod_Torsional_Energy-OPLS-2005>
245.012878417969

> <r_mmod_Improper_Torsional_Energy-OPLS-2005>
4.42036437988281

> <r_mmod_Van_der_Waal_Energy-OPLS-2005>
178.19889831543

> <r_mmod_Electrostatic_Energy-OPLS-2005>
-436.977935791016

> <r_mmod_Solvation_Energy-OPLS-2005>
-225.04931640625

> <b_mmod_Minimization_Converged-OPLS-2005>
0

> <r_mmod_RMS_Derivative-OPLS-2005>
2.46689057350159

$$$$
68
                    3D
 Structure written by MMmdl.
155164  0  0  1  0            999 V2000
  -30.5816  -14.6606   20.5160 C   0  0  0  0  0  0
  -30.4490  -12.4093   19.4513 C   0  0  0  0  0  0
  -29.5116  -12.5188   18.2259 C   0  0  0  0  0  0
  -28.0339  -12.3506   18.6356 C   0  0  0  0  0  0
  -27.6567  -13.2116   19.8701 C   0  0  2  0  0  0
  -28.7004  -13.0405   20.9969 C   0  0  0  0  0  0
  -25.2569  -13.8154   20.5663 C   0  0  0  0  0  0
  -24.1831  -13.0430   20.9177 C   0  0  0  0  0  0
  -24.6395  -11.6900   20.8740 C   0  0  0  0  0  0
  -23.9062  -10.4288   21.0409 C   0  0  0  0  0  0
  -24.3615   -9.4205   21.9189 C   0  0  0  0  0  0
  -23.6291   -8.2241   22.0757 C   0  0  0  0  0  0
  -22.4275   -8.0279   21.3544 C   0  0  0  0  0  0
  -21.9907   -9.0253   20.4649 C   0  0  0  0  0  0
  -22.7233  -10.2132   20.3059 C   0  0  0  0  0  0
  -21.6851   -6.0737   22.5281 C   0  0  0  0  0  0
  -21.4012   -6.5641   23.8214 C   0  0  0  0  0  0
  -21.3660   -5.6792   24.9176 C   0  0  0  0  0  0
  -21.6044   -4.3055   24.7225 C   0  0  0  0  0  0
  -21.8819   -3.8148   23.4346 C   0  0  0  0  0  0
  -21.9192   -4.6966   22.3403 C   0  0  0  0  0  0
  -22.7857  -13.5234   21.1848 C   0  0  0  0  0  0
  -22.1662   -4.2151   21.0980 F   0  0  0  0  0  0
  -21.5629   -3.4539   25.7737 F   0  0  0  0  0  0
  -30.0145  -13.4125   20.4442 N   0  0  0  0  0  0
  -26.3004  -12.9325   20.3340 N   0  0  0  0  0  0
  -25.9324  -11.6485   20.5766 N   0  0  0  0  0  0
  -22.0498  -12.8230   22.0406 N   0  0  0  0  0  0
  -25.4279  -15.1866   20.4043 N   0  0  0  0  0  0
  -31.7187  -14.8781   20.0846 O   0  0  0  0  0  0
  -21.6638   -6.8878   21.4241 O   0  0  0  0  0  0
  -22.3543  -14.5542   20.6702 O   0  0  0  0  0  0
  -24.6249  -31.8579   23.1999 C   0  0  0  0  0  0
  -25.9092  -32.4768   23.8335 C   0  0  1  0  0  0
  -27.2337  -27.3148   20.1154 C   0  0  0  0  0  0
  -25.5909  -33.8571   24.2265 N   0  0  0  0  0  0
  -23.4194  -30.4794   21.5414 C   0  0  2  0  0  0
  -24.8667  -28.9271   20.1115 C   0  0  0  0  0  0
  -22.7470  -29.4606   22.4923 C   0  0  0  0  0  0
  -18.0286  -28.1383   22.8491 C   0  0  0  0  0  0
  -24.1489  -36.7287   23.2642 C   0  0  0  0  0  0
  -25.9590  -30.7869   21.3699 C   0  0  0  0  0  0
  -26.0326  -29.4117   20.7146 C   0  0  0  0  0  0
  -27.2145  -28.6163   20.7071 C   0  0  0  0  0  0
  -26.0398  -26.8703   19.5045 C   0  0  0  0  0  0
  -24.8719  -27.6613   19.5007 C   0  0  0  0  0  0
  -23.6349  -29.8090   20.1579 C   0  0  0  0  0  0
  -25.4115  -36.3079   24.0330 C   0  0  1  0  0  0
  -20.5886  -28.3679   23.1290 C   0  0  2  0  0  0
  -20.6772  -26.9402   22.5411 C   0  0  0  0  0  0
  -19.5750  -26.6380   21.5211 C   0  0  0  0  0  0
  -18.1929  -26.7928   22.1622 C   0  0  0  0  0  0
  -19.1541  -28.8847   23.2889 C   0  0  0  0  0  0
  -18.9463  -30.1451   23.8901 C   0  0  0  0  0  0
  -17.6462  -30.6586   24.0565 C   0  0  0  0  0  0
  -25.9048  -34.9448   23.5101 C   0  0  0  0  0  0
  -16.5354  -29.9085   23.6331 C   0  0  0  0  0  0
  -16.7275  -28.6504   23.0349 C   0  0  0  0  0  0
  -26.4482  -31.6590   25.0709 C   0  0  0  0  0  0
  -25.3721  -31.3726   26.1441 C   0  0  0  0  0  0
  -27.0323  -30.3019   24.6145 C   0  0  0  0  0  0
  -27.6046  -32.4321   25.7479 C   0  0  0  0  0  0
  -27.5578  -37.1798   24.8468 C   0  0  0  0  0  0
  -21.4183  -29.3034   22.3679 N   0  0  0  0  0  0
  -26.4293  -37.3768   23.9408 N   0  0  0  0  0  0
  -24.6864  -31.0588   22.0943 N   0  0  0  0  0  0
  -23.4202  -28.8148   23.2995 O   0  0  0  0  0  0
  -28.3883  -26.5183   20.1693 O   0  0  0  0  0  0
  -26.5620  -34.8921   22.4670 O   0  0  0  0  0  0
  -23.5414  -32.1373   23.7329 O   0  0  0  0  0  0
  -28.6074  -19.1438   21.8810 C   0  0  0  0  0  0
  -30.3347  -17.9872   20.0296 C   0  0  0  0  0  0
  -29.2617  -20.0439   20.9981 C   0  0  0  0  0  0
  -29.6836  -17.1078   20.9452 C   0  0  0  0  0  0
  -30.1256  -19.4132   20.0469 C   0  0  0  0  0  0
  -28.7961  -17.7361   21.8557 C   0  0  0  0  0  0
  -30.1357  -23.3192   19.7863 C   0  0  0  0  0  0
  -29.9256  -24.7734   19.3425 C   0  0  0  0  0  0
  -28.0689  -23.8979   20.5697 C   0  0  0  0  0  0
  -28.4654  -25.1254   19.6615 C   0  0  1  0  0  0
  -29.0732  -21.5947   21.3109 C   0  0  0  0  0  0
  -29.0501  -22.7803   20.3679 N   0  0  0  0  0  0
  -29.7543  -15.6404   20.9975 N   0  0  0  0  0  0
  -31.2376  -22.7768   19.6828 O   0  0  0  0  0  0
  -30.7843  -20.1620   19.1356 F   0  0  0  0  0  0
  -27.9157  -16.7730   22.9910 Cl  0  0  0  0  0  0
  -31.4868  -12.5584   19.1478 H   0  0  0  0  0  0
  -30.4054  -11.4080   19.8819 H   0  0  0  0  0  0
  -29.7790  -11.7699   17.4790 H   0  0  0  0  0  0
  -29.6481  -13.4896   17.7464 H   0  0  0  0  0  0
  -27.8715  -11.2956   18.8598 H   0  0  0  0  0  0
  -27.3791  -12.5859   17.7959 H   0  0  0  0  0  0
  -27.6809  -14.2513   19.5434 H   0  0  0  0  0  0
  -28.7195  -12.0060   21.3432 H   0  0  0  0  0  0
  -28.4346  -13.6343   21.8725 H   0  0  0  0  0  0
  -25.2762   -9.5683   22.4761 H   0  0  0  0  0  0
  -24.0003   -7.4631   22.7473 H   0  0  0  0  0  0
  -21.0839   -8.8770   19.8953 H   0  0  0  0  0  0
  -22.3694  -10.9673   19.6167 H   0  0  0  0  0  0
  -21.2002   -7.6149   23.9718 H   0  0  0  0  0  0
  -21.1482   -6.0524   25.9080 H   0  0  0  0  0  0
  -22.0599   -2.7611   23.2845 H   0  0  0  0  0  0
  -22.4112  -11.9889   22.4791 H   0  0  0  0  0  0
  -21.1120  -13.1263   22.2619 H   0  0  0  0  0  0
  -24.6637  -15.8423   20.5213 H   0  0  0  0  0  0
  -26.2832  -15.6274   20.0920 H   0  0  0  0  0  0
  -26.7155  -32.5428   23.1078 H   0  0  0  0  0  0
  -25.0061  -33.9718   25.0414 H   0  0  0  0  0  0
  -22.7132  -31.2994   21.3953 H   0  0  0  0  0  0
  -23.3752  -35.9617   23.3307 H   0  0  0  0  0  0
  -24.3588  -36.8901   22.2058 H   0  0  0  0  0  0
  -23.7246  -37.6489   23.6664 H   0  0  0  0  0  0
  -26.0893  -31.5489   20.6002 H   0  0  0  0  0  0
  -26.8409  -30.8384   21.9971 H   0  0  0  0  0  0
  -28.1125  -28.9879   21.1807 H   0  0  0  0  0  0
  -25.9792  -25.8974   19.0419 H   0  0  0  0  0  0
  -23.9740  -27.2797   19.0341 H   0  0  0  0  0  0
  -23.7539  -30.5836   19.3990 H   0  0  0  0  0  0
  -22.7552  -29.2369   19.8569 H   0  0  0  0  0  0
  -25.1298  -36.1929   25.0822 H   0  0  0  0  0  0
  -20.9984  -28.3245   24.1407 H   0  0  0  0  0  0
  -20.5666  -26.2280   23.3605 H   0  0  0  0  0  0
  -21.6639  -26.7419   22.1207 H   0  0  0  0  0  0
  -19.6908  -25.6290   21.1236 H   0  0  0  0  0  0
  -19.6698  -27.3193   20.6748 H   0  0  0  0  0  0
  -17.4198  -26.6680   21.4025 H   0  0  0  0  0  0
  -18.0329  -26.0070   22.9021 H   0  0  0  0  0  0
  -19.7941  -30.7268   24.2266 H   0  0  0  0  0  0
  -17.5020  -31.6268   24.5159 H   0  0  0  0  0  0
  -15.5355  -30.2989   23.7654 H   0  0  0  0  0  0
  -15.8676  -28.0827   22.7056 H   0  0  0  0  0  0
  -24.5899  -30.7068   25.7776 H   0  0  0  0  0  0
  -24.8909  -32.2893   26.4861 H   0  0  0  0  0  0
  -25.8054  -30.8916   27.0219 H   0  0  0  0  0  0
  -26.2888  -29.6774   24.1171 H   0  0  0  0  0  0
  -27.4046  -29.7265   25.4631 H   0  0  0  0  0  0
  -27.8746  -30.4319   23.9344 H   0  0  0  0  0  0
  -27.2657  -33.3624   26.2049 H   0  0  0  0  0  0
  -28.3859  -32.6870   25.0306 H   0  0  0  0  0  0
  -28.0702  -31.8444   26.5400 H   0  0  0  0  0  0
  -28.2591  -38.0095   24.7503 H   0  0  0  0  0  0
  -28.1075  -36.2625   24.6306 H   0  0  0  0  0  0
  -27.2296  -37.1456   25.8870 H   0  0  0  0  0  0
  -20.9351  -29.8768   21.6908 H   0  0  0  0  0  0
  -26.0176  -38.2839   24.1412 H   0  0  0  0  0  0
  -27.9469  -19.5411   22.6379 H   0  0  0  0  0  0
  -31.0012  -17.5740   19.2874 H   0  0  0  0  0  0
  -30.1546  -24.8998   18.2844 H   0  0  0  0  0  0
  -30.6093  -25.4042   19.9111 H   0  0  0  0  0  0
  -27.0542  -23.5636   20.3517 H   0  0  0  0  0  0
  -28.0920  -24.1957   21.6190 H   0  0  0  0  0  0
  -27.9279  -25.0509   18.7161 H   0  0  0  0  0  0
  -29.8397  -21.8239   22.0530 H   0  0  0  0  0  0
  -28.1391  -21.6722   21.8681 H   0  0  0  0  0  0
  -28.9546  -15.2418   21.4676 H   0  0  0  0  0  0
  1 25  1  0  0  0
  1 30  2  0  0  0
  1 83  1  0  0  0
  2  3  1  0  0  0
  2 25  1  0  0  0
  2 87  1  0  0  0
  2 88  1  0  0  0
  3  4  1  0  0  0
  3 89  1  0  0  0
  3 90  1  0  0  0
  4  5  1  0  0  0
  4 91  1  0  0  0
  4 92  1  0  0  0
  5  6  1  0  0  0
  5 26  1  0  0  0
  5 93  1  0  0  0
  6 25  1  0  0  0
  6 94  1  0  0  0
  6 95  1  0  0  0
  7  8  2  0  0  0
  7 26  1  0  0  0
  7 29  1  0  0  0
  8  9  1  0  0  0
  8 22  1  0  0  0
  9 10  1  0  0  0
  9 27  2  0  0  0
 10 11  2  0  0  0
 10 15  1  0  0  0
 11 12  1  0  0  0
 11 96  1  0  0  0
 12 13  2  0  0  0
 12 97  1  0  0  0
 13 14  1  0  0  0
 13 31  1  0  0  0
 14 15  2  0  0  0
 14 98  1  0  0  0
 15 99  1  0  0  0
 16 17  2  0  0  0
 16 21  1  0  0  0
 16 31  1  0  0  0
 17 18  1  0  0  0
 17100  1  0  0  0
 18 19  2  0  0  0
 18101  1  0  0  0
 19 20  1  0  0  0
 19 24  1  0  0  0
 20 21  2  0  0  0
 20102  1  0  0  0
 21 23  1  0  0  0
 22 28  1  0  0  0
 22 32  2  0  0  0
 26 27  1  0  0  0
 28103  1  0  0  0
 28104  1  0  0  0
 29105  1  0  0  0
 29106  1  0  0  0
 33 34  1  0  0  0
 33 66  1  0  0  0
 33 70  2  0  0  0
 34 36  1  0  0  0
 34 59  1  0  0  0
 34107  1  0  0  0
 35 44  2  0  0  0
 35 45  1  0  0  0
 35 68  1  0  0  0
 36 56  1  0  0  0
 36108  1  0  0  0
 37 39  1  0  0  0
 37 47  1  0  0  0
 37 66  1  0  0  0
 37109  1  0  0  0
 38 43  2  0  0  0
 38 46  1  0  0  0
 38 47  1  0  0  0
 39 64  1  0  0  0
 39 67  2  0  0  0
 40 52  1  0  0  0
 40 53  2  0  0  0
 40 58  1  0  0  0
 41110  1  0  0  0
 41111  1  0  0  0
 41112  1  0  0  0
 41 48  1  0  0  0
 42 43  1  0  0  0
 42 66  1  0  0  0
 42113  1  0  0  0
 42114  1  0  0  0
 43 44  1  0  0  0
 44115  1  0  0  0
 45 46  2  0  0  0
 45116  1  0  0  0
 46117  1  0  0  0
 47118  1  0  0  0
 47119  1  0  0  0
 48 56  1  0  0  0
 48 65  1  0  0  0
 48120  1  0  0  0
 49 50  1  0  0  0
 49 53  1  0  0  0
 49 64  1  0  0  0
 49121  1  0  0  0
 50 51  1  0  0  0
 50122  1  0  0  0
 50123  1  0  0  0
 51 52  1  0  0  0
 51124  1  0  0  0
 51125  1  0  0  0
 52126  1  0  0  0
 52127  1  0  0  0
 53 54  1  0  0  0
 54 55  2  0  0  0
 54128  1  0  0  0
 55 57  1  0  0  0
 55129  1  0  0  0
 56 69  2  0  0  0
 57 58  2  0  0  0
 57130  1  0  0  0
 58131  1  0  0  0
 59 60  1  0  0  0
 59 61  1  0  0  0
 59 62  1  0  0  0
 60132  1  0  0  0
 60133  1  0  0  0
 60134  1  0  0  0
 61135  1  0  0  0
 61136  1  0  0  0
 61137  1  0  0  0
 62138  1  0  0  0
 62139  1  0  0  0
 62140  1  0  0  0
 63 65  1  0  0  0
 63141  1  0  0  0
 63142  1  0  0  0
 63143  1  0  0  0
 64144  1  0  0  0
 65145  1  0  0  0
 68 80  1  0  0  0
 71 73  2  0  0  0
 71 76  1  0  0  0
 71146  1  0  0  0
 72 74  1  0  0  0
 72 75  2  0  0  0
 72147  1  0  0  0
 73 75  1  0  0  0
 73 81  1  0  0  0
 74 76  2  0  0  0
 74 83  1  0  0  0
 75 85  1  0  0  0
 76 86  1  0  0  0
 77 78  1  0  0  0
 77 82  1  0  0  0
 77 84  2  0  0  0
 78 80  1  0  0  0
 78148  1  0  0  0
 78149  1  0  0  0
 79 80  1  0  0  0
 79 82  1  0  0  0
 79150  1  0  0  0
 79151  1  0  0  0
 80152  1  0  0  0
 81 82  1  0  0  0
 81153  1  0  0  0
 81154  1  0  0  0
 83155  1  0  0  0
M  ISO  4   1 100  68 101  80 101  83 100
M  END
> <chiral flag>
0

> <version>
0

> <s_m_source_file>
/data/baiqing/PycharmProjects/Reinvent-master-3.2/result/LINK_invent/BTK/process_docking_weight1_custom_product_contain_oxygen_bond_distance_aromatic_linkinvent_7_9_3/rearranged_h_0030.sdf

> <i_m_source_file_index>
69

> <r_mmod_Potential_Energy-OPLS-2005>
83.8336410522461

> <r_mmod_Stretch_Energy-OPLS-2005>
85.7319412231445

> <r_mmod_Bend_Energy-OPLS-2005>
219.718643188477

> <r_mmod_Torsional_Energy-OPLS-2005>
237.66291809082

> <r_mmod_Improper_Torsional_Energy-OPLS-2005>
6.64070081710815

> <r_mmod_Van_der_Waal_Energy-OPLS-2005>
133.279830932617

> <r_mmod_Electrostatic_Energy-OPLS-2005>
-412.316040039062

> <r_mmod_Solvation_Energy-OPLS-2005>
-238.130462646484

> <b_mmod_Minimization_Converged-OPLS-2005>
0

> <r_mmod_RMS_Derivative-OPLS-2005>
0.748031258583069

$$$$
69
                    3D
 Structure written by MMmdl.
154163  0  0  1  0            999 V2000
  -30.5839  -14.8277   20.4547 C   0  0  0  0  0  0
  -30.4357  -12.5142   19.4747 C   0  0  0  0  0  0
  -29.5102  -12.5115   18.2378 C   0  0  0  0  0  0
  -28.0396  -12.3216   18.6565 C   0  0  0  0  0  0
  -27.6344  -13.2369   19.8427 C   0  0  2  0  0  0
  -28.6811  -13.2128   20.9771 C   0  0  0  0  0  0
  -25.2489  -13.8203   20.5714 C   0  0  0  0  0  0
  -24.1796  -13.0445   20.9221 C   0  0  0  0  0  0
  -24.6394  -11.6921   20.8754 C   0  0  0  0  0  0
  -23.9076  -10.4299   21.0409 C   0  0  0  0  0  0
  -24.3626   -9.4218   21.9192 C   0  0  0  0  0  0
  -23.6302   -8.2253   22.0757 C   0  0  0  0  0  0
  -22.4283   -8.0284   21.3550 C   0  0  0  0  0  0
  -21.9919   -9.0259   20.4648 C   0  0  0  0  0  0
  -22.7245  -10.2141   20.3062 C   0  0  0  0  0  0
  -21.6852   -6.0744   22.5281 C   0  0  0  0  0  0
  -21.4010   -6.5646   23.8215 C   0  0  0  0  0  0
  -21.3658   -5.6797   24.9177 C   0  0  0  0  0  0
  -21.6041   -4.3060   24.7224 C   0  0  0  0  0  0
  -21.8824   -3.8155   23.4344 C   0  0  0  0  0  0
  -21.9193   -4.6973   22.3403 C   0  0  0  0  0  0
  -22.7816  -13.5224   21.1878 C   0  0  0  0  0  0
  -22.1666   -4.2158   21.0984 F   0  0  0  0  0  0
  -21.5624   -3.4545   25.7739 F   0  0  0  0  0  0
  -29.9672  -13.5918   20.3819 N   0  0  0  0  0  0
  -26.2908  -12.9416   20.3265 N   0  0  0  0  0  0
  -25.9321  -11.6554   20.5748 N   0  0  0  0  0  0
  -22.0463  -12.8202   22.0416 N   0  0  0  0  0  0
  -25.4146  -15.1933   20.4134 N   0  0  0  0  0  0
  -31.7868  -14.8968   20.1829 O   0  0  0  0  0  0
  -21.6643   -6.8883   21.4243 O   0  0  0  0  0  0
  -22.3502  -14.5536   20.6733 O   0  0  0  0  0  0
  -24.6365  -31.8493   23.1898 C   0  0  0  0  0  0
  -25.9169  -32.4711   23.8270 C   0  0  1  0  0  0
  -27.2286  -27.2084   20.1541 C   0  0  0  0  0  0
  -25.5953  -33.8515   24.2199 N   0  0  0  0  0  0
  -23.4368  -30.4666   21.5339 C   0  0  2  0  0  0
  -24.8870  -28.8945   20.1169 C   0  0  0  0  0  0
  -22.7515  -29.4573   22.4883 C   0  0  0  0  0  0
  -18.0281  -28.1384   22.8455 C   0  0  0  0  0  0
  -24.1497  -36.7269   23.2638 C   0  0  0  0  0  0
  -25.9846  -30.7466   21.3752 C   0  0  0  0  0  0
  -26.0601  -29.3615   20.7232 C   0  0  0  0  0  0
  -27.2358  -28.5357   20.7192 C   0  0  0  0  0  0
  -26.0309  -26.8124   19.5259 C   0  0  0  0  0  0
  -24.8803  -27.6305   19.5040 C   0  0  0  0  0  0
  -23.6595  -29.7889   20.1562 C   0  0  0  0  0  0
  -25.4112  -36.3038   24.0326 C   0  0  1  0  0  0
  -20.5890  -28.3710   23.1239 C   0  0  2  0  0  0
  -20.6776  -26.9422   22.5398 C   0  0  0  0  0  0
  -19.5764  -26.6377   21.5197 C   0  0  0  0  0  0
  -18.1931  -26.7914   22.1604 C   0  0  0  0  0  0
  -19.1538  -28.8862   23.2835 C   0  0  0  0  0  0
  -18.9471  -30.1453   23.8874 C   0  0  0  0  0  0
  -17.6481  -30.6591   24.0558 C   0  0  0  0  0  0
  -25.9074  -34.9418   23.5066 C   0  0  0  0  0  0
  -16.5367  -29.9089   23.6338 C   0  0  0  0  0  0
  -16.7273  -28.6502   23.0353 C   0  0  0  0  0  0
  -26.4500  -31.6555   25.0692 C   0  0  0  0  0  0
  -25.3702  -31.3742   26.1405 C   0  0  0  0  0  0
  -27.0366  -30.2965   24.6228 C   0  0  0  0  0  0
  -27.6034  -32.4319   25.7483 C   0  0  0  0  0  0
  -27.5578  -37.1758   24.8447 C   0  0  0  0  0  0
  -21.4217  -29.3048   22.3623 N   0  0  0  0  0  0
  -26.4269  -37.3756   23.9428 N   0  0  0  0  0  0
  -24.7047  -31.0407   22.0896 N   0  0  0  0  0  0
  -23.4174  -28.8141   23.3035 O   0  0  0  0  0  0
  -28.3254  -26.3019   20.1579 O   0  0  0  0  0  0
  -26.5663  -34.8914   22.4646 O   0  0  0  0  0  0
  -23.5504  -32.1346   23.7169 O   0  0  0  0  0  0
  -31.3956  -17.7718   21.2944 C   0  0  0  0  0  0
  -31.8039  -19.1075   21.4611 C   0  0  0  0  0  0
  -29.7263  -20.0253   20.4811 C   0  0  0  0  0  0
  -30.1547  -17.4479   20.7107 C   0  0  0  0  0  0
  -31.0144  -20.2022   21.0512 C   0  0  0  0  0  0
  -29.3206  -18.6066   20.3351 C   0  0  0  0  0  0
  -29.4311  -23.8900   20.6703 C   0  0  0  0  0  0
  -27.6572  -23.6287   19.8094 C   0  0  0  0  0  0
  -28.1818  -24.8563   20.6390 C   0  0  2  0  0  0
  -28.9702  -21.3313   19.8478 C   0  0  0  0  0  0
  -29.7980  -15.9871   20.5779 N   0  0  0  0  0  0
  -28.5556  -22.6698   20.5592 N   0  3  1  0  0  0
  -31.7227  -21.7669   21.2192 Cl  0  0  0  0  0  0
  -27.7835  -18.2493   19.6297 Cl  0  0  0  0  0  0
  -31.4716  -12.6585   19.1626 H   0  0  0  0  0  0
  -30.4091  -11.5495   19.9822 H   0  0  0  0  0  0
  -29.8058  -11.7228   17.5451 H   0  0  0  0  0  0
  -29.6178  -13.4526   17.6945 H   0  0  0  0  0  0
  -27.9090  -11.2748   18.9353 H   0  0  0  0  0  0
  -27.3789  -12.4914   17.8048 H   0  0  0  0  0  0
  -27.6136  -14.2498   19.4407 H   0  0  0  0  0  0
  -28.7425  -12.2254   21.4367 H   0  0  0  0  0  0
  -28.4045  -13.9049   21.7735 H   0  0  0  0  0  0
  -25.2768   -9.5697   22.4769 H   0  0  0  0  0  0
  -24.0011   -7.4645   22.7476 H   0  0  0  0  0  0
  -21.0852   -8.8784   19.8948 H   0  0  0  0  0  0
  -22.3706  -10.9689   19.6176 H   0  0  0  0  0  0
  -21.2004   -7.6152   23.9720 H   0  0  0  0  0  0
  -21.1466   -6.0527   25.9079 H   0  0  0  0  0  0
  -22.0601   -2.7617   23.2847 H   0  0  0  0  0  0
  -22.4084  -11.9863   22.4799 H   0  0  0  0  0  0
  -21.1086  -13.1225   22.2632 H   0  0  0  0  0  0
  -24.6396  -15.8367   20.5289 H   0  0  0  0  0  0
  -26.2481  -15.6444   20.0611 H   0  0  0  0  0  0
  -26.7236  -32.5338   23.1005 H   0  0  0  0  0  0
  -25.0060  -33.9641   25.0318 H   0  0  0  0  0  0
  -22.7376  -31.2901   21.3770 H   0  0  0  0  0  0
  -23.3769  -35.9594   23.3278 H   0  0  0  0  0  0
  -24.3595  -36.8929   22.2057 H   0  0  0  0  0  0
  -23.7252  -37.6454   23.6695 H   0  0  0  0  0  0
  -26.1278  -31.5013   20.6006 H   0  0  0  0  0  0
  -26.8605  -30.8000   22.0101 H   0  0  0  0  0  0
  -28.1377  -28.8957   21.1934 H   0  0  0  0  0  0
  -25.9781  -25.8438   19.0503 H   0  0  0  0  0  0
  -23.9843  -27.2647   19.0219 H   0  0  0  0  0  0
  -23.7926  -30.5592   19.3968 H   0  0  0  0  0  0
  -22.7773  -29.2247   19.8487 H   0  0  0  0  0  0
  -25.1287  -36.1847   25.0816 H   0  0  0  0  0  0
  -20.9954  -28.3309   24.1377 H   0  0  0  0  0  0
  -20.5677  -26.2326   23.3613 H   0  0  0  0  0  0
  -21.6636  -26.7448   22.1198 H   0  0  0  0  0  0
  -19.6957  -25.6287   21.1237 H   0  0  0  0  0  0
  -19.6711  -27.3172   20.6716 H   0  0  0  0  0  0
  -17.4199  -26.6646   21.4009 H   0  0  0  0  0  0
  -18.0344  -26.0056   22.9001 H   0  0  0  0  0  0
  -19.7971  -30.7241   24.2238 H   0  0  0  0  0  0
  -17.5066  -31.6272   24.5158 H   0  0  0  0  0  0
  -15.5377  -30.3006   23.7684 H   0  0  0  0  0  0
  -15.8656  -28.0837   22.7089 H   0  0  0  0  0  0
  -24.5886  -30.7084   25.7732 H   0  0  0  0  0  0
  -24.8885  -32.2934   26.4762 H   0  0  0  0  0  0
  -25.7989  -30.8963   27.0224 H   0  0  0  0  0  0
  -26.2965  -29.6692   24.1251 H   0  0  0  0  0  0
  -27.4028  -29.7251   25.4766 H   0  0  0  0  0  0
  -27.8849  -30.4232   23.9495 H   0  0  0  0  0  0
  -27.2617  -33.3633   26.2009 H   0  0  0  0  0  0
  -28.3860  -32.6856   25.0321 H   0  0  0  0  0  0
  -28.0686  -31.8481   26.5438 H   0  0  0  0  0  0
  -28.2501  -38.0134   24.7570 H   0  0  0  0  0  0
  -28.1149  -36.2665   24.6155 H   0  0  0  0  0  0
  -27.2320  -37.1259   25.8849 H   0  0  0  0  0  0
  -20.9421  -29.8767   21.6810 H   0  0  0  0  0  0
  -26.0136  -38.2811   24.1490 H   0  0  0  0  0  0
  -32.0664  -16.9943   21.6279 H   0  0  0  0  0  0
  -32.7772  -19.2975   21.8928 H   0  0  0  0  0  0
  -29.9910  -23.9400   21.6033 H   0  0  0  0  0  0
  -30.0959  -24.0175   19.8122 H   0  0  0  0  0  0
  -27.9042  -23.6949   18.7470 H   0  0  0  0  0  0
  -26.5954  -23.4213   19.9419 H   0  0  0  0  0  0
  -27.7074  -24.8727   21.6229 H   0  0  0  0  0  0
  -28.0345  -20.9517   19.4402 H   0  0  0  0  0  0
  -29.5460  -21.6147   18.9669 H   0  0  0  0  0  0
  -28.8063  -15.8061   20.5720 H   0  0  0  0  0  0
  -28.1348  -22.4619   21.4520 H   0  0  0  0  0  0
  1 25  1  0  0  0
  1 30  2  0  0  0
  1 81  1  0  0  0
  2  3  1  0  0  0
  2 25  1  0  0  0
  2 85  1  0  0  0
  2 86  1  0  0  0
  3  4  1  0  0  0
  3 87  1  0  0  0
  3 88  1  0  0  0
  4  5  1  0  0  0
  4 89  1  0  0  0
  4 90  1  0  0  0
  5  6  1  0  0  0
  5 26  1  0  0  0
  5 91  1  0  0  0
  6 25  1  0  0  0
  6 92  1  0  0  0
  6 93  1  0  0  0
  7  8  2  0  0  0
  7 26  1  0  0  0
  7 29  1  0  0  0
  8  9  1  0  0  0
  8 22  1  0  0  0
  9 10  1  0  0  0
  9 27  2  0  0  0
 10 11  2  0  0  0
 10 15  1  0  0  0
 11 12  1  0  0  0
 11 94  1  0  0  0
 12 13  2  0  0  0
 12 95  1  0  0  0
 13 14  1  0  0  0
 13 31  1  0  0  0
 14 15  2  0  0  0
 14 96  1  0  0  0
 15 97  1  0  0  0
 16 17  2  0  0  0
 16 21  1  0  0  0
 16 31  1  0  0  0
 17 18  1  0  0  0
 17 98  1  0  0  0
 18 19  2  0  0  0
 18 99  1  0  0  0
 19 20  1  0  0  0
 19 24  1  0  0  0
 20 21  2  0  0  0
 20100  1  0  0  0
 21 23  1  0  0  0
 22 28  1  0  0  0
 22 32  2  0  0  0
 26 27  1  0  0  0
 28101  1  0  0  0
 28102  1  0  0  0
 29103  1  0  0  0
 29104  1  0  0  0
 33 34  1  0  0  0
 33 66  1  0  0  0
 33 70  2  0  0  0
 34 36  1  0  0  0
 34 59  1  0  0  0
 34105  1  0  0  0
 35 44  2  0  0  0
 35 45  1  0  0  0
 35 68  1  0  0  0
 36 56  1  0  0  0
 36106  1  0  0  0
 37 39  1  0  0  0
 37 47  1  0  0  0
 37 66  1  0  0  0
 37107  1  0  0  0
 38 43  2  0  0  0
 38 46  1  0  0  0
 38 47  1  0  0  0
 39 64  1  0  0  0
 39 67  2  0  0  0
 40 52  1  0  0  0
 40 53  2  0  0  0
 40 58  1  0  0  0
 41108  1  0  0  0
 41109  1  0  0  0
 41110  1  0  0  0
 41 48  1  0  0  0
 42 43  1  0  0  0
 42 66  1  0  0  0
 42111  1  0  0  0
 42112  1  0  0  0
 43 44  1  0  0  0
 44113  1  0  0  0
 45 46  2  0  0  0
 45114  1  0  0  0
 46115  1  0  0  0
 47116  1  0  0  0
 47117  1  0  0  0
 48 56  1  0  0  0
 48 65  1  0  0  0
 48118  1  0  0  0
 49 50  1  0  0  0
 49 53  1  0  0  0
 49 64  1  0  0  0
 49119  1  0  0  0
 50 51  1  0  0  0
 50120  1  0  0  0
 50121  1  0  0  0
 51 52  1  0  0  0
 51122  1  0  0  0
 51123  1  0  0  0
 52124  1  0  0  0
 52125  1  0  0  0
 53 54  1  0  0  0
 54 55  2  0  0  0
 54126  1  0  0  0
 55 57  1  0  0  0
 55127  1  0  0  0
 56 69  2  0  0  0
 57 58  2  0  0  0
 57128  1  0  0  0
 58129  1  0  0  0
 59 60  1  0  0  0
 59 61  1  0  0  0
 59 62  1  0  0  0
 60130  1  0  0  0
 60131  1  0  0  0
 60132  1  0  0  0
 61133  1  0  0  0
 61134  1  0  0  0
 61135  1  0  0  0
 62136  1  0  0  0
 62137  1  0  0  0
 62138  1  0  0  0
 63 65  1  0  0  0
 63139  1  0  0  0
 63140  1  0  0  0
 63141  1  0  0  0
 64142  1  0  0  0
 65143  1  0  0  0
 68 79  1  0  0  0
 71 72  2  0  0  0
 71 74  1  0  0  0
 71144  1  0  0  0
 72 75  1  0  0  0
 72145  1  0  0  0
 73 75  2  0  0  0
 73 76  1  0  0  0
 73 80  1  0  0  0
 74 76  2  0  0  0
 74 81  1  0  0  0
 75 83  1  0  0  0
 76 84  1  0  0  0
 77 79  1  0  0  0
 77 82  1  0  0  0
 77146  1  0  0  0
 77147  1  0  0  0
 78 79  1  0  0  0
 78 82  1  0  0  0
 78148  1  0  0  0
 78149  1  0  0  0
 79150  1  0  0  0
 80151  1  0  0  0
 80152  1  0  0  0
 80 82  1  0  0  0
 81153  1  0  0  0
 82154  1  0  0  0
M  CHG  1  82   1
M  ISO  4   1 100  68 101  79 101  81 100
M  END
> <chiral flag>
0

> <version>
0

> <s_m_source_file>
/data/baiqing/PycharmProjects/Reinvent-master-3.2/result/LINK_invent/BTK/process_docking_weight1_custom_product_contain_oxygen_bond_distance_aromatic_linkinvent_7_9_3/rearranged_h_0030.sdf

> <i_m_source_file_index>
70

> <r_mmod_Potential_Energy-OPLS-2005>
21.7680854797363

> <r_mmod_Stretch_Energy-OPLS-2005>
172.590667724609

> <r_mmod_Bend_Energy-OPLS-2005>
240.078140258789

> <r_mmod_Torsional_Energy-OPLS-2005>
238.511901855469

> <r_mmod_Improper_Torsional_Energy-OPLS-2005>
7.07588052749634

> <r_mmod_Van_der_Waal_Energy-OPLS-2005>
131.534317016602

> <r_mmod_Electrostatic_Energy-OPLS-2005>
-415.777069091797

> <r_mmod_Solvation_Energy-OPLS-2005>
-473.0595703125

> <b_mmod_Minimization_Converged-OPLS-2005>
0

> <r_mmod_RMS_Derivative-OPLS-2005>
1.84625244140625

$$$$
70
                    3D
 Structure written by MMmdl.
157165  0  0  1  0            999 V2000
  -30.4659  -15.1336   20.4468 C   0  0  0  0  0  0
  -30.3804  -12.7524   19.4952 C   0  0  0  0  0  0
  -29.4788  -12.4958   18.2557 C   0  0  0  0  0  0
  -28.0489  -12.2229   18.7251 C   0  0  0  0  0  0
  -27.5896  -13.2314   19.8114 C   0  0  2  0  0  0
  -28.6236  -13.3829   20.9475 C   0  0  0  0  0  0
  -25.2408  -13.8218   20.5677 C   0  0  0  0  0  0
  -24.1722  -13.0457   20.9262 C   0  0  0  0  0  0
  -24.6285  -11.6905   20.8885 C   0  0  0  0  0  0
  -23.9048  -10.4248   21.0473 C   0  0  0  0  0  0
  -24.3621   -9.4170   21.9247 C   0  0  0  0  0  0
  -23.6273   -8.2227   22.0780 C   0  0  0  0  0  0
  -22.4283   -8.0283   21.3538 C   0  0  0  0  0  0
  -21.9924   -9.0277   20.4679 C   0  0  0  0  0  0
  -22.7247  -10.2138   20.3099 C   0  0  0  0  0  0
  -21.6856   -6.0767   22.5279 C   0  0  0  0  0  0
  -21.3999   -6.5651   23.8219 C   0  0  0  0  0  0
  -21.3642   -5.6792   24.9173 C   0  0  0  0  0  0
  -21.6052   -4.3059   24.7212 C   0  0  0  0  0  0
  -21.8821   -3.8166   23.4324 C   0  0  0  0  0  0
  -21.9179   -4.6994   22.3392 C   0  0  0  0  0  0
  -22.7766  -13.5256   21.1858 C   0  0  0  0  0  0
  -22.1667   -4.2172   21.0979 F   0  0  0  0  0  0
  -21.5614   -3.4547   25.7728 F   0  0  0  0  0  0
  -29.8270  -13.8949   20.3149 N   0  0  0  0  0  0
  -26.2710  -12.9354   20.3221 N   0  0  0  0  0  0
  -25.9212  -11.6552   20.5880 N   0  0  0  0  0  0
  -22.0419  -12.8250   22.0398 N   0  0  0  0  0  0
  -25.4242  -15.1929   20.3941 N   0  0  0  0  0  0
  -31.6798  -15.0614   20.2235 O   0  0  0  0  0  0
  -21.6622   -6.8910   21.4236 O   0  0  0  0  0  0
  -22.3479  -14.5545   20.6646 O   0  0  0  0  0  0
  -24.6571  -31.8380   23.1747 C   0  0  0  0  0  0
  -25.9306  -32.4720   23.8271 C   0  0  1  0  0  0
  -27.2263  -27.0560   20.1405 C   0  0  0  0  0  0
  -25.6074  -33.8536   24.2321 N   0  0  0  0  0  0
  -23.4563  -30.4661   21.5408 C   0  0  2  0  0  0
  -24.9243  -28.8280   20.1248 C   0  0  0  0  0  0
  -22.7954  -29.4484   22.5115 C   0  0  0  0  0  0
  -18.1035  -28.0824   22.8060 C   0  0  0  0  0  0
  -24.1531  -36.7225   23.2598 C   0  0  0  0  0  0
  -26.0351  -30.6783   21.3629 C   0  0  0  0  0  0
  -26.0999  -29.2740   20.7244 C   0  0  0  0  0  0
  -27.2550  -28.4011   20.7015 C   0  0  0  0  0  0
  -26.0113  -26.7198   19.5174 C   0  0  0  0  0  0
  -24.8934  -27.5774   19.4989 C   0  0  0  0  0  0
  -23.6929  -29.7268   20.1726 C   0  0  0  0  0  0
  -25.4102  -36.3016   24.0293 C   0  0  1  0  0  0
  -20.6439  -28.3340   23.1676 C   0  0  2  0  0  0
  -20.7396  -26.8974   22.6071 C   0  0  0  0  0  0
  -19.7222  -26.6024   21.5020 C   0  0  0  0  0  0
  -18.3055  -26.7452   22.0831 C   0  0  0  0  0  0
  -19.1886  -28.8358   23.3015 C   0  0  0  0  0  0
  -18.9445  -30.1024   23.8878 C   0  0  0  0  0  0
  -17.6324  -30.5912   24.0495 C   0  0  0  0  0  0
  -25.9043  -34.9361   23.5025 C   0  0  0  0  0  0
  -16.5514  -29.8215   23.6015 C   0  0  0  0  0  0
  -16.7869  -28.5742   22.9930 C   0  0  0  0  0  0
  -26.4577  -31.6495   25.0678 C   0  0  0  0  0  0
  -25.3728  -31.3819   26.1396 C   0  0  0  0  0  0
  -27.0287  -30.2810   24.6221 C   0  0  0  0  0  0
  -27.6227  -32.4148   25.7514 C   0  0  0  0  0  0
  -27.5598  -37.1756   24.8458 C   0  0  0  0  0  0
  -21.4538  -29.3114   22.4103 N   0  0  0  0  0  0
  -26.4327  -37.3697   23.9340 N   0  0  0  0  0  0
  -24.7456  -31.0171   22.0876 N   0  0  0  0  0  0
  -23.4535  -28.7902   23.3206 O   0  0  0  0  0  0
  -28.2678  -26.0718   20.2918 O   0  0  0  0  0  0
  -26.5649  -34.8899   22.4652 O   0  0  0  0  0  0
  -23.5624  -32.1346   23.6752 O   0  0  0  0  0  0
  -25.9475  -20.1121   21.6127 C   0  0  0  0  0  0
  -28.0729  -19.2634   22.4215 C   0  0  0  0  0  0
  -26.7967  -19.8305   22.6751 C   0  0  0  0  0  0
  -26.5277  -20.5107   20.4076 C   0  0  0  0  0  0
  -28.5136  -19.1478   21.0513 C   0  0  0  0  0  0
  -27.9627  -20.3835   20.3050 C   0  0  0  0  0  0
  -28.2795  -23.1475   20.5775 C   0  0  0  0  0  0
  -26.3190  -20.4003   24.0032 C   0  0  0  0  0  0
  -25.6556  -21.5331   19.6796 C   0  0  0  0  0  0
  -28.6568  -17.4854   20.6446 C   0  0  0  0  0  0
  -28.3633  -24.5915   19.7056 C   0  0  0  0  0  0
  -28.5671  -21.8067   20.0704 N   0  0  0  0  0  0
  -29.9200  -16.4716   20.7154 N   0  0  0  0  0  0
  -27.9308  -23.2645   21.7554 O   0  0  0  0  0  0
  -31.4064  -12.9189   19.1794 H   0  0  0  0  0  0
  -30.4422  -11.8476   20.1020 H   0  0  0  0  0  0
  -29.8461  -11.6317   17.7027 H   0  0  0  0  0  0
  -29.4840  -13.3380   17.5601 H   0  0  0  0  0  0
  -28.0547  -11.2153   19.1729 H   0  0  0  0  0  0
  -27.3372  -12.1736   17.8970 H   0  0  0  0  0  0
  -27.5147  -14.1914   19.2940 H   0  0  0  0  0  0
  -28.8063  -12.4291   21.4564 H   0  0  0  0  0  0
  -28.2761  -14.0752   21.7189 H   0  0  0  0  0  0
  -25.2790   -9.5618   22.4792 H   0  0  0  0  0  0
  -23.9989   -7.4608   22.7456 H   0  0  0  0  0  0
  -21.0887   -8.8817   19.8955 H   0  0  0  0  0  0
  -22.3781  -10.9688   19.6191 H   0  0  0  0  0  0
  -21.2012   -7.6164   23.9721 H   0  0  0  0  0  0
  -21.1455   -6.0536   25.9078 H   0  0  0  0  0  0
  -22.0619   -2.7627   23.2827 H   0  0  0  0  0  0
  -22.4077  -11.9930   22.4717 H   0  0  0  0  0  0
  -21.1052  -13.1262   22.2607 H   0  0  0  0  0  0
  -24.6786  -15.8695   20.4812 H   0  0  0  0  0  0
  -26.2832  -15.5816   20.0273 H   0  0  0  0  0  0
  -26.7343  -32.5394   23.0978 H   0  0  0  0  0  0
  -25.0161  -33.9788   25.0425 H   0  0  0  0  0  0
  -22.7440  -31.3016   21.3908 H   0  0  0  0  0  0
  -23.3738  -35.9649   23.3247 H   0  0  0  0  0  0
  -24.3553  -36.8885   22.2032 H   0  0  0  0  0  0
  -23.7437  -37.6434   23.6695 H   0  0  0  0  0  0
  -26.1354  -31.3985   20.5516 H   0  0  0  0  0  0
  -26.9200  -30.8246   21.9557 H   0  0  0  0  0  0
  -28.1425  -28.7199   21.2075 H   0  0  0  0  0  0
  -25.8687  -25.7230   19.1283 H   0  0  0  0  0  0
  -23.9795  -27.2399   19.0602 H   0  0  0  0  0  0
  -23.8610  -30.4675   19.4022 H   0  0  0  0  0  0
  -22.8149  -29.1476   19.8848 H   0  0  0  0  0  0
  -25.1346  -36.1780   25.0812 H   0  0  0  0  0  0
  -21.0541  -28.3073   24.1602 H   0  0  0  0  0  0
  -20.5789  -26.1806   23.4190 H   0  0  0  0  0  0
  -21.7725  -26.6443   22.3358 H   0  0  0  0  0  0
  -19.8919  -25.5952   21.0925 H   0  0  0  0  0  0
  -19.9102  -27.2978   20.6857 H   0  0  0  0  0  0
  -17.5678  -26.5759   21.3065 H   0  0  0  0  0  0
  -18.1747  -25.9194   22.7933 H   0  0  0  0  0  0
  -19.7783  -30.6824   24.2309 H   0  0  0  0  0  0
  -17.4846  -31.5754   24.4713 H   0  0  0  0  0  0
  -15.5475  -30.2293   23.6524 H   0  0  0  0  0  0
  -15.9451  -28.0117   22.6169 H   0  0  0  0  0  0
  -24.5898  -30.7217   25.7652 H   0  0  0  0  0  0
  -24.8932  -32.3144   26.4516 H   0  0  0  0  0  0
  -25.7844  -30.9157   27.0366 H   0  0  0  0  0  0
  -26.2735  -29.6523   24.1521 H   0  0  0  0  0  0
  -27.4166  -29.7121   25.4663 H   0  0  0  0  0  0
  -27.8666  -30.3869   23.9294 H   0  0  0  0  0  0
  -27.2888  -33.3359   26.2288 H   0  0  0  0  0  0
  -28.3996  -32.6806   25.0328 H   0  0  0  0  0  0
  -28.1005  -31.8144   26.5323 H   0  0  0  0  0  0
  -28.2546  -38.0104   24.7435 H   0  0  0  0  0  0
  -28.1172  -36.2609   24.6364 H   0  0  0  0  0  0
  -27.2276  -37.1454   25.8857 H   0  0  0  0  0  0
  -20.9473  -29.9794   21.8895 H   0  0  0  0  0  0
  -26.0100  -38.2739   24.1318 H   0  0  0  0  0  0
  -24.9200  -20.4147   21.8277 H   0  0  0  0  0  0
  -28.5492  -18.7215   23.2459 H   0  0  0  0  0  0
  -26.2983  -21.4939   23.8313 H   0  0  0  0  0  0
  -26.9212  -20.2230   24.8688 H   0  0  0  0  0  0
  -25.3306  -20.0053   24.2312 H   0  0  0  0  0  0
  -25.6801  -22.4786   20.2283 H   0  0  0  0  0  0
  -24.5908  -21.2036   19.6675 H   0  0  0  0  0  0
  -25.9428  -21.7983   18.6689 H   0  0  0  0  0  0
  -28.0050  -16.9786   21.3784 H   0  0  0  0  0  0
  -28.1198  -17.3007   19.6971 H   0  0  0  0  0  0
  -27.6629  -24.4278   18.8895 H   0  0  0  0  0  0
  -29.3616  -24.5640   19.2694 H   0  0  0  0  0  0
  -29.0998  -21.8304   19.2161 H   0  0  0  0  0  0
  -30.7477  -17.0450   20.8690 H   0  0  0  0  0  0
  1 25  1  0  0  0
  1 30  2  0  0  0
  1 83  1  0  0  0
  2  3  1  0  0  0
  2 25  1  0  0  0
  2 85  1  0  0  0
  2 86  1  0  0  0
  3  4  1  0  0  0
  3 87  1  0  0  0
  3 88  1  0  0  0
  4  5  1  0  0  0
  4 89  1  0  0  0
  4 90  1  0  0  0
  5  6  1  0  0  0
  5 26  1  0  0  0
  5 91  1  0  0  0
  6 25  1  0  0  0
  6 92  1  0  0  0
  6 93  1  0  0  0
  7  8  2  0  0  0
  7 26  1  0  0  0
  7 29  1  0  0  0
  8  9  1  0  0  0
  8 22  1  0  0  0
  9 10  1  0  0  0
  9 27  2  0  0  0
 10 11  2  0  0  0
 10 15  1  0  0  0
 11 12  1  0  0  0
 11 94  1  0  0  0
 12 13  2  0  0  0
 12 95  1  0  0  0
 13 14  1  0  0  0
 13 31  1  0  0  0
 14 15  2  0  0  0
 14 96  1  0  0  0
 15 97  1  0  0  0
 16 17  2  0  0  0
 16 21  1  0  0  0
 16 31  1  0  0  0
 17 18  1  0  0  0
 17 98  1  0  0  0
 18 19  2  0  0  0
 18 99  1  0  0  0
 19 20  1  0  0  0
 19 24  1  0  0  0
 20 21  2  0  0  0
 20100  1  0  0  0
 21 23  1  0  0  0
 22 28  1  0  0  0
 22 32  2  0  0  0
 26 27  1  0  0  0
 28101  1  0  0  0
 28102  1  0  0  0
 29103  1  0  0  0
 29104  1  0  0  0
 33 34  1  0  0  0
 33 66  1  0  0  0
 33 70  2  0  0  0
 34 36  1  0  0  0
 34 59  1  0  0  0
 34105  1  0  0  0
 35 44  2  0  0  0
 35 45  1  0  0  0
 35 68  1  0  0  0
 36 56  1  0  0  0
 36106  1  0  0  0
 37 39  1  0  0  0
 37 47  1  0  0  0
 37 66  1  0  0  0
 37107  1  0  0  0
 38 43  2  0  0  0
 38 46  1  0  0  0
 38 47  1  0  0  0
 39 64  1  0  0  0
 39 67  2  0  0  0
 40 52  1  0  0  0
 40 53  2  0  0  0
 40 58  1  0  0  0
 41108  1  0  0  0
 41109  1  0  0  0
 41110  1  0  0  0
 41 48  1  0  0  0
 42 43  1  0  0  0
 42 66  1  0  0  0
 42111  1  0  0  0
 42112  1  0  0  0
 43 44  1  0  0  0
 44113  1  0  0  0
 45 46  2  0  0  0
 45114  1  0  0  0
 46115  1  0  0  0
 47116  1  0  0  0
 47117  1  0  0  0
 48 56  1  0  0  0
 48 65  1  0  0  0
 48118  1  0  0  0
 49 50  1  0  0  0
 49 53  1  0  0  0
 49 64  1  0  0  0
 49119  1  0  0  0
 50 51  1  0  0  0
 50120  1  0  0  0
 50121  1  0  0  0
 51 52  1  0  0  0
 51122  1  0  0  0
 51123  1  0  0  0
 52124  1  0  0  0
 52125  1  0  0  0
 53 54  1  0  0  0
 54 55  2  0  0  0
 54126  1  0  0  0
 55 57  1  0  0  0
 55127  1  0  0  0
 56 69  2  0  0  0
 57 58  2  0  0  0
 57128  1  0  0  0
 58129  1  0  0  0
 59 60  1  0  0  0
 59 61  1  0  0  0
 59 62  1  0  0  0
 60130  1  0  0  0
 60131  1  0  0  0
 60132  1  0  0  0
 61133  1  0  0  0
 61134  1  0  0  0
 61135  1  0  0  0
 62136  1  0  0  0
 62137  1  0  0  0
 62138  1  0  0  0
 63 65  1  0  0  0
 63139  1  0  0  0
 63140  1  0  0  0
 63141  1  0  0  0
 64142  1  0  0  0
 65143  1  0  0  0
 68 81  1  0  0  0
 71 73  2  0  0  0
 71 74  1  0  0  0
 71144  1  0  0  0
 72 73  1  0  0  0
 72 75  2  0  0  0
 72145  1  0  0  0
 73 78  1  0  0  0
 74 76  2  0  0  0
 74 79  1  0  0  0
 75 76  1  0  0  0
 75 80  1  0  0  0
 76 82  1  0  0  0
 77 81  1  0  0  0
 77 82  1  0  0  0
 77 84  2  0  0  0
 78146  1  0  0  0
 78147  1  0  0  0
 78148  1  0  0  0
 79149  1  0  0  0
 79150  1  0  0  0
 79151  1  0  0  0
 80 83  1  0  0  0
 80152  1  0  0  0
 80153  1  0  0  0
 81154  1  0  0  0
 81155  1  0  0  0
 82156  1  0  0  0
 83157  1  0  0  0
M  ISO  4   1 100  68 101  81 101  83 100
M  END
> <chiral flag>
0

> <version>
0

> <s_m_source_file>
/data/baiqing/PycharmProjects/Reinvent-master-3.2/result/LINK_invent/BTK/process_docking_weight1_custom_product_contain_oxygen_bond_distance_aromatic_linkinvent_7_9_3/rearranged_h_0030.sdf

> <i_m_source_file_index>
71

> <r_mmod_Potential_Energy-OPLS-2005>
1294.81469726562

> <r_mmod_Stretch_Energy-OPLS-2005>
424.234649658203

> <r_mmod_Bend_Energy-OPLS-2005>
477.617095947266

> <r_mmod_Torsional_Energy-OPLS-2005>
553.991882324219

> <r_mmod_Improper_Torsional_Energy-OPLS-2005>
39.8361892700195

> <r_mmod_Van_der_Waal_Energy-OPLS-2005>
136.847625732422

> <r_mmod_Electrostatic_Energy-OPLS-2005>
-430.654754638672

> <r_mmod_Solvation_Energy-OPLS-2005>
-240.196014404297

> <b_mmod_Minimization_Converged-OPLS-2005>
0

> <r_mmod_RMS_Derivative-OPLS-2005>
40.5055694580078

$$$$
71
                    3D
 Structure written by MMmdl.
158167  0  0  1  0            999 V2000
  -30.5877  -14.7586   20.4144 C   0  0  0  0  0  0
  -30.4411  -12.4681   19.4559 C   0  0  0  0  0  0
  -29.5030  -12.5170   18.2272 C   0  0  0  0  0  0
  -28.0330  -12.3371   18.6534 C   0  0  0  0  0  0
  -27.6413  -13.2347   19.8552 C   0  0  2  0  0  0
  -28.6936  -13.1510   20.9813 C   0  0  0  0  0  0
  -25.2512  -13.8214   20.5751 C   0  0  0  0  0  0
  -24.1794  -13.0464   20.9243 C   0  0  0  0  0  0
  -24.6398  -11.6942   20.8769 C   0  0  0  0  0  0
  -23.9081  -10.4310   21.0452 C   0  0  0  0  0  0
  -24.3621   -9.4209   21.9211 C   0  0  0  0  0  0
  -23.6296   -8.2244   22.0752 C   0  0  0  0  0  0
  -22.4269   -8.0304   21.3546 C   0  0  0  0  0  0
  -21.9914   -9.0288   20.4659 C   0  0  0  0  0  0
  -22.7257  -10.2158   20.3094 C   0  0  0  0  0  0
  -21.6850   -6.0782   22.5292 C   0  0  0  0  0  0
  -21.4017   -6.5661   23.8234 C   0  0  0  0  0  0
  -21.3653   -5.6797   24.9174 C   0  0  0  0  0  0
  -21.6038   -4.3056   24.7205 C   0  0  0  0  0  0
  -21.8823   -3.8185   23.4325 C   0  0  0  0  0  0
  -21.9187   -4.7011   22.3390 C   0  0  0  0  0  0
  -22.7803  -13.5249   21.1888 C   0  0  0  0  0  0
  -22.1671   -4.2224   21.0971 F   0  0  0  0  0  0
  -21.5598   -3.4526   25.7704 F   0  0  0  0  0  0
  -29.9886  -13.5172   20.3964 N   0  0  0  0  0  0
  -26.2941  -12.9434   20.3317 N   0  0  0  0  0  0
  -25.9313  -11.6562   20.5738 N   0  0  0  0  0  0
  -22.0421  -12.8249   22.0445 N   0  0  0  0  0  0
  -25.4198  -15.1943   20.4225 N   0  0  0  0  0  0
  -31.7973  -14.8458   20.1979 O   0  0  0  0  0  0
  -21.6618   -6.8912   21.4253 O   0  0  0  0  0  0
  -22.3508  -14.5569   20.6744 O   0  0  0  0  0  0
  -24.6310  -31.8532   23.1922 C   0  0  0  0  0  0
  -25.9120  -32.4737   23.8294 C   0  0  1  0  0  0
  -27.2246  -27.2586   20.1289 C   0  0  0  0  0  0
  -25.5928  -33.8537   24.2227 N   0  0  0  0  0  0
  -23.4294  -30.4730   21.5357 C   0  0  2  0  0  0
  -24.8764  -28.9060   20.1142 C   0  0  0  0  0  0
  -22.7483  -29.4599   22.4885 C   0  0  0  0  0  0
  -18.0290  -28.1379   22.8467 C   0  0  0  0  0  0
  -24.1487  -36.7290   23.2634 C   0  0  0  0  0  0
  -25.9735  -30.7621   21.3714 C   0  0  0  0  0  0
  -26.0471  -29.3817   20.7188 C   0  0  0  0  0  0
  -27.2260  -28.5708   20.7106 C   0  0  0  0  0  0
  -26.0288  -26.8349   19.5181 C   0  0  0  0  0  0
  -24.8703  -27.6383   19.5078 C   0  0  0  0  0  0
  -23.6498  -29.7976   20.1552 C   0  0  0  0  0  0
  -25.4109  -36.3051   24.0319 C   0  0  1  0  0  0
  -20.5893  -28.3697   23.1244 C   0  0  2  0  0  0
  -20.6781  -26.9404   22.5407 C   0  0  0  0  0  0
  -19.5769  -26.6369   21.5196 C   0  0  0  0  0  0
  -18.1945  -26.7921   22.1603 C   0  0  0  0  0  0
  -19.1550  -28.8848   23.2860 C   0  0  0  0  0  0
  -18.9475  -30.1445   23.8893 C   0  0  0  0  0  0
  -17.6482  -30.6585   24.0554 C   0  0  0  0  0  0
  -25.9056  -34.9431   23.5080 C   0  0  0  0  0  0
  -16.5370  -29.9087   23.6318 C   0  0  0  0  0  0
  -16.7283  -28.6500   23.0343 C   0  0  0  0  0  0
  -26.4470  -31.6577   25.0700 C   0  0  0  0  0  0
  -25.3698  -31.3780   26.1442 C   0  0  0  0  0  0
  -27.0314  -30.2980   24.6208 C   0  0  0  0  0  0
  -27.5998  -32.4336   25.7510 C   0  0  0  0  0  0
  -27.5582  -37.1792   24.8439 C   0  0  0  0  0  0
  -21.4197  -29.3053   22.3638 N   0  0  0  0  0  0
  -26.4268  -37.3767   23.9416 N   0  0  0  0  0  0
  -24.6974  -31.0486   22.0900 N   0  0  0  0  0  0
  -23.4178  -28.8142   23.2998 O   0  0  0  0  0  0
  -28.3387  -26.3954   20.1067 O   0  0  0  0  0  0
  -26.5649  -34.8917   22.4656 O   0  0  0  0  0  0
  -23.5467  -32.1363   23.7223 O   0  0  0  0  0  0
  -29.2547  -18.4530   20.4552 C   0  0  0  0  0  0
  -30.6396  -18.7694   18.0871 C   0  0  0  0  0  0
  -29.2767  -19.7884   19.8486 C   0  0  0  0  0  0
  -30.0060  -19.8998   18.6413 C   0  0  0  0  0  0
  -29.9013  -17.2637   19.9013 C   0  0  0  0  0  0
  -30.5587  -17.4800   18.6532 C   0  0  0  0  0  0
  -29.5194  -23.0418   21.3815 C   0  0  0  0  0  0
  -29.4429  -24.5803   21.4233 C   0  0  0  0  0  0
  -28.1471  -23.6655   19.6605 C   0  0  0  0  0  0
  -28.2170  -24.9713   20.5819 C   0  0  2  0  0  0
  -30.0521  -21.1964   17.8542 C   0  0  0  0  0  0
  -28.3812  -21.0228   20.3486 C   0  0  0  0  0  0
  -28.8027  -22.5047   20.3792 N   0  0  0  0  0  0
  -29.7755  -15.8897   20.4931 N   0  0  0  0  0  0
  -30.1458  -22.3998   22.2282 O   0  0  0  0  0  0
  -31.1706  -16.2065   17.6546 Cl  0  0  0  0  0  0
  -31.4756  -12.6178   19.1379 H   0  0  0  0  0  0
  -30.4094  -11.4904   19.9375 H   0  0  0  0  0  0
  -29.7729  -11.7449   17.5058 H   0  0  0  0  0  0
  -29.6206  -13.4726   17.7119 H   0  0  0  0  0  0
  -27.8988  -11.2885   18.9204 H   0  0  0  0  0  0
  -27.3693  -12.5316   17.8104 H   0  0  0  0  0  0
  -27.6380  -14.2571   19.4788 H   0  0  0  0  0  0
  -28.7348  -12.1394   21.3913 H   0  0  0  0  0  0
  -28.4382  -13.8099   21.8137 H   0  0  0  0  0  0
  -25.2765   -9.5649   22.4794 H   0  0  0  0  0  0
  -24.0024   -7.4595   22.7431 H   0  0  0  0  0  0
  -21.0849   -8.8825   19.8950 H   0  0  0  0  0  0
  -22.3747  -10.9706   19.6212 H   0  0  0  0  0  0
  -21.2027   -7.6170   23.9764 H   0  0  0  0  0  0
  -21.1457   -6.0502   25.9072 H   0  0  0  0  0  0
  -22.0596   -2.7655   23.2778 H   0  0  0  0  0  0
  -22.3974  -11.9904   22.4876 H   0  0  0  0  0  0
  -21.1049  -13.1342   22.2635 H   0  0  0  0  0  0
  -24.6531  -15.8460   20.5422 H   0  0  0  0  0  0
  -26.2716  -15.6435   20.1082 H   0  0  0  0  0  0
  -26.7201  -32.5374   23.1056 H   0  0  0  0  0  0
  -25.0047  -33.9662   25.0356 H   0  0  0  0  0  0
  -22.7275  -31.2960   21.3819 H   0  0  0  0  0  0
  -23.3747  -35.9622   23.3247 H   0  0  0  0  0  0
  -24.3593  -36.8971   22.2060 H   0  0  0  0  0  0
  -23.7246  -37.6475   23.6702 H   0  0  0  0  0  0
  -26.1121  -31.5189   20.5995 H   0  0  0  0  0  0
  -26.8498  -30.8129   22.0051 H   0  0  0  0  0  0
  -28.1279  -28.9316   21.1842 H   0  0  0  0  0  0
  -25.9891  -25.8646   19.0456 H   0  0  0  0  0  0
  -23.9709  -27.2613   19.0419 H   0  0  0  0  0  0
  -23.7854  -30.5693   19.3962 H   0  0  0  0  0  0
  -22.7656  -29.2367   19.8453 H   0  0  0  0  0  0
  -25.1287  -36.1883   25.0812 H   0  0  0  0  0  0
  -20.9983  -28.3275   24.1359 H   0  0  0  0  0  0
  -20.5629  -26.2308   23.3613 H   0  0  0  0  0  0
  -21.6662  -26.7394   22.1234 H   0  0  0  0  0  0
  -19.6924  -25.6266   21.1254 H   0  0  0  0  0  0
  -19.6705  -27.3150   20.6700 H   0  0  0  0  0  0
  -17.4198  -26.6628   21.4019 H   0  0  0  0  0  0
  -18.0358  -26.0073   22.9011 H   0  0  0  0  0  0
  -19.7960  -30.7255   24.2252 H   0  0  0  0  0  0
  -17.5045  -31.6257   24.5160 H   0  0  0  0  0  0
  -15.5373  -30.2997   23.7645 H   0  0  0  0  0  0
  -15.8675  -28.0826   22.7057 H   0  0  0  0  0  0
  -24.5823  -30.7173   25.7810 H   0  0  0  0  0  0
  -24.8956  -32.2983   26.4864 H   0  0  0  0  0  0
  -25.8016  -30.8968   27.0223 H   0  0  0  0  0  0
  -26.2908  -29.6758   24.1169 H   0  0  0  0  0  0
  -27.3911  -29.7224   25.4746 H   0  0  0  0  0  0
  -27.8818  -30.4254   23.9506 H   0  0  0  0  0  0
  -27.2544  -33.3620   26.2087 H   0  0  0  0  0  0
  -28.3821  -32.6938   25.0363 H   0  0  0  0  0  0
  -28.0640  -31.8466   26.5451 H   0  0  0  0  0  0
  -28.2538  -38.0148   24.7549 H   0  0  0  0  0  0
  -28.1143  -36.2684   24.6164 H   0  0  0  0  0  0
  -27.2323  -37.1320   25.8844 H   0  0  0  0  0  0
  -20.9359  -29.8816   21.6896 H   0  0  0  0  0  0
  -26.0130  -38.2824   24.1469 H   0  0  0  0  0  0
  -28.6843  -18.3294   21.3648 H   0  0  0  0  0  0
  -31.1534  -18.8706   17.1415 H   0  0  0  0  0  0
  -30.3543  -24.9799   20.9799 H   0  0  0  0  0  0
  -29.3729  -24.9526   22.4443 H   0  0  0  0  0  0
  -28.6959  -23.8387   18.7330 H   0  0  0  0  0  0
  -27.1195  -23.4303   19.3835 H   0  0  0  0  0  0
  -27.3503  -24.9335   21.2450 H   0  0  0  0  0  0
  -30.4857  -21.0535   16.8631 H   0  0  0  0  0  0
  -30.6528  -21.9449   18.3703 H   0  0  0  0  0  0
  -29.0474  -21.5927   17.7025 H   0  0  0  0  0  0
  -28.0193  -20.7717   21.3462 H   0  0  0  0  0  0
  -27.4904  -20.9886   19.7221 H   0  0  0  0  0  0
  -28.8709  -15.6929   20.8873 H   0  0  0  0  0  0
  1 25  1  0  0  0
  1 30  2  0  0  0
  1 84  1  0  0  0
  2  3  1  0  0  0
  2 25  1  0  0  0
  2 87  1  0  0  0
  2 88  1  0  0  0
  3  4  1  0  0  0
  3 89  1  0  0  0
  3 90  1  0  0  0
  4  5  1  0  0  0
  4 91  1  0  0  0
  4 92  1  0  0  0
  5  6  1  0  0  0
  5 26  1  0  0  0
  5 93  1  0  0  0
  6 25  1  0  0  0
  6 94  1  0  0  0
  6 95  1  0  0  0
  7  8  2  0  0  0
  7 26  1  0  0  0
  7 29  1  0  0  0
  8  9  1  0  0  0
  8 22  1  0  0  0
  9 10  1  0  0  0
  9 27  2  0  0  0
 10 11  2  0  0  0
 10 15  1  0  0  0
 11 12  1  0  0  0
 11 96  1  0  0  0
 12 13  2  0  0  0
 12 97  1  0  0  0
 13 14  1  0  0  0
 13 31  1  0  0  0
 14 15  2  0  0  0
 14 98  1  0  0  0
 15 99  1  0  0  0
 16 17  2  0  0  0
 16 21  1  0  0  0
 16 31  1  0  0  0
 17 18  1  0  0  0
 17100  1  0  0  0
 18 19  2  0  0  0
 18101  1  0  0  0
 19 20  1  0  0  0
 19 24  1  0  0  0
 20 21  2  0  0  0
 20102  1  0  0  0
 21 23  1  0  0  0
 22 28  1  0  0  0
 22 32  2  0  0  0
 26 27  1  0  0  0
 28103  1  0  0  0
 28104  1  0  0  0
 29105  1  0  0  0
 29106  1  0  0  0
 33 34  1  0  0  0
 33 66  1  0  0  0
 33 70  2  0  0  0
 34 36  1  0  0  0
 34 59  1  0  0  0
 34107  1  0  0  0
 35 44  2  0  0  0
 35 45  1  0  0  0
 35 68  1  0  0  0
 36 56  1  0  0  0
 36108  1  0  0  0
 37 39  1  0  0  0
 37 47  1  0  0  0
 37 66  1  0  0  0
 37109  1  0  0  0
 38 43  2  0  0  0
 38 46  1  0  0  0
 38 47  1  0  0  0
 39 64  1  0  0  0
 39 67  2  0  0  0
 40 52  1  0  0  0
 40 53  2  0  0  0
 40 58  1  0  0  0
 41110  1  0  0  0
 41111  1  0  0  0
 41112  1  0  0  0
 41 48  1  0  0  0
 42 43  1  0  0  0
 42 66  1  0  0  0
 42113  1  0  0  0
 42114  1  0  0  0
 43 44  1  0  0  0
 44115  1  0  0  0
 45 46  2  0  0  0
 45116  1  0  0  0
 46117  1  0  0  0
 47118  1  0  0  0
 47119  1  0  0  0
 48 56  1  0  0  0
 48 65  1  0  0  0
 48120  1  0  0  0
 49 50  1  0  0  0
 49 53  1  0  0  0
 49 64  1  0  0  0
 49121  1  0  0  0
 50 51  1  0  0  0
 50122  1  0  0  0
 50123  1  0  0  0
 51 52  1  0  0  0
 51124  1  0  0  0
 51125  1  0  0  0
 52126  1  0  0  0
 52127  1  0  0  0
 53 54  1  0  0  0
 54 55  2  0  0  0
 54128  1  0  0  0
 55 57  1  0  0  0
 55129  1  0  0  0
 56 69  2  0  0  0
 57 58  2  0  0  0
 57130  1  0  0  0
 58131  1  0  0  0
 59 60  1  0  0  0
 59 61  1  0  0  0
 59 62  1  0  0  0
 60132  1  0  0  0
 60133  1  0  0  0
 60134  1  0  0  0
 61135  1  0  0  0
 61136  1  0  0  0
 61137  1  0  0  0
 62138  1  0  0  0
 62139  1  0  0  0
 62140  1  0  0  0
 63 65  1  0  0  0
 63141  1  0  0  0
 63142  1  0  0  0
 63143  1  0  0  0
 64144  1  0  0  0
 65145  1  0  0  0
 68 80  1  0  0  0
 71 73  2  0  0  0
 71 75  1  0  0  0
 71146  1  0  0  0
 72 74  2  0  0  0
 72 76  1  0  0  0
 72147  1  0  0  0
 73 74  1  0  0  0
 73 82  1  0  0  0
 74 81  1  0  0  0
 75 76  2  0  0  0
 75 84  1  0  0  0
 76 86  1  0  0  0
 77 78  1  0  0  0
 77 83  1  0  0  0
 77 85  2  0  0  0
 78 80  1  0  0  0
 78148  1  0  0  0
 78149  1  0  0  0
 79 80  1  0  0  0
 79 83  1  0  0  0
 79150  1  0  0  0
 79151  1  0  0  0
 80152  1  0  0  0
 81153  1  0  0  0
 81154  1  0  0  0
 81155  1  0  0  0
 82 83  1  0  0  0
 82156  1  0  0  0
 82157  1  0  0  0
 84158  1  0  0  0
M  ISO  4   1 100  68 101  80 101  84 100
M  END
> <chiral flag>
0

> <version>
0

> <s_m_source_file>
/data/baiqing/PycharmProjects/Reinvent-master-3.2/result/LINK_invent/BTK/process_docking_weight1_custom_product_contain_oxygen_bond_distance_aromatic_linkinvent_7_9_3/rearranged_h_0030.sdf

> <i_m_source_file_index>
72

> <r_mmod_Potential_Energy-OPLS-2005>
196.737731933594

> <r_mmod_Stretch_Energy-OPLS-2005>
130.569488525391

> <r_mmod_Bend_Energy-OPLS-2005>
210.212768554688

> <r_mmod_Torsional_Energy-OPLS-2005>
277.441497802734

> <r_mmod_Improper_Torsional_Energy-OPLS-2005>
7.43603563308716

> <r_mmod_Van_der_Waal_Energy-OPLS-2005>
132.226531982422

> <r_mmod_Electrostatic_Energy-OPLS-2005>
-410.250122070312

> <r_mmod_Solvation_Energy-OPLS-2005>
-238.482833862305

> <b_mmod_Minimization_Converged-OPLS-2005>
0

> <r_mmod_RMS_Derivative-OPLS-2005>
3.90219306945801

$$$$
72
                    3D
 Structure written by MMmdl.
154163  0  0  1  0            999 V2000
  -30.5953  -14.8400   20.4503 C   0  0  0  0  0  0
  -30.4280  -12.5139   19.4964 C   0  0  0  0  0  0
  -29.5140  -12.5207   18.2512 C   0  0  0  0  0  0
  -28.0433  -12.3295   18.6640 C   0  0  0  0  0  0
  -27.6356  -13.2447   19.8494 C   0  0  2  0  0  0
  -28.6777  -13.2279   20.9899 C   0  0  0  0  0  0
  -25.2472  -13.8216   20.5715 C   0  0  0  0  0  0
  -24.1782  -13.0441   20.9217 C   0  0  0  0  0  0
  -24.6396  -11.6926   20.8752 C   0  0  0  0  0  0
  -23.9080  -10.4295   21.0405 C   0  0  0  0  0  0
  -24.3628   -9.4209   21.9182 C   0  0  0  0  0  0
  -23.6301   -8.2245   22.0753 C   0  0  0  0  0  0
  -22.4281   -8.0284   21.3544 C   0  0  0  0  0  0
  -21.9920   -9.0257   20.4645 C   0  0  0  0  0  0
  -22.7251  -10.2135   20.3055 C   0  0  0  0  0  0
  -21.6855   -6.0738   22.5279 C   0  0  0  0  0  0
  -21.4015   -6.5642   23.8213 C   0  0  0  0  0  0
  -21.3659   -5.6793   24.9175 C   0  0  0  0  0  0
  -21.6044   -4.3056   24.7225 C   0  0  0  0  0  0
  -21.8819   -3.8149   23.4346 C   0  0  0  0  0  0
  -21.9194   -4.6965   22.3402 C   0  0  0  0  0  0
  -22.7803  -13.5211   21.1875 C   0  0  0  0  0  0
  -22.1663   -4.2152   21.0979 F   0  0  0  0  0  0
  -21.5628   -3.4538   25.7737 F   0  0  0  0  0  0
  -29.9696  -13.6029   20.4027 N   0  0  0  0  0  0
  -26.2909  -12.9451   20.3290 N   0  0  0  0  0  0
  -25.9331  -11.6579   20.5759 N   0  0  0  0  0  0
  -22.0456  -12.8194   22.0430 N   0  0  0  0  0  0
  -25.4121  -15.1944   20.4149 N   0  0  0  0  0  0
  -31.7656  -14.8886   20.0674 O   0  0  0  0  0  0
  -21.6644   -6.8882   21.4242 O   0  0  0  0  0  0
  -22.3480  -14.5515   20.6723 O   0  0  0  0  0  0
  -24.6359  -31.8482   23.1908 C   0  0  0  0  0  0
  -25.9159  -32.4714   23.8279 C   0  0  1  0  0  0
  -27.2225  -27.2004   20.1405 C   0  0  0  0  0  0
  -25.5934  -33.8519   24.2203 N   0  0  0  0  0  0
  -23.4365  -30.4665   21.5341 C   0  0  2  0  0  0
  -24.8860  -28.8993   20.1040 C   0  0  0  0  0  0
  -22.7528  -29.4562   22.4876 C   0  0  0  0  0  0
  -18.0296  -28.1392   22.8481 C   0  0  0  0  0  0
  -24.1491  -36.7265   23.2641 C   0  0  0  0  0  0
  -25.9847  -30.7413   21.3791 C   0  0  0  0  0  0
  -26.0558  -29.3575   20.7216 C   0  0  0  0  0  0
  -27.2216  -28.5190   20.7290 C   0  0  0  0  0  0
  -26.0338  -26.8227   19.4821 C   0  0  0  0  0  0
  -24.8838  -27.6441   19.4712 C   0  0  0  0  0  0
  -23.6581  -29.7930   20.1520 C   0  0  0  0  0  0
  -25.4120  -36.3045   24.0320 C   0  0  1  0  0  0
  -20.5903  -28.3707   23.1256 C   0  0  2  0  0  0
  -20.6780  -26.9417   22.5412 C   0  0  0  0  0  0
  -19.5757  -26.6381   21.5215 C   0  0  0  0  0  0
  -18.1936  -26.7931   22.1624 C   0  0  0  0  0  0
  -19.1551  -28.8867   23.2862 C   0  0  0  0  0  0
  -18.9471  -30.1465   23.8883 C   0  0  0  0  0  0
  -17.6470  -30.6590   24.0561 C   0  0  0  0  0  0
  -25.9067  -34.9419   23.5071 C   0  0  0  0  0  0
  -16.5360  -29.9087   23.6334 C   0  0  0  0  0  0
  -16.7282  -28.6506   23.0354 C   0  0  0  0  0  0
  -26.4507  -31.6569   25.0701 C   0  0  0  0  0  0
  -25.3711  -31.3743   26.1411 C   0  0  0  0  0  0
  -27.0369  -30.2977   24.6239 C   0  0  0  0  0  0
  -27.6045  -32.4328   25.7482 C   0  0  0  0  0  0
  -27.5579  -37.1782   24.8461 C   0  0  0  0  0  0
  -21.4228  -29.3038   22.3630 N   0  0  0  0  0  0
  -26.4283  -37.3756   23.9415 N   0  0  0  0  0  0
  -24.7049  -31.0391   22.0906 N   0  0  0  0  0  0
  -23.4201  -28.8117   23.3009 O   0  0  0  0  0  0
  -28.3084  -26.2858   20.2650 O   0  0  0  0  0  0
  -26.5653  -34.8911   22.4650 O   0  0  0  0  0  0
  -23.5496  -32.1331   23.7171 O   0  0  0  0  0  0
  -30.8378  -20.3497   20.8981 C   0  0  0  0  0  0
  -31.7845  -19.3436   21.1641 C   0  0  0  0  0  0
  -29.4967  -20.0329   20.6208 C   0  0  0  0  0  0
  -30.1839  -17.4958   20.7555 C   0  0  0  0  0  0
  -31.4725  -17.9665   21.1563 C   0  0  0  0  0  0
  -29.2047  -18.5821   20.5277 C   0  0  0  0  0  0
  -27.4137  -23.6488   20.1419 C   0  0  0  0  0  0
  -29.3906  -23.8077   20.3509 C   0  0  0  0  0  0
  -28.3506  -24.8459   19.7442 C   0  0  2  0  0  0
  -28.4386  -21.2701   20.6762 C   0  0  0  0  0  0
  -29.8496  -16.0093   20.7054 N   0  0  0  0  0  0
  -28.5302  -22.6501   19.9365 N   0  3  1  0  0  0
  -32.7111  -16.9486   21.8062 Cl  0  0  0  0  0  0
  -27.5811  -18.0977   20.1876 Cl  0  0  0  0  0  0
  -31.4693  -12.6323   19.1931 H   0  0  0  0  0  0
  -30.3797  -11.5497   20.0048 H   0  0  0  0  0  0
  -29.8135  -11.7349   17.5564 H   0  0  0  0  0  0
  -29.6273  -13.4645   17.7154 H   0  0  0  0  0  0
  -27.9166  -11.2837   18.9459 H   0  0  0  0  0  0
  -27.3842  -12.4961   17.8112 H   0  0  0  0  0  0
  -27.6139  -14.2576   19.4463 H   0  0  0  0  0  0
  -28.7343  -12.2426   21.4547 H   0  0  0  0  0  0
  -28.3950  -13.9245   21.7807 H   0  0  0  0  0  0
  -25.2771   -9.5686   22.4760 H   0  0  0  0  0  0
  -24.0009   -7.4636   22.7472 H   0  0  0  0  0  0
  -21.0851   -8.8777   19.8950 H   0  0  0  0  0  0
  -22.3708  -10.9675   19.6166 H   0  0  0  0  0  0
  -21.2007   -7.6151   23.9717 H   0  0  0  0  0  0
  -21.1481   -6.0524   25.9078 H   0  0  0  0  0  0
  -22.0597   -2.7611   23.2844 H   0  0  0  0  0  0
  -22.4084  -11.9860   22.4815 H   0  0  0  0  0  0
  -21.1070  -13.1208   22.2636 H   0  0  0  0  0  0
  -24.6397  -15.8404   20.5333 H   0  0  0  0  0  0
  -26.2540  -15.6481   20.0859 H   0  0  0  0  0  0
  -26.7222  -32.5339   23.1011 H   0  0  0  0  0  0
  -25.0059  -33.9642   25.0335 H   0  0  0  0  0  0
  -22.7361  -31.2904   21.3819 H   0  0  0  0  0  0
  -23.3759  -35.9590   23.3284 H   0  0  0  0  0  0
  -24.3583  -36.8913   22.2060 H   0  0  0  0  0  0
  -23.7237  -37.6454   23.6686 H   0  0  0  0  0  0
  -26.1317  -31.4984   20.6076 H   0  0  0  0  0  0
  -26.8590  -30.7914   22.0166 H   0  0  0  0  0  0
  -28.1123  -28.8598   21.2380 H   0  0  0  0  0  0
  -25.9649  -25.8586   19.0013 H   0  0  0  0  0  0
  -23.9880  -27.2896   18.9800 H   0  0  0  0  0  0
  -23.7851  -30.5664   19.3937 H   0  0  0  0  0  0
  -22.7751  -29.2281   19.8474 H   0  0  0  0  0  0
  -25.1305  -36.1874   25.0812 H   0  0  0  0  0  0
  -20.9996  -28.3294   24.1377 H   0  0  0  0  0  0
  -20.5671  -26.2321   23.3625 H   0  0  0  0  0  0
  -21.6648  -26.7427   22.1211 H   0  0  0  0  0  0
  -19.6918  -25.6289   21.1251 H   0  0  0  0  0  0
  -19.6695  -27.3186   20.6741 H   0  0  0  0  0  0
  -17.4206  -26.6678   21.4026 H   0  0  0  0  0  0
  -18.0333  -26.0077   22.9023 H   0  0  0  0  0  0
  -19.7949  -30.7285   24.2243 H   0  0  0  0  0  0
  -17.5025  -31.6269   24.5167 H   0  0  0  0  0  0
  -15.5360  -30.2986   23.7666 H   0  0  0  0  0  0
  -15.8682  -28.0822   22.7073 H   0  0  0  0  0  0
  -24.5896  -30.7080   25.7740 H   0  0  0  0  0  0
  -24.8890  -32.2920   26.4791 H   0  0  0  0  0  0
  -25.8012  -30.8953   27.0215 H   0  0  0  0  0  0
  -26.2971  -29.6706   24.1251 H   0  0  0  0  0  0
  -27.4014  -29.7267   25.4788 H   0  0  0  0  0  0
  -27.8862  -30.4236   23.9521 H   0  0  0  0  0  0
  -27.2641  -33.3640   26.2024 H   0  0  0  0  0  0
  -28.3874  -32.6871   25.0323 H   0  0  0  0  0  0
  -28.0694  -31.8477   26.5428 H   0  0  0  0  0  0
  -28.2571  -38.0104   24.7536 H   0  0  0  0  0  0
  -28.1099  -36.2635   24.6245 H   0  0  0  0  0  0
  -27.2302  -37.1379   25.8863 H   0  0  0  0  0  0
  -20.9424  -29.8751   21.6819 H   0  0  0  0  0  0
  -26.0151  -38.2820   24.1436 H   0  0  0  0  0  0
  -31.1409  -21.3820   21.0037 H   0  0  0  0  0  0
  -32.7796  -19.6444   21.4600 H   0  0  0  0  0  0
  -26.5722  -23.4943   19.4664 H   0  0  0  0  0  0
  -27.0688  -23.6967   21.1775 H   0  0  0  0  0  0
  -29.5010  -23.8852   21.4351 H   0  0  0  0  0  0
  -30.3662  -23.8145   19.8648 H   0  0  0  0  0  0
  -28.4559  -24.8873   18.6579 H   0  0  0  0  0  0
  -28.3067  -21.4979   21.7338 H   0  0  0  0  0  0
  -27.4802  -20.8558   20.3664 H   0  0  0  0  0  0
  -28.8670  -15.8222   20.8287 H   0  0  0  0  0  0
  -28.6432  -22.4849   18.9483 H   0  0  0  0  0  0
  1 25  1  0  0  0
  1 30  2  0  0  0
  1 81  1  0  0  0
  2  3  1  0  0  0
  2 25  1  0  0  0
  2 85  1  0  0  0
  2 86  1  0  0  0
  3  4  1  0  0  0
  3 87  1  0  0  0
  3 88  1  0  0  0
  4  5  1  0  0  0
  4 89  1  0  0  0
  4 90  1  0  0  0
  5  6  1  0  0  0
  5 26  1  0  0  0
  5 91  1  0  0  0
  6 25  1  0  0  0
  6 92  1  0  0  0
  6 93  1  0  0  0
  7  8  2  0  0  0
  7 26  1  0  0  0
  7 29  1  0  0  0
  8  9  1  0  0  0
  8 22  1  0  0  0
  9 10  1  0  0  0
  9 27  2  0  0  0
 10 11  2  0  0  0
 10 15  1  0  0  0
 11 12  1  0  0  0
 11 94  1  0  0  0
 12 13  2  0  0  0
 12 95  1  0  0  0
 13 14  1  0  0  0
 13 31  1  0  0  0
 14 15  2  0  0  0
 14 96  1  0  0  0
 15 97  1  0  0  0
 16 17  2  0  0  0
 16 21  1  0  0  0
 16 31  1  0  0  0
 17 18  1  0  0  0
 17 98  1  0  0  0
 18 19  2  0  0  0
 18 99  1  0  0  0
 19 20  1  0  0  0
 19 24  1  0  0  0
 20 21  2  0  0  0
 20100  1  0  0  0
 21 23  1  0  0  0
 22 28  1  0  0  0
 22 32  2  0  0  0
 26 27  1  0  0  0
 28101  1  0  0  0
 28102  1  0  0  0
 29103  1  0  0  0
 29104  1  0  0  0
 33 34  1  0  0  0
 33 66  1  0  0  0
 33 70  2  0  0  0
 34 36  1  0  0  0
 34 59  1  0  0  0
 34105  1  0  0  0
 35 44  2  0  0  0
 35 45  1  0  0  0
 35 68  1  0  0  0
 36 56  1  0  0  0
 36106  1  0  0  0
 37 39  1  0  0  0
 37 47  1  0  0  0
 37 66  1  0  0  0
 37107  1  0  0  0
 38 43  2  0  0  0
 38 46  1  0  0  0
 38 47  1  0  0  0
 39 64  1  0  0  0
 39 67  2  0  0  0
 40 52  1  0  0  0
 40 53  2  0  0  0
 40 58  1  0  0  0
 41108  1  0  0  0
 41109  1  0  0  0
 41110  1  0  0  0
 41 48  1  0  0  0
 42 43  1  0  0  0
 42 66  1  0  0  0
 42111  1  0  0  0
 42112  1  0  0  0
 43 44  1  0  0  0
 44113  1  0  0  0
 45 46  2  0  0  0
 45114  1  0  0  0
 46115  1  0  0  0
 47116  1  0  0  0
 47117  1  0  0  0
 48 56  1  0  0  0
 48 65  1  0  0  0
 48118  1  0  0  0
 49 50  1  0  0  0
 49 53  1  0  0  0
 49 64  1  0  0  0
 49119  1  0  0  0
 50 51  1  0  0  0
 50120  1  0  0  0
 50121  1  0  0  0
 51 52  1  0  0  0
 51122  1  0  0  0
 51123  1  0  0  0
 52124  1  0  0  0
 52125  1  0  0  0
 53 54  1  0  0  0
 54 55  2  0  0  0
 54126  1  0  0  0
 55 57  1  0  0  0
 55127  1  0  0  0
 56 69  2  0  0  0
 57 58  2  0  0  0
 57128  1  0  0  0
 58129  1  0  0  0
 59 60  1  0  0  0
 59 61  1  0  0  0
 59 62  1  0  0  0
 60130  1  0  0  0
 60131  1  0  0  0
 60132  1  0  0  0
 61133  1  0  0  0
 61134  1  0  0  0
 61135  1  0  0  0
 62136  1  0  0  0
 62137  1  0  0  0
 62138  1  0  0  0
 63 65  1  0  0  0
 63139  1  0  0  0
 63140  1  0  0  0
 63141  1  0  0  0
 64142  1  0  0  0
 65143  1  0  0  0
 68 79  1  0  0  0
 71 72  2  0  0  0
 71 73  1  0  0  0
 71144  1  0  0  0
 72 75  1  0  0  0
 72145  1  0  0  0
 73 76  2  0  0  0
 73 80  1  0  0  0
 74 75  2  0  0  0
 74 76  1  0  0  0
 74 81  1  0  0  0
 75 83  1  0  0  0
 76 84  1  0  0  0
 77 79  1  0  0  0
 77 82  1  0  0  0
 77146  1  0  0  0
 77147  1  0  0  0
 78 79  1  0  0  0
 78 82  1  0  0  0
 78148  1  0  0  0
 78149  1  0  0  0
 79150  1  0  0  0
 80151  1  0  0  0
 80152  1  0  0  0
 80 82  1  0  0  0
 81153  1  0  0  0
 82154  1  0  0  0
M  CHG  1  82   1
M  ISO  4   1 100  68 101  79 101  81 100
M  END
> <chiral flag>
0

> <version>
0

> <s_m_source_file>
/data/baiqing/PycharmProjects/Reinvent-master-3.2/result/LINK_invent/BTK/process_docking_weight1_custom_product_contain_oxygen_bond_distance_aromatic_linkinvent_7_9_3/rearranged_h_0030.sdf

> <i_m_source_file_index>
73

> <r_mmod_Potential_Energy-OPLS-2005>
64.5549850463867

> <r_mmod_Stretch_Energy-OPLS-2005>
180.476455688477

> <r_mmod_Bend_Energy-OPLS-2005>
262.329650878906

> <r_mmod_Torsional_Energy-OPLS-2005>
221.079711914062

> <r_mmod_Improper_Torsional_Energy-OPLS-2005>
7.06680202484131

> <r_mmod_Van_der_Waal_Energy-OPLS-2005>
136.27717590332

> <r_mmod_Electrostatic_Energy-OPLS-2005>
-366.401153564453

> <r_mmod_Solvation_Energy-OPLS-2005>
-505.092834472656

> <b_mmod_Minimization_Converged-OPLS-2005>
0

> <r_mmod_RMS_Derivative-OPLS-2005>
0.251840740442276

$$$$
73
                    3D
 Structure written by MMmdl.
161170  0  0  1  0            999 V2000
  -30.6110  -14.7334   20.4994 C   0  0  0  0  0  0
  -30.4399  -12.4572   19.4597 C   0  0  0  0  0  0
  -29.5092  -12.5148   18.2298 C   0  0  0  0  0  0
  -28.0347  -12.3380   18.6459 C   0  0  0  0  0  0
  -27.6479  -13.2251   19.8583 C   0  0  2  0  0  0
  -28.6943  -13.1428   20.9892 C   0  0  0  0  0  0
  -25.2556  -13.8193   20.5696 C   0  0  0  0  0  0
  -24.1837  -13.0450   20.9220 C   0  0  0  0  0  0
  -24.6431  -11.6909   20.8780 C   0  0  0  0  0  0
  -23.9107  -10.4290   21.0436 C   0  0  0  0  0  0
  -24.3650   -9.4196   21.9211 C   0  0  0  0  0  0
  -23.6312   -8.2241   22.0774 C   0  0  0  0  0  0
  -22.4292   -8.0303   21.3567 C   0  0  0  0  0  0
  -21.9940   -9.0282   20.4670 C   0  0  0  0  0  0
  -22.7281  -10.2151   20.3077 C   0  0  0  0  0  0
  -21.6858   -6.0759   22.5285 C   0  0  0  0  0  0
  -21.4017   -6.5655   23.8222 C   0  0  0  0  0  0
  -21.3643   -5.6809   24.9174 C   0  0  0  0  0  0
  -21.6037   -4.3076   24.7222 C   0  0  0  0  0  0
  -21.8816   -3.8164   23.4345 C   0  0  0  0  0  0
  -21.9198   -4.6983   22.3397 C   0  0  0  0  0  0
  -22.7857  -13.5239   21.1853 C   0  0  0  0  0  0
  -22.1668   -4.2167   21.0973 F   0  0  0  0  0  0
  -21.5618   -3.4542   25.7727 F   0  0  0  0  0  0
  -29.9918  -13.5071   20.4066 N   0  0  0  0  0  0
  -26.2993  -12.9382   20.3323 N   0  0  0  0  0  0
  -25.9367  -11.6533   20.5812 N   0  0  0  0  0  0
  -22.0485  -12.8225   22.0390 N   0  0  0  0  0  0
  -25.4263  -15.1914   20.4050 N   0  0  0  0  0  0
  -31.7886  -14.8457   20.1452 O   0  0  0  0  0  0
  -21.6649   -6.8904   21.4258 O   0  0  0  0  0  0
  -22.3541  -14.5544   20.6698 O   0  0  0  0  0  0
  -24.6315  -31.8523   23.1951 C   0  0  0  0  0  0
  -25.9078  -32.4787   23.8326 C   0  0  1  0  0  0
  -27.2243  -27.2365   20.1596 C   0  0  0  0  0  0
  -25.5850  -33.8580   24.2238 N   0  0  0  0  0  0
  -23.4361  -30.4796   21.5280 C   0  0  2  0  0  0
  -24.8860  -28.9179   20.1051 C   0  0  0  0  0  0
  -22.7540  -29.4593   22.4757 C   0  0  0  0  0  0
  -18.0314  -28.1425   22.8550 C   0  0  0  0  0  0
  -24.1440  -36.7289   23.2660 C   0  0  0  0  0  0
  -25.9785  -30.7668   21.3687 C   0  0  0  0  0  0
  -26.0544  -29.3833   20.7197 C   0  0  0  0  0  0
  -27.2232  -28.5565   20.7309 C   0  0  0  0  0  0
  -26.0323  -26.8361   19.5135 C   0  0  0  0  0  0
  -24.8817  -27.6541   19.4926 C   0  0  0  0  0  0
  -23.6642  -29.8182   20.1404 C   0  0  0  0  0  0
  -25.4081  -36.3104   24.0357 C   0  0  1  0  0  0
  -20.5933  -28.3723   23.1236 C   0  0  2  0  0  0
  -20.6767  -26.9400   22.5412 C   0  0  0  0  0  0
  -19.5732  -26.6385   21.5230 C   0  0  0  0  0  0
  -18.1921  -26.7974   22.1645 C   0  0  0  0  0  0
  -19.1582  -28.8863   23.2920 C   0  0  0  0  0  0
  -18.9526  -30.1466   23.8955 C   0  0  0  0  0  0
  -17.6540  -30.6627   24.0590 C   0  0  0  0  0  0
  -25.9015  -34.9475   23.5094 C   0  0  0  0  0  0
  -16.5413  -29.9184   23.6331 C   0  0  0  0  0  0
  -16.7304  -28.6576   23.0377 C   0  0  0  0  0  0
  -26.4443  -31.6667   25.0743 C   0  0  0  0  0  0
  -25.3702  -31.3864   26.1482 C   0  0  0  0  0  0
  -27.0289  -30.3109   24.6190 C   0  0  0  0  0  0
  -27.5992  -32.4404   25.7546 C   0  0  0  0  0  0
  -27.5553  -37.1793   24.8483 C   0  0  0  0  0  0
  -21.4210  -29.3115   22.3614 N   0  0  0  0  0  0
  -26.4255  -37.3800   23.9462 N   0  0  0  0  0  0
  -24.7012  -31.0513   22.0901 N   0  0  0  0  0  0
  -23.4232  -28.8032   23.2754 O   0  0  0  0  0  0
  -28.3421  -26.3738   20.2689 O   0  0  0  0  0  0
  -26.5596  -34.8970   22.4677 O   0  0  0  0  0  0
  -23.5430  -32.1274   23.7260 O   0  0  0  0  0  0
  -30.6724  -20.0361   21.7750 C   0  0  0  0  0  0
  -31.4569  -18.9751   22.2747 C   0  0  0  0  0  0
  -29.3184  -18.3974   20.6106 C   0  0  0  0  0  0
  -29.5519  -19.7990   20.9525 C   0  0  0  0  0  0
  -31.1882  -17.6177   21.9695 C   0  0  0  0  0  0
  -30.1339  -17.2749   21.0730 C   0  0  0  0  0  0
  -29.9258  -23.0062   19.4611 C   0  0  0  0  0  0
  -30.6223  -22.2254   18.6157 C   0  0  0  0  0  0
  -29.7829  -24.5326   19.4111 C   0  0  0  0  0  0
  -28.1382  -23.6692   20.9013 C   0  0  0  0  0  0
  -28.3742  -24.9021   19.8988 C   0  0  1  0  0  0
  -32.0167  -16.5680   22.7042 C   0  0  0  0  0  0
  -28.5918  -21.0339   20.5687 C   0  0  0  0  0  0
  -29.8198  -15.8462   20.7770 N   0  0  0  0  0  0
  -29.0924  -22.5056   20.5936 N   0  3  1  0  0  0
  -31.4779  -12.5910   19.1522 H   0  0  0  0  0  0
  -30.3951  -11.4743   19.9310 H   0  0  0  0  0  0
  -29.7870  -11.7448   17.5090 H   0  0  0  0  0  0
  -29.6333  -13.4675   17.7177 H   0  0  0  0  0  0
  -27.8898  -11.2872   18.8960 H   0  0  0  0  0  0
  -27.3753  -12.5438   17.8013 H   0  0  0  0  0  0
  -27.6502  -14.2502   19.4888 H   0  0  0  0  0  0
  -28.7359  -12.1408   21.4161 H   0  0  0  0  0  0
  -28.4321  -13.8123   21.8106 H   0  0  0  0  0  0
  -25.2802   -9.5653   22.4781 H   0  0  0  0  0  0
  -24.0021   -7.4621   22.7473 H   0  0  0  0  0  0
  -21.0888   -8.8821   19.8958 H   0  0  0  0  0  0
  -22.3781  -10.9707   19.6180 H   0  0  0  0  0  0
  -21.2011   -7.6158   23.9734 H   0  0  0  0  0  0
  -21.1467   -6.0527   25.9083 H   0  0  0  0  0  0
  -22.0606   -2.7625   23.2834 H   0  0  0  0  0  0
  -22.4097  -11.9878   22.4763 H   0  0  0  0  0  0
  -21.1112  -13.1268   22.2579 H   0  0  0  0  0  0
  -24.6561  -15.8446   20.4929 H   0  0  0  0  0  0
  -26.2614  -15.6218   20.0290 H   0  0  0  0  0  0
  -26.7146  -32.5411   23.1084 H   0  0  0  0  0  0
  -25.0028  -33.9720   25.0399 H   0  0  0  0  0  0
  -22.7363  -31.3049   21.3754 H   0  0  0  0  0  0
  -23.3721  -35.9581   23.3317 H   0  0  0  0  0  0
  -24.3518  -36.8883   22.2073 H   0  0  0  0  0  0
  -23.7157  -37.6477   23.6666 H   0  0  0  0  0  0
  -26.1069  -31.5200   20.5895 H   0  0  0  0  0  0
  -26.8628  -30.8268   21.9944 H   0  0  0  0  0  0
  -28.1191  -28.9139   21.2166 H   0  0  0  0  0  0
  -25.9449  -25.8723   19.0391 H   0  0  0  0  0  0
  -23.9828  -27.2947   19.0073 H   0  0  0  0  0  0
  -23.8267  -30.6019   19.4003 H   0  0  0  0  0  0
  -22.7827  -29.2768   19.8021 H   0  0  0  0  0  0
  -25.1237  -36.1944   25.0831 H   0  0  0  0  0  0
  -21.0095  -28.3289   24.1330 H   0  0  0  0  0  0
  -20.5600  -26.2328   23.3626 H   0  0  0  0  0  0
  -21.6629  -26.7347   22.1221 H   0  0  0  0  0  0
  -19.6851  -25.6291   21.1280 H   0  0  0  0  0  0
  -19.6678  -27.3191   20.6751 H   0  0  0  0  0  0
  -17.4171  -26.6779   21.4060 H   0  0  0  0  0  0
  -18.0273  -26.0130   22.9036 H   0  0  0  0  0  0
  -19.8003  -30.7257   24.2343 H   0  0  0  0  0  0
  -17.5119  -31.6318   24.5181 H   0  0  0  0  0  0
  -15.5430  -30.3116   23.7624 H   0  0  0  0  0  0
  -15.8692  -28.0911   22.7073 H   0  0  0  0  0  0
  -24.5921  -30.7113   25.7916 H   0  0  0  0  0  0
  -24.8852  -32.3036   26.4794 H   0  0  0  0  0  0
  -25.8043  -30.9231   27.0342 H   0  0  0  0  0  0
  -26.2850  -29.6898   24.1179 H   0  0  0  0  0  0
  -27.3992  -29.7303   25.4643 H   0  0  0  0  0  0
  -27.8705  -30.4425   23.9379 H   0  0  0  0  0  0
  -27.2583  -33.3766   26.1982 H   0  0  0  0  0  0
  -28.3913  -32.6847   25.0468 H   0  0  0  0  0  0
  -28.0503  -31.8613   26.5609 H   0  0  0  0  0  0
  -28.2548  -38.0111   24.7504 H   0  0  0  0  0  0
  -28.1037  -36.2621   24.6277 H   0  0  0  0  0  0
  -27.2259  -37.1393   25.8881 H   0  0  0  0  0  0
  -20.9318  -29.9048   21.7075 H   0  0  0  0  0  0
  -26.0120  -38.2835   24.1573 H   0  0  0  0  0  0
  -30.9211  -21.0397   22.0880 H   0  0  0  0  0  0
  -32.2606  -19.2117   22.9604 H   0  0  0  0  0  0
  -28.4584  -18.1670   19.9967 H   0  0  0  0  0  0
  -31.1864  -22.6570   17.8020 H   0  0  0  0  0  0
  -30.6452  -21.1500   18.7067 H   0  0  0  0  0  0
  -29.9751  -24.9215   18.4124 H   0  0  0  0  0  0
  -30.5308  -24.9660   20.0739 H   0  0  0  0  0  0
  -27.0984  -23.3445   20.8945 H   0  0  0  0  0  0
  -28.3555  -23.9967   21.9185 H   0  0  0  0  0  0
  -27.7288  -24.7382   19.0398 H   0  0  0  0  0  0
  -32.4420  -16.9749   23.6216 H   0  0  0  0  0  0
  -32.8447  -16.2199   22.0874 H   0  0  0  0  0  0
  -31.4127  -15.7086   23.0029 H   0  0  0  0  0  0
  -27.7773  -20.9860   21.2932 H   0  0  0  0  0  0
  -28.1211  -20.8242   19.6082 H   0  0  0  0  0  0
  -28.8376  -15.6206   20.8086 H   0  0  0  0  0  0
  -29.6862  -22.4979   21.4061 H   0  0  0  0  0  0
  1 25  1  0  0  0
  1 30  2  0  0  0
  1 84  1  0  0  0
  2  3  1  0  0  0
  2 25  1  0  0  0
  2 86  1  0  0  0
  2 87  1  0  0  0
  3  4  1  0  0  0
  3 88  1  0  0  0
  3 89  1  0  0  0
  4  5  1  0  0  0
  4 90  1  0  0  0
  4 91  1  0  0  0
  5  6  1  0  0  0
  5 26  1  0  0  0
  5 92  1  0  0  0
  6 25  1  0  0  0
  6 93  1  0  0  0
  6 94  1  0  0  0
  7  8  2  0  0  0
  7 26  1  0  0  0
  7 29  1  0  0  0
  8  9  1  0  0  0
  8 22  1  0  0  0
  9 10  1  0  0  0
  9 27  2  0  0  0
 10 11  2  0  0  0
 10 15  1  0  0  0
 11 12  1  0  0  0
 11 95  1  0  0  0
 12 13  2  0  0  0
 12 96  1  0  0  0
 13 14  1  0  0  0
 13 31  1  0  0  0
 14 15  2  0  0  0
 14 97  1  0  0  0
 15 98  1  0  0  0
 16 17  2  0  0  0
 16 21  1  0  0  0
 16 31  1  0  0  0
 17 18  1  0  0  0
 17 99  1  0  0  0
 18 19  2  0  0  0
 18100  1  0  0  0
 19 20  1  0  0  0
 19 24  1  0  0  0
 20 21  2  0  0  0
 20101  1  0  0  0
 21 23  1  0  0  0
 22 28  1  0  0  0
 22 32  2  0  0  0
 26 27  1  0  0  0
 28102  1  0  0  0
 28103  1  0  0  0
 29104  1  0  0  0
 29105  1  0  0  0
 33 34  1  0  0  0
 33 66  1  0  0  0
 33 70  2  0  0  0
 34 36  1  0  0  0
 34 59  1  0  0  0
 34106  1  0  0  0
 35 44  2  0  0  0
 35 45  1  0  0  0
 35 68  1  0  0  0
 36 56  1  0  0  0
 36107  1  0  0  0
 37 39  1  0  0  0
 37 47  1  0  0  0
 37 66  1  0  0  0
 37108  1  0  0  0
 38 43  2  0  0  0
 38 46  1  0  0  0
 38 47  1  0  0  0
 39 64  1  0  0  0
 39 67  2  0  0  0
 40 52  1  0  0  0
 40 53  2  0  0  0
 40 58  1  0  0  0
 41109  1  0  0  0
 41110  1  0  0  0
 41111  1  0  0  0
 41 48  1  0  0  0
 42 43  1  0  0  0
 42 66  1  0  0  0
 42112  1  0  0  0
 42113  1  0  0  0
 43 44  1  0  0  0
 44114  1  0  0  0
 45 46  2  0  0  0
 45115  1  0  0  0
 46116  1  0  0  0
 47117  1  0  0  0
 47118  1  0  0  0
 48 56  1  0  0  0
 48 65  1  0  0  0
 48119  1  0  0  0
 49 50  1  0  0  0
 49 53  1  0  0  0
 49 64  1  0  0  0
 49120  1  0  0  0
 50 51  1  0  0  0
 50121  1  0  0  0
 50122  1  0  0  0
 51 52  1  0  0  0
 51123  1  0  0  0
 51124  1  0  0  0
 52125  1  0  0  0
 52126  1  0  0  0
 53 54  1  0  0  0
 54 55  2  0  0  0
 54127  1  0  0  0
 55 57  1  0  0  0
 55128  1  0  0  0
 56 69  2  0  0  0
 57 58  2  0  0  0
 57129  1  0  0  0
 58130  1  0  0  0
 59 60  1  0  0  0
 59 61  1  0  0  0
 59 62  1  0  0  0
 60131  1  0  0  0
 60132  1  0  0  0
 60133  1  0  0  0
 61134  1  0  0  0
 61135  1  0  0  0
 61136  1  0  0  0
 62137  1  0  0  0
 62138  1  0  0  0
 62139  1  0  0  0
 63 65  1  0  0  0
 63140  1  0  0  0
 63141  1  0  0  0
 63142  1  0  0  0
 64143  1  0  0  0
 65144  1  0  0  0
 68 81  1  0  0  0
 71 72  2  0  0  0
 71 74  1  0  0  0
 71145  1  0  0  0
 72 75  1  0  0  0
 72146  1  0  0  0
 73 74  2  0  0  0
 73 76  1  0  0  0
 73147  1  0  0  0
 74 83  1  0  0  0
 75 76  2  0  0  0
 75 82  1  0  0  0
 76 84  1  0  0  0
 77 78  2  0  0  0
 77 79  1  0  0  0
 77 85  1  0  0  0
 78148  1  0  0  0
 78149  1  0  0  0
 79 81  1  0  0  0
 79150  1  0  0  0
 79151  1  0  0  0
 80 81  1  0  0  0
 80 85  1  0  0  0
 80152  1  0  0  0
 80153  1  0  0  0
 81154  1  0  0  0
 82155  1  0  0  0
 82156  1  0  0  0
 82157  1  0  0  0
 83158  1  0  0  0
 83159  1  0  0  0
 83 85  1  0  0  0
 84160  1  0  0  0
 85161  1  0  0  0
M  CHG  1  85   1
M  ISO  4   1 100  68 101  81 101  84 100
M  END
> <chiral flag>
0

> <version>
0

> <s_m_source_file>
/data/baiqing/PycharmProjects/Reinvent-master-3.2/result/LINK_invent/BTK/process_docking_weight1_custom_product_contain_oxygen_bond_distance_aromatic_linkinvent_7_9_3/rearranged_h_0030.sdf

> <i_m_source_file_index>
74

> <r_mmod_Potential_Energy-OPLS-2005>
115.423316955566

> <r_mmod_Stretch_Energy-OPLS-2005>
134.824752807617

> <r_mmod_Bend_Energy-OPLS-2005>
217.326950073242

> <r_mmod_Torsional_Energy-OPLS-2005>
253.578521728516

> <r_mmod_Improper_Torsional_Energy-OPLS-2005>
6.07902193069458

> <r_mmod_Van_der_Waal_Energy-OPLS-2005>
133.269180297852

> <r_mmod_Electrostatic_Energy-OPLS-2005>
-281.814483642578

> <r_mmod_Solvation_Energy-OPLS-2005>
-435.583801269531

> <b_mmod_Minimization_Converged-OPLS-2005>
0

> <r_mmod_RMS_Derivative-OPLS-2005>
5.59555625915527

$$$$
74
                    3D
 Structure written by MMmdl.
165173  0  0  1  0            999 V2000
  -30.7172  -14.4607   20.5042 C   0  0  0  0  0  0
  -30.4089  -12.2771   19.4422 C   0  0  0  0  0  0
  -29.4971  -12.4776   18.2157 C   0  0  0  0  0  0
  -28.0162  -12.3504   18.6235 C   0  0  0  0  0  0
  -27.6575  -13.2099   19.8668 C   0  0  2  0  0  0
  -28.6995  -13.0328   20.9974 C   0  0  0  0  0  0
  -25.2584  -13.8158   20.5686 C   0  0  0  0  0  0
  -24.1839  -13.0435   20.9197 C   0  0  0  0  0  0
  -24.6397  -11.6901   20.8749 C   0  0  0  0  0  0
  -23.9060  -10.4281   21.0396 C   0  0  0  0  0  0
  -24.3614   -9.4204   21.9175 C   0  0  0  0  0  0
  -23.6296   -8.2243   22.0752 C   0  0  0  0  0  0
  -22.4273   -8.0274   21.3550 C   0  0  0  0  0  0
  -21.9908   -9.0243   20.4647 C   0  0  0  0  0  0
  -22.7228  -10.2127   20.3043 C   0  0  0  0  0  0
  -21.6860   -6.0739   22.5287 C   0  0  0  0  0  0
  -21.4012   -6.5643   23.8227 C   0  0  0  0  0  0
  -21.3650   -5.6792   24.9186 C   0  0  0  0  0  0
  -21.6047   -4.3063   24.7240 C   0  0  0  0  0  0
  -21.8810   -3.8150   23.4357 C   0  0  0  0  0  0
  -21.9189   -4.6973   22.3422 C   0  0  0  0  0  0
  -22.7861  -13.5233   21.1829 C   0  0  0  0  0  0
  -22.1653   -4.2155   21.0999 F   0  0  0  0  0  0
  -21.5630   -3.4530   25.7746 F   0  0  0  0  0  0
  -30.0330  -13.2920   20.4382 N   0  0  0  0  0  0
  -26.3010  -12.9334   20.3330 N   0  0  0  0  0  0
  -25.9324  -11.6494   20.5776 N   0  0  0  0  0  0
  -22.0488  -12.8254   22.0389 N   0  0  0  0  0  0
  -25.4270  -15.1874   20.4090 N   0  0  0  0  0  0
  -31.8972  -14.5570   20.1582 O   0  0  0  0  0  0
  -21.6654   -6.8879   21.4243 O   0  0  0  0  0  0
  -22.3548  -14.5538   20.6655 O   0  0  0  0  0  0
  -24.6101  -31.8694   23.2135 C   0  0  0  0  0  0
  -25.9012  -32.4811   23.8415 C   0  0  1  0  0  0
  -27.2148  -27.4623   20.0852 C   0  0  0  0  0  0
  -25.5882  -33.8609   24.2351 N   0  0  0  0  0  0
  -23.3972  -30.4981   21.5510 C   0  0  2  0  0  0
  -24.8425  -28.9779   20.1051 C   0  0  0  0  0  0
  -22.7398  -29.4654   22.4960 C   0  0  0  0  0  0
  -18.0279  -28.1394   22.8475 C   0  0  0  0  0  0
  -24.1489  -36.7315   23.2648 C   0  0  0  0  0  0
  -25.9249  -30.8473   21.3626 C   0  0  0  0  0  0
  -26.0018  -29.4876   20.7041 C   0  0  0  0  0  0
  -27.1976  -28.7360   20.6912 C   0  0  0  0  0  0
  -26.0477  -26.9731   19.4600 C   0  0  0  0  0  0
  -24.8585  -27.7201   19.4802 C   0  0  0  0  0  0
  -23.6043  -29.8409   20.1611 C   0  0  0  0  0  0
  -25.4093  -36.3092   24.0355 C   0  0  1  0  0  0
  -20.5860  -28.3657   23.1322 C   0  0  2  0  0  0
  -20.6756  -26.9394   22.5425 C   0  0  0  0  0  0
  -19.5743  -26.6387   21.5205 C   0  0  0  0  0  0
  -18.1923  -26.7942   22.1612 C   0  0  0  0  0  0
  -19.1521  -28.8841   23.2900 C   0  0  0  0  0  0
  -18.9455  -30.1439   23.8931 C   0  0  0  0  0  0
  -17.6459  -30.6597   24.0554 C   0  0  0  0  0  0
  -25.9015  -34.9462   23.5151 C   0  0  0  0  0  0
  -16.5348  -29.9109   23.6323 C   0  0  0  0  0  0
  -16.7260  -28.6521   23.0341 C   0  0  0  0  0  0
  -26.4451  -31.6578   25.0726 C   0  0  0  0  0  0
  -25.3743  -31.3711   26.1498 C   0  0  0  0  0  0
  -27.0268  -30.3017   24.6070 C   0  0  0  0  0  0
  -27.6016  -32.4303   25.7485 C   0  0  0  0  0  0
  -27.5578  -37.1795   24.8461 C   0  0  0  0  0  0
  -21.4123  -29.3026   22.3731 N   0  0  0  0  0  0
  -26.4278  -37.3773   23.9421 N   0  0  0  0  0  0
  -24.6622  -31.0850   22.1009 N   0  0  0  0  0  0
  -23.4202  -28.8158   23.2955 O   0  0  0  0  0  0
  -28.3420  -26.6792   20.1327 O   0  0  0  0  0  0
  -26.5570  -34.8897   22.4710 O   0  0  0  0  0  0
  -23.5308  -32.1420   23.7557 O   0  0  0  0  0  0
  -29.1756  -18.3834   21.4595 C   0  0  0  0  0  0
  -30.1593  -20.5731   20.0093 C   0  0  0  0  0  0
  -28.8810  -19.7009   21.8900 C   0  0  0  0  0  0
  -30.4433  -19.2638   19.5782 C   0  0  0  0  0  0
  -29.9488  -18.1493   20.3014 C   0  0  0  0  0  0
  -29.3680  -20.8152   21.1492 C   0  0  0  0  0  0
  -28.0457  -19.8526   23.1524 C   0  0  0  0  0  0
  -31.2687  -19.0845   18.3134 C   0  0  0  0  0  0
  -28.7679  -25.5887   22.2241 C   0  0  0  0  0  0
  -30.2366  -16.7383   19.7754 C   0  0  0  0  0  0
  -29.0945  -22.2831   21.4973 C   0  0  0  0  0  0
  -28.7153  -24.2847   19.9890 C   0  0  0  0  0  0
  -28.1406  -25.4412   20.8347 C   0  0  2  0  0  0
  -29.9574  -15.5647   20.6218 N   0  0  0  0  0  0
  -28.2899  -22.9288   20.4358 N   0  3  0  0  0  0
  -31.4563  -12.3423   19.1440 H   0  0  0  0  0  0
  -30.2797  -11.2752   19.8567 H   0  0  0  0  0  0
  -29.7387  -11.7441   17.4453 H   0  0  0  0  0  0
  -29.6765  -13.4583   17.7717 H   0  0  0  0  0  0
  -27.8252  -11.2975   18.8339 H   0  0  0  0  0  0
  -27.3703  -12.6106   17.7834 H   0  0  0  0  0  0
  -27.6874  -14.2510   19.5450 H   0  0  0  0  0  0
  -28.6605  -12.0173   21.3931 H   0  0  0  0  0  0
  -28.4820  -13.6901   21.8411 H   0  0  0  0  0  0
  -25.2746   -9.5714   22.4772 H   0  0  0  0  0  0
  -24.0010   -7.4650   22.7476 H   0  0  0  0  0  0
  -21.0834   -8.8742   19.8971 H   0  0  0  0  0  0
  -22.3641  -10.9670   19.6174 H   0  0  0  0  0  0
  -21.1998   -7.6142   23.9725 H   0  0  0  0  0  0
  -21.1484   -6.0530   25.9089 H   0  0  0  0  0  0
  -22.0599   -2.7611   23.2861 H   0  0  0  0  0  0
  -22.4052  -11.9923   22.4848 H   0  0  0  0  0  0
  -21.1094  -13.1292   22.2543 H   0  0  0  0  0  0
  -24.6569  -15.8364   20.5267 H   0  0  0  0  0  0
  -26.2716  -15.6355   20.0780 H   0  0  0  0  0  0
  -26.7084  -32.5542   23.1183 H   0  0  0  0  0  0
  -25.0004  -33.9770   25.0480 H   0  0  0  0  0  0
  -22.6824  -31.3131   21.4181 H   0  0  0  0  0  0
  -23.3722  -35.9678   23.3298 H   0  0  0  0  0  0
  -24.3603  -36.8945   22.2068 H   0  0  0  0  0  0
  -23.7271  -37.6532   23.6669 H   0  0  0  0  0  0
  -26.0367  -31.6178   20.5984 H   0  0  0  0  0  0
  -26.8135  -30.8988   21.9803 H   0  0  0  0  0  0
  -28.0899  -29.1144   21.1709 H   0  0  0  0  0  0
  -26.0502  -26.0098   18.9683 H   0  0  0  0  0  0
  -23.9650  -27.3312   19.0086 H   0  0  0  0  0  0
  -23.7112  -30.6206   19.4064 H   0  0  0  0  0  0
  -22.7298  -29.2606   19.8609 H   0  0  0  0  0  0
  -25.1273  -36.1940   25.0848 H   0  0  0  0  0  0
  -20.9947  -28.3215   24.1432 H   0  0  0  0  0  0
  -20.5649  -26.2259   23.3603 H   0  0  0  0  0  0
  -21.6629  -26.7429   22.1213 H   0  0  0  0  0  0
  -19.6900  -25.6298   21.1230 H   0  0  0  0  0  0
  -19.6704  -27.3195   20.6736 H   0  0  0  0  0  0
  -17.4182  -26.6665   21.4020 H   0  0  0  0  0  0
  -18.0333  -26.0104   22.9036 H   0  0  0  0  0  0
  -19.7932  -30.7230   24.2333 H   0  0  0  0  0  0
  -17.5024  -31.6282   24.5147 H   0  0  0  0  0  0
  -15.5355  -30.3021   23.7649 H   0  0  0  0  0  0
  -15.8646  -28.0853   22.7058 H   0  0  0  0  0  0
  -24.5821  -30.7171   25.7835 H   0  0  0  0  0  0
  -24.9037  -32.2902   26.4992 H   0  0  0  0  0  0
  -25.8056  -30.8791   27.0228 H   0  0  0  0  0  0
  -26.2770  -29.6766   24.1179 H   0  0  0  0  0  0
  -27.4127  -29.7265   25.4488 H   0  0  0  0  0  0
  -27.8585  -30.4349   23.9151 H   0  0  0  0  0  0
  -27.2607  -33.3562   26.2112 H   0  0  0  0  0  0
  -28.3782  -32.6931   25.0286 H   0  0  0  0  0  0
  -28.0730  -31.8391   26.5348 H   0  0  0  0  0  0
  -28.2559  -38.0117   24.7479 H   0  0  0  0  0  0
  -28.1099  -36.2637   24.6292 H   0  0  0  0  0  0
  -27.2307  -37.1470   25.8867 H   0  0  0  0  0  0
  -20.9270  -29.8796   21.6998 H   0  0  0  0  0  0
  -26.0159  -38.2853   24.1409 H   0  0  0  0  0  0
  -28.7968  -17.5425   22.0227 H   0  0  0  0  0  0
  -30.5496  -21.4110   19.4443 H   0  0  0  0  0  0
  -28.1744  -18.9765   23.7902 H   0  0  0  0  0  0
  -26.9846  -19.9319   22.9076 H   0  0  0  0  0  0
  -28.3443  -20.7118   23.7522 H   0  0  0  0  0  0
  -32.2006  -18.5614   18.5270 H   0  0  0  0  0  0
  -31.5298  -20.0416   17.8625 H   0  0  0  0  0  0
  -30.7067  -18.5150   17.5728 H   0  0  0  0  0  0
  -28.4869  -26.5387   22.6780 H   0  0  0  0  0  0
  -29.8559  -25.5516   22.1751 H   0  0  0  0  0  0
  -28.4197  -24.8016   22.8930 H   0  0  0  0  0  0
  -31.2789  -16.7325   19.4589 H   0  0  0  0  0  0
  -29.6568  -16.6099   18.8618 H   0  0  0  0  0  0
  -30.0583  -22.7832   21.6021 H   0  0  0  0  0  0
  -28.5841  -22.4065   22.4498 H   0  0  0  0  0  0
  -29.7997  -24.3559   19.8880 H   0  0  0  0  0  0
  -28.3218  -24.3984   18.9775 H   0  0  0  0  0  0
  -27.0781  -25.2372   20.9909 H   0  0  0  0  0  0
  -29.0033  -15.4294   20.9197 H   0  0  0  0  0  0
  -27.3178  -22.9239   20.7006 H   0  0  0  0  0  0
  -28.3746  -22.3193   19.6383 H   0  0  0  0  0  0
  1 25  1  0  0  0
  1 30  2  0  0  0
  1 84  1  0  0  0
  2  3  1  0  0  0
  2 25  1  0  0  0
  2 86  1  0  0  0
  2 87  1  0  0  0
  3  4  1  0  0  0
  3 88  1  0  0  0
  3 89  1  0  0  0
  4  5  1  0  0  0
  4 90  1  0  0  0
  4 91  1  0  0  0
  5  6  1  0  0  0
  5 26  1  0  0  0
  5 92  1  0  0  0
  6 25  1  0  0  0
  6 93  1  0  0  0
  6 94  1  0  0  0
  7  8  2  0  0  0
  7 26  1  0  0  0
  7 29  1  0  0  0
  8  9  1  0  0  0
  8 22  1  0  0  0
  9 10  1  0  0  0
  9 27  2  0  0  0
 10 11  2  0  0  0
 10 15  1  0  0  0
 11 12  1  0  0  0
 11 95  1  0  0  0
 12 13  2  0  0  0
 12 96  1  0  0  0
 13 14  1  0  0  0
 13 31  1  0  0  0
 14 15  2  0  0  0
 14 97  1  0  0  0
 15 98  1  0  0  0
 16 17  2  0  0  0
 16 21  1  0  0  0
 16 31  1  0  0  0
 17 18  1  0  0  0
 17 99  1  0  0  0
 18 19  2  0  0  0
 18100  1  0  0  0
 19 20  1  0  0  0
 19 24  1  0  0  0
 20 21  2  0  0  0
 20101  1  0  0  0
 21 23  1  0  0  0
 22 28  1  0  0  0
 22 32  2  0  0  0
 26 27  1  0  0  0
 28102  1  0  0  0
 28103  1  0  0  0
 29104  1  0  0  0
 29105  1  0  0  0
 33 34  1  0  0  0
 33 66  1  0  0  0
 33 70  2  0  0  0
 34 36  1  0  0  0
 34 59  1  0  0  0
 34106  1  0  0  0
 35 44  2  0  0  0
 35 45  1  0  0  0
 35 68  1  0  0  0
 36 56  1  0  0  0
 36107  1  0  0  0
 37 39  1  0  0  0
 37 47  1  0  0  0
 37 66  1  0  0  0
 37108  1  0  0  0
 38 43  2  0  0  0
 38 46  1  0  0  0
 38 47  1  0  0  0
 39 64  1  0  0  0
 39 67  2  0  0  0
 40 52  1  0  0  0
 40 53  2  0  0  0
 40 58  1  0  0  0
 41109  1  0  0  0
 41110  1  0  0  0
 41111  1  0  0  0
 41 48  1  0  0  0
 42 43  1  0  0  0
 42 66  1  0  0  0
 42112  1  0  0  0
 42113  1  0  0  0
 43 44  1  0  0  0
 44114  1  0  0  0
 45 46  2  0  0  0
 45115  1  0  0  0
 46116  1  0  0  0
 47117  1  0  0  0
 47118  1  0  0  0
 48 56  1  0  0  0
 48 65  1  0  0  0
 48119  1  0  0  0
 49 50  1  0  0  0
 49 53  1  0  0  0
 49 64  1  0  0  0
 49120  1  0  0  0
 50 51  1  0  0  0
 50121  1  0  0  0
 50122  1  0  0  0
 51 52  1  0  0  0
 51123  1  0  0  0
 51124  1  0  0  0
 52125  1  0  0  0
 52126  1  0  0  0
 53 54  1  0  0  0
 54 55  2  0  0  0
 54127  1  0  0  0
 55 57  1  0  0  0
 55128  1  0  0  0
 56 69  2  0  0  0
 57 58  2  0  0  0
 57129  1  0  0  0
 58130  1  0  0  0
 59 60  1  0  0  0
 59 61  1  0  0  0
 59 62  1  0  0  0
 60131  1  0  0  0
 60132  1  0  0  0
 60133  1  0  0  0
 61134  1  0  0  0
 61135  1  0  0  0
 61136  1  0  0  0
 62137  1  0  0  0
 62138  1  0  0  0
 62139  1  0  0  0
 63 65  1  0  0  0
 63140  1  0  0  0
 63141  1  0  0  0
 63142  1  0  0  0
 64143  1  0  0  0
 65144  1  0  0  0
 68 83  1  0  0  0
 71 73  2  0  0  0
 71 75  1  0  0  0
 71145  1  0  0  0
 72 74  1  0  0  0
 72 76  2  0  0  0
 72146  1  0  0  0
 73 76  1  0  0  0
 73 77  1  0  0  0
 74 75  2  0  0  0
 74 78  1  0  0  0
 75 80  1  0  0  0
 76 81  1  0  0  0
 77147  1  0  0  0
 77148  1  0  0  0
 77149  1  0  0  0
 78150  1  0  0  0
 78151  1  0  0  0
 78152  1  0  0  0
 79153  1  0  0  0
 79154  1  0  0  0
 79155  1  0  0  0
 79 83  1  0  0  0
 80 84  1  0  0  0
 80156  1  0  0  0
 80157  1  0  0  0
 81 85  1  0  0  0
 81158  1  0  0  0
 81159  1  0  0  0
 82 83  1  0  0  0
 82 85  1  0  0  0
 82160  1  0  0  0
 82161  1  0  0  0
 83162  1  0  0  0
 84163  1  0  0  0
 85164  1  0  0  0
 85165  1  0  0  0
M  CHG  1  85   1
M  ISO  4   1 100  68 101  83 101  84 100
M  END
> <chiral flag>
0

> <version>
0

> <s_m_source_file>
/data/baiqing/PycharmProjects/Reinvent-master-3.2/result/LINK_invent/BTK/process_docking_weight1_custom_product_contain_oxygen_bond_distance_aromatic_linkinvent_7_9_3/rearranged_h_0030.sdf

> <i_m_source_file_index>
75

> <r_mmod_Potential_Energy-OPLS-2005>
-231.845718383789

> <r_mmod_Stretch_Energy-OPLS-2005>
35.3970985412598

> <r_mmod_Bend_Energy-OPLS-2005>
101.239112854004

> <r_mmod_Torsional_Energy-OPLS-2005>
245.449493408203

> <r_mmod_Improper_Torsional_Energy-OPLS-2005>
11.3605766296387

> <r_mmod_Van_der_Waal_Energy-OPLS-2005>
159.898788452148

> <r_mmod_Electrostatic_Energy-OPLS-2005>
-363.820892333984

> <r_mmod_Solvation_Energy-OPLS-2005>
-440.465026855469

> <b_mmod_Minimization_Converged-OPLS-2005>
0

> <r_mmod_RMS_Derivative-OPLS-2005>
3.11913228034973

$$$$
75
                    3D
 Structure written by MMmdl.
161170  0  0  1  0            999 V2000
  -30.6044  -14.7585   20.4409 C   0  0  0  0  0  0
  -30.4330  -12.4593   19.4685 C   0  0  0  0  0  0
  -29.5048  -12.4927   18.2342 C   0  0  0  0  0  0
  -28.0328  -12.3179   18.6548 C   0  0  0  0  0  0
  -27.6383  -13.2279   19.8478 C   0  0  2  0  0  0
  -28.6876  -13.1781   20.9802 C   0  0  0  0  0  0
  -25.2502  -13.8188   20.5710 C   0  0  0  0  0  0
  -24.1794  -13.0433   20.9217 C   0  0  0  0  0  0
  -24.6388  -11.6911   20.8770 C   0  0  0  0  0  0
  -23.9067  -10.4284   21.0415 C   0  0  0  0  0  0
  -24.3612   -9.4201   21.9196 C   0  0  0  0  0  0
  -23.6284   -8.2237   22.0761 C   0  0  0  0  0  0
  -22.4273   -8.0272   21.3542 C   0  0  0  0  0  0
  -21.9919   -9.0243   20.4639 C   0  0  0  0  0  0
  -22.7249  -10.2123   20.3047 C   0  0  0  0  0  0
  -21.6853   -6.0731   22.5279 C   0  0  0  0  0  0
  -21.4015   -6.5636   23.8211 C   0  0  0  0  0  0
  -21.3655   -5.6791   24.9174 C   0  0  0  0  0  0
  -21.6040   -4.3053   24.7229 C   0  0  0  0  0  0
  -21.8820   -3.8141   23.4352 C   0  0  0  0  0  0
  -21.9197   -4.6959   22.3408 C   0  0  0  0  0  0
  -22.7812  -13.5213   21.1876 C   0  0  0  0  0  0
  -22.1663   -4.2142   21.0984 F   0  0  0  0  0  0
  -21.5628   -3.4537   25.7742 F   0  0  0  0  0  0
  -29.9820  -13.5306   20.3853 N   0  0  0  0  0  0
  -26.2920  -12.9387   20.3297 N   0  0  0  0  0  0
  -25.9314  -11.6536   20.5783 N   0  0  0  0  0  0
  -22.0461  -12.8170   22.0407 N   0  0  0  0  0  0
  -25.4181  -15.1909   20.4107 N   0  0  0  0  0  0
  -31.8053  -14.8373   20.1656 O   0  0  0  0  0  0
  -21.6639   -6.8869   21.4236 O   0  0  0  0  0  0
  -22.3503  -14.5542   20.6758 O   0  0  0  0  0  0
  -24.6287  -31.8529   23.1953 C   0  0  0  0  0  0
  -25.9114  -32.4734   23.8303 C   0  0  1  0  0  0
  -27.2267  -27.2575   20.1448 C   0  0  0  0  0  0
  -25.5921  -33.8534   24.2231 N   0  0  0  0  0  0
  -23.4259  -30.4704   21.5387 C   0  0  2  0  0  0
  -24.8742  -28.9029   20.1207 C   0  0  0  0  0  0
  -22.7479  -29.4576   22.4922 C   0  0  0  0  0  0
  -18.0277  -28.1369   22.8471 C   0  0  0  0  0  0
  -24.1490  -36.7266   23.2645 C   0  0  0  0  0  0
  -25.9689  -30.7645   21.3746 C   0  0  0  0  0  0
  -26.0424  -29.3822   20.7261 C   0  0  0  0  0  0
  -27.2220  -28.5734   20.7192 C   0  0  0  0  0  0
  -26.0372  -26.8352   19.5191 C   0  0  0  0  0  0
  -24.8753  -27.6371   19.5092 C   0  0  0  0  0  0
  -23.6459  -29.7925   20.1592 C   0  0  0  0  0  0
  -25.4119  -36.3052   24.0331 C   0  0  1  0  0  0
  -20.5885  -28.3669   23.1274 C   0  0  2  0  0  0
  -20.6772  -26.9396   22.5390 C   0  0  0  0  0  0
  -19.5749  -26.6379   21.5192 C   0  0  0  0  0  0
  -18.1923  -26.7915   22.1601 C   0  0  0  0  0  0
  -19.1535  -28.8837   23.2861 C   0  0  0  0  0  0
  -18.9470  -30.1437   23.8881 C   0  0  0  0  0  0
  -17.6477  -30.6575   24.0554 C   0  0  0  0  0  0
  -25.9061  -34.9421   23.5092 C   0  0  0  0  0  0
  -16.5360  -29.9072   23.6345 C   0  0  0  0  0  0
  -16.7268  -28.6498   23.0346 C   0  0  0  0  0  0
  -26.4504  -31.6562   25.0691 C   0  0  0  0  0  0
  -25.3738  -31.3669   26.1414 C   0  0  0  0  0  0
  -27.0376  -30.3000   24.6144 C   0  0  0  0  0  0
  -27.6011  -32.4343   25.7501 C   0  0  0  0  0  0
  -27.5567  -37.1800   24.8467 C   0  0  0  0  0  0
  -21.4192  -29.3023   22.3677 N   0  0  0  0  0  0
  -26.4281  -37.3761   23.9412 N   0  0  0  0  0  0
  -24.6933  -31.0490   22.0930 N   0  0  0  0  0  0
  -23.4191  -28.8133   23.3024 O   0  0  0  0  0  0
  -28.3715  -26.4376   20.0983 O   0  0  0  0  0  0
  -26.5628  -34.8903   22.4657 O   0  0  0  0  0  0
  -23.5441  -32.1339   23.7259 O   0  0  0  0  0  0
  -31.7664  -19.0774   21.2886 C   0  0  0  0  0  0
  -30.9179  -20.1247   20.8803 C   0  0  0  0  0  0
  -31.3893  -17.7260   21.1633 C   0  0  0  0  0  0
  -29.6400  -19.8710   20.3374 C   0  0  0  0  0  0
  -29.2662  -18.4561   20.2129 C   0  0  0  0  0  0
  -30.1417  -17.3500   20.6165 C   0  0  0  0  0  0
  -27.7254  -22.8190   21.4767 C   0  0  0  0  0  0
  -27.2456  -21.9270   22.3612 C   0  0  0  0  0  0
  -27.3234  -24.3061   21.3420 C   0  0  0  0  0  0
  -28.9122  -23.7831   19.6606 C   0  0  0  0  0  0
  -28.4493  -25.0018   20.5630 C   0  0  1  0  0  0
  -27.9168  -18.1218   19.5983 C   0  0  0  0  0  0
  -28.8093  -21.1388   19.7943 C   0  0  0  0  0  0
  -29.8062  -15.8963   20.5483 N   0  0  0  0  0  0
  -28.8344  -22.5153   20.5047 N   0  3  2  0  0  0
  -31.4725  -12.5864   19.1604 H   0  0  0  0  0  0
  -30.3853  -11.4888   19.9645 H   0  0  0  0  0  0
  -29.7856  -11.7083   17.5299 H   0  0  0  0  0  0
  -29.6253  -13.4381   17.7032 H   0  0  0  0  0  0
  -27.8942  -11.2720   18.9306 H   0  0  0  0  0  0
  -27.3712  -12.4947   17.8063 H   0  0  0  0  0  0
  -27.6260  -14.2439   19.4538 H   0  0  0  0  0  0
  -28.7296  -12.1859   21.4316 H   0  0  0  0  0  0
  -28.4272  -13.8694   21.7838 H   0  0  0  0  0  0
  -25.2745   -9.5692   22.4787 H   0  0  0  0  0  0
  -23.9996   -7.4634   22.7483 H   0  0  0  0  0  0
  -21.0858   -8.8750   19.8930 H   0  0  0  0  0  0
  -22.3705  -10.9660   19.6152 H   0  0  0  0  0  0
  -21.1999   -7.6141   23.9717 H   0  0  0  0  0  0
  -21.1475   -6.0517   25.9080 H   0  0  0  0  0  0
  -22.0605   -2.7600   23.2857 H   0  0  0  0  0  0
  -22.4078  -11.9796   22.4722 H   0  0  0  0  0  0
  -21.1081  -13.1176   22.2635 H   0  0  0  0  0  0
  -24.6456  -15.8398   20.5147 H   0  0  0  0  0  0
  -26.2530  -15.6283   20.0486 H   0  0  0  0  0  0
  -26.7167  -32.5382   23.1026 H   0  0  0  0  0  0
  -25.0088  -33.9686   25.0393 H   0  0  0  0  0  0
  -22.7230  -31.2913   21.3847 H   0  0  0  0  0  0
  -23.3765  -35.9587   23.3301 H   0  0  0  0  0  0
  -24.3577  -36.8904   22.2059 H   0  0  0  0  0  0
  -23.7237  -37.6458   23.6684 H   0  0  0  0  0  0
  -26.1045  -31.5211   20.6009 H   0  0  0  0  0  0
  -26.8476  -30.8182   22.0055 H   0  0  0  0  0  0
  -28.1253  -28.9433   21.1833 H   0  0  0  0  0  0
  -26.0044  -25.8732   19.0286 H   0  0  0  0  0  0
  -23.9801  -27.2666   19.0284 H   0  0  0  0  0  0
  -23.7745  -30.5619   19.3979 H   0  0  0  0  0  0
  -22.7650  -29.2243   19.8540 H   0  0  0  0  0  0
  -25.1307  -36.1888   25.0826 H   0  0  0  0  0  0
  -20.9952  -28.3218   24.1406 H   0  0  0  0  0  0
  -20.5682  -26.2265   23.3577 H   0  0  0  0  0  0
  -21.6638  -26.7425   22.1175 H   0  0  0  0  0  0
  -19.6933  -25.6302   21.1193 H   0  0  0  0  0  0
  -19.6700  -27.3203   20.6737 H   0  0  0  0  0  0
  -17.4199  -26.6659   21.3993 H   0  0  0  0  0  0
  -18.0324  -26.0039   22.8981 H   0  0  0  0  0  0
  -19.7952  -30.7242   24.2235 H   0  0  0  0  0  0
  -17.5040  -31.6256   24.5147 H   0  0  0  0  0  0
  -15.5364  -30.2975   23.7694 H   0  0  0  0  0  0
  -15.8661  -28.0825   22.7078 H   0  0  0  0  0  0
  -24.5952  -30.6976   25.7750 H   0  0  0  0  0  0
  -24.8881  -32.2807   26.4837 H   0  0  0  0  0  0
  -25.8076  -30.8863   27.0194 H   0  0  0  0  0  0
  -26.2948  -29.6737   24.1185 H   0  0  0  0  0  0
  -27.4120  -29.7264   25.4632 H   0  0  0  0  0  0
  -27.8795  -30.4330   23.9349 H   0  0  0  0  0  0
  -27.2580  -33.3683   26.1971 H   0  0  0  0  0  0
  -28.3880  -32.6844   25.0378 H   0  0  0  0  0  0
  -28.0601  -31.8535   26.5514 H   0  0  0  0  0  0
  -28.2546  -38.0126   24.7520 H   0  0  0  0  0  0
  -28.1096  -36.2646   24.6293 H   0  0  0  0  0  0
  -27.2272  -37.1446   25.8863 H   0  0  0  0  0  0
  -20.9379  -29.8772   21.6908 H   0  0  0  0  0  0
  -26.0148  -38.2834   24.1410 H   0  0  0  0  0  0
  -32.7386  -19.3135   21.6992 H   0  0  0  0  0  0
  -31.2839  -21.1381   20.9683 H   0  0  0  0  0  0
  -32.0861  -16.9760   21.5074 H   0  0  0  0  0  0
  -26.4703  -22.2062   23.0598 H   0  0  0  0  0  0
  -27.6137  -20.9114   22.4114 H   0  0  0  0  0  0
  -27.1759  -24.7628   22.3208 H   0  0  0  0  0  0
  -26.3782  -24.3552   20.8029 H   0  0  0  0  0  0
  -29.9174  -23.9315   19.2674 H   0  0  0  0  0  0
  -28.2381  -23.6880   18.8078 H   0  0  0  0  0  0
  -29.2534  -25.0944   21.2949 H   0  0  0  0  0  0
  -27.1170  -18.3216   20.3115 H   0  0  0  0  0  0
  -27.8442  -17.0785   19.2946 H   0  0  0  0  0  0
  -27.7386  -18.7196   18.7044 H   0  0  0  0  0  0
  -27.7655  -20.8604   19.6552 H   0  0  0  0  0  0
  -29.1848  -21.3093   18.7851 H   0  0  0  0  0  0
  -28.8210  -15.6872   20.5747 H   0  0  0  0  0  0
  -29.6981  -22.5050   21.0263 H   0  0  0  0  0  0
  1 25  1  0  0  0
  1 30  2  0  0  0
  1 84  1  0  0  0
  2  3  1  0  0  0
  2 25  1  0  0  0
  2 86  1  0  0  0
  2 87  1  0  0  0
  3  4  1  0  0  0
  3 88  1  0  0  0
  3 89  1  0  0  0
  4  5  1  0  0  0
  4 90  1  0  0  0
  4 91  1  0  0  0
  5  6  1  0  0  0
  5 26  1  0  0  0
  5 92  1  0  0  0
  6 25  1  0  0  0
  6 93  1  0  0  0
  6 94  1  0  0  0
  7  8  2  0  0  0
  7 26  1  0  0  0
  7 29  1  0  0  0
  8  9  1  0  0  0
  8 22  1  0  0  0
  9 10  1  0  0  0
  9 27  2  0  0  0
 10 11  2  0  0  0
 10 15  1  0  0  0
 11 12  1  0  0  0
 11 95  1  0  0  0
 12 13  2  0  0  0
 12 96  1  0  0  0
 13 14  1  0  0  0
 13 31  1  0  0  0
 14 15  2  0  0  0
 14 97  1  0  0  0
 15 98  1  0  0  0
 16 17  2  0  0  0
 16 21  1  0  0  0
 16 31  1  0  0  0
 17 18  1  0  0  0
 17 99  1  0  0  0
 18 19  2  0  0  0
 18100  1  0  0  0
 19 20  1  0  0  0
 19 24  1  0  0  0
 20 21  2  0  0  0
 20101  1  0  0  0
 21 23  1  0  0  0
 22 28  1  0  0  0
 22 32  2  0  0  0
 26 27  1  0  0  0
 28102  1  0  0  0
 28103  1  0  0  0
 29104  1  0  0  0
 29105  1  0  0  0
 33 34  1  0  0  0
 33 66  1  0  0  0
 33 70  2  0  0  0
 34 36  1  0  0  0
 34 59  1  0  0  0
 34106  1  0  0  0
 35 44  2  0  0  0
 35 45  1  0  0  0
 35 68  1  0  0  0
 36 56  1  0  0  0
 36107  1  0  0  0
 37 39  1  0  0  0
 37 47  1  0  0  0
 37 66  1  0  0  0
 37108  1  0  0  0
 38 43  2  0  0  0
 38 46  1  0  0  0
 38 47  1  0  0  0
 39 64  1  0  0  0
 39 67  2  0  0  0
 40 52  1  0  0  0
 40 53  2  0  0  0
 40 58  1  0  0  0
 41109  1  0  0  0
 41110  1  0  0  0
 41111  1  0  0  0
 41 48  1  0  0  0
 42 43  1  0  0  0
 42 66  1  0  0  0
 42112  1  0  0  0
 42113  1  0  0  0
 43 44  1  0  0  0
 44114  1  0  0  0
 45 46  2  0  0  0
 45115  1  0  0  0
 46116  1  0  0  0
 47117  1  0  0  0
 47118  1  0  0  0
 48 56  1  0  0  0
 48 65  1  0  0  0
 48119  1  0  0  0
 49 50  1  0  0  0
 49 53  1  0  0  0
 49 64  1  0  0  0
 49120  1  0  0  0
 50 51  1  0  0  0
 50121  1  0  0  0
 50122  1  0  0  0
 51 52  1  0  0  0
 51123  1  0  0  0
 51124  1  0  0  0
 52125  1  0  0  0
 52126  1  0  0  0
 53 54  1  0  0  0
 54 55  2  0  0  0
 54127  1  0  0  0
 55 57  1  0  0  0
 55128  1  0  0  0
 56 69  2  0  0  0
 57 58  2  0  0  0
 57129  1  0  0  0
 58130  1  0  0  0
 59 60  1  0  0  0
 59 61  1  0  0  0
 59 62  1  0  0  0
 60131  1  0  0  0
 60132  1  0  0  0
 60133  1  0  0  0
 61134  1  0  0  0
 61135  1  0  0  0
 61136  1  0  0  0
 62137  1  0  0  0
 62138  1  0  0  0
 62139  1  0  0  0
 63 65  1  0  0  0
 63140  1  0  0  0
 63141  1  0  0  0
 63142  1  0  0  0
 64143  1  0  0  0
 65144  1  0  0  0
 68 81  1  0  0  0
 71 72  2  0  0  0
 71 73  1  0  0  0
 71145  1  0  0  0
 72 74  1  0  0  0
 72146  1  0  0  0
 73 76  2  0  0  0
 73147  1  0  0  0
 74 75  2  0  0  0
 74 83  1  0  0  0
 75 76  1  0  0  0
 75 82  1  0  0  0
 76 84  1  0  0  0
 77 78  2  0  0  0
 77 79  1  0  0  0
 77 85  1  0  0  0
 78148  1  0  0  0
 78149  1  0  0  0
 79 81  1  0  0  0
 79150  1  0  0  0
 79151  1  0  0  0
 80 81  1  0  0  0
 80 85  1  0  0  0
 80152  1  0  0  0
 80153  1  0  0  0
 81154  1  0  0  0
 82155  1  0  0  0
 82156  1  0  0  0
 82157  1  0  0  0
 83158  1  0  0  0
 83159  1  0  0  0
 83 85  1  0  0  0
 84160  1  0  0  0
 85161  1  0  0  0
M  CHG  1  85   1
M  ISO  4   1 100  68 101  81 101  84 100
M  END
> <chiral flag>
0

> <version>
0

> <s_m_source_file>
/data/baiqing/PycharmProjects/Reinvent-master-3.2/result/LINK_invent/BTK/process_docking_weight1_custom_product_contain_oxygen_bond_distance_aromatic_linkinvent_7_9_3/rearranged_h_0030.sdf

> <i_m_source_file_index>
76

> <r_mmod_Potential_Energy-OPLS-2005>
113.464004516602

> <r_mmod_Stretch_Energy-OPLS-2005>
127.177673339844

> <r_mmod_Bend_Energy-OPLS-2005>
225.226974487305

> <r_mmod_Torsional_Energy-OPLS-2005>
255.274688720703

> <r_mmod_Improper_Torsional_Energy-OPLS-2005>
6.75899171829224

> <r_mmod_Van_der_Waal_Energy-OPLS-2005>
126.111785888672

> <r_mmod_Electrostatic_Energy-OPLS-2005>
-272.719635009766

> <r_mmod_Solvation_Energy-OPLS-2005>
-437.607116699219

> <b_mmod_Minimization_Converged-OPLS-2005>
0

> <r_mmod_RMS_Derivative-OPLS-2005>
1.80980849266052

$$$$
76
                    3D
 Structure written by MMmdl.
176186  0  0  1  0            999 V2000
  -30.6128  -14.7368   20.4833 C   0  0  0  0  0  0
  -30.4372  -12.4560   19.4576 C   0  0  0  0  0  0
  -29.5056  -12.4985   18.2270 C   0  0  0  0  0  0
  -28.0340  -12.3185   18.6488 C   0  0  0  0  0  0
  -27.6404  -13.2242   19.8447 C   0  0  2  0  0  0
  -28.6887  -13.1580   20.9759 C   0  0  0  0  0  0
  -25.2518  -13.8181   20.5689 C   0  0  0  0  0  0
  -24.1809  -13.0434   20.9214 C   0  0  0  0  0  0
  -24.6393  -11.6913   20.8750 C   0  0  0  0  0  0
  -23.9063  -10.4292   21.0417 C   0  0  0  0  0  0
  -24.3621   -9.4204   21.9184 C   0  0  0  0  0  0
  -23.6298   -8.2242   22.0754 C   0  0  0  0  0  0
  -22.4277   -8.0281   21.3549 C   0  0  0  0  0  0
  -21.9916   -9.0250   20.4646 C   0  0  0  0  0  0
  -22.7242  -10.2129   20.3056 C   0  0  0  0  0  0
  -21.6850   -6.0743   22.5280 C   0  0  0  0  0  0
  -21.4012   -6.5644   23.8216 C   0  0  0  0  0  0
  -21.3656   -5.6794   24.9176 C   0  0  0  0  0  0
  -21.6044   -4.3057   24.7224 C   0  0  0  0  0  0
  -21.8818   -3.8152   23.4344 C   0  0  0  0  0  0
  -21.9194   -4.6972   22.3402 C   0  0  0  0  0  0
  -22.7830  -13.5213   21.1865 C   0  0  0  0  0  0
  -22.1660   -4.2158   21.0984 F   0  0  0  0  0  0
  -21.5626   -3.4542   25.7737 F   0  0  0  0  0  0
  -29.9848  -13.5161   20.3851 N   0  0  0  0  0  0
  -26.2933  -12.9373   20.3260 N   0  0  0  0  0  0
  -25.9316  -11.6527   20.5752 N   0  0  0  0  0  0
  -22.0478  -12.8203   22.0419 N   0  0  0  0  0  0
  -25.4206  -15.1911   20.4100 N   0  0  0  0  0  0
  -31.8164  -14.8339   20.2285 O   0  0  0  0  0  0
  -21.6639   -6.8882   21.4242 O   0  0  0  0  0  0
  -22.3522  -14.5527   20.6720 O   0  0  0  0  0  0
  -24.6325  -31.8579   23.2013 C   0  0  0  0  0  0
  -25.9145  -32.4769   23.8355 C   0  0  1  0  0  0
  -27.2006  -27.2425   20.1352 C   0  0  0  0  0  0
  -25.5950  -33.8571   24.2277 N   0  0  0  0  0  0
  -23.4296  -30.4806   21.5489 C   0  0  2  0  0  0
  -24.8731  -28.9334   20.1144 C   0  0  0  0  0  0
  -22.7515  -29.4585   22.4939 C   0  0  0  0  0  0
  -18.0286  -28.1351   22.8475 C   0  0  0  0  0  0
  -24.1504  -36.7283   23.2646 C   0  0  0  0  0  0
  -25.9789  -30.7626   21.3905 C   0  0  0  0  0  0
  -26.0462  -29.3837   20.7334 C   0  0  0  0  0  0
  -27.2155  -28.5508   20.7349 C   0  0  0  0  0  0
  -26.0175  -26.8915   19.4517 C   0  0  0  0  0  0
  -24.8642  -27.6948   19.4600 C   0  0  0  0  0  0
  -23.6484  -29.8255   20.1621 C   0  0  0  0  0  0
  -25.4121  -36.3072   24.0327 C   0  0  1  0  0  0
  -20.5891  -28.3657   23.1272 C   0  0  2  0  0  0
  -20.6779  -26.9376   22.5404 C   0  0  0  0  0  0
  -19.5757  -26.6356   21.5198 C   0  0  0  0  0  0
  -18.1931  -26.7891   22.1607 C   0  0  0  0  0  0
  -19.1542  -28.8826   23.2861 C   0  0  0  0  0  0
  -18.9473  -30.1431   23.8865 C   0  0  0  0  0  0
  -17.6474  -30.6557   24.0546 C   0  0  0  0  0  0
  -25.9058  -34.9444   23.5100 C   0  0  0  0  0  0
  -16.5359  -29.9041   23.6336 C   0  0  0  0  0  0
  -16.7281  -28.6466   23.0350 C   0  0  0  0  0  0
  -26.4509  -31.6599   25.0749 C   0  0  0  0  0  0
  -25.3718  -31.3749   26.1461 C   0  0  0  0  0  0
  -27.0371  -30.3015   24.6252 C   0  0  0  0  0  0
  -27.6066  -32.4353   25.7524 C   0  0  0  0  0  0
  -27.5586  -37.1787   24.8460 C   0  0  0  0  0  0
  -21.4221  -29.3015   22.3685 N   0  0  0  0  0  0
  -26.4301  -37.3771   23.9413 N   0  0  0  0  0  0
  -24.6987  -31.0520   22.1026 N   0  0  0  0  0  0
  -23.4222  -28.8108   23.3020 O   0  0  0  0  0  0
  -28.2839  -26.3284   20.1502 O   0  0  0  0  0  0
  -26.5645  -34.8916   22.4678 O   0  0  0  0  0  0
  -23.5460  -32.1407   23.7294 O   0  0  0  0  0  0
  -31.0432  -18.6847   22.7382 C   0  0  0  0  0  0
  -30.8024  -17.4119   22.1971 C   0  0  0  0  0  0
  -30.6317  -19.8809   22.1023 C   0  0  0  0  0  0
  -29.8850  -19.8353   20.8796 C   0  0  0  0  0  0
  -29.6341  -18.4853   20.3467 C   0  0  0  0  0  0
  -30.1032  -17.2566   20.9888 C   0  0  0  0  0  0
  -34.2870  -22.9193   23.3326 C   0  0  0  0  0  0
  -33.9240  -23.1340   21.8683 C   0  0  0  0  0  0
  -27.0401  -23.9910   19.8872 C   0  0  0  0  0  0
  -33.0386  -22.2317   23.8851 C   0  0  0  0  0  0
  -33.0860  -21.8981   21.5164 C   0  0  0  0  0  0
  -27.3357  -22.5086   20.2621 C   0  0  0  0  0  0
  -29.2875  -23.8264   20.4912 C   0  0  0  0  0  0
  -28.0913  -24.8807   20.5820 C   0  0  1  0  0  0
  -28.8978  -18.3461   19.0226 C   0  0  0  0  0  0
  -31.0589  -21.1693   22.8160 C   0  0  0  0  0  0
  -29.5385  -21.1999   20.0835 C   0  0  0  0  0  0
  -29.8081  -15.8660   20.5663 N   0  0  0  0  0  0
  -32.5292  -21.3757   22.7887 N   0  3  0  0  0  0
  -28.7574  -22.3991   20.6798 N   0  3  2  0  0  0
  -31.4749  -12.5956   19.1499 H   0  0  0  0  0  0
  -30.3948  -11.4805   19.9450 H   0  0  0  0  0  0
  -29.7871  -11.7222   17.5142 H   0  0  0  0  0  0
  -29.6249  -13.4503   17.7069 H   0  0  0  0  0  0
  -27.8984  -11.2711   18.9211 H   0  0  0  0  0  0
  -27.3720  -12.4979   17.8015 H   0  0  0  0  0  0
  -27.6327  -14.2427   19.4577 H   0  0  0  0  0  0
  -28.7297  -12.1588   21.4129 H   0  0  0  0  0  0
  -28.4268  -13.8383   21.7886 H   0  0  0  0  0  0
  -25.2762   -9.5679   22.4761 H   0  0  0  0  0  0
  -24.0003   -7.4632   22.7473 H   0  0  0  0  0  0
  -21.0852   -8.8775   19.8945 H   0  0  0  0  0  0
  -22.3705  -10.9677   19.6171 H   0  0  0  0  0  0
  -21.2005   -7.6153   23.9721 H   0  0  0  0  0  0
  -21.1472   -6.0527   25.9082 H   0  0  0  0  0  0
  -22.0601   -2.7617   23.2845 H   0  0  0  0  0  0
  -22.4106  -11.9852   22.4781 H   0  0  0  0  0  0
  -21.1089  -13.1218   22.2630 H   0  0  0  0  0  0
  -24.6510  -15.8407   20.5274 H   0  0  0  0  0  0
  -26.2618  -15.6342   20.0657 H   0  0  0  0  0  0
  -26.7227  -32.5409   23.1108 H   0  0  0  0  0  0
  -25.0073  -33.9710   25.0402 H   0  0  0  0  0  0
  -22.7269  -31.3031   21.4069 H   0  0  0  0  0  0
  -23.3771  -35.9611   23.3289 H   0  0  0  0  0  0
  -24.3608  -36.8933   22.2072 H   0  0  0  0  0  0
  -23.7236  -37.6467   23.6683 H   0  0  0  0  0  0
  -26.1247  -31.5255   20.6234 H   0  0  0  0  0  0
  -26.8524  -30.8063   22.0266 H   0  0  0  0  0  0
  -28.1149  -28.8893   21.2334 H   0  0  0  0  0  0
  -25.9557  -25.9872   18.8735 H   0  0  0  0  0  0
  -23.9766  -27.3586   18.9411 H   0  0  0  0  0  0
  -23.7780  -30.6085   19.4127 H   0  0  0  0  0  0
  -22.7649  -29.2661   19.8529 H   0  0  0  0  0  0
  -25.1292  -36.1942   25.0814 H   0  0  0  0  0  0
  -20.9971  -28.3220   24.1389 H   0  0  0  0  0  0
  -20.5685  -26.2249   23.3602 H   0  0  0  0  0  0
  -21.6651  -26.7397   22.1191 H   0  0  0  0  0  0
  -19.6935  -25.6262   21.1229 H   0  0  0  0  0  0
  -19.6709  -27.3178   20.6738 H   0  0  0  0  0  0
  -17.4205  -26.6654   21.3997 H   0  0  0  0  0  0
  -18.0308  -26.0023   22.8996 H   0  0  0  0  0  0
  -19.7968  -30.7242   24.2225 H   0  0  0  0  0  0
  -17.5033  -31.6252   24.5132 H   0  0  0  0  0  0
  -15.5348  -30.2935   23.7678 H   0  0  0  0  0  0
  -15.8684  -28.0783   22.7062 H   0  0  0  0  0  0
  -24.5900  -30.7098   25.7789 H   0  0  0  0  0  0
  -24.8879  -32.2910   26.4861 H   0  0  0  0  0  0
  -25.7996  -30.8950   27.0266 H   0  0  0  0  0  0
  -26.2965  -29.6753   24.1268 H   0  0  0  0  0  0
  -27.4054  -29.7294   25.4779 H   0  0  0  0  0  0
  -27.8846  -30.4311   23.9512 H   0  0  0  0  0  0
  -27.2683  -33.3685   26.2040 H   0  0  0  0  0  0
  -28.3883  -32.6866   25.0342 H   0  0  0  0  0  0
  -28.0716  -31.8516   26.5480 H   0  0  0  0  0  0
  -28.2561  -38.0129   24.7534 H   0  0  0  0  0  0
  -28.1112  -36.2644   24.6232 H   0  0  0  0  0  0
  -27.2298  -37.1365   25.8863 H   0  0  0  0  0  0
  -20.9408  -29.8779   21.6929 H   0  0  0  0  0  0
  -26.0180  -38.2835   24.1438 H   0  0  0  0  0  0
  -31.5742  -18.7326   23.6795 H   0  0  0  0  0  0
  -31.1428  -16.5446   22.7459 H   0  0  0  0  0  0
  -34.5288  -23.8450   23.8554 H   0  0  0  0  0  0
  -35.1483  -22.2543   23.4111 H   0  0  0  0  0  0
  -34.7946  -23.2512   21.2227 H   0  0  0  0  0  0
  -33.3138  -24.0338   21.7683 H   0  0  0  0  0  0
  -26.0199  -24.2455   20.1728 H   0  0  0  0  0  0
  -27.1294  -24.0991   18.8062 H   0  0  0  0  0  0
  -32.2976  -22.9908   24.1432 H   0  0  0  0  0  0
  -33.2444  -21.6532   24.7862 H   0  0  0  0  0  0
  -33.7112  -21.1244   21.0699 H   0  0  0  0  0  0
  -32.3228  -22.1563   20.7873 H   0  0  0  0  0  0
  -27.0837  -21.8503   19.4292 H   0  0  0  0  0  0
  -26.7121  -22.1996   21.1011 H   0  0  0  0  0  0
  -30.0705  -24.0618   21.2117 H   0  0  0  0  0  0
  -29.7387  -23.9035   19.5009 H   0  0  0  0  0  0
  -27.8050  -24.9419   21.6342 H   0  0  0  0  0  0
  -27.9272  -18.8402   19.0635 H   0  0  0  0  0  0
  -28.7187  -17.3089   18.7442 H   0  0  0  0  0  0
  -29.4846  -18.7910   18.2185 H   0  0  0  0  0  0
  -30.7417  -21.0719   23.8566 H   0  0  0  0  0  0
  -30.5569  -22.0592   22.4523 H   0  0  0  0  0  0
  -29.0694  -20.9445   19.1349 H   0  0  0  0  0  0
  -30.4993  -21.5901   19.7560 H   0  0  0  0  0  0
  -28.8286  -15.6707   20.4352 H   0  0  0  0  0  0
  -32.9482  -20.4679   22.9255 H   0  0  0  0  0  0
  -28.6998  -22.2387   21.6739 H   0  0  0  0  0  0
  1 25  1  0  0  0
  1 30  2  0  0  0
  1 88  1  0  0  0
  2  3  1  0  0  0
  2 25  1  0  0  0
  2 91  1  0  0  0
  2 92  1  0  0  0
  3  4  1  0  0  0
  3 93  1  0  0  0
  3 94  1  0  0  0
  4  5  1  0  0  0
  4 95  1  0  0  0
  4 96  1  0  0  0
  5  6  1  0  0  0
  5 26  1  0  0  0
  5 97  1  0  0  0
  6 25  1  0  0  0
  6 98  1  0  0  0
  6 99  1  0  0  0
  7  8  2  0  0  0
  7 26  1  0  0  0
  7 29  1  0  0  0
  8  9  1  0  0  0
  8 22  1  0  0  0
  9 10  1  0  0  0
  9 27  2  0  0  0
 10 11  2  0  0  0
 10 15  1  0  0  0
 11 12  1  0  0  0
 11100  1  0  0  0
 12 13  2  0  0  0
 12101  1  0  0  0
 13 14  1  0  0  0
 13 31  1  0  0  0
 14 15  2  0  0  0
 14102  1  0  0  0
 15103  1  0  0  0
 16 17  2  0  0  0
 16 21  1  0  0  0
 16 31  1  0  0  0
 17 18  1  0  0  0
 17104  1  0  0  0
 18 19  2  0  0  0
 18105  1  0  0  0
 19 20  1  0  0  0
 19 24  1  0  0  0
 20 21  2  0  0  0
 20106  1  0  0  0
 21 23  1  0  0  0
 22 28  1  0  0  0
 22 32  2  0  0  0
 26 27  1  0  0  0
 28107  1  0  0  0
 28108  1  0  0  0
 29109  1  0  0  0
 29110  1  0  0  0
 33 34  1  0  0  0
 33 66  1  0  0  0
 33 70  2  0  0  0
 34 36  1  0  0  0
 34 59  1  0  0  0
 34111  1  0  0  0
 35 44  2  0  0  0
 35 45  1  0  0  0
 35 68  1  0  0  0
 36 56  1  0  0  0
 36112  1  0  0  0
 37 39  1  0  0  0
 37 47  1  0  0  0
 37 66  1  0  0  0
 37113  1  0  0  0
 38 43  2  0  0  0
 38 46  1  0  0  0
 38 47  1  0  0  0
 39 64  1  0  0  0
 39 67  2  0  0  0
 40 52  1  0  0  0
 40 53  2  0  0  0
 40 58  1  0  0  0
 41114  1  0  0  0
 41115  1  0  0  0
 41116  1  0  0  0
 41 48  1  0  0  0
 42 43  1  0  0  0
 42 66  1  0  0  0
 42117  1  0  0  0
 42118  1  0  0  0
 43 44  1  0  0  0
 44119  1  0  0  0
 45 46  2  0  0  0
 45120  1  0  0  0
 46121  1  0  0  0
 47122  1  0  0  0
 47123  1  0  0  0
 48 56  1  0  0  0
 48 65  1  0  0  0
 48124  1  0  0  0
 49 50  1  0  0  0
 49 53  1  0  0  0
 49 64  1  0  0  0
 49125  1  0  0  0
 50 51  1  0  0  0
 50126  1  0  0  0
 50127  1  0  0  0
 51 52  1  0  0  0
 51128  1  0  0  0
 51129  1  0  0  0
 52130  1  0  0  0
 52131  1  0  0  0
 53 54  1  0  0  0
 54 55  2  0  0  0
 54132  1  0  0  0
 55 57  1  0  0  0
 55133  1  0  0  0
 56 69  2  0  0  0
 57 58  2  0  0  0
 57134  1  0  0  0
 58135  1  0  0  0
 59 60  1  0  0  0
 59 61  1  0  0  0
 59 62  1  0  0  0
 60136  1  0  0  0
 60137  1  0  0  0
 60138  1  0  0  0
 61139  1  0  0  0
 61140  1  0  0  0
 61141  1  0  0  0
 62142  1  0  0  0
 62143  1  0  0  0
 62144  1  0  0  0
 63 65  1  0  0  0
 63145  1  0  0  0
 63146  1  0  0  0
 63147  1  0  0  0
 64148  1  0  0  0
 65149  1  0  0  0
 68 84  1  0  0  0
 71 72  2  0  0  0
 71 73  1  0  0  0
 71150  1  0  0  0
 72 76  1  0  0  0
 72151  1  0  0  0
 73 74  2  0  0  0
 73 86  1  0  0  0
 74 75  1  0  0  0
 74 87  1  0  0  0
 75 76  2  0  0  0
 75 85  1  0  0  0
 76 88  1  0  0  0
 77 78  1  0  0  0
 77 80  1  0  0  0
 77152  1  0  0  0
 77153  1  0  0  0
 78 81  1  0  0  0
 78154  1  0  0  0
 78155  1  0  0  0
 79 82  1  0  0  0
 79 84  1  0  0  0
 79156  1  0  0  0
 79157  1  0  0  0
 80 89  1  0  0  0
 80158  1  0  0  0
 80159  1  0  0  0
 81 89  1  0  0  0
 81160  1  0  0  0
 81161  1  0  0  0
 82 90  1  0  0  0
 82162  1  0  0  0
 82163  1  0  0  0
 83 84  1  0  0  0
 83 90  1  0  0  0
 83164  1  0  0  0
 83165  1  0  0  0
 84166  1  0  0  0
 85167  1  0  0  0
 85168  1  0  0  0
 85169  1  0  0  0
 86170  1  0  0  0
 86171  1  0  0  0
 86 89  1  0  0  0
 87172  1  0  0  0
 87173  1  0  0  0
 87 90  1  0  0  0
 88174  1  0  0  0
 89175  1  0  0  0
 90176  1  0  0  0
M  CHG  2  89   1  90   1
M  ISO  4   1 100  68 101  84 101  88 100
M  END
> <chiral flag>
0

> <version>
0

> <s_m_source_file>
/data/baiqing/PycharmProjects/Reinvent-master-3.2/result/LINK_invent/BTK/process_docking_weight1_custom_product_contain_oxygen_bond_distance_aromatic_linkinvent_7_9_3/rearranged_h_0030.sdf

> <i_m_source_file_index>
77

> <r_mmod_Potential_Energy-OPLS-2005>
120.081520080566

> <r_mmod_Stretch_Energy-OPLS-2005>
136.345779418945

> <r_mmod_Bend_Energy-OPLS-2005>
235.198333740234

> <r_mmod_Torsional_Energy-OPLS-2005>
362.622741699219

> <r_mmod_Improper_Torsional_Energy-OPLS-2005>
8.69563293457031

> <r_mmod_Van_der_Waal_Energy-OPLS-2005>
133.278701782227

> <r_mmod_Electrostatic_Energy-OPLS-2005>
86.9107894897461

> <r_mmod_Solvation_Energy-OPLS-2005>
-933.76708984375

> <b_mmod_Minimization_Converged-OPLS-2005>
0

> <r_mmod_RMS_Derivative-OPLS-2005>
2.35559248924255

$$$$
77
                    3D
 Structure written by MMmdl.
169178  0  0  1  0            999 V2000
  -30.3977  -15.1143   20.3494 C   0  0  0  0  0  0
  -30.4448  -12.6886   19.4970 C   0  0  0  0  0  0
  -29.5365  -12.4186   18.2734 C   0  0  0  0  0  0
  -28.0571  -12.2576   18.6852 C   0  0  0  0  0  0
  -27.6208  -13.2017   19.8398 C   0  0  2  0  0  0
  -28.6652  -13.2556   20.9623 C   0  0  0  0  0  0
  -25.2531  -13.8084   20.5759 C   0  0  0  0  0  0
  -24.1794  -13.0427   20.9190 C   0  0  0  0  0  0
  -24.6345  -11.6869   20.8755 C   0  0  0  0  0  0
  -23.9045  -10.4283   21.0416 C   0  0  0  0  0  0
  -24.3598   -9.4183   21.9166 C   0  0  0  0  0  0
  -23.6274   -8.2228   22.0734 C   0  0  0  0  0  0
  -22.4249   -8.0284   21.3539 C   0  0  0  0  0  0
  -21.9878   -9.0269   20.4646 C   0  0  0  0  0  0
  -22.7226  -10.2146   20.3071 C   0  0  0  0  0  0
  -21.6860   -6.0749   22.5272 C   0  0  0  0  0  0
  -21.4059   -6.5619   23.8228 C   0  0  0  0  0  0
  -21.3649   -5.6719   24.9135 C   0  0  0  0  0  0
  -21.6069   -4.2997   24.7148 C   0  0  0  0  0  0
  -21.8856   -3.8135   23.4256 C   0  0  0  0  0  0
  -21.9206   -4.6987   22.3343 C   0  0  0  0  0  0
  -22.7841  -13.5285   21.1770 C   0  0  0  0  0  0
  -22.1657   -4.2218   21.0902 F   0  0  0  0  0  0
  -21.5585   -3.4441   25.7623 F   0  0  0  0  0  0
  -29.8661  -13.8033   20.3207 N   0  0  0  0  0  0
  -26.2855  -12.9208   20.3285 N   0  0  0  0  0  0
  -25.9264  -11.6412   20.5757 N   0  0  0  0  0  0
  -22.0419  -12.8410   22.0330 N   0  0  0  0  0  0
  -25.4358  -15.1820   20.4249 N   0  0  0  0  0  0
  -31.6235  -15.1402   20.1704 O   0  0  0  0  0  0
  -21.6629   -6.8893   21.4236 O   0  0  0  0  0  0
  -22.3628  -14.5610   20.6535 O   0  0  0  0  0  0
  -24.6502  -31.8423   23.1825 C   0  0  0  0  0  0
  -25.9253  -32.4704   23.8246 C   0  0  1  0  0  0
  -27.2195  -27.0875   20.1310 C   0  0  0  0  0  0
  -25.5978  -33.8504   24.2170 N   0  0  0  0  0  0
  -23.4544  -30.4538   21.5354 C   0  0  2  0  0  0
  -24.9003  -28.8585   20.1233 C   0  0  0  0  0  0
  -22.7577  -29.4535   22.4917 C   0  0  0  0  0  0
  -18.0296  -28.1394   22.8488 C   0  0  0  0  0  0
  -24.1469  -36.7231   23.2643 C   0  0  0  0  0  0
  -26.0164  -30.6903   21.3905 C   0  0  0  0  0  0
  -26.0842  -29.2957   20.7324 C   0  0  0  0  0  0
  -27.2482  -28.4311   20.7103 C   0  0  0  0  0  0
  -26.0057  -26.7619   19.4944 C   0  0  0  0  0  0
  -24.8764  -27.6057   19.4927 C   0  0  0  0  0  0
  -23.6787  -29.7647   20.1626 C   0  0  0  0  0  0
  -25.4117  -36.3047   24.0317 C   0  0  1  0  0  0
  -20.5921  -28.3718   23.1246 C   0  0  2  0  0  0
  -20.6790  -26.9428   22.5386 C   0  0  0  0  0  0
  -19.5753  -26.6376   21.5204 C   0  0  0  0  0  0
  -18.1944  -26.7932   22.1606 C   0  0  0  0  0  0
  -19.1575  -28.8868   23.2846 C   0  0  0  0  0  0
  -18.9469  -30.1467   23.8860 C   0  0  0  0  0  0
  -17.6478  -30.6591   24.0557 C   0  0  0  0  0  0
  -25.9067  -34.9426   23.5034 C   0  0  0  0  0  0
  -16.5361  -29.9066   23.6374 C   0  0  0  0  0  0
  -16.7286  -28.6475   23.0411 C   0  0  0  0  0  0
  -26.4539  -31.6614   25.0740 C   0  0  0  0  0  0
  -25.3682  -31.3867   26.1425 C   0  0  0  0  0  0
  -27.0440  -30.2994   24.6405 C   0  0  0  0  0  0
  -27.6040  -32.4412   25.7555 C   0  0  0  0  0  0
  -27.5573  -37.1795   24.8464 C   0  0  0  0  0  0
  -21.4263  -29.3034   22.3614 N   0  0  0  0  0  0
  -26.4272  -37.3777   23.9414 N   0  0  0  0  0  0
  -24.7293  -31.0204   22.0877 N   0  0  0  0  0  0
  -23.4198  -28.8127   23.3108 O   0  0  0  0  0  0
  -28.2847  -26.1065   20.0742 O   0  0  0  0  0  0
  -26.5636  -34.8935   22.4618 O   0  0  0  0  0  0
  -23.5616  -32.1303   23.7031 O   0  0  0  0  0  0
  -29.9314  -17.7435   16.8617 C   0  0  0  0  0  0
  -29.9548  -19.7702   18.1408 C   0  0  0  0  0  0
  -30.1752  -19.1060   16.9306 C   0  0  0  0  0  0
  -29.5133  -17.0597   18.0015 C   0  0  0  0  0  0
  -29.5746  -19.1154   19.3469 C   0  0  0  0  0  0
  -29.6465  -17.5600   19.3307 C   0  0  0  0  0  0
  -29.0174  -23.0857   22.3608 C   0  0  0  0  0  0
  -28.8281  -24.5175   21.8269 C   0  0  0  0  0  0
  -30.0163  -22.3234   21.4757 C   0  0  0  0  0  0
  -28.6021  -23.1570   19.5921 C   0  0  0  0  0  0
  -28.1459  -24.5760   20.4497 C   0  0  2  0  0  0
  -30.3972  -19.8471   15.6309 C   0  0  0  0  0  0
  -28.4807  -15.9925   17.6965 C   0  0  0  0  0  0
  -28.7079  -16.6943   21.4480 C   0  0  0  0  0  0
  -28.9442  -20.3131   20.3104 C   0  0  0  0  0  0
  -29.6060  -16.3666   20.3394 N   0  0  0  0  0  0
  -29.3610  -21.8793   20.2287 N   0  3  2  0  0  0
  -31.4490  -12.9246   19.1452 H   0  0  0  0  0  0
  -30.5486  -11.7758   20.0933 H   0  0  0  0  0  0
  -29.8746  -11.5188   17.7557 H   0  0  0  0  0  0
  -29.6600  -13.1865   17.5191 H   0  0  0  0  0  0
  -27.9447  -11.2223   19.0053 H   0  0  0  0  0  0
  -27.3983  -12.3580   17.8239 H   0  0  0  0  0  0
  -27.5709  -14.1945   19.4191 H   0  0  0  0  0  0
  -28.8375  -12.2601   21.3749 H   0  0  0  0  0  0
  -28.3332  -13.8503   21.8050 H   0  0  0  0  0  0
  -25.2784   -9.5653   22.4683 H   0  0  0  0  0  0
  -24.0010   -7.4641   22.7487 H   0  0  0  0  0  0
  -21.0791   -8.8901   19.8931 H   0  0  0  0  0  0
  -22.3787  -10.9718   19.6162 H   0  0  0  0  0  0
  -21.2137   -7.6143   23.9788 H   0  0  0  0  0  0
  -21.1382   -6.0374   25.9054 H   0  0  0  0  0  0
  -22.0658   -2.7617   23.2677 H   0  0  0  0  0  0
  -22.3932  -12.0129   22.4904 H   0  0  0  0  0  0
  -21.1074  -13.1624   22.2445 H   0  0  0  0  0  0
  -24.6862  -15.8366   20.6117 H   0  0  0  0  0  0
  -26.3001  -15.6277   20.1428 H   0  0  0  0  0  0
  -26.7331  -32.5290   23.0994 H   0  0  0  0  0  0
  -25.0224  -33.9595   25.0383 H   0  0  0  0  0  0
  -22.7582  -31.2798   21.3730 H   0  0  0  0  0  0
  -23.3773  -35.9518   23.3302 H   0  0  0  0  0  0
  -24.3529  -36.8860   22.2048 H   0  0  0  0  0  0
  -23.7151  -37.6394   23.6682 H   0  0  0  0  0  0
  -26.1836  -31.4372   20.6153 H   0  0  0  0  0  0
  -26.8787  -30.7427   22.0417 H   0  0  0  0  0  0
  -28.1616  -28.7672   21.1836 H   0  0  0  0  0  0
  -25.9248  -25.8094   18.9884 H   0  0  0  0  0  0
  -23.9735  -27.2688   19.0012 H   0  0  0  0  0  0
  -23.8026  -30.5228   19.3874 H   0  0  0  0  0  0
  -22.7929  -29.1930   19.8751 H   0  0  0  0  0  0
  -25.1313  -36.1891   25.0806 H   0  0  0  0  0  0
  -21.0014  -28.3314   24.1376 H   0  0  0  0  0  0
  -20.5717  -26.2325   23.3595 H   0  0  0  0  0  0
  -21.6666  -26.7444   22.1195 H   0  0  0  0  0  0
  -19.6924  -25.6276   21.1254 H   0  0  0  0  0  0
  -19.6737  -27.3159   20.6721 H   0  0  0  0  0  0
  -17.4244  -26.6726   21.3974 H   0  0  0  0  0  0
  -18.0323  -26.0038   22.8953 H   0  0  0  0  0  0
  -19.7942  -30.7305   24.2224 H   0  0  0  0  0  0
  -17.5018  -31.6293   24.5133 H   0  0  0  0  0  0
  -15.5356  -30.2967   23.7712 H   0  0  0  0  0  0
  -15.8670  -28.0752   22.7221 H   0  0  0  0  0  0
  -24.5811  -30.7290   25.7745 H   0  0  0  0  0  0
  -24.8933  -32.3073   26.4809 H   0  0  0  0  0  0
  -25.7903  -30.9038   27.0243 H   0  0  0  0  0  0
  -26.3105  -29.6710   24.1341 H   0  0  0  0  0  0
  -27.3929  -29.7339   25.5059 H   0  0  0  0  0  0
  -27.9067  -30.4216   23.9852 H   0  0  0  0  0  0
  -27.2613  -33.3740   26.2054 H   0  0  0  0  0  0
  -28.3914  -32.6943   25.0448 H   0  0  0  0  0  0
  -28.0659  -31.8599   26.5540 H   0  0  0  0  0  0
  -28.2631  -38.0072   24.7552 H   0  0  0  0  0  0
  -28.1038  -36.2607   24.6268 H   0  0  0  0  0  0
  -27.2290  -37.1431   25.8870 H   0  0  0  0  0  0
  -20.9524  -29.8654   21.6692 H   0  0  0  0  0  0
  -26.0150  -38.2854   24.1407 H   0  0  0  0  0  0
  -29.8798  -17.2881   15.8805 H   0  0  0  0  0  0
  -29.9803  -20.8456   18.0729 H   0  0  0  0  0  0
  -28.0597  -22.5612   22.4020 H   0  0  0  0  0  0
  -29.3897  -23.1149   23.3849 H   0  0  0  0  0  0
  -29.8068  -24.9899   21.7445 H   0  0  0  0  0  0
  -28.2645  -25.1123   22.5420 H   0  0  0  0  0  0
  -30.4711  -21.4881   22.0085 H   0  0  0  0  0  0
  -30.8500  -22.9806   21.2190 H   0  0  0  0  0  0
  -29.3128  -23.5315   18.8517 H   0  0  0  0  0  0
  -27.7613  -22.8132   18.9881 H   0  0  0  0  0  0
  -27.0811  -24.4327   20.6321 H   0  0  0  0  0  0
  -29.4628  -19.8552   15.0684 H   0  0  0  0  0  0
  -31.1387  -19.3213   15.0272 H   0  0  0  0  0  0
  -30.7238  -20.8785   15.7677 H   0  0  0  0  0  0
  -27.7041  -16.0345   18.4527 H   0  0  0  0  0  0
  -28.8939  -15.0058   17.6248 H   0  0  0  0  0  0
  -27.9599  -16.1964   16.7583 H   0  0  0  0  0  0
  -29.2126  -17.2603   22.2289 H   0  0  0  0  0  0
  -28.1758  -15.8679   21.9114 H   0  0  0  0  0  0
  -27.9423  -17.3692   21.0699 H   0  0  0  0  0  0
  -29.0944  -19.9686   21.3358 H   0  0  0  0  0  0
  -27.8633  -20.2781   20.1916 H   0  0  0  0  0  0
  -30.1457  -21.7838   19.6021 H   0  0  0  0  0  0
  1 25  1  0  0  0
  1 30  2  0  0  0
  1 86  1  0  0  0
  2  3  1  0  0  0
  2 25  1  0  0  0
  2 88  1  0  0  0
  2 89  1  0  0  0
  3  4  1  0  0  0
  3 90  1  0  0  0
  3 91  1  0  0  0
  4  5  1  0  0  0
  4 92  1  0  0  0
  4 93  1  0  0  0
  5  6  1  0  0  0
  5 26  1  0  0  0
  5 94  1  0  0  0
  6 25  1  0  0  0
  6 95  1  0  0  0
  6 96  1  0  0  0
  7  8  2  0  0  0
  7 26  1  0  0  0
  7 29  1  0  0  0
  8  9  1  0  0  0
  8 22  1  0  0  0
  9 10  1  0  0  0
  9 27  2  0  0  0
 10 11  2  0  0  0
 10 15  1  0  0  0
 11 12  1  0  0  0
 11 97  1  0  0  0
 12 13  2  0  0  0
 12 98  1  0  0  0
 13 14  1  0  0  0
 13 31  1  0  0  0
 14 15  2  0  0  0
 14 99  1  0  0  0
 15100  1  0  0  0
 16 17  2  0  0  0
 16 21  1  0  0  0
 16 31  1  0  0  0
 17 18  1  0  0  0
 17101  1  0  0  0
 18 19  2  0  0  0
 18102  1  0  0  0
 19 20  1  0  0  0
 19 24  1  0  0  0
 20 21  2  0  0  0
 20103  1  0  0  0
 21 23  1  0  0  0
 22 28  1  0  0  0
 22 32  2  0  0  0
 26 27  1  0  0  0
 28104  1  0  0  0
 28105  1  0  0  0
 29106  1  0  0  0
 29107  1  0  0  0
 33 34  1  0  0  0
 33 66  1  0  0  0
 33 70  2  0  0  0
 34 36  1  0  0  0
 34 59  1  0  0  0
 34108  1  0  0  0
 35 44  2  0  0  0
 35 45  1  0  0  0
 35 68  1  0  0  0
 36 56  1  0  0  0
 36109  1  0  0  0
 37 39  1  0  0  0
 37 47  1  0  0  0
 37 66  1  0  0  0
 37110  1  0  0  0
 38 43  2  0  0  0
 38 46  1  0  0  0
 38 47  1  0  0  0
 39 64  1  0  0  0
 39 67  2  0  0  0
 40 52  1  0  0  0
 40 53  2  0  0  0
 40 58  1  0  0  0
 41111  1  0  0  0
 41112  1  0  0  0
 41113  1  0  0  0
 41 48  1  0  0  0
 42 43  1  0  0  0
 42 66  1  0  0  0
 42114  1  0  0  0
 42115  1  0  0  0
 43 44  1  0  0  0
 44116  1  0  0  0
 45 46  2  0  0  0
 45117  1  0  0  0
 46118  1  0  0  0
 47119  1  0  0  0
 47120  1  0  0  0
 48 56  1  0  0  0
 48 65  1  0  0  0
 48121  1  0  0  0
 49 50  1  0  0  0
 49 53  1  0  0  0
 49 64  1  0  0  0
 49122  1  0  0  0
 50 51  1  0  0  0
 50123  1  0  0  0
 50124  1  0  0  0
 51 52  1  0  0  0
 51125  1  0  0  0
 51126  1  0  0  0
 52127  1  0  0  0
 52128  1  0  0  0
 53 54  1  0  0  0
 54 55  2  0  0  0
 54129  1  0  0  0
 55 57  1  0  0  0
 55130  1  0  0  0
 56 69  2  0  0  0
 57 58  2  0  0  0
 57131  1  0  0  0
 58132  1  0  0  0
 59 60  1  0  0  0
 59 61  1  0  0  0
 59 62  1  0  0  0
 60133  1  0  0  0
 60134  1  0  0  0
 60135  1  0  0  0
 61136  1  0  0  0
 61137  1  0  0  0
 61138  1  0  0  0
 62139  1  0  0  0
 62140  1  0  0  0
 62141  1  0  0  0
 63 65  1  0  0  0
 63142  1  0  0  0
 63143  1  0  0  0
 63144  1  0  0  0
 64145  1  0  0  0
 65146  1  0  0  0
 68 81  1  0  0  0
 71 73  2  0  0  0
 71 74  1  0  0  0
 71147  1  0  0  0
 72 73  1  0  0  0
 72 75  2  0  0  0
 72148  1  0  0  0
 73 82  1  0  0  0
 74 76  2  0  0  0
 74 83  1  0  0  0
 75 76  1  0  0  0
 75 85  1  0  0  0
 76 86  1  0  0  0
 77 78  1  0  0  0
 77 79  1  0  0  0
 77149  1  0  0  0
 77150  1  0  0  0
 78 81  1  0  0  0
 78151  1  0  0  0
 78152  1  0  0  0
 79 87  1  0  0  0
 79153  1  0  0  0
 79154  1  0  0  0
 80 81  1  0  0  0
 80 87  1  0  0  0
 80155  1  0  0  0
 80156  1  0  0  0
 81157  1  0  0  0
 82158  1  0  0  0
 82159  1  0  0  0
 82160  1  0  0  0
 83161  1  0  0  0
 83162  1  0  0  0
 83163  1  0  0  0
 84 86  1  0  0  0
 84164  1  0  0  0
 84165  1  0  0  0
 84166  1  0  0  0
 85167  1  0  0  0
 85168  1  0  0  0
 85 87  1  0  0  0
 87169  1  0  0  0
M  CHG  1  87   1
M  ISO  4   1 100  68 101  81 101  86 100
M  END
> <chiral flag>
0

> <version>
0

> <s_m_source_file>
/data/baiqing/PycharmProjects/Reinvent-master-3.2/result/LINK_invent/BTK/process_docking_weight1_custom_product_contain_oxygen_bond_distance_aromatic_linkinvent_7_9_3/rearranged_h_0030.sdf

> <i_m_source_file_index>
78

> <r_mmod_Potential_Energy-OPLS-2005>
1121.03369140625

> <r_mmod_Stretch_Energy-OPLS-2005>
389.238494873047

> <r_mmod_Bend_Energy-OPLS-2005>
426.833190917969

> <r_mmod_Torsional_Energy-OPLS-2005>
475.630523681641

> <r_mmod_Improper_Torsional_Energy-OPLS-2005>
13.5963277816772

> <r_mmod_Van_der_Waal_Energy-OPLS-2005>
147.486083984375

> <r_mmod_Electrostatic_Energy-OPLS-2005>
-193.050170898438

> <r_mmod_Solvation_Energy-OPLS-2005>
-418.763366699219

> <b_mmod_Minimization_Converged-OPLS-2005>
0

> <r_mmod_RMS_Derivative-OPLS-2005>
8.32016372680664

$$$$
78
                    3D
 Structure written by MMmdl.
147155  0  0  1  0            999 V2000
  -30.4739  -15.1836   20.3803 C   0  0  0  0  0  0
  -30.4355  -12.7508   19.5208 C   0  0  0  0  0  0
  -29.5293  -12.5592   18.2802 C   0  0  0  0  0  0
  -28.0736  -12.3011   18.7068 C   0  0  0  0  0  0
  -27.6141  -13.2691   19.8265 C   0  0  2  0  0  0
  -28.6499  -13.4148   20.9611 C   0  0  0  0  0  0
  -25.2399  -13.8243   20.5743 C   0  0  0  0  0  0
  -24.1744  -13.0439   20.9259 C   0  0  0  0  0  0
  -24.6392  -11.6935   20.8768 C   0  0  0  0  0  0
  -23.9085  -10.4295   21.0412 C   0  0  0  0  0  0
  -24.3635   -9.4206   21.9186 C   0  0  0  0  0  0
  -23.6309   -8.2241   22.0750 C   0  0  0  0  0  0
  -22.4288   -8.0281   21.3544 C   0  0  0  0  0  0
  -21.9930   -9.0256   20.4644 C   0  0  0  0  0  0
  -22.7260  -10.2134   20.3056 C   0  0  0  0  0  0
  -21.6855   -6.0742   22.5279 C   0  0  0  0  0  0
  -21.4014   -6.5643   23.8215 C   0  0  0  0  0  0
  -21.3658   -5.6793   24.9175 C   0  0  0  0  0  0
  -21.6046   -4.3057   24.7225 C   0  0  0  0  0  0
  -21.8819   -3.8150   23.4346 C   0  0  0  0  0  0
  -21.9196   -4.6969   22.3403 C   0  0  0  0  0  0
  -22.7762  -13.5192   21.1914 C   0  0  0  0  0  0
  -22.1664   -4.2155   21.0982 F   0  0  0  0  0  0
  -21.5631   -3.4538   25.7737 F   0  0  0  0  0  0
  -29.8925  -13.8928   20.3377 N   0  0  0  0  0  0
  -26.2824  -12.9509   20.3233 N   0  0  0  0  0  0
  -25.9327  -11.6619   20.5733 N   0  0  0  0  0  0
  -22.0430  -12.8162   22.0468 N   0  0  0  0  0  0
  -25.4028  -15.1977   20.4167 N   0  0  0  0  0  0
  -31.6924  -15.1848   20.1594 O   0  0  0  0  0  0
  -21.6644   -6.8884   21.4242 O   0  0  0  0  0  0
  -22.3439  -14.5500   20.6765 O   0  0  0  0  0  0
  -24.6588  -31.8285   23.1763 C   0  0  0  0  0  0
  -25.9292  -32.4623   23.8200 C   0  0  1  0  0  0
  -27.2106  -26.9734   20.1737 C   0  0  0  0  0  0
  -25.5983  -33.8434   24.2109 N   0  0  0  0  0  0
  -23.4706  -30.4441   21.5238 C   0  0  2  0  0  0
  -24.9228  -28.8457   20.1090 C   0  0  0  0  0  0
  -22.7640  -29.4471   22.4789 C   0  0  0  0  0  0
  -18.0320  -28.1414   22.8480 C   0  0  0  0  0  0
  -24.1479  -36.7195   23.2646 C   0  0  0  0  0  0
  -26.0380  -30.6505   21.4000 C   0  0  0  0  0  0
  -26.1065  -29.2461   20.7418 C   0  0  0  0  0  0
  -27.2469  -28.3297   20.7532 C   0  0  0  0  0  0
  -25.9998  -26.7214   19.4879 C   0  0  0  0  0  0
  -24.8929  -27.6022   19.4622 C   0  0  0  0  0  0
  -23.7077  -29.7678   20.1471 C   0  0  0  0  0  0
  -25.4121  -36.2978   24.0304 C   0  0  1  0  0  0
  -20.5942  -28.3749   23.1197 C   0  0  2  0  0  0
  -20.6795  -26.9436   22.5405 C   0  0  0  0  0  0
  -19.5766  -26.6390   21.5215 C   0  0  0  0  0  0
  -18.1948  -26.7951   22.1631 C   0  0  0  0  0  0
  -19.1581  -28.8900   23.2831 C   0  0  0  0  0  0
  -18.9495  -30.1490   23.8868 C   0  0  0  0  0  0
  -17.6491  -30.6611   24.0553 C   0  0  0  0  0  0
  -25.9093  -34.9367   23.5020 C   0  0  0  0  0  0
  -16.5377  -29.9100   23.6352 C   0  0  0  0  0  0
  -16.7302  -28.6513   23.0384 C   0  0  0  0  0  0
  -26.4559  -31.6559   25.0713 C   0  0  0  0  0  0
  -25.3706  -31.3811   26.1384 C   0  0  0  0  0  0
  -27.0441  -30.2929   24.6421 C   0  0  0  0  0  0
  -27.6052  -32.4365   25.7519 C   0  0  0  0  0  0
  -27.5558  -37.1751   24.8469 C   0  0  0  0  0  0
  -21.4314  -29.3044   22.3540 N   0  0  0  0  0  0
  -26.4260  -37.3718   23.9424 N   0  0  0  0  0  0
  -24.7434  -30.9996   22.0871 N   0  0  0  0  0  0
  -23.4208  -28.8032   23.3009 O   0  0  0  0  0  0
  -28.1949  -25.8667   20.2626 O   0  0  0  0  0  0
  -26.5681  -34.8895   22.4603 O   0  0  0  0  0  0
  -23.5672  -32.1231   23.6886 O   0  0  0  0  0  0
  -28.2911  -20.1889   20.9306 C   0  0  0  0  0  0
  -30.1233  -20.7526   19.6641 C   0  0  0  0  0  0
  -29.4663  -19.6141   20.2996 C   0  0  0  0  0  0
  -28.5306  -22.7459   20.2504 C   0  0  0  0  0  0
  -27.8605  -21.6141   20.8992 C   0  0  0  0  0  0
  -29.7072  -22.1754   19.6206 C   0  0  0  0  0  0
  -30.1783  -18.0282   20.3326 C   0  0  0  0  0  0
  -27.8050  -24.3073   20.0174 C   0  0  0  0  0  0
  -29.7331  -16.4519   20.4625 N   0  0  0  0  0  0
  -26.6903  -21.8874   21.5256 F   0  0  0  0  0  0
  -30.7009  -23.2451   18.6987 Cl  0  0  0  0  0  0
  -31.4589  -12.9393   19.1935 H   0  0  0  0  0  0
  -30.4811  -11.8359   20.1140 H   0  0  0  0  0  0
  -29.8930  -11.7343   17.6659 H   0  0  0  0  0  0
  -29.5748  -13.4517   17.6548 H   0  0  0  0  0  0
  -28.0151  -11.2728   19.0660 H   0  0  0  0  0  0
  -27.4059  -12.3636   17.8468 H   0  0  0  0  0  0
  -27.5393  -14.2433   19.3423 H   0  0  0  0  0  0
  -28.7974  -12.4736   21.4929 H   0  0  0  0  0  0
  -28.3044  -14.1401   21.6996 H   0  0  0  0  0  0
  -25.2776   -9.5686   22.4768 H   0  0  0  0  0  0
  -24.0021   -7.4628   22.7462 H   0  0  0  0  0  0
  -21.0864   -8.8779   19.8943 H   0  0  0  0  0  0
  -22.3718  -10.9680   19.6169 H   0  0  0  0  0  0
  -21.1997   -7.6149   23.9720 H   0  0  0  0  0  0
  -21.1482   -6.0522   25.9082 H   0  0  0  0  0  0
  -22.0598   -2.7611   23.2842 H   0  0  0  0  0  0
  -22.4068  -11.9820   22.4834 H   0  0  0  0  0  0
  -21.1045  -13.1160   22.2693 H   0  0  0  0  0  0
  -24.6294  -15.8453   20.5233 H   0  0  0  0  0  0
  -26.2419  -15.6402   20.0660 H   0  0  0  0  0  0
  -26.7358  -32.5172   23.0913 H   0  0  0  0  0  0
  -25.0126  -33.9525   25.0257 H   0  0  0  0  0  0
  -22.7816  -31.2749   21.3589 H   0  0  0  0  0  0
  -23.3762  -35.9507   23.3293 H   0  0  0  0  0  0
  -24.3557  -36.8852   22.2065 H   0  0  0  0  0  0
  -23.7215  -37.6373   23.6699 H   0  0  0  0  0  0
  -26.2146  -31.3969   20.6243 H   0  0  0  0  0  0
  -26.8995  -30.7036   22.0535 H   0  0  0  0  0  0
  -28.1406  -28.6304   21.2819 H   0  0  0  0  0  0
  -25.8621  -25.7752   18.9872 H   0  0  0  0  0  0
  -23.9946  -27.2902   18.9477 H   0  0  0  0  0  0
  -23.8603  -30.5396   19.3920 H   0  0  0  0  0  0
  -22.8178  -29.2223   19.8295 H   0  0  0  0  0  0
  -25.1318  -36.1767   25.0793 H   0  0  0  0  0  0
  -21.0043  -28.3356   24.1314 H   0  0  0  0  0  0
  -20.5677  -26.2367   23.3641 H   0  0  0  0  0  0
  -21.6657  -26.7423   22.1199 H   0  0  0  0  0  0
  -19.6918  -25.6291   21.1272 H   0  0  0  0  0  0
  -19.6702  -27.3174   20.6722 H   0  0  0  0  0  0
  -17.4213  -26.6702   21.4036 H   0  0  0  0  0  0
  -18.0339  -26.0105   22.9040 H   0  0  0  0  0  0
  -19.7970  -30.7311   24.2228 H   0  0  0  0  0  0
  -17.5048  -31.6293   24.5154 H   0  0  0  0  0  0
  -15.5377  -30.2994   23.7700 H   0  0  0  0  0  0
  -15.8700  -28.0813   22.7143 H   0  0  0  0  0  0
  -24.5886  -30.7152   25.7713 H   0  0  0  0  0  0
  -24.8894  -32.3016   26.4697 H   0  0  0  0  0  0
  -25.7957  -30.9065   27.0236 H   0  0  0  0  0  0
  -26.3096  -29.6626   24.1388 H   0  0  0  0  0  0
  -27.3940  -29.7276   25.5069 H   0  0  0  0  0  0
  -27.9059  -30.4122   23.9851 H   0  0  0  0  0  0
  -27.2616  -33.3709   26.1973 H   0  0  0  0  0  0
  -28.3933  -32.6861   25.0400 H   0  0  0  0  0  0
  -28.0635  -31.8573   26.5546 H   0  0  0  0  0  0
  -28.2559  -38.0061   24.7527 H   0  0  0  0  0  0
  -28.1069  -36.2592   24.6281 H   0  0  0  0  0  0
  -27.2282  -37.1378   25.8873 H   0  0  0  0  0  0
  -20.9546  -29.8741   21.6689 H   0  0  0  0  0  0
  -26.0105  -38.2766   24.1473 H   0  0  0  0  0  0
  -27.6596  -19.5109   21.4867 H   0  0  0  0  0  0
  -31.0447  -20.5266   19.1458 H   0  0  0  0  0  0
  -30.9288  -18.1256   21.1180 H   0  0  0  0  0  0
  -30.7716  -18.0185   19.4178 H   0  0  0  0  0  0
  -26.8430  -24.2059   20.5198 H   0  0  0  0  0  0
  -27.5565  -24.2778   18.9566 H   0  0  0  0  0  0
  -28.7415  -16.3227   20.5964 H   0  0  0  0  0  0
  1 25  1  0  0  0
  1 30  2  0  0  0
  1 79  1  0  0  0
  2  3  1  0  0  0
  2 25  1  0  0  0
  2 82  1  0  0  0
  2 83  1  0  0  0
  3  4  1  0  0  0
  3 84  1  0  0  0
  3 85  1  0  0  0
  4  5  1  0  0  0
  4 86  1  0  0  0
  4 87  1  0  0  0
  5  6  1  0  0  0
  5 26  1  0  0  0
  5 88  1  0  0  0
  6 25  1  0  0  0
  6 89  1  0  0  0
  6 90  1  0  0  0
  7  8  2  0  0  0
  7 26  1  0  0  0
  7 29  1  0  0  0
  8  9  1  0  0  0
  8 22  1  0  0  0
  9 10  1  0  0  0
  9 27  2  0  0  0
 10 11  2  0  0  0
 10 15  1  0  0  0
 11 12  1  0  0  0
 11 91  1  0  0  0
 12 13  2  0  0  0
 12 92  1  0  0  0
 13 14  1  0  0  0
 13 31  1  0  0  0
 14 15  2  0  0  0
 14 93  1  0  0  0
 15 94  1  0  0  0
 16 17  2  0  0  0
 16 21  1  0  0  0
 16 31  1  0  0  0
 17 18  1  0  0  0
 17 95  1  0  0  0
 18 19  2  0  0  0
 18 96  1  0  0  0
 19 20  1  0  0  0
 19 24  1  0  0  0
 20 21  2  0  0  0
 20 97  1  0  0  0
 21 23  1  0  0  0
 22 28  1  0  0  0
 22 32  2  0  0  0
 26 27  1  0  0  0
 28 98  1  0  0  0
 28 99  1  0  0  0
 29100  1  0  0  0
 29101  1  0  0  0
 33 34  1  0  0  0
 33 66  1  0  0  0
 33 70  2  0  0  0
 34 36  1  0  0  0
 34 59  1  0  0  0
 34102  1  0  0  0
 35 44  2  0  0  0
 35 45  1  0  0  0
 35 68  1  0  0  0
 36 56  1  0  0  0
 36103  1  0  0  0
 37 39  1  0  0  0
 37 47  1  0  0  0
 37 66  1  0  0  0
 37104  1  0  0  0
 38 43  2  0  0  0
 38 46  1  0  0  0
 38 47  1  0  0  0
 39 64  1  0  0  0
 39 67  2  0  0  0
 40 52  1  0  0  0
 40 53  2  0  0  0
 40 58  1  0  0  0
 41105  1  0  0  0
 41106  1  0  0  0
 41107  1  0  0  0
 41 48  1  0  0  0
 42 43  1  0  0  0
 42 66  1  0  0  0
 42108  1  0  0  0
 42109  1  0  0  0
 43 44  1  0  0  0
 44110  1  0  0  0
 45 46  2  0  0  0
 45111  1  0  0  0
 46112  1  0  0  0
 47113  1  0  0  0
 47114  1  0  0  0
 48 56  1  0  0  0
 48 65  1  0  0  0
 48115  1  0  0  0
 49 50  1  0  0  0
 49 53  1  0  0  0
 49 64  1  0  0  0
 49116  1  0  0  0
 50 51  1  0  0  0
 50117  1  0  0  0
 50118  1  0  0  0
 51 52  1  0  0  0
 51119  1  0  0  0
 51120  1  0  0  0
 52121  1  0  0  0
 52122  1  0  0  0
 53 54  1  0  0  0
 54 55  2  0  0  0
 54123  1  0  0  0
 55 57  1  0  0  0
 55124  1  0  0  0
 56 69  2  0  0  0
 57 58  2  0  0  0
 57125  1  0  0  0
 58126  1  0  0  0
 59 60  1  0  0  0
 59 61  1  0  0  0
 59 62  1  0  0  0
 60127  1  0  0  0
 60128  1  0  0  0
 60129  1  0  0  0
 61130  1  0  0  0
 61131  1  0  0  0
 61132  1  0  0  0
 62133  1  0  0  0
 62134  1  0  0  0
 62135  1  0  0  0
 63 65  1  0  0  0
 63136  1  0  0  0
 63137  1  0  0  0
 63138  1  0  0  0
 64139  1  0  0  0
 65140  1  0  0  0
 68 78  1  0  0  0
 71 73  2  0  0  0
 71 75  1  0  0  0
 71141  1  0  0  0
 72 73  1  0  0  0
 72 76  2  0  0  0
 72142  1  0  0  0
 73 77  1  0  0  0
 74 75  2  0  0  0
 74 76  1  0  0  0
 74 78  1  0  0  0
 75 80  1  0  0  0
 76 81  1  0  0  0
 77 79  1  0  0  0
 77143  1  0  0  0
 77144  1  0  0  0
 78145  1  0  0  0
 78146  1  0  0  0
 79147  1  0  0  0
M  ISO  4   1 100  68 101  78 101  79 100
M  END
> <chiral flag>
0

> <version>
0

> <s_m_source_file>
/data/baiqing/PycharmProjects/Reinvent-master-3.2/result/LINK_invent/BTK/process_docking_weight1_custom_product_contain_oxygen_bond_distance_aromatic_linkinvent_7_9_3/rearranged_h_0030.sdf

> <i_m_source_file_index>
79

> <r_mmod_Potential_Energy-OPLS-2005>
1008.89874267578

> <r_mmod_Stretch_Energy-OPLS-2005>
445.415100097656

> <r_mmod_Bend_Energy-OPLS-2005>
422.509826660156

> <r_mmod_Torsional_Energy-OPLS-2005>
215.571075439453

> <r_mmod_Improper_Torsional_Energy-OPLS-2005>
7.33312225341797

> <r_mmod_Van_der_Waal_Energy-OPLS-2005>
130.825942993164

> <r_mmod_Electrostatic_Energy-OPLS-2005>
-386.162445068359

> <r_mmod_Solvation_Energy-OPLS-2005>
-214.980606079102

> <b_mmod_Minimization_Converged-OPLS-2005>
0

> <r_mmod_RMS_Derivative-OPLS-2005>
0.958512306213379

$$$$
79
                    3D
 Structure written by MMmdl.
162171  0  0  1  0            999 V2000
  -30.5837  -14.8620   20.3878 C   0  0  0  0  0  0
  -30.4360  -12.5227   19.4730 C   0  0  0  0  0  0
  -29.5151  -12.4700   18.2338 C   0  0  0  0  0  0
  -28.0319  -12.3212   18.6385 C   0  0  0  0  0  0
  -27.6207  -13.2262   19.8308 C   0  0  2  0  0  0
  -28.6770  -13.2482   20.9536 C   0  0  0  0  0  0
  -25.2400  -13.8064   20.5671 C   0  0  0  0  0  0
  -24.1711  -13.0304   20.9196 C   0  0  0  0  0  0
  -24.6351  -11.6814   20.8752 C   0  0  0  0  0  0
  -23.9036  -10.4206   21.0420 C   0  0  0  0  0  0
  -24.3579   -9.4122   21.9194 C   0  0  0  0  0  0
  -23.6252   -8.2157   22.0753 C   0  0  0  0  0  0
  -22.4237   -8.0211   21.3543 C   0  0  0  0  0  0
  -21.9866   -9.0185   20.4644 C   0  0  0  0  0  0
  -22.7209  -10.2062   20.3071 C   0  0  0  0  0  0
  -21.6807   -6.0678   22.5276 C   0  0  0  0  0  0
  -21.3976   -6.5599   23.8206 C   0  0  0  0  0  0
  -21.3670   -5.6773   24.9185 C   0  0  0  0  0  0
  -21.6056   -4.3036   24.7247 C   0  0  0  0  0  0
  -21.8824   -3.8114   23.4373 C   0  0  0  0  0  0
  -21.9185   -4.6910   22.3414 C   0  0  0  0  0  0
  -22.7748  -13.5116   21.1866 C   0  0  0  0  0  0
  -22.1645   -4.2084   21.0987 F   0  0  0  0  0  0
  -21.5673   -3.4529   25.7772 F   0  0  0  0  0  0
  -29.9554  -13.6263   20.3393 N   0  0  0  0  0  0
  -26.2837  -12.9286   20.3284 N   0  0  0  0  0  0
  -25.9290  -11.6440   20.5768 N   0  0  0  0  0  0
  -22.0408  -12.8107   22.0437 N   0  0  0  0  0  0
  -25.3997  -15.1756   20.4063 N   0  0  0  0  0  0
  -31.8121  -14.8949   20.2684 O   0  0  0  0  0  0
  -21.6605   -6.8812   21.4233 O   0  0  0  0  0  0
  -22.3416  -14.5412   20.6713 O   0  0  0  0  0  0
  -24.6286  -31.8537   23.1968 C   0  0  0  0  0  0
  -25.9113  -32.4740   23.8305 C   0  0  1  0  0  0
  -27.2225  -27.2481   20.1715 C   0  0  0  0  0  0
  -25.5907  -33.8544   24.2220 N   0  0  0  0  0  0
  -23.4253  -30.4740   21.5375 C   0  0  2  0  0  0
  -24.8770  -28.9070   20.1199 C   0  0  0  0  0  0
  -22.7480  -29.4599   22.4900 C   0  0  0  0  0  0
  -18.0283  -28.1406   22.8490 C   0  0  0  0  0  0
  -24.1479  -36.7289   23.2641 C   0  0  0  0  0  0
  -25.9687  -30.7652   21.3764 C   0  0  0  0  0  0
  -26.0440  -29.3810   20.7329 C   0  0  0  0  0  0
  -27.2209  -28.5657   20.7430 C   0  0  0  0  0  0
  -26.0343  -26.8319   19.5382 C   0  0  0  0  0  0
  -24.8779  -27.6410   19.5093 C   0  0  0  0  0  0
  -23.6483  -29.7986   20.1565 C   0  0  0  0  0  0
  -25.4104  -36.3048   24.0316 C   0  0  1  0  0  0
  -20.5884  -28.3703   23.1261 C   0  0  2  0  0  0
  -20.6774  -26.9415   22.5412 C   0  0  0  0  0  0
  -19.5745  -26.6390   21.5221 C   0  0  0  0  0  0
  -18.1921  -26.7945   22.1633 C   0  0  0  0  0  0
  -19.1536  -28.8873   23.2869 C   0  0  0  0  0  0
  -18.9477  -30.1482   23.8876 C   0  0  0  0  0  0
  -17.6481  -30.6605   24.0574 C   0  0  0  0  0  0
  -25.9053  -34.9428   23.5072 C   0  0  0  0  0  0
  -16.5368  -29.9105   23.6350 C   0  0  0  0  0  0
  -16.7275  -28.6528   23.0355 C   0  0  0  0  0  0
  -26.4489  -31.6578   25.0703 C   0  0  0  0  0  0
  -25.3715  -31.3785   26.1435 C   0  0  0  0  0  0
  -27.0324  -30.2970   24.6230 C   0  0  0  0  0  0
  -27.5995  -32.4366   25.7496 C   0  0  0  0  0  0
  -27.5566  -37.1795   24.8462 C   0  0  0  0  0  0
  -21.4187  -29.3041   22.3640 N   0  0  0  0  0  0
  -26.4277  -37.3750   23.9406 N   0  0  0  0  0  0
  -24.6926  -31.0509   22.0933 N   0  0  0  0  0  0
  -23.4170  -28.8138   23.3003 O   0  0  0  0  0  0
  -28.3508  -26.4010   20.1276 O   0  0  0  0  0  0
  -26.5645  -34.8907   22.4656 O   0  0  0  0  0  0
  -23.5444  -32.1359   23.7281 O   0  0  0  0  0  0
  -27.7793  -21.2729   20.8749 C   0  0  0  0  0  0
  -27.2476  -20.0038   21.1945 C   0  0  0  0  0  0
  -29.9025  -20.1578   20.4764 C   0  0  0  0  0  0
  -29.3827  -18.8216   20.7652 C   0  0  0  0  0  0
  -29.1417  -21.4191   20.5527 C   0  0  0  0  0  0
  -28.0246  -18.8169   21.1798 C   0  0  0  0  0  0
  -28.9956  -24.0092   19.8692 C   0  0  0  0  0  0
  -31.0446  -22.9816   20.5109 C   0  0  0  0  0  0
  -28.3794  -25.0385   20.5757 C   0  0  0  0  0  0
  -29.5298  -24.3538   18.4997 C   0  0  0  0  0  0
  -31.7861  -24.0464   19.6604 C   0  0  0  0  0  0
  -30.9204  -24.9420   18.7389 C   0  0  0  0  0  0
  -29.0576  -16.2558   19.0764 C   0  0  0  0  0  0
  -30.2912  -17.4703   20.7772 C   0  0  0  0  0  0
  -29.6940  -22.8101   20.3705 N   0  0  0  0  0  0
  -29.8341  -16.0636   20.3105 N   0  0  0  0  0  0
  -31.7342  -22.3259   21.3019 O   0  0  0  0  0  0
  -27.2859  -17.3769   21.7779 Cl  0  0  0  0  0  0
  -31.4695  -12.6737   19.1628 H   0  0  0  0  0  0
  -30.4160  -11.5757   20.0146 H   0  0  0  0  0  0
  -29.7988  -11.6346   17.5922 H   0  0  0  0  0  0
  -29.6549  -13.3653   17.6289 H   0  0  0  0  0  0
  -27.8663  -11.2744   18.8934 H   0  0  0  0  0  0
  -27.3933  -12.5238   17.7778 H   0  0  0  0  0  0
  -27.5555  -14.2213   19.4121 H   0  0  0  0  0  0
  -28.7441  -12.2752   21.4416 H   0  0  0  0  0  0
  -28.3973  -13.9672   21.7257 H   0  0  0  0  0  0
  -25.2716   -9.5567   22.4784 H   0  0  0  0  0  0
  -23.9939   -7.4527   22.7457 H   0  0  0  0  0  0
  -21.0799   -8.8703   19.8935 H   0  0  0  0  0  0
  -22.3670  -10.9598   19.6183 H   0  0  0  0  0  0
  -21.1911   -7.6095   23.9680 H   0  0  0  0  0  0
  -21.1512   -6.0512   25.9082 H   0  0  0  0  0  0
  -22.0600   -2.7566   23.2913 H   0  0  0  0  0  0
  -22.4023  -11.9762   22.4826 H   0  0  0  0  0  0
  -21.1023  -13.1143   22.2648 H   0  0  0  0  0  0
  -24.6475  -15.8309   20.5839 H   0  0  0  0  0  0
  -26.2935  -15.6326   20.2757 H   0  0  0  0  0  0
  -26.7168  -32.5394   23.1034 H   0  0  0  0  0  0
  -24.9989  -33.9683   25.0316 H   0  0  0  0  0  0
  -22.7196  -31.2944   21.3872 H   0  0  0  0  0  0
  -23.3726  -35.9641   23.3302 H   0  0  0  0  0  0
  -24.3560  -36.8934   22.2059 H   0  0  0  0  0  0
  -23.7272  -37.6498   23.6685 H   0  0  0  0  0  0
  -26.1042  -31.5170   20.5967 H   0  0  0  0  0  0
  -26.8460  -30.8205   22.0099 H   0  0  0  0  0  0
  -28.1206  -28.9337   21.2179 H   0  0  0  0  0  0
  -26.0002  -25.8583   19.0708 H   0  0  0  0  0  0
  -23.9858  -27.2712   19.0238 H   0  0  0  0  0  0
  -23.7763  -30.5705   19.3965 H   0  0  0  0  0  0
  -22.7646  -29.2349   19.8517 H   0  0  0  0  0  0
  -25.1289  -36.1876   25.0811 H   0  0  0  0  0  0
  -20.9986  -28.3313   24.1380 H   0  0  0  0  0  0
  -20.5686  -26.2321   23.3625 H   0  0  0  0  0  0
  -21.6638  -26.7449   22.1193 H   0  0  0  0  0  0
  -19.6902  -25.6297   21.1256 H   0  0  0  0  0  0
  -19.6686  -27.3194   20.6740 H   0  0  0  0  0  0
  -17.4190  -26.6691   21.4034 H   0  0  0  0  0  0
  -18.0320  -26.0092   22.9034 H   0  0  0  0  0  0
  -19.7961  -30.7309   24.2200 H   0  0  0  0  0  0
  -17.5047  -31.6278   24.5195 H   0  0  0  0  0  0
  -15.5371  -30.3012   23.7703 H   0  0  0  0  0  0
  -15.8667  -28.0868   22.7058 H   0  0  0  0  0  0
  -24.5858  -30.7151   25.7807 H   0  0  0  0  0  0
  -24.8951  -32.2990   26.4816 H   0  0  0  0  0  0
  -25.8031  -30.9006   27.0235 H   0  0  0  0  0  0
  -26.2919  -29.6732   24.1215 H   0  0  0  0  0  0
  -27.3913  -29.7230   25.4783 H   0  0  0  0  0  0
  -27.8827  -30.4185   23.9516 H   0  0  0  0  0  0
  -27.2508  -33.3650   26.2031 H   0  0  0  0  0  0
  -28.3814  -32.6983   25.0355 H   0  0  0  0  0  0
  -28.0637  -31.8553   26.5469 H   0  0  0  0  0  0
  -28.2566  -38.0101   24.7479 H   0  0  0  0  0  0
  -28.1068  -36.2628   24.6296 H   0  0  0  0  0  0
  -27.2290  -37.1466   25.8867 H   0  0  0  0  0  0
  -20.9379  -29.8747   21.6828 H   0  0  0  0  0  0
  -26.0142  -38.2813   24.1424 H   0  0  0  0  0  0
  -27.1420  -22.1438   20.9450 H   0  0  0  0  0  0
  -26.2143  -19.9495   21.5071 H   0  0  0  0  0  0
  -30.9499  -20.2011   20.2169 H   0  0  0  0  0  0
  -28.1535  -24.9707   21.6312 H   0  0  0  0  0  0
  -28.8734  -25.0565   17.9823 H   0  0  0  0  0  0
  -29.5843  -23.4568   17.8789 H   0  0  0  0  0  0
  -32.4964  -23.5042   19.0364 H   0  0  0  0  0  0
  -32.3850  -24.6708   20.3255 H   0  0  0  0  0  0
  -30.8077  -25.9213   19.2099 H   0  0  0  0  0  0
  -31.4267  -25.1327   17.7921 H   0  0  0  0  0  0
  -27.9985  -16.3889   19.2916 H   0  0  0  0  0  0
  -29.1587  -15.4299   18.3733 H   0  0  0  0  0  0
  -29.3884  -17.1407   18.5281 H   0  0  0  0  0  0
  -30.6402  -17.3476   21.8024 H   0  0  0  0  0  0
  -31.1935  -17.6960   20.2072 H   0  0  0  0  0  0
  1 25  1  0  0  0
  1 30  2  0  0  0
  1 86  1  0  0  0
  2  3  1  0  0  0
  2 25  1  0  0  0
  2 89  1  0  0  0
  2 90  1  0  0  0
  3  4  1  0  0  0
  3 91  1  0  0  0
  3 92  1  0  0  0
  4  5  1  0  0  0
  4 93  1  0  0  0
  4 94  1  0  0  0
  5  6  1  0  0  0
  5 26  1  0  0  0
  5 95  1  0  0  0
  6 25  1  0  0  0
  6 96  1  0  0  0
  6 97  1  0  0  0
  7  8  2  0  0  0
  7 26  1  0  0  0
  7 29  1  0  0  0
  8  9  1  0  0  0
  8 22  1  0  0  0
  9 10  1  0  0  0
  9 27  2  0  0  0
 10 11  2  0  0  0
 10 15  1  0  0  0
 11 12  1  0  0  0
 11 98  1  0  0  0
 12 13  2  0  0  0
 12 99  1  0  0  0
 13 14  1  0  0  0
 13 31  1  0  0  0
 14 15  2  0  0  0
 14100  1  0  0  0
 15101  1  0  0  0
 16 17  2  0  0  0
 16 21  1  0  0  0
 16 31  1  0  0  0
 17 18  1  0  0  0
 17102  1  0  0  0
 18 19  2  0  0  0
 18103  1  0  0  0
 19 20  1  0  0  0
 19 24  1  0  0  0
 20 21  2  0  0  0
 20104  1  0  0  0
 21 23  1  0  0  0
 22 28  1  0  0  0
 22 32  2  0  0  0
 26 27  1  0  0  0
 28105  1  0  0  0
 28106  1  0  0  0
 29107  1  0  0  0
 29108  1  0  0  0
 33 34  1  0  0  0
 33 66  1  0  0  0
 33 70  2  0  0  0
 34 36  1  0  0  0
 34 59  1  0  0  0
 34109  1  0  0  0
 35 44  2  0  0  0
 35 45  1  0  0  0
 35 68  1  0  0  0
 36 56  1  0  0  0
 36110  1  0  0  0
 37 39  1  0  0  0
 37 47  1  0  0  0
 37 66  1  0  0  0
 37111  1  0  0  0
 38 43  2  0  0  0
 38 46  1  0  0  0
 38 47  1  0  0  0
 39 64  1  0  0  0
 39 67  2  0  0  0
 40 52  1  0  0  0
 40 53  2  0  0  0
 40 58  1  0  0  0
 41112  1  0  0  0
 41113  1  0  0  0
 41114  1  0  0  0
 41 48  1  0  0  0
 42 43  1  0  0  0
 42 66  1  0  0  0
 42115  1  0  0  0
 42116  1  0  0  0
 43 44  1  0  0  0
 44117  1  0  0  0
 45 46  2  0  0  0
 45118  1  0  0  0
 46119  1  0  0  0
 47120  1  0  0  0
 47121  1  0  0  0
 48 56  1  0  0  0
 48 65  1  0  0  0
 48122  1  0  0  0
 49 50  1  0  0  0
 49 53  1  0  0  0
 49 64  1  0  0  0
 49123  1  0  0  0
 50 51  1  0  0  0
 50124  1  0  0  0
 50125  1  0  0  0
 51 52  1  0  0  0
 51126  1  0  0  0
 51127  1  0  0  0
 52128  1  0  0  0
 52129  1  0  0  0
 53 54  1  0  0  0
 54 55  2  0  0  0
 54130  1  0  0  0
 55 57  1  0  0  0
 55131  1  0  0  0
 56 69  2  0  0  0
 57 58  2  0  0  0
 57132  1  0  0  0
 58133  1  0  0  0
 59 60  1  0  0  0
 59 61  1  0  0  0
 59 62  1  0  0  0
 60134  1  0  0  0
 60135  1  0  0  0
 60136  1  0  0  0
 61137  1  0  0  0
 61138  1  0  0  0
 61139  1  0  0  0
 62140  1  0  0  0
 62141  1  0  0  0
 62142  1  0  0  0
 63 65  1  0  0  0
 63143  1  0  0  0
 63144  1  0  0  0
 63145  1  0  0  0
 64146  1  0  0  0
 65147  1  0  0  0
 68 79  1  0  0  0
 71 72  2  0  0  0
 71 75  1  0  0  0
 71148  1  0  0  0
 72 76  1  0  0  0
 72149  1  0  0  0
 73 74  1  0  0  0
 73 75  2  0  0  0
 73150  1  0  0  0
 74 76  2  0  0  0
 74 84  1  0  0  0
 75 85  1  0  0  0
 76 88  1  0  0  0
 77 79  2  0  0  0
 77 80  1  0  0  0
 77 85  1  0  0  0
 78 81  1  0  0  0
 78 85  1  0  0  0
 78 87  2  0  0  0
 79151  1  0  0  0
 80 82  1  0  0  0
 80152  1  0  0  0
 80153  1  0  0  0
 81 82  1  0  0  0
 81154  1  0  0  0
 81155  1  0  0  0
 82156  1  0  0  0
 82157  1  0  0  0
 83 86  1  0  0  0
 83158  1  0  0  0
 83159  1  0  0  0
 83160  1  0  0  0
 84 86  1  0  0  0
 84161  1  0  0  0
 84162  1  0  0  0
M  ISO  4   1 100  68 101  79 101  86 100
M  END
> <chiral flag>
0

> <version>
0

> <s_m_source_file>
/data/baiqing/PycharmProjects/Reinvent-master-3.2/result/LINK_invent/BTK/process_docking_weight1_custom_product_contain_oxygen_bond_distance_aromatic_linkinvent_7_9_3/rearranged_h_0030.sdf

> <i_m_source_file_index>
80

> <r_mmod_Potential_Energy-OPLS-2005>
613.150146484375

> <r_mmod_Stretch_Energy-OPLS-2005>
163.383255004883

> <r_mmod_Bend_Energy-OPLS-2005>
199.080902099609

> <r_mmod_Torsional_Energy-OPLS-2005>
408.307281494141

> <r_mmod_Improper_Torsional_Energy-OPLS-2005>
12.9537105560303

> <r_mmod_Van_der_Waal_Energy-OPLS-2005>
153.564605712891

> <r_mmod_Electrostatic_Energy-OPLS-2005>
-252.12873840332

> <r_mmod_Solvation_Energy-OPLS-2005>
-194.258651733398

> <b_mmod_Minimization_Converged-OPLS-2005>
0

> <r_mmod_RMS_Derivative-OPLS-2005>
3.40964841842651

$$$$
80
                    3D
 Structure written by MMmdl.
161170  0  0  1  0            999 V2000
  -30.5920  -14.6597   20.4897 C   0  0  0  0  0  0
  -30.4403  -12.4020   19.4572 C   0  0  0  0  0  0
  -29.5107  -12.5122   18.2274 C   0  0  0  0  0  0
  -28.0326  -12.3476   18.6367 C   0  0  0  0  0  0
  -27.6540  -13.2161   19.8660 C   0  0  2  0  0  0
  -28.6951  -13.0657   20.9973 C   0  0  0  0  0  0
  -25.2564  -13.8166   20.5660 C   0  0  0  0  0  0
  -24.1832  -13.0426   20.9175 C   0  0  0  0  0  0
  -24.6400  -11.6898   20.8729 C   0  0  0  0  0  0
  -23.9079  -10.4283   21.0408 C   0  0  0  0  0  0
  -24.3630   -9.4195   21.9177 C   0  0  0  0  0  0
  -23.6299   -8.2241   22.0756 C   0  0  0  0  0  0
  -22.4276   -8.0284   21.3558 C   0  0  0  0  0  0
  -21.9917   -9.0252   20.4651 C   0  0  0  0  0  0
  -22.7256  -10.2126   20.3055 C   0  0  0  0  0  0
  -21.6842   -6.0735   22.5281 C   0  0  0  0  0  0
  -21.4013   -6.5642   23.8214 C   0  0  0  0  0  0
  -21.3664   -5.6797   24.9176 C   0  0  0  0  0  0
  -21.6038   -4.3060   24.7223 C   0  0  0  0  0  0
  -21.8822   -3.8152   23.4347 C   0  0  0  0  0  0
  -21.9197   -4.6967   22.3402 C   0  0  0  0  0  0
  -22.7864  -13.5225   21.1848 C   0  0  0  0  0  0
  -22.1661   -4.2151   21.0978 F   0  0  0  0  0  0
  -21.5631   -3.4543   25.7735 F   0  0  0  0  0  0
  -30.0096  -13.4189   20.4376 N   0  0  0  0  0  0
  -26.2992  -12.9344   20.3321 N   0  0  0  0  0  0
  -25.9331  -11.6497   20.5758 N   0  0  0  0  0  0
  -22.0519  -12.8197   22.0404 N   0  0  0  0  0  0
  -25.4259  -15.1878   20.4036 N   0  0  0  0  0  0
  -31.7504  -14.8383   20.0954 O   0  0  0  0  0  0
  -21.6647   -6.8880   21.4244 O   0  0  0  0  0  0
  -22.3539  -14.5527   20.6703 O   0  0  0  0  0  0
  -24.6244  -31.8575   23.1987 C   0  0  0  0  0  0
  -25.9112  -32.4754   23.8301 C   0  0  1  0  0  0
  -27.2393  -27.3184   20.1224 C   0  0  0  0  0  0
  -25.5943  -33.8560   24.2239 N   0  0  0  0  0  0
  -23.4183  -30.4733   21.5441 C   0  0  2  0  0  0
  -24.8635  -28.9082   20.1223 C   0  0  0  0  0  0
  -22.7453  -29.4586   22.4978 C   0  0  0  0  0  0
  -18.0279  -28.1336   22.8456 C   0  0  0  0  0  0
  -24.1513  -36.7288   23.2628 C   0  0  0  0  0  0
  -25.9527  -30.7824   21.3685 C   0  0  0  0  0  0
  -26.0273  -29.4044   20.7209 C   0  0  0  0  0  0
  -27.2152  -28.6209   20.7053 C   0  0  0  0  0  0
  -26.0535  -26.8543   19.5206 C   0  0  0  0  0  0
  -24.8762  -27.6366   19.5163 C   0  0  0  0  0  0
  -23.6335  -29.7962   20.1620 C   0  0  0  0  0  0
  -25.4120  -36.3062   24.0314 C   0  0  1  0  0  0
  -20.5880  -28.3646   23.1303 C   0  0  2  0  0  0
  -20.6794  -26.9391   22.5401 C   0  0  0  0  0  0
  -19.5789  -26.6362   21.5181 C   0  0  0  0  0  0
  -18.1957  -26.7878   22.1582 C   0  0  0  0  0  0
  -19.1526  -28.8805   23.2870 C   0  0  0  0  0  0
  -18.9458  -30.1418   23.8863 C   0  0  0  0  0  0
  -17.6465  -30.6557   24.0552 C   0  0  0  0  0  0
  -25.9068  -34.9449   23.5076 C   0  0  0  0  0  0
  -16.5355  -29.9053   23.6325 C   0  0  0  0  0  0
  -16.7272  -28.6477   23.0320 C   0  0  0  0  0  0
  -26.4486  -31.6550   25.0675 C   0  0  0  0  0  0
  -25.3700  -31.3711   26.1399 C   0  0  0  0  0  0
  -27.0296  -30.2963   24.6106 C   0  0  0  0  0  0
  -27.6066  -32.4243   25.7448 C   0  0  0  0  0  0
  -27.5589  -37.1794   24.8461 C   0  0  0  0  0  0
  -21.4172  -29.3005   22.3717 N   0  0  0  0  0  0
  -26.4298  -37.3763   23.9402 N   0  0  0  0  0  0
  -24.6838  -31.0560   22.0951 N   0  0  0  0  0  0
  -23.4172  -28.8132   23.3079 O   0  0  0  0  0  0
  -28.4432  -26.6137   20.0362 O   0  0  0  0  0  0
  -26.5651  -34.8912   22.4651 O   0  0  0  0  0  0
  -23.5414  -32.1389   23.7319 O   0  0  0  0  0  0
  -29.5128  -19.0805   19.0575 C   0  0  0  0  0  0
  -28.9226  -19.3905   21.3530 C   0  0  0  0  0  0
  -29.0098  -19.9590   20.0571 C   0  0  0  0  0  0
  -29.8214  -17.7027   19.2953 C   0  0  0  0  0  0
  -29.2754  -18.0288   21.6236 C   0  0  0  0  0  0
  -29.7027  -17.1287   20.5984 C   0  0  0  0  0  0
  -28.8278  -23.0958   21.4725 C   0  0  0  0  0  0
  -28.6931  -24.6197   21.6710 C   0  0  0  0  0  0
  -28.1535  -23.9351   19.4307 C   0  0  0  0  0  0
  -28.6848  -25.1642   20.2430 C   0  0  1  0  0  0
  -30.1698  -16.8430   18.0929 C   0  0  0  0  0  0
  -29.1369  -17.5255   23.0512 C   0  0  0  0  0  0
  -28.3423  -21.3340   19.6263 C   0  0  0  0  0  0
  -28.5630  -22.7158   20.2053 N   0  0  0  0  0  0
  -29.7716  -15.6870   20.8896 N   0  0  0  0  0  0
  -29.1270  -22.3519   22.4084 O   0  0  0  0  0  0
  -31.4811  -12.5352   19.1577 H   0  0  0  0  0  0
  -30.3813  -11.4051   19.8950 H   0  0  0  0  0  0
  -29.7767  -11.7602   17.4836 H   0  0  0  0  0  0
  -29.6523  -13.4807   17.7441 H   0  0  0  0  0  0
  -27.8713  -11.2932   18.8656 H   0  0  0  0  0  0
  -27.3789  -12.5803   17.7962 H   0  0  0  0  0  0
  -27.6737  -14.2534   19.5285 H   0  0  0  0  0  0
  -28.7117  -12.0413   21.3730 H   0  0  0  0  0  0
  -28.4360  -13.6904   21.8537 H   0  0  0  0  0  0
  -25.2768   -9.5663   22.4754 H   0  0  0  0  0  0
  -23.9999   -7.4633   22.7473 H   0  0  0  0  0  0
  -21.0854   -8.8773   19.8954 H   0  0  0  0  0  0
  -22.3716  -10.9664   19.6170 H   0  0  0  0  0  0
  -21.2007   -7.6148   23.9713 H   0  0  0  0  0  0
  -21.1480   -6.0528   25.9076 H   0  0  0  0  0  0
  -22.0600   -2.7614   23.2845 H   0  0  0  0  0  0
  -22.4159  -11.9845   22.4751 H   0  0  0  0  0  0
  -21.1152  -13.1219   22.2660 H   0  0  0  0  0  0
  -24.6529  -15.8371   20.4986 H   0  0  0  0  0  0
  -26.2698  -15.6269   20.0569 H   0  0  0  0  0  0
  -26.7169  -32.5412   23.1032 H   0  0  0  0  0  0
  -25.0118  -33.9676   25.0408 H   0  0  0  0  0  0
  -22.7128  -31.2934   21.3953 H   0  0  0  0  0  0
  -23.3776  -35.9627   23.3255 H   0  0  0  0  0  0
  -24.3646  -36.8954   22.2062 H   0  0  0  0  0  0
  -23.7272  -37.6472   23.6677 H   0  0  0  0  0  0
  -26.0837  -31.5426   20.5973 H   0  0  0  0  0  0
  -26.8345  -30.8361   21.9940 H   0  0  0  0  0  0
  -28.1226  -29.0125   21.1441 H   0  0  0  0  0  0
  -26.0436  -25.9003   19.0174 H   0  0  0  0  0  0
  -23.9847  -27.2524   19.0375 H   0  0  0  0  0  0
  -23.7617  -30.5717   19.4041 H   0  0  0  0  0  0
  -22.7515  -29.2299   19.8598 H   0  0  0  0  0  0
  -25.1306  -36.1893   25.0803 H   0  0  0  0  0  0
  -20.9939  -28.3207   24.1435 H   0  0  0  0  0  0
  -20.5707  -26.2262   23.3585 H   0  0  0  0  0  0
  -21.6673  -26.7438   22.1216 H   0  0  0  0  0  0
  -19.6998  -25.6268   21.1228 H   0  0  0  0  0  0
  -19.6743  -27.3162   20.6703 H   0  0  0  0  0  0
  -17.4245  -26.6608   21.3964 H   0  0  0  0  0  0
  -18.0364  -25.9979   22.8935 H   0  0  0  0  0  0
  -19.7947  -30.7226   24.2216 H   0  0  0  0  0  0
  -17.5031  -31.6241   24.5146 H   0  0  0  0  0  0
  -15.5359  -30.2951   23.7652 H   0  0  0  0  0  0
  -15.8675  -28.0818   22.6995 H   0  0  0  0  0  0
  -24.5926  -30.6981   25.7754 H   0  0  0  0  0  0
  -24.8808  -32.2882   26.4706 H   0  0  0  0  0  0
  -25.8010  -30.8997   27.0239 H   0  0  0  0  0  0
  -26.2829  -29.6743   24.1166 H   0  0  0  0  0  0
  -27.4033  -29.7205   25.4579 H   0  0  0  0  0  0
  -27.8693  -30.4253   23.9280 H   0  0  0  0  0  0
  -27.2754  -33.3645   26.1876 H   0  0  0  0  0  0
  -28.3965  -32.6620   25.0308 H   0  0  0  0  0  0
  -28.0600  -31.8415   26.5474 H   0  0  0  0  0  0
  -28.2568  -38.0141   24.7545 H   0  0  0  0  0  0
  -28.1121  -36.2658   24.6217 H   0  0  0  0  0  0
  -27.2329  -37.1370   25.8879 H   0  0  0  0  0  0
  -20.9347  -29.8709   21.6913 H   0  0  0  0  0  0
  -26.0168  -38.2818   24.1415 H   0  0  0  0  0  0
  -29.5715  -19.4491   18.0426 H   0  0  0  0  0  0
  -28.5049  -19.9856   22.1503 H   0  0  0  0  0  0
  -29.5208  -25.0222   22.2541 H   0  0  0  0  0  0
  -27.7604  -24.8409   22.1896 H   0  0  0  0  0  0
  -27.0660  -23.9474   19.3618 H   0  0  0  0  0  0
  -28.5523  -23.9213   18.4157 H   0  0  0  0  0  0
  -29.7446  -25.1628   19.9750 H   0  0  0  0  0  0
  -30.0698  -17.3986   17.1605 H   0  0  0  0  0  0
  -29.5003  -15.9840   18.0349 H   0  0  0  0  0  0
  -31.1975  -16.4885   18.1555 H   0  0  0  0  0  0
  -28.9857  -18.3463   23.7542 H   0  0  0  0  0  0
  -30.0436  -17.0013   23.3553 H   0  0  0  0  0  0
  -28.2913  -16.8427   23.1385 H   0  0  0  0  0  0
  -27.2699  -21.1635   19.7182 H   0  0  0  0  0  0
  -28.5070  -21.4336   18.5526 H   0  0  0  0  0  0
  -28.9582  -15.3430   21.3754 H   0  0  0  0  0  0
  1 25  1  0  0  0
  1 30  2  0  0  0
  1 85  1  0  0  0
  2  3  1  0  0  0
  2 25  1  0  0  0
  2 87  1  0  0  0
  2 88  1  0  0  0
  3  4  1  0  0  0
  3 89  1  0  0  0
  3 90  1  0  0  0
  4  5  1  0  0  0
  4 91  1  0  0  0
  4 92  1  0  0  0
  5  6  1  0  0  0
  5 26  1  0  0  0
  5 93  1  0  0  0
  6 25  1  0  0  0
  6 94  1  0  0  0
  6 95  1  0  0  0
  7  8  2  0  0  0
  7 26  1  0  0  0
  7 29  1  0  0  0
  8  9  1  0  0  0
  8 22  1  0  0  0
  9 10  1  0  0  0
  9 27  2  0  0  0
 10 11  2  0  0  0
 10 15  1  0  0  0
 11 12  1  0  0  0
 11 96  1  0  0  0
 12 13  2  0  0  0
 12 97  1  0  0  0
 13 14  1  0  0  0
 13 31  1  0  0  0
 14 15  2  0  0  0
 14 98  1  0  0  0
 15 99  1  0  0  0
 16 17  2  0  0  0
 16 21  1  0  0  0
 16 31  1  0  0  0
 17 18  1  0  0  0
 17100  1  0  0  0
 18 19  2  0  0  0
 18101  1  0  0  0
 19 20  1  0  0  0
 19 24  1  0  0  0
 20 21  2  0  0  0
 20102  1  0  0  0
 21 23  1  0  0  0
 22 28  1  0  0  0
 22 32  2  0  0  0
 26 27  1  0  0  0
 28103  1  0  0  0
 28104  1  0  0  0
 29105  1  0  0  0
 29106  1  0  0  0
 33 34  1  0  0  0
 33 66  1  0  0  0
 33 70  2  0  0  0
 34 36  1  0  0  0
 34 59  1  0  0  0
 34107  1  0  0  0
 35 44  2  0  0  0
 35 45  1  0  0  0
 35 68  1  0  0  0
 36 56  1  0  0  0
 36108  1  0  0  0
 37 39  1  0  0  0
 37 47  1  0  0  0
 37 66  1  0  0  0
 37109  1  0  0  0
 38 43  2  0  0  0
 38 46  1  0  0  0
 38 47  1  0  0  0
 39 64  1  0  0  0
 39 67  2  0  0  0
 40 52  1  0  0  0
 40 53  2  0  0  0
 40 58  1  0  0  0
 41110  1  0  0  0
 41111  1  0  0  0
 41112  1  0  0  0
 41 48  1  0  0  0
 42 43  1  0  0  0
 42 66  1  0  0  0
 42113  1  0  0  0
 42114  1  0  0  0
 43 44  1  0  0  0
 44115  1  0  0  0
 45 46  2  0  0  0
 45116  1  0  0  0
 46117  1  0  0  0
 47118  1  0  0  0
 47119  1  0  0  0
 48 56  1  0  0  0
 48 65  1  0  0  0
 48120  1  0  0  0
 49 50  1  0  0  0
 49 53  1  0  0  0
 49 64  1  0  0  0
 49121  1  0  0  0
 50 51  1  0  0  0
 50122  1  0  0  0
 50123  1  0  0  0
 51 52  1  0  0  0
 51124  1  0  0  0
 51125  1  0  0  0
 52126  1  0  0  0
 52127  1  0  0  0
 53 54  1  0  0  0
 54 55  2  0  0  0
 54128  1  0  0  0
 55 57  1  0  0  0
 55129  1  0  0  0
 56 69  2  0  0  0
 57 58  2  0  0  0
 57130  1  0  0  0
 58131  1  0  0  0
 59 60  1  0  0  0
 59 61  1  0  0  0
 59 62  1  0  0  0
 60132  1  0  0  0
 60133  1  0  0  0
 60134  1  0  0  0
 61135  1  0  0  0
 61136  1  0  0  0
 61137  1  0  0  0
 62138  1  0  0  0
 62139  1  0  0  0
 62140  1  0  0  0
 63 65  1  0  0  0
 63141  1  0  0  0
 63142  1  0  0  0
 63143  1  0  0  0
 64144  1  0  0  0
 65145  1  0  0  0
 68 80  1  0  0  0
 71 73  2  0  0  0
 71 74  1  0  0  0
 71146  1  0  0  0
 72 73  1  0  0  0
 72 75  2  0  0  0
 72147  1  0  0  0
 73 83  1  0  0  0
 74 76  2  0  0  0
 74 81  1  0  0  0
 75 76  1  0  0  0
 75 82  1  0  0  0
 76 85  1  0  0  0
 77 78  1  0  0  0
 77 84  1  0  0  0
 77 86  2  0  0  0
 78 80  1  0  0  0
 78148  1  0  0  0
 78149  1  0  0  0
 79 80  1  0  0  0
 79 84  1  0  0  0
 79150  1  0  0  0
 79151  1  0  0  0
 80152  1  0  0  0
 81153  1  0  0  0
 81154  1  0  0  0
 81155  1  0  0  0
 82156  1  0  0  0
 82157  1  0  0  0
 82158  1  0  0  0
 83 84  1  0  0  0
 83159  1  0  0  0
 83160  1  0  0  0
 85161  1  0  0  0
M  ISO  4   1 100  68 101  80 101  85 100
M  END
> <chiral flag>
0

> <version>
0

> <s_m_source_file>
/data/baiqing/PycharmProjects/Reinvent-master-3.2/result/LINK_invent/BTK/process_docking_weight1_custom_product_contain_oxygen_bond_distance_aromatic_linkinvent_7_9_3/rearranged_h_0030.sdf

> <i_m_source_file_index>
81

> <r_mmod_Potential_Energy-OPLS-2005>
106.33699798584

> <r_mmod_Stretch_Energy-OPLS-2005>
83.5683670043945

> <r_mmod_Bend_Energy-OPLS-2005>
250.314697265625

> <r_mmod_Torsional_Energy-OPLS-2005>
260.665344238281

> <r_mmod_Improper_Torsional_Energy-OPLS-2005>
7.78518342971802

> <r_mmod_Van_der_Waal_Energy-OPLS-2005>
129.375106811523

> <r_mmod_Electrostatic_Energy-OPLS-2005>
-433.764068603516

> <r_mmod_Solvation_Energy-OPLS-2005>
-237.065689086914

> <b_mmod_Minimization_Converged-OPLS-2005>
0

> <r_mmod_RMS_Derivative-OPLS-2005>
2.89392447471619

$$$$
81
                    3D
 Structure written by MMmdl.
166175  0  0  1  0            999 V2000
  -30.6413  -14.6300   20.4839 C   0  0  0  0  0  0
  -30.4261  -12.3794   19.4648 C   0  0  0  0  0  0
  -29.5039  -12.4948   18.2312 C   0  0  0  0  0  0
  -28.0275  -12.3374   18.6432 C   0  0  0  0  0  0
  -27.6494  -13.2194   19.8633 C   0  0  2  0  0  0
  -28.6926  -13.0974   20.9975 C   0  0  0  0  0  0
  -25.2534  -13.8181   20.5696 C   0  0  0  0  0  0
  -24.1811  -13.0438   20.9200 C   0  0  0  0  0  0
  -24.6388  -11.6912   20.8754 C   0  0  0  0  0  0
  -23.9062  -10.4289   21.0413 C   0  0  0  0  0  0
  -24.3612   -9.4206   21.9194 C   0  0  0  0  0  0
  -23.6289   -8.2241   22.0758 C   0  0  0  0  0  0
  -22.4272   -8.0278   21.3544 C   0  0  0  0  0  0
  -21.9911   -9.0252   20.4646 C   0  0  0  0  0  0
  -22.7238  -10.2133   20.3059 C   0  0  0  0  0  0
  -21.6850   -6.0733   22.5278 C   0  0  0  0  0  0
  -21.4014   -6.5638   23.8214 C   0  0  0  0  0  0
  -21.3661   -5.6790   24.9174 C   0  0  0  0  0  0
  -21.6043   -4.3051   24.7224 C   0  0  0  0  0  0
  -21.8819   -3.8147   23.4344 C   0  0  0  0  0  0
  -21.9192   -4.6964   22.3400 C   0  0  0  0  0  0
  -22.7833  -13.5229   21.1866 C   0  0  0  0  0  0
  -22.1660   -4.2152   21.0977 F   0  0  0  0  0  0
  -21.5631   -3.4536   25.7737 F   0  0  0  0  0  0
  -30.0075  -13.4183   20.4274 N   0  0  0  0  0  0
  -26.2964  -12.9372   20.3335 N   0  0  0  0  0  0
  -25.9317  -11.6522   20.5779 N   0  0  0  0  0  0
  -22.0482  -12.8208   22.0415 N   0  0  0  0  0  0
  -25.4232  -15.1901   20.4106 N   0  0  0  0  0  0
  -31.8125  -14.7541   20.1173 O   0  0  0  0  0  0
  -21.6635   -6.8877   21.4240 O   0  0  0  0  0  0
  -22.3522  -14.5545   20.6726 O   0  0  0  0  0  0
  -24.6237  -31.8599   23.2033 C   0  0  0  0  0  0
  -25.9092  -32.4777   23.8355 C   0  0  1  0  0  0
  -27.2152  -27.3204   20.1171 C   0  0  0  0  0  0
  -25.5907  -33.8579   24.2280 N   0  0  0  0  0  0
  -23.4165  -30.4835   21.5449 C   0  0  2  0  0  0
  -24.8617  -28.9410   20.1070 C   0  0  0  0  0  0
  -22.7460  -29.4618   22.4933 C   0  0  0  0  0  0
  -18.0283  -28.1385   22.8482 C   0  0  0  0  0  0
  -24.1488  -36.7294   23.2643 C   0  0  0  0  0  0
  -25.9567  -30.7906   21.3747 C   0  0  0  0  0  0
  -26.0286  -29.4190   20.7155 C   0  0  0  0  0  0
  -27.2069  -28.6184   20.7133 C   0  0  0  0  0  0
  -26.0318  -26.9007   19.4703 C   0  0  0  0  0  0
  -24.8648  -27.6872   19.4766 C   0  0  0  0  0  0
  -23.6297  -29.8198   20.1592 C   0  0  0  0  0  0
  -25.4113  -36.3085   24.0333 C   0  0  1  0  0  0
  -20.5881  -28.3684   23.1288 C   0  0  2  0  0  0
  -20.6772  -26.9407   22.5412 C   0  0  0  0  0  0
  -19.5750  -26.6385   21.5209 C   0  0  0  0  0  0
  -18.1927  -26.7930   22.1614 C   0  0  0  0  0  0
  -19.1535  -28.8849   23.2882 C   0  0  0  0  0  0
  -18.9458  -30.1449   23.8904 C   0  0  0  0  0  0
  -17.6463  -30.6584   24.0566 C   0  0  0  0  0  0
  -25.9047  -34.9452   23.5111 C   0  0  0  0  0  0
  -16.5354  -29.9081   23.6337 C   0  0  0  0  0  0
  -16.7273  -28.6502   23.0356 C   0  0  0  0  0  0
  -26.4487  -31.6587   25.0717 C   0  0  0  0  0  0
  -25.3730  -31.3695   26.1445 C   0  0  0  0  0  0
  -27.0348  -30.3025   24.6159 C   0  0  0  0  0  0
  -27.6046  -32.4333   25.7481 C   0  0  0  0  0  0
  -27.5582  -37.1799   24.8466 C   0  0  0  0  0  0
  -21.4179  -29.3038   22.3683 N   0  0  0  0  0  0
  -26.4295  -37.3775   23.9410 N   0  0  0  0  0  0
  -24.6844  -31.0611   22.0981 N   0  0  0  0  0  0
  -23.4191  -28.8160   23.3008 O   0  0  0  0  0  0
  -28.3379  -26.4858   20.1944 O   0  0  0  0  0  0
  -26.5618  -34.8914   22.4680 O   0  0  0  0  0  0
  -23.5402  -32.1403   23.7364 O   0  0  0  0  0  0
  -28.8962  -19.3809   23.3243 C   0  0  0  0  0  0
  -29.3314  -19.6425   20.5906 C   0  0  0  0  0  0
  -29.3854  -18.2689   22.6116 C   0  0  0  0  0  0
  -28.6266  -20.6174   22.7044 C   0  0  0  0  0  0
  -29.5992  -18.3634   21.2118 C   0  0  0  0  0  0
  -28.8248  -20.7880   21.3059 C   0  0  0  0  0  0
  -27.2728  -22.7165   20.8135 C   0  0  0  0  0  0
  -26.1170  -22.0282   20.8221 C   0  0  0  0  0  0
  -27.2728  -24.2610   20.9388 C   0  0  0  0  0  0
  -29.6065  -24.3104   20.1608 C   0  0  0  0  0  0
  -29.5793  -22.7530   19.9548 C   0  0  0  0  0  0
  -28.2350  -25.0197   19.9782 C   0  0  2  0  0  0
  -29.7129  -17.0168   23.4108 C   0  0  0  0  0  0
  -28.1557  -21.7536   23.6025 C   0  0  0  0  0  0
  -30.2057  -17.1624   20.3967 C   0  0  0  0  0  0
  -28.5152  -22.0653   20.7051 N   0  0  0  0  0  0
  -29.8666  -15.7322   20.7277 N   0  0  0  0  0  0
  -31.4717  -12.4834   19.1684 H   0  0  0  0  0  0
  -30.3418  -11.3907   19.9181 H   0  0  0  0  0  0
  -29.7670  -11.7376   17.4915 H   0  0  0  0  0  0
  -29.6500  -13.4617   17.7467 H   0  0  0  0  0  0
  -27.8663  -11.2865   18.8859 H   0  0  0  0  0  0
  -27.3725  -12.5570   17.7999 H   0  0  0  0  0  0
  -27.6624  -14.2497   19.5095 H   0  0  0  0  0  0
  -28.6978  -12.0879   21.4105 H   0  0  0  0  0  0
  -28.4459  -13.7612   21.8275 H   0  0  0  0  0  0
  -25.2755   -9.5687   22.4769 H   0  0  0  0  0  0
  -24.0000   -7.4635   22.7479 H   0  0  0  0  0  0
  -21.0845   -8.8769   19.8948 H   0  0  0  0  0  0
  -22.3698  -10.9673   19.6167 H   0  0  0  0  0  0
  -21.2004   -7.6144   23.9720 H   0  0  0  0  0  0
  -21.1485   -6.0516   25.9078 H   0  0  0  0  0  0
  -22.0596   -2.7608   23.2840 H   0  0  0  0  0  0
  -22.4089  -11.9845   22.4763 H   0  0  0  0  0  0
  -21.1109  -13.1244   22.2652 H   0  0  0  0  0  0
  -24.6543  -15.8422   20.5208 H   0  0  0  0  0  0
  -26.2694  -15.6331   20.0761 H   0  0  0  0  0  0
  -26.7148  -32.5450   23.1092 H   0  0  0  0  0  0
  -25.0055  -33.9733   25.0424 H   0  0  0  0  0  0
  -22.7096  -31.3037   21.4024 H   0  0  0  0  0  0
  -23.3755  -35.9620   23.3308 H   0  0  0  0  0  0
  -24.3577  -36.8917   22.2055 H   0  0  0  0  0  0
  -23.7235  -37.6493   23.6669 H   0  0  0  0  0  0
  -26.0884  -31.5539   20.6071 H   0  0  0  0  0  0
  -26.8376  -30.8372   22.0037 H   0  0  0  0  0  0
  -28.1014  -28.9737   21.2060 H   0  0  0  0  0  0
  -25.9808  -25.9452   18.9700 H   0  0  0  0  0  0
  -23.9706  -27.3180   18.9928 H   0  0  0  0  0  0
  -23.7459  -30.5971   19.4026 H   0  0  0  0  0  0
  -22.7500  -29.2477   19.8582 H   0  0  0  0  0  0
  -25.1289  -36.1942   25.0825 H   0  0  0  0  0  0
  -20.9971  -28.3262   24.1410 H   0  0  0  0  0  0
  -20.5676  -26.2290   23.3606 H   0  0  0  0  0  0
  -21.6642  -26.7443   22.1201 H   0  0  0  0  0  0
  -19.6921  -25.6296   21.1235 H   0  0  0  0  0  0
  -19.6701  -27.3200   20.6743 H   0  0  0  0  0  0
  -17.4200  -26.6691   21.4009 H   0  0  0  0  0  0
  -18.0324  -26.0062   22.8997 H   0  0  0  0  0  0
  -19.7934  -30.7262   24.2282 H   0  0  0  0  0  0
  -17.5015  -31.6266   24.5160 H   0  0  0  0  0  0
  -15.5354  -30.2985   23.7662 H   0  0  0  0  0  0
  -15.8672  -28.0825   22.7074 H   0  0  0  0  0  0
  -24.5938  -30.6997   25.7779 H   0  0  0  0  0  0
  -24.8867  -32.2836   26.4863 H   0  0  0  0  0  0
  -25.8066  -30.8897   27.0228 H   0  0  0  0  0  0
  -26.2923  -29.6751   24.1213 H   0  0  0  0  0  0
  -27.4102  -29.7291   25.4647 H   0  0  0  0  0  0
  -27.8759  -30.4331   23.9348 H   0  0  0  0  0  0
  -27.2668  -33.3658   26.2021 H   0  0  0  0  0  0
  -28.3868  -32.6861   25.0306 H   0  0  0  0  0  0
  -28.0700  -31.8480   26.5423 H   0  0  0  0  0  0
  -28.2592  -38.0103   24.7525 H   0  0  0  0  0  0
  -28.1089  -36.2635   24.6284 H   0  0  0  0  0  0
  -27.2300  -37.1438   25.8868 H   0  0  0  0  0  0
  -20.9354  -29.8763   21.6900 H   0  0  0  0  0  0
  -26.0183  -38.2854   24.1408 H   0  0  0  0  0  0
  -28.7438  -19.2911   24.3915 H   0  0  0  0  0  0
  -29.5061  -19.7434   19.5287 H   0  0  0  0  0  0
  -25.1620  -22.5273   20.9090 H   0  0  0  0  0  0
  -26.0981  -20.9500   20.7414 H   0  0  0  0  0  0
  -27.5268  -24.5086   21.9701 H   0  0  0  0  0  0
  -26.2521  -24.6137   20.8023 H   0  0  0  0  0  0
  -30.3320  -24.7452   19.4733 H   0  0  0  0  0  0
  -29.9807  -24.5242   21.1622 H   0  0  0  0  0  0
  -30.5512  -22.3344   20.2202 H   0  0  0  0  0  0
  -29.4314  -22.5368   18.8959 H   0  0  0  0  0  0
  -27.9175  -24.8507   18.9489 H   0  0  0  0  0  0
  -29.7083  -17.2138   24.4832 H   0  0  0  0  0  0
  -30.7061  -16.6433   23.1614 H   0  0  0  0  0  0
  -28.9802  -16.2324   23.2221 H   0  0  0  0  0  0
  -28.3816  -21.5551   24.6505 H   0  0  0  0  0  0
  -27.0774  -21.8855   23.5181 H   0  0  0  0  0  0
  -28.6442  -22.6922   23.3409 H   0  0  0  0  0  0
  -31.2891  -17.2811   20.4491 H   0  0  0  0  0  0
  -29.9513  -17.3091   19.3460 H   0  0  0  0  0  0
  -28.9114  -15.5528   20.9950 H   0  0  0  0  0  0
  1 25  1  0  0  0
  1 30  2  0  0  0
  1 87  1  0  0  0
  2  3  1  0  0  0
  2 25  1  0  0  0
  2 88  1  0  0  0
  2 89  1  0  0  0
  3  4  1  0  0  0
  3 90  1  0  0  0
  3 91  1  0  0  0
  4  5  1  0  0  0
  4 92  1  0  0  0
  4 93  1  0  0  0
  5  6  1  0  0  0
  5 26  1  0  0  0
  5 94  1  0  0  0
  6 25  1  0  0  0
  6 95  1  0  0  0
  6 96  1  0  0  0
  7  8  2  0  0  0
  7 26  1  0  0  0
  7 29  1  0  0  0
  8  9  1  0  0  0
  8 22  1  0  0  0
  9 10  1  0  0  0
  9 27  2  0  0  0
 10 11  2  0  0  0
 10 15  1  0  0  0
 11 12  1  0  0  0
 11 97  1  0  0  0
 12 13  2  0  0  0
 12 98  1  0  0  0
 13 14  1  0  0  0
 13 31  1  0  0  0
 14 15  2  0  0  0
 14 99  1  0  0  0
 15100  1  0  0  0
 16 17  2  0  0  0
 16 21  1  0  0  0
 16 31  1  0  0  0
 17 18  1  0  0  0
 17101  1  0  0  0
 18 19  2  0  0  0
 18102  1  0  0  0
 19 20  1  0  0  0
 19 24  1  0  0  0
 20 21  2  0  0  0
 20103  1  0  0  0
 21 23  1  0  0  0
 22 28  1  0  0  0
 22 32  2  0  0  0
 26 27  1  0  0  0
 28104  1  0  0  0
 28105  1  0  0  0
 29106  1  0  0  0
 29107  1  0  0  0
 33 34  1  0  0  0
 33 66  1  0  0  0
 33 70  2  0  0  0
 34 36  1  0  0  0
 34 59  1  0  0  0
 34108  1  0  0  0
 35 44  2  0  0  0
 35 45  1  0  0  0
 35 68  1  0  0  0
 36 56  1  0  0  0
 36109  1  0  0  0
 37 39  1  0  0  0
 37 47  1  0  0  0
 37 66  1  0  0  0
 37110  1  0  0  0
 38 43  2  0  0  0
 38 46  1  0  0  0
 38 47  1  0  0  0
 39 64  1  0  0  0
 39 67  2  0  0  0
 40 52  1  0  0  0
 40 53  2  0  0  0
 40 58  1  0  0  0
 41111  1  0  0  0
 41112  1  0  0  0
 41113  1  0  0  0
 41 48  1  0  0  0
 42 43  1  0  0  0
 42 66  1  0  0  0
 42114  1  0  0  0
 42115  1  0  0  0
 43 44  1  0  0  0
 44116  1  0  0  0
 45 46  2  0  0  0
 45117  1  0  0  0
 46118  1  0  0  0
 47119  1  0  0  0
 47120  1  0  0  0
 48 56  1  0  0  0
 48 65  1  0  0  0
 48121  1  0  0  0
 49 50  1  0  0  0
 49 53  1  0  0  0
 49 64  1  0  0  0
 49122  1  0  0  0
 50 51  1  0  0  0
 50123  1  0  0  0
 50124  1  0  0  0
 51 52  1  0  0  0
 51125  1  0  0  0
 51126  1  0  0  0
 52127  1  0  0  0
 52128  1  0  0  0
 53 54  1  0  0  0
 54 55  2  0  0  0
 54129  1  0  0  0
 55 57  1  0  0  0
 55130  1  0  0  0
 56 69  2  0  0  0
 57 58  2  0  0  0
 57131  1  0  0  0
 58132  1  0  0  0
 59 60  1  0  0  0
 59 61  1  0  0  0
 59 62  1  0  0  0
 60133  1  0  0  0
 60134  1  0  0  0
 60135  1  0  0  0
 61136  1  0  0  0
 61137  1  0  0  0
 61138  1  0  0  0
 62139  1  0  0  0
 62140  1  0  0  0
 62141  1  0  0  0
 63 65  1  0  0  0
 63142  1  0  0  0
 63143  1  0  0  0
 63144  1  0  0  0
 64145  1  0  0  0
 65146  1  0  0  0
 68 82  1  0  0  0
 71 73  2  0  0  0
 71 74  1  0  0  0
 71147  1  0  0  0
 72 75  2  0  0  0
 72 76  1  0  0  0
 72148  1  0  0  0
 73 75  1  0  0  0
 73 83  1  0  0  0
 74 76  2  0  0  0
 74 84  1  0  0  0
 75 85  1  0  0  0
 76 86  1  0  0  0
 77 78  2  0  0  0
 77 79  1  0  0  0
 77 86  1  0  0  0
 78149  1  0  0  0
 78150  1  0  0  0
 79 82  1  0  0  0
 79151  1  0  0  0
 79152  1  0  0  0
 80 81  1  0  0  0
 80 82  1  0  0  0
 80153  1  0  0  0
 80154  1  0  0  0
 81 86  1  0  0  0
 81155  1  0  0  0
 81156  1  0  0  0
 82157  1  0  0  0
 83158  1  0  0  0
 83159  1  0  0  0
 83160  1  0  0  0
 84161  1  0  0  0
 84162  1  0  0  0
 84163  1  0  0  0
 85 87  1  0  0  0
 85164  1  0  0  0
 85165  1  0  0  0
 87166  1  0  0  0
M  ISO  4   1 100  68 101  82 101  87 100
M  END
> <chiral flag>
0

> <version>
0

> <s_m_source_file>
/data/baiqing/PycharmProjects/Reinvent-master-3.2/result/LINK_invent/BTK/process_docking_weight1_custom_product_contain_oxygen_bond_distance_aromatic_linkinvent_7_9_3/rearranged_h_0030.sdf

> <i_m_source_file_index>
82

> <r_mmod_Potential_Energy-OPLS-2005>
3.93965315818787

> <r_mmod_Stretch_Energy-OPLS-2005>
79.8232192993164

> <r_mmod_Bend_Energy-OPLS-2005>
134.33171081543

> <r_mmod_Torsional_Energy-OPLS-2005>
239.401489257812

> <r_mmod_Improper_Torsional_Energy-OPLS-2005>
6.12073087692261

> <r_mmod_Van_der_Waal_Energy-OPLS-2005>
154.823104858398

> <r_mmod_Electrostatic_Energy-OPLS-2005>
-459.085205078125

> <r_mmod_Solvation_Energy-OPLS-2005>
-199.643112182617

> <b_mmod_Minimization_Converged-OPLS-2005>
0

> <r_mmod_RMS_Derivative-OPLS-2005>
1.08398067951202

$$$$
82
                    3D
 Structure written by MMmdl.
159168  0  0  1  0            999 V2000
  -30.5872  -14.7199   20.4678 C   0  0  0  0  0  0
  -30.4446  -12.4381   19.4611 C   0  0  0  0  0  0
  -29.5131  -12.5104   18.2295 C   0  0  0  0  0  0
  -28.0380  -12.3336   18.6428 C   0  0  0  0  0  0
  -27.6486  -13.2202   19.8551 C   0  0  2  0  0  0
  -28.6946  -13.1120   20.9870 C   0  0  0  0  0  0
  -25.2549  -13.8172   20.5689 C   0  0  0  0  0  0
  -24.1823  -13.0434   20.9198 C   0  0  0  0  0  0
  -24.6393  -11.6906   20.8734 C   0  0  0  0  0  0
  -23.9060  -10.4289   21.0400 C   0  0  0  0  0  0
  -24.3611   -9.4207   21.9181 C   0  0  0  0  0  0
  -23.6286   -8.2243   22.0753 C   0  0  0  0  0  0
  -22.4269   -8.0280   21.3543 C   0  0  0  0  0  0
  -21.9900   -9.0253   20.4647 C   0  0  0  0  0  0
  -22.7228  -10.2132   20.3056 C   0  0  0  0  0  0
  -21.6854   -6.0730   22.5278 C   0  0  0  0  0  0
  -21.4014   -6.5634   23.8209 C   0  0  0  0  0  0
  -21.3660   -5.6788   24.9173 C   0  0  0  0  0  0
  -21.6045   -4.3051   24.7227 C   0  0  0  0  0  0
  -21.8819   -3.8142   23.4346 C   0  0  0  0  0  0
  -21.9193   -4.6956   22.3403 C   0  0  0  0  0  0
  -22.7846  -13.5231   21.1860 C   0  0  0  0  0  0
  -22.1663   -4.2142   21.0979 F   0  0  0  0  0  0
  -21.5630   -3.4535   25.7738 F   0  0  0  0  0  0
  -30.0007  -13.4762   20.4166 N   0  0  0  0  0  0
  -26.2969  -12.9357   20.3281 N   0  0  0  0  0  0
  -25.9319  -11.6511   20.5735 N   0  0  0  0  0  0
  -22.0483  -12.8229   22.0415 N   0  0  0  0  0  0
  -25.4252  -15.1898   20.4118 N   0  0  0  0  0  0
  -31.7696  -14.8577   20.1471 O   0  0  0  0  0  0
  -21.6639   -6.8873   21.4239 O   0  0  0  0  0  0
  -22.3536  -14.5538   20.6705 O   0  0  0  0  0  0
  -24.6310  -31.8568   23.1994 C   0  0  0  0  0  0
  -25.9137  -32.4763   23.8339 C   0  0  1  0  0  0
  -27.2226  -27.2733   20.1143 C   0  0  0  0  0  0
  -25.5937  -33.8564   24.2265 N   0  0  0  0  0  0
  -23.4263  -30.4808   21.5443 C   0  0  2  0  0  0
  -24.8710  -28.9295   20.1137 C   0  0  0  0  0  0
  -22.7499  -29.4612   22.4927 C   0  0  0  0  0  0
  -18.0290  -28.1389   22.8484 C   0  0  0  0  0  0
  -24.1491  -36.7285   23.2639 C   0  0  0  0  0  0
  -25.9728  -30.7727   21.3771 C   0  0  0  0  0  0
  -26.0447  -29.3965   20.7176 C   0  0  0  0  0  0
  -27.2215  -28.5814   20.7063 C   0  0  0  0  0  0
  -26.0131  -26.8652   19.5026 C   0  0  0  0  0  0
  -24.8596  -27.6706   19.4989 C   0  0  0  0  0  0
  -23.6429  -29.8164   20.1604 C   0  0  0  0  0  0
  -25.4117  -36.3073   24.0326 C   0  0  1  0  0  0
  -20.5893  -28.3700   23.1274 C   0  0  2  0  0  0
  -20.6778  -26.9418   22.5409 C   0  0  0  0  0  0
  -19.5752  -26.6385   21.5214 C   0  0  0  0  0  0
  -18.1933  -26.7931   22.1628 C   0  0  0  0  0  0
  -19.1543  -28.8862   23.2873 C   0  0  0  0  0  0
  -18.9463  -30.1462   23.8895 C   0  0  0  0  0  0
  -17.6461  -30.6590   24.0561 C   0  0  0  0  0  0
  -25.9058  -34.9443   23.5097 C   0  0  0  0  0  0
  -16.5353  -29.9086   23.6331 C   0  0  0  0  0  0
  -16.7275  -28.6503   23.0355 C   0  0  0  0  0  0
  -26.4507  -31.6584   25.0724 C   0  0  0  0  0  0
  -25.3729  -31.3728   26.1444 C   0  0  0  0  0  0
  -27.0357  -30.3002   24.6204 C   0  0  0  0  0  0
  -27.6060  -32.4327   25.7501 C   0  0  0  0  0  0
  -27.5579  -37.1799   24.8466 C   0  0  0  0  0  0
  -21.4208  -29.3048   22.3665 N   0  0  0  0  0  0
  -26.4294  -37.3768   23.9405 N   0  0  0  0  0  0
  -24.6960  -31.0541   22.0967 N   0  0  0  0  0  0
  -23.4203  -28.8148   23.3018 O   0  0  0  0  0  0
  -28.3431  -26.4092   20.1514 O   0  0  0  0  0  0
  -26.5628  -34.8914   22.4665 O   0  0  0  0  0  0
  -23.5463  -32.1388   23.7295 O   0  0  0  0  0  0
  -28.7036  -19.3927   21.4910 C   0  0  0  0  0  0
  -28.8236  -17.9676   21.4707 C   0  0  0  0  0  0
  -30.4447  -19.5476   19.8685 C   0  0  0  0  0  0
  -29.5250  -20.2483   20.7078 C   0  0  0  0  0  0
  -29.7693  -17.2608   20.6725 C   0  0  0  0  0  0
  -30.5609  -18.1112   19.8286 C   0  0  0  0  0  0
  -29.5043  -24.1297   19.6508 C   0  0  0  0  0  0
  -33.1474  -24.0508   18.8633 C   0  0  0  0  0  0
  -30.7681  -24.4393   19.2967 C   0  0  0  0  0  0
  -31.9268  -23.5768   19.1575 C   0  0  0  0  0  0
  -27.8798  -23.8080   20.6773 C   0  0  0  0  0  0
  -28.2318  -24.9837   19.6926 C   0  0  1  0  0  0
  -29.5543  -21.8307   20.9565 C   0  0  0  0  0  0
  -29.7384  -15.7750   20.7504 N   0  0  0  0  0  0
  -28.8708  -22.8639   20.0482 N   0  3  2  0  0  0
  -31.6705  -17.4587   18.6777 Cl  0  0  0  0  0  0
  -31.4830  -12.5790   19.1563 H   0  0  0  0  0  0
  -30.3993  -11.4508   19.9233 H   0  0  0  0  0  0
  -29.7902  -11.7476   17.5007 H   0  0  0  0  0  0
  -29.6404  -13.4715   17.7287 H   0  0  0  0  0  0
  -27.8908  -11.2823   18.8936 H   0  0  0  0  0  0
  -27.3812  -12.5391   17.7967 H   0  0  0  0  0  0
  -27.6533  -14.2478   19.4915 H   0  0  0  0  0  0
  -28.7256  -12.0969   21.3862 H   0  0  0  0  0  0
  -28.4297  -13.7553   21.8273 H   0  0  0  0  0  0
  -25.2755   -9.5685   22.4754 H   0  0  0  0  0  0
  -23.9994   -7.4636   22.7474 H   0  0  0  0  0  0
  -21.0829   -8.8771   19.8956 H   0  0  0  0  0  0
  -22.3682  -10.9670   19.6167 H   0  0  0  0  0  0
  -21.2006   -7.6142   23.9711 H   0  0  0  0  0  0
  -21.1485   -6.0518   25.9074 H   0  0  0  0  0  0
  -22.0597   -2.7603   23.2851 H   0  0  0  0  0  0
  -22.4092  -11.9890   22.4810 H   0  0  0  0  0  0
  -21.1106  -13.1266   22.2621 H   0  0  0  0  0  0
  -24.6533  -15.8391   20.5183 H   0  0  0  0  0  0
  -26.2645  -15.6297   20.0572 H   0  0  0  0  0  0
  -26.7202  -32.5415   23.1081 H   0  0  0  0  0  0
  -25.0079  -33.9703   25.0407 H   0  0  0  0  0  0
  -22.7216  -31.3025   21.3999 H   0  0  0  0  0  0
  -23.3750  -35.9622   23.3315 H   0  0  0  0  0  0
  -24.3575  -36.8892   22.2050 H   0  0  0  0  0  0
  -23.7252  -37.6494   23.6656 H   0  0  0  0  0  0
  -26.1104  -31.5344   20.6084 H   0  0  0  0  0  0
  -26.8507  -30.8207   22.0099 H   0  0  0  0  0  0
  -28.1225  -28.9391   21.1845 H   0  0  0  0  0  0
  -25.9050  -25.9024   19.0314 H   0  0  0  0  0  0
  -23.9568  -27.3028   19.0304 H   0  0  0  0  0  0
  -23.7682  -30.5934   19.4055 H   0  0  0  0  0  0
  -22.7606  -29.2514   19.8545 H   0  0  0  0  0  0
  -25.1298  -36.1925   25.0820 H   0  0  0  0  0  0
  -20.9981  -28.3278   24.1396 H   0  0  0  0  0  0
  -20.5684  -26.2308   23.3611 H   0  0  0  0  0  0
  -21.6645  -26.7444   22.1199 H   0  0  0  0  0  0
  -19.6911  -25.6296   21.1245 H   0  0  0  0  0  0
  -19.6687  -27.3195   20.6743 H   0  0  0  0  0  0
  -17.4198  -26.6674   21.4035 H   0  0  0  0  0  0
  -18.0335  -26.0079   22.9032 H   0  0  0  0  0  0
  -19.7939  -30.7278   24.2266 H   0  0  0  0  0  0
  -17.5016  -31.6270   24.5162 H   0  0  0  0  0  0
  -15.5354  -30.2986   23.7658 H   0  0  0  0  0  0
  -15.8676  -28.0818   22.7078 H   0  0  0  0  0  0
  -24.5910  -30.7071   25.7769 H   0  0  0  0  0  0
  -24.8916  -32.2896   26.4859 H   0  0  0  0  0  0
  -25.8048  -30.8912   27.0226 H   0  0  0  0  0  0
  -26.2941  -29.6748   24.1222 H   0  0  0  0  0  0
  -27.4036  -29.7266   25.4722 H   0  0  0  0  0  0
  -27.8820  -30.4280   23.9449 H   0  0  0  0  0  0
  -27.2659  -33.3620   26.2087 H   0  0  0  0  0  0
  -28.3868  -32.6903   25.0332 H   0  0  0  0  0  0
  -28.0737  -31.8453   26.5413 H   0  0  0  0  0  0
  -28.2600  -38.0091   24.7502 H   0  0  0  0  0  0
  -28.1070  -36.2621   24.6309 H   0  0  0  0  0  0
  -27.2291  -37.1464   25.8868 H   0  0  0  0  0  0
  -20.9394  -29.8774   21.6873 H   0  0  0  0  0  0
  -26.0175  -38.2843   24.1403 H   0  0  0  0  0  0
  -27.9870  -19.8316   22.1725 H   0  0  0  0  0  0
  -28.1634  -17.4040   22.1152 H   0  0  0  0  0  0
  -31.1131  -20.1217   19.2428 H   0  0  0  0  0  0
  -33.9918  -23.3843   18.7559 H   0  0  0  0  0  0
  -33.3300  -25.1074   18.7228 H   0  0  0  0  0  0
  -30.9152  -25.4777   19.0326 H   0  0  0  0  0  0
  -31.8246  -22.5080   19.2742 H   0  0  0  0  0  0
  -26.8514  -23.4559   20.5974 H   0  0  0  0  0  0
  -28.1156  -24.0538   21.7155 H   0  0  0  0  0  0
  -27.6981  -24.9126   18.7452 H   0  0  0  0  0  0
  -30.6002  -22.1076   21.0666 H   0  0  0  0  0  0
  -29.1570  -21.9829   21.9598 H   0  0  0  0  0  0
  -28.8573  -15.4240   21.0902 H   0  0  0  0  0  0
  -28.4680  -22.4065   19.2450 H   0  0  0  0  0  0
  1 25  1  0  0  0
  1 30  2  0  0  0
  1 84  1  0  0  0
  2  3  1  0  0  0
  2 25  1  0  0  0
  2 87  1  0  0  0
  2 88  1  0  0  0
  3  4  1  0  0  0
  3 89  1  0  0  0
  3 90  1  0  0  0
  4  5  1  0  0  0
  4 91  1  0  0  0
  4 92  1  0  0  0
  5  6  1  0  0  0
  5 26  1  0  0  0
  5 93  1  0  0  0
  6 25  1  0  0  0
  6 94  1  0  0  0
  6 95  1  0  0  0
  7  8  2  0  0  0
  7 26  1  0  0  0
  7 29  1  0  0  0
  8  9  1  0  0  0
  8 22  1  0  0  0
  9 10  1  0  0  0
  9 27  2  0  0  0
 10 11  2  0  0  0
 10 15  1  0  0  0
 11 12  1  0  0  0
 11 96  1  0  0  0
 12 13  2  0  0  0
 12 97  1  0  0  0
 13 14  1  0  0  0
 13 31  1  0  0  0
 14 15  2  0  0  0
 14 98  1  0  0  0
 15 99  1  0  0  0
 16 17  2  0  0  0
 16 21  1  0  0  0
 16 31  1  0  0  0
 17 18  1  0  0  0
 17100  1  0  0  0
 18 19  2  0  0  0
 18101  1  0  0  0
 19 20  1  0  0  0
 19 24  1  0  0  0
 20 21  2  0  0  0
 20102  1  0  0  0
 21 23  1  0  0  0
 22 28  1  0  0  0
 22 32  2  0  0  0
 26 27  1  0  0  0
 28103  1  0  0  0
 28104  1  0  0  0
 29105  1  0  0  0
 29106  1  0  0  0
 33 34  1  0  0  0
 33 66  1  0  0  0
 33 70  2  0  0  0
 34 36  1  0  0  0
 34 59  1  0  0  0
 34107  1  0  0  0
 35 44  2  0  0  0
 35 45  1  0  0  0
 35 68  1  0  0  0
 36 56  1  0  0  0
 36108  1  0  0  0
 37 39  1  0  0  0
 37 47  1  0  0  0
 37 66  1  0  0  0
 37109  1  0  0  0
 38 43  2  0  0  0
 38 46  1  0  0  0
 38 47  1  0  0  0
 39 64  1  0  0  0
 39 67  2  0  0  0
 40 52  1  0  0  0
 40 53  2  0  0  0
 40 58  1  0  0  0
 41110  1  0  0  0
 41111  1  0  0  0
 41112  1  0  0  0
 41 48  1  0  0  0
 42 43  1  0  0  0
 42 66  1  0  0  0
 42113  1  0  0  0
 42114  1  0  0  0
 43 44  1  0  0  0
 44115  1  0  0  0
 45 46  2  0  0  0
 45116  1  0  0  0
 46117  1  0  0  0
 47118  1  0  0  0
 47119  1  0  0  0
 48 56  1  0  0  0
 48 65  1  0  0  0
 48120  1  0  0  0
 49 50  1  0  0  0
 49 53  1  0  0  0
 49 64  1  0  0  0
 49121  1  0  0  0
 50 51  1  0  0  0
 50122  1  0  0  0
 50123  1  0  0  0
 51 52  1  0  0  0
 51124  1  0  0  0
 51125  1  0  0  0
 52126  1  0  0  0
 52127  1  0  0  0
 53 54  1  0  0  0
 54 55  2  0  0  0
 54128  1  0  0  0
 55 57  1  0  0  0
 55129  1  0  0  0
 56 69  2  0  0  0
 57 58  2  0  0  0
 57130  1  0  0  0
 58131  1  0  0  0
 59 60  1  0  0  0
 59 61  1  0  0  0
 59 62  1  0  0  0
 60132  1  0  0  0
 60133  1  0  0  0
 60134  1  0  0  0
 61135  1  0  0  0
 61136  1  0  0  0
 61137  1  0  0  0
 62138  1  0  0  0
 62139  1  0  0  0
 62140  1  0  0  0
 63 65  1  0  0  0
 63141  1  0  0  0
 63142  1  0  0  0
 63143  1  0  0  0
 64144  1  0  0  0
 65145  1  0  0  0
 68 82  1  0  0  0
 71 72  2  0  0  0
 71 74  1  0  0  0
 71146  1  0  0  0
 72 75  1  0  0  0
 72147  1  0  0  0
 73 74  2  0  0  0
 73 76  1  0  0  0
 73148  1  0  0  0
 74 83  1  0  0  0
 75 76  2  0  0  0
 75 84  1  0  0  0
 76 86  1  0  0  0
 77 79  2  0  0  0
 77 82  1  0  0  0
 77 85  1  0  0  0
 78 80  2  0  0  0
 78149  1  0  0  0
 78150  1  0  0  0
 79 80  1  0  0  0
 79151  1  0  0  0
 80152  1  0  0  0
 81 82  1  0  0  0
 81 85  1  0  0  0
 81153  1  0  0  0
 81154  1  0  0  0
 82155  1  0  0  0
 83156  1  0  0  0
 83157  1  0  0  0
 83 85  1  0  0  0
 84158  1  0  0  0
 85159  1  0  0  0
M  CHG  1  85   1
M  ISO  4   1 100  68 101  82 101  84 100
M  END
> <chiral flag>
0

> <version>
0

> <s_m_source_file>
/data/baiqing/PycharmProjects/Reinvent-master-3.2/result/LINK_invent/BTK/process_docking_weight1_custom_product_contain_oxygen_bond_distance_aromatic_linkinvent_7_9_3/rearranged_h_0030.sdf

> <i_m_source_file_index>
83

> <r_mmod_Potential_Energy-OPLS-2005>
-15.3385553359985

> <r_mmod_Stretch_Energy-OPLS-2005>
107.888999938965

> <r_mmod_Bend_Energy-OPLS-2005>
227.453048706055

> <r_mmod_Torsional_Energy-OPLS-2005>
214.625503540039

> <r_mmod_Improper_Torsional_Energy-OPLS-2005>
4.92959499359131

> <r_mmod_Van_der_Waal_Energy-OPLS-2005>
138.457901000977

> <r_mmod_Electrostatic_Energy-OPLS-2005>
-299.214263916016

> <r_mmod_Solvation_Energy-OPLS-2005>
-482.75830078125

> <b_mmod_Minimization_Converged-OPLS-2005>
0

> <r_mmod_RMS_Derivative-OPLS-2005>
0.607469916343689

$$$$
83
                    3D
 Structure written by MMmdl.
169178  0  0  1  0            999 V2000
  -30.7222  -14.4534   20.6213 C   0  0  0  0  0  0
  -30.4174  -12.3146   19.4174 C   0  0  0  0  0  0
  -29.4918  -12.5264   18.2028 C   0  0  0  0  0  0
  -28.0118  -12.3861   18.6106 C   0  0  0  0  0  0
  -27.6600  -13.2129   19.8766 C   0  0  2  0  0  0
  -28.7002  -12.9864   20.9955 C   0  0  0  0  0  0
  -25.2574  -13.8182   20.5684 C   0  0  0  0  0  0
  -24.1834  -13.0442   20.9174 C   0  0  0  0  0  0
  -24.6398  -11.6913   20.8725 C   0  0  0  0  0  0
  -23.9065  -10.4296   21.0393 C   0  0  0  0  0  0
  -24.3617   -9.4209   21.9176 C   0  0  0  0  0  0
  -23.6295   -8.2249   22.0751 C   0  0  0  0  0  0
  -22.4276   -8.0282   21.3545 C   0  0  0  0  0  0
  -21.9907   -9.0249   20.4644 C   0  0  0  0  0  0
  -22.7239  -10.2130   20.3048 C   0  0  0  0  0  0
  -21.6854   -6.0736   22.5281 C   0  0  0  0  0  0
  -21.4012   -6.5641   23.8215 C   0  0  0  0  0  0
  -21.3658   -5.6793   24.9179 C   0  0  0  0  0  0
  -21.6046   -4.3052   24.7225 C   0  0  0  0  0  0
  -21.8819   -3.8149   23.4346 C   0  0  0  0  0  0
  -21.9192   -4.6968   22.3406 C   0  0  0  0  0  0
  -22.7849  -13.5234   21.1844 C   0  0  0  0  0  0
  -22.1661   -4.2152   21.0984 F   0  0  0  0  0  0
  -21.5628   -3.4536   25.7738 F   0  0  0  0  0  0
  -30.0307  -13.2935   20.4467 N   0  0  0  0  0  0
  -26.3014  -12.9357   20.3369 N   0  0  0  0  0  0
  -25.9323  -11.6508   20.5757 N   0  0  0  0  0  0
  -22.0498  -12.8225   22.0398 N   0  0  0  0  0  0
  -25.4275  -15.1903   20.4098 N   0  0  0  0  0  0
  -31.8215  -14.6549   20.0980 O   0  0  0  0  0  0
  -21.6639   -6.8880   21.4243 O   0  0  0  0  0  0
  -22.3526  -14.5546   20.6709 O   0  0  0  0  0  0
  -24.6128  -31.8685   23.2066 C   0  0  0  0  0  0
  -25.9018  -32.4828   23.8373 C   0  0  1  0  0  0
  -27.2240  -27.4302   20.0984 C   0  0  0  0  0  0
  -25.5852  -33.8620   24.2293 N   0  0  0  0  0  0
  -23.4016  -30.4922   21.5460 C   0  0  2  0  0  0
  -24.8471  -28.9548   20.1157 C   0  0  0  0  0  0
  -22.7395  -29.4679   22.4957 C   0  0  0  0  0  0
  -18.0285  -28.1408   22.8503 C   0  0  0  0  0  0
  -24.1489  -36.7302   23.2639 C   0  0  0  0  0  0
  -25.9298  -30.8331   21.3586 C   0  0  0  0  0  0
  -26.0084  -29.4658   20.7101 C   0  0  0  0  0  0
  -27.2031  -28.7128   20.6944 C   0  0  0  0  0  0
  -26.0479  -26.9281   19.5049 C   0  0  0  0  0  0
  -24.8621  -27.6865   19.5094 C   0  0  0  0  0  0
  -23.6100  -29.8224   20.1623 C   0  0  0  0  0  0
  -25.4108  -36.3102   24.0343 C   0  0  1  0  0  0
  -20.5876  -28.3669   23.1328 C   0  0  2  0  0  0
  -20.6780  -26.9413   22.5430 C   0  0  0  0  0  0
  -19.5761  -26.6405   21.5236 C   0  0  0  0  0  0
  -18.1934  -26.7969   22.1618 C   0  0  0  0  0  0
  -19.1535  -28.8857   23.2925 C   0  0  0  0  0  0
  -18.9464  -30.1461   23.8926 C   0  0  0  0  0  0
  -17.6467  -30.6612   24.0587 C   0  0  0  0  0  0
  -25.9026  -34.9472   23.5117 C   0  0  0  0  0  0
  -16.5357  -29.9118   23.6330 C   0  0  0  0  0  0
  -16.7273  -28.6542   23.0346 C   0  0  0  0  0  0
  -26.4429  -31.6604   25.0702 C   0  0  0  0  0  0
  -25.3660  -31.3770   26.1431 C   0  0  0  0  0  0
  -27.0242  -30.3031   24.6082 C   0  0  0  0  0  0
  -27.6003  -32.4316   25.7481 C   0  0  0  0  0  0
  -27.5594  -37.1797   24.8463 C   0  0  0  0  0  0
  -21.4118  -29.3036   22.3698 N   0  0  0  0  0  0
  -26.4293  -37.3785   23.9421 N   0  0  0  0  0  0
  -24.6665  -31.0786   22.0956 N   0  0  0  0  0  0
  -23.4183  -28.8218   23.2992 O   0  0  0  0  0  0
  -28.3817  -26.6912   20.0481 O   0  0  0  0  0  0
  -26.5610  -34.8920   22.4695 O   0  0  0  0  0  0
  -23.5313  -32.1437   23.7437 O   0  0  0  0  0  0
  -29.9447  -18.4255   20.1186 C   0  0  0  0  0  0
  -28.6647  -19.9538   22.0808 C   0  0  0  0  0  0
  -29.3605  -19.6685   19.7703 C   0  0  0  0  0  0
  -29.2641  -18.7223   22.4337 C   0  0  0  0  0  0
  -29.9306  -17.9487   21.4476 C   0  0  0  0  0  0
  -28.7314  -20.4641   20.7647 C   0  0  0  0  0  0
  -30.2046  -24.4675   22.3393 C   0  0  0  0  0  0
  -29.3887  -25.7126   21.9613 C   0  0  0  0  0  0
  -29.4097  -23.1763   22.1110 C   0  0  0  0  0  0
  -28.7734  -24.2478   19.9214 C   0  0  0  0  0  0
  -28.3913  -25.4699   20.8082 C   0  0  2  0  0  0
  -29.4236  -20.1185   18.3203 C   0  0  0  0  0  0
  -29.2064  -18.2799   23.8865 C   0  0  0  0  0  0
  -30.7170  -16.6714   21.7917 C   0  0  0  0  0  0
  -28.1191  -21.8474   20.4547 C   0  0  0  0  0  0
  -30.1140  -15.4016   21.3584 N   0  0  0  0  0  0
  -29.0731  -22.9763   20.6758 N   0  3  2  0  0  0
  -31.4632  -12.4095   19.1191 H   0  0  0  0  0  0
  -30.3098  -11.3011   19.8079 H   0  0  0  0  0  0
  -29.7328  -11.8127   17.4139 H   0  0  0  0  0  0
  -29.6609  -13.5183   17.7799 H   0  0  0  0  0  0
  -27.8118  -11.3293   18.7885 H   0  0  0  0  0  0
  -27.3658  -12.6800   17.7822 H   0  0  0  0  0  0
  -27.7063  -14.2643   19.5916 H   0  0  0  0  0  0
  -28.6767  -11.9485   21.3284 H   0  0  0  0  0  0
  -28.4544  -13.5752   21.8795 H   0  0  0  0  0  0
  -25.2761   -9.5693   22.4741 H   0  0  0  0  0  0
  -24.0010   -7.4638   22.7463 H   0  0  0  0  0  0
  -21.0839   -8.8764   19.8941 H   0  0  0  0  0  0
  -22.3694  -10.9666   19.6150 H   0  0  0  0  0  0
  -21.2000   -7.6149   23.9725 H   0  0  0  0  0  0
  -21.1479   -6.0519   25.9083 H   0  0  0  0  0  0
  -22.0596   -2.7610   23.2847 H   0  0  0  0  0  0
  -22.4098  -11.9874   22.4787 H   0  0  0  0  0  0
  -21.1109  -13.1232   22.2604 H   0  0  0  0  0  0
  -24.6601  -15.8454   20.5193 H   0  0  0  0  0  0
  -26.2861  -15.6323   20.1061 H   0  0  0  0  0  0
  -26.7083  -32.5523   23.1134 H   0  0  0  0  0  0
  -25.0014  -33.9801   25.0444 H   0  0  0  0  0  0
  -22.6896  -31.3080   21.4029 H   0  0  0  0  0  0
  -23.3760  -35.9623   23.3295 H   0  0  0  0  0  0
  -24.3598  -36.8917   22.2056 H   0  0  0  0  0  0
  -23.7247  -37.6510   23.6649 H   0  0  0  0  0  0
  -26.0437  -31.5961   20.5873 H   0  0  0  0  0  0
  -26.8190  -30.8892   21.9755 H   0  0  0  0  0  0
  -28.1067  -29.1109   21.1363 H   0  0  0  0  0  0
  -26.0514  -25.9589   19.0277 H   0  0  0  0  0  0
  -23.9671  -27.2917   19.0481 H   0  0  0  0  0  0
  -23.7165  -30.5933   19.3981 H   0  0  0  0  0  0
  -22.7343  -29.2395   19.8708 H   0  0  0  0  0  0
  -25.1295  -36.1948   25.0840 H   0  0  0  0  0  0
  -20.9976  -28.3232   24.1443 H   0  0  0  0  0  0
  -20.5716  -26.2269   23.3607 H   0  0  0  0  0  0
  -21.6648  -26.7483   22.1204 H   0  0  0  0  0  0
  -19.6921  -25.6328   21.1242 H   0  0  0  0  0  0
  -19.6718  -27.3221   20.6790 H   0  0  0  0  0  0
  -17.4219  -26.6733   21.4003 H   0  0  0  0  0  0
  -18.0306  -26.0120   22.9014 H   0  0  0  0  0  0
  -19.7944  -30.7285   24.2282 H   0  0  0  0  0  0
  -17.5034  -31.6294   24.5183 H   0  0  0  0  0  0
  -15.5361  -30.3039   23.7670 H   0  0  0  0  0  0
  -15.8671  -28.0886   22.7031 H   0  0  0  0  0  0
  -24.5836  -30.7110   25.7788 H   0  0  0  0  0  0
  -24.8847  -32.2958   26.4782 H   0  0  0  0  0  0
  -25.7962  -30.9017   27.0250 H   0  0  0  0  0  0
  -26.2806  -29.6846   24.1039 H   0  0  0  0  0  0
  -27.3927  -29.7212   25.4544 H   0  0  0  0  0  0
  -27.8663  -30.4374   23.9292 H   0  0  0  0  0  0
  -27.2621  -33.3618   26.2054 H   0  0  0  0  0  0
  -28.3811  -32.6856   25.0307 H   0  0  0  0  0  0
  -28.0643  -31.8430   26.5408 H   0  0  0  0  0  0
  -28.2581  -38.0121   24.7532 H   0  0  0  0  0  0
  -28.1119  -36.2651   24.6244 H   0  0  0  0  0  0
  -27.2319  -37.1395   25.8867 H   0  0  0  0  0  0
  -20.9246  -29.8708   21.6902 H   0  0  0  0  0  0
  -26.0173  -38.2855   24.1435 H   0  0  0  0  0  0
  -30.4449  -17.8380   19.3599 H   0  0  0  0  0  0
  -28.1675  -20.5360   22.8464 H   0  0  0  0  0  0
  -30.5197  -24.5349   23.3807 H   0  0  0  0  0  0
  -31.1221  -24.4359   21.7510 H   0  0  0  0  0  0
  -30.0859  -26.5086   21.7000 H   0  0  0  0  0  0
  -28.8400  -26.0794   22.8296 H   0  0  0  0  0  0
  -28.5008  -23.1959   22.7153 H   0  0  0  0  0  0
  -29.9962  -22.3280   22.4643 H   0  0  0  0  0  0
  -29.6784  -24.5021   19.3692 H   0  0  0  0  0  0
  -28.0054  -24.0887   19.1625 H   0  0  0  0  0  0
  -27.4115  -25.2601   21.2419 H   0  0  0  0  0  0
  -30.0751  -19.4734   17.7311 H   0  0  0  0  0  0
  -29.8021  -21.1369   18.2310 H   0  0  0  0  0  0
  -28.4295  -20.0768   17.8735 H   0  0  0  0  0  0
  -28.5351  -18.9101   24.4723 H   0  0  0  0  0  0
  -30.1952  -18.3410   24.3442 H   0  0  0  0  0  0
  -28.8464  -17.2533   23.9667 H   0  0  0  0  0  0
  -30.8969  -16.6000   22.8637 H   0  0  0  0  0  0
  -31.7132  -16.7925   21.3628 H   0  0  0  0  0  0
  -27.2258  -21.9987   21.0628 H   0  0  0  0  0  0
  -27.7643  -21.8529   19.4252 H   0  0  0  0  0  0
  -29.2018  -15.1778   21.7250 H   0  0  0  0  0  0
  -29.9248  -22.6428   20.2501 H   0  0  0  0  0  0
  1 25  1  0  0  0
  1 30  2  0  0  0
  1 86  1  0  0  0
  2  3  1  0  0  0
  2 25  1  0  0  0
  2 88  1  0  0  0
  2 89  1  0  0  0
  3  4  1  0  0  0
  3 90  1  0  0  0
  3 91  1  0  0  0
  4  5  1  0  0  0
  4 92  1  0  0  0
  4 93  1  0  0  0
  5  6  1  0  0  0
  5 26  1  0  0  0
  5 94  1  0  0  0
  6 25  1  0  0  0
  6 95  1  0  0  0
  6 96  1  0  0  0
  7  8  2  0  0  0
  7 26  1  0  0  0
  7 29  1  0  0  0
  8  9  1  0  0  0
  8 22  1  0  0  0
  9 10  1  0  0  0
  9 27  2  0  0  0
 10 11  2  0  0  0
 10 15  1  0  0  0
 11 12  1  0  0  0
 11 97  1  0  0  0
 12 13  2  0  0  0
 12 98  1  0  0  0
 13 14  1  0  0  0
 13 31  1  0  0  0
 14 15  2  0  0  0
 14 99  1  0  0  0
 15100  1  0  0  0
 16 17  2  0  0  0
 16 21  1  0  0  0
 16 31  1  0  0  0
 17 18  1  0  0  0
 17101  1  0  0  0
 18 19  2  0  0  0
 18102  1  0  0  0
 19 20  1  0  0  0
 19 24  1  0  0  0
 20 21  2  0  0  0
 20103  1  0  0  0
 21 23  1  0  0  0
 22 28  1  0  0  0
 22 32  2  0  0  0
 26 27  1  0  0  0
 28104  1  0  0  0
 28105  1  0  0  0
 29106  1  0  0  0
 29107  1  0  0  0
 33 34  1  0  0  0
 33 66  1  0  0  0
 33 70  2  0  0  0
 34 36  1  0  0  0
 34 59  1  0  0  0
 34108  1  0  0  0
 35 44  2  0  0  0
 35 45  1  0  0  0
 35 68  1  0  0  0
 36 56  1  0  0  0
 36109  1  0  0  0
 37 39  1  0  0  0
 37 47  1  0  0  0
 37 66  1  0  0  0
 37110  1  0  0  0
 38 43  2  0  0  0
 38 46  1  0  0  0
 38 47  1  0  0  0
 39 64  1  0  0  0
 39 67  2  0  0  0
 40 52  1  0  0  0
 40 53  2  0  0  0
 40 58  1  0  0  0
 41111  1  0  0  0
 41112  1  0  0  0
 41113  1  0  0  0
 41 48  1  0  0  0
 42 43  1  0  0  0
 42 66  1  0  0  0
 42114  1  0  0  0
 42115  1  0  0  0
 43 44  1  0  0  0
 44116  1  0  0  0
 45 46  2  0  0  0
 45117  1  0  0  0
 46118  1  0  0  0
 47119  1  0  0  0
 47120  1  0  0  0
 48 56  1  0  0  0
 48 65  1  0  0  0
 48121  1  0  0  0
 49 50  1  0  0  0
 49 53  1  0  0  0
 49 64  1  0  0  0
 49122  1  0  0  0
 50 51  1  0  0  0
 50123  1  0  0  0
 50124  1  0  0  0
 51 52  1  0  0  0
 51125  1  0  0  0
 51126  1  0  0  0
 52127  1  0  0  0
 52128  1  0  0  0
 53 54  1  0  0  0
 54 55  2  0  0  0
 54129  1  0  0  0
 55 57  1  0  0  0
 55130  1  0  0  0
 56 69  2  0  0  0
 57 58  2  0  0  0
 57131  1  0  0  0
 58132  1  0  0  0
 59 60  1  0  0  0
 59 61  1  0  0  0
 59 62  1  0  0  0
 60133  1  0  0  0
 60134  1  0  0  0
 60135  1  0  0  0
 61136  1  0  0  0
 61137  1  0  0  0
 61138  1  0  0  0
 62139  1  0  0  0
 62140  1  0  0  0
 62141  1  0  0  0
 63 65  1  0  0  0
 63142  1  0  0  0
 63143  1  0  0  0
 63144  1  0  0  0
 64145  1  0  0  0
 65146  1  0  0  0
 68 81  1  0  0  0
 71 73  2  0  0  0
 71 75  1  0  0  0
 71147  1  0  0  0
 72 74  1  0  0  0
 72 76  2  0  0  0
 72148  1  0  0  0
 73 76  1  0  0  0
 73 82  1  0  0  0
 74 75  2  0  0  0
 74 83  1  0  0  0
 75 84  1  0  0  0
 76 85  1  0  0  0
 77 78  1  0  0  0
 77 79  1  0  0  0
 77149  1  0  0  0
 77150  1  0  0  0
 78 81  1  0  0  0
 78151  1  0  0  0
 78152  1  0  0  0
 79 87  1  0  0  0
 79153  1  0  0  0
 79154  1  0  0  0
 80 81  1  0  0  0
 80 87  1  0  0  0
 80155  1  0  0  0
 80156  1  0  0  0
 81157  1  0  0  0
 82158  1  0  0  0
 82159  1  0  0  0
 82160  1  0  0  0
 83161  1  0  0  0
 83162  1  0  0  0
 83163  1  0  0  0
 84 86  1  0  0  0
 84164  1  0  0  0
 84165  1  0  0  0
 85166  1  0  0  0
 85167  1  0  0  0
 85 87  1  0  0  0
 86168  1  0  0  0
 87169  1  0  0  0
M  CHG  1  87   1
M  ISO  4   1 100  68 101  81 101  86 100
M  END
> <chiral flag>
0

> <version>
0

> <s_m_source_file>
/data/baiqing/PycharmProjects/Reinvent-master-3.2/result/LINK_invent/BTK/process_docking_weight1_custom_product_contain_oxygen_bond_distance_aromatic_linkinvent_7_9_3/rearranged_h_0030.sdf

> <i_m_source_file_index>
84

> <r_mmod_Potential_Energy-OPLS-2005>
-146.914840698242

> <r_mmod_Stretch_Energy-OPLS-2005>
42.0240325927734

> <r_mmod_Bend_Energy-OPLS-2005>
100.294639587402

> <r_mmod_Torsional_Energy-OPLS-2005>
268.279815673828

> <r_mmod_Improper_Torsional_Energy-OPLS-2005>
2.27718043327332

> <r_mmod_Van_der_Waal_Energy-OPLS-2005>
156.236968994141

> <r_mmod_Electrostatic_Energy-OPLS-2005>
-318.197387695312

> <r_mmod_Solvation_Energy-OPLS-2005>
-408.684417724609

> <b_mmod_Minimization_Converged-OPLS-2005>
0

> <r_mmod_RMS_Derivative-OPLS-2005>
2.79054236412048

$$$$
84
                    3D
 Structure written by MMmdl.
160169  0  0  1  0            999 V2000
  -30.5959  -14.8547   20.3679 C   0  0  0  0  0  0
  -30.4321  -12.5110   19.4651 C   0  0  0  0  0  0
  -29.5021  -12.4384   18.2330 C   0  0  0  0  0  0
  -28.0301  -12.2904   18.6608 C   0  0  0  0  0  0
  -27.6281  -13.2311   19.8285 C   0  0  2  0  0  0
  -28.6849  -13.2607   20.9513 C   0  0  0  0  0  0
  -25.2509  -13.8205   20.5724 C   0  0  0  0  0  0
  -24.1787  -13.0453   20.9214 C   0  0  0  0  0  0
  -24.6376  -11.6930   20.8759 C   0  0  0  0  0  0
  -23.9056  -10.4307   21.0414 C   0  0  0  0  0  0
  -24.3618   -9.4226   21.9186 C   0  0  0  0  0  0
  -23.6303   -8.2258   22.0760 C   0  0  0  0  0  0
  -22.4284   -8.0294   21.3551 C   0  0  0  0  0  0
  -21.9916   -9.0260   20.4647 C   0  0  0  0  0  0
  -22.7232  -10.2146   20.3058 C   0  0  0  0  0  0
  -21.6864   -6.0740   22.5277 C   0  0  0  0  0  0
  -21.4014   -6.5640   23.8209 C   0  0  0  0  0  0
  -21.3667   -5.6789   24.9169 C   0  0  0  0  0  0
  -21.6053   -4.3053   24.7219 C   0  0  0  0  0  0
  -21.8822   -3.8148   23.4337 C   0  0  0  0  0  0
  -21.9196   -4.6968   22.3397 C   0  0  0  0  0  0
  -22.7814  -13.5238   21.1871 C   0  0  0  0  0  0
  -22.1665   -4.2156   21.0971 F   0  0  0  0  0  0
  -21.5638   -3.4540   25.7733 F   0  0  0  0  0  0
  -29.9577  -13.6254   20.3220 N   0  0  0  0  0  0
  -26.2902  -12.9388   20.3276 N   0  0  0  0  0  0
  -25.9307  -11.6540   20.5782 N   0  0  0  0  0  0
  -22.0465  -12.8209   22.0416 N   0  0  0  0  0  0
  -25.4261  -15.1930   20.4183 N   0  0  0  0  0  0
  -31.8276  -14.8650   20.2679 O   0  0  0  0  0  0
  -21.6656   -6.8888   21.4244 O   0  0  0  0  0  0
  -22.3497  -14.5551   20.6735 O   0  0  0  0  0  0
  -24.6345  -31.8515   23.1928 C   0  0  0  0  0  0
  -25.9149  -32.4734   23.8301 C   0  0  1  0  0  0
  -27.2237  -27.2200   20.1480 C   0  0  0  0  0  0
  -25.5934  -33.8537   24.2231 N   0  0  0  0  0  0
  -23.4338  -30.4698   21.5372 C   0  0  2  0  0  0
  -24.8838  -28.9025   20.1158 C   0  0  0  0  0  0
  -22.7514  -29.4585   22.4900 C   0  0  0  0  0  0
  -18.0296  -28.1384   22.8483 C   0  0  0  0  0  0
  -24.1495  -36.7269   23.2641 C   0  0  0  0  0  0
  -25.9820  -30.7519   21.3777 C   0  0  0  0  0  0
  -26.0567  -29.3685   20.7235 C   0  0  0  0  0  0
  -27.2315  -28.5432   20.7196 C   0  0  0  0  0  0
  -26.0273  -26.8243   19.5166 C   0  0  0  0  0  0
  -24.8765  -27.6404   19.4989 C   0  0  0  0  0  0
  -23.6548  -29.7934   20.1577 C   0  0  0  0  0  0
  -25.4125  -36.3053   24.0322 C   0  0  1  0  0  0
  -20.5899  -28.3702   23.1257 C   0  0  2  0  0  0
  -20.6782  -26.9416   22.5404 C   0  0  0  0  0  0
  -19.5760  -26.6380   21.5208 C   0  0  0  0  0  0
  -18.1940  -26.7928   22.1618 C   0  0  0  0  0  0
  -19.1548  -28.8861   23.2865 C   0  0  0  0  0  0
  -18.9468  -30.1461   23.8882 C   0  0  0  0  0  0
  -17.6469  -30.6588   24.0553 C   0  0  0  0  0  0
  -25.9065  -34.9426   23.5082 C   0  0  0  0  0  0
  -16.5359  -29.9079   23.6336 C   0  0  0  0  0  0
  -16.7281  -28.6492   23.0364 C   0  0  0  0  0  0
  -26.4502  -31.6572   25.0710 C   0  0  0  0  0  0
  -25.3706  -31.3725   26.1413 C   0  0  0  0  0  0
  -27.0371  -30.2990   24.6227 C   0  0  0  0  0  0
  -27.6051  -32.4322   25.7489 C   0  0  0  0  0  0
  -27.5583  -37.1792   24.8464 C   0  0  0  0  0  0
  -21.4218  -29.3045   22.3641 N   0  0  0  0  0  0
  -26.4297  -37.3759   23.9402 N   0  0  0  0  0  0
  -24.7026  -31.0441   22.0919 N   0  0  0  0  0  0
  -23.4193  -28.8135   23.3026 O   0  0  0  0  0  0
  -28.3181  -26.3149   20.1610 O   0  0  0  0  0  0
  -26.5643  -34.8907   22.4657 O   0  0  0  0  0  0
  -23.5488  -32.1352   23.7198 O   0  0  0  0  0  0
  -31.0470  -19.0101   22.0726 C   0  0  0  0  0  0
  -30.4246  -20.1421   21.5049 C   0  0  0  0  0  0
  -30.8200  -17.7011   21.5932 C   0  0  0  0  0  0
  -29.4833  -20.0219   20.4627 C   0  0  0  0  0  0
  -29.1994  -18.6351   20.0353 C   0  0  0  0  0  0
  -29.9302  -17.4351   20.5269 C   0  0  0  0  0  0
  -29.3627  -23.8794   20.7164 C   0  0  0  0  0  0
  -27.6724  -23.6863   19.6656 C   0  0  0  0  0  0
  -28.1328  -24.8639   20.5925 C   0  0  2  0  0  0
  -28.0437  -18.4545   19.0584 C   0  0  0  0  0  0
  -29.7037  -15.9960   18.4981 C   0  0  0  0  0  0
  -28.9770  -21.3967   19.7450 C   0  0  0  0  0  0
  -29.8837  -16.0172   19.9649 N   0  0  0  0  0  0
  -28.4798  -22.6909   20.4608 N   0  3  1  0  0  0
  -31.4651  -12.6522   19.1415 H   0  0  0  0  0  0
  -30.4123  -11.5704   20.0172 H   0  0  0  0  0  0
  -29.7855  -11.5919   17.6054 H   0  0  0  0  0  0
  -29.6125  -13.3160   17.6009 H   0  0  0  0  0  0
  -27.8919  -11.2517   18.9625 H   0  0  0  0  0  0
  -27.3711  -12.4460   17.8059 H   0  0  0  0  0  0
  -27.5842  -14.2293   19.3997 H   0  0  0  0  0  0
  -28.7571  -12.2970   21.4569 H   0  0  0  0  0  0
  -28.4138  -13.9981   21.7083 H   0  0  0  0  0  0
  -25.2769   -9.5715   22.4746 H   0  0  0  0  0  0
  -24.0033   -7.4653   22.7471 H   0  0  0  0  0  0
  -21.0861   -8.8762   19.8934 H   0  0  0  0  0  0
  -22.3693  -10.9683   19.6161 H   0  0  0  0  0  0
  -21.1996   -7.6146   23.9712 H   0  0  0  0  0  0
  -21.1491   -6.0518   25.9074 H   0  0  0  0  0  0
  -22.0594   -2.7611   23.2829 H   0  0  0  0  0  0
  -22.4097  -11.9858   22.4763 H   0  0  0  0  0  0
  -21.1078  -13.1210   22.2638 H   0  0  0  0  0  0
  -24.6710  -15.8559   20.5533 H   0  0  0  0  0  0
  -26.2952  -15.6314   20.1413 H   0  0  0  0  0  0
  -26.7214  -32.5368   23.1038 H   0  0  0  0  0  0
  -25.0070  -33.9671   25.0369 H   0  0  0  0  0  0
  -22.7323  -31.2923   21.3835 H   0  0  0  0  0  0
  -23.3767  -35.9591   23.3291 H   0  0  0  0  0  0
  -24.3581  -36.8912   22.2057 H   0  0  0  0  0  0
  -23.7239  -37.6460   23.6682 H   0  0  0  0  0  0
  -26.1256  -31.5096   20.6057 H   0  0  0  0  0  0
  -26.8569  -30.8032   22.0143 H   0  0  0  0  0  0
  -28.1320  -28.8992   21.1996 H   0  0  0  0  0  0
  -25.9702  -25.8588   19.0365 H   0  0  0  0  0  0
  -23.9788  -27.2796   19.0161 H   0  0  0  0  0  0
  -23.7777  -30.5631   19.3950 H   0  0  0  0  0  0
  -22.7734  -29.2238   19.8576 H   0  0  0  0  0  0
  -25.1313  -36.1896   25.0817 H   0  0  0  0  0  0
  -20.9994  -28.3287   24.1376 H   0  0  0  0  0  0
  -20.5682  -26.2313   23.3611 H   0  0  0  0  0  0
  -21.6650  -26.7436   22.1200 H   0  0  0  0  0  0
  -19.6923  -25.6288   21.1246 H   0  0  0  0  0  0
  -19.6700  -27.3180   20.6730 H   0  0  0  0  0  0
  -17.4209  -26.6677   21.4019 H   0  0  0  0  0  0
  -18.0342  -26.0070   22.9014 H   0  0  0  0  0  0
  -19.7944  -30.7284   24.2246 H   0  0  0  0  0  0
  -17.5019  -31.6270   24.5149 H   0  0  0  0  0  0
  -15.5358  -30.2973   23.7668 H   0  0  0  0  0  0
  -15.8682  -28.0799   22.7102 H   0  0  0  0  0  0
  -24.5890  -30.7075   25.7719 H   0  0  0  0  0  0
  -24.8884  -32.2892   26.4820 H   0  0  0  0  0  0
  -25.8000  -30.8902   27.0203 H   0  0  0  0  0  0
  -26.2976  -29.6717   24.1239 H   0  0  0  0  0  0
  -27.4032  -29.7279   25.4769 H   0  0  0  0  0  0
  -27.8856  -30.4269   23.9501 H   0  0  0  0  0  0
  -27.2663  -33.3636   26.2040 H   0  0  0  0  0  0
  -28.3874  -32.6860   25.0323 H   0  0  0  0  0  0
  -28.0703  -31.8460   26.5425 H   0  0  0  0  0  0
  -28.2587  -38.0104   24.7528 H   0  0  0  0  0  0
  -28.1098  -36.2633   24.6280 H   0  0  0  0  0  0
  -27.2295  -37.1423   25.8865 H   0  0  0  0  0  0
  -20.9413  -29.8745   21.6817 H   0  0  0  0  0  0
  -26.0171  -38.2832   24.1406 H   0  0  0  0  0  0
  -31.7628  -19.1567   22.8699 H   0  0  0  0  0  0
  -30.7011  -21.1220   21.8701 H   0  0  0  0  0  0
  -31.3885  -16.9006   22.0439 H   0  0  0  0  0  0
  -29.8314  -23.8672   21.7005 H   0  0  0  0  0  0
  -30.1126  -24.0295   19.9364 H   0  0  0  0  0  0
  -28.0212  -23.7916   18.6363 H   0  0  0  0  0  0
  -26.6005  -23.4881   19.6899 H   0  0  0  0  0  0
  -27.5616  -24.8536   21.5235 H   0  0  0  0  0  0
  -27.2303  -19.1452   19.2759 H   0  0  0  0  0  0
  -27.6005  -17.4650   19.1513 H   0  0  0  0  0  0
  -28.3589  -18.6119   18.0271 H   0  0  0  0  0  0
  -28.6826  -15.7464   18.2151 H   0  0  0  0  0  0
  -30.3619  -15.2963   17.9814 H   0  0  0  0  0  0
  -29.9624  -16.9523   18.0459 H   0  0  0  0  0  0
  -28.1651  -21.1260   19.0736 H   0  0  0  0  0  0
  -29.7792  -21.7007   19.0730 H   0  0  0  0  0  0
  -27.9670  -22.4446   21.2932 H   0  0  0  0  0  0
  1 25  1  0  0  0
  1 30  2  0  0  0
  1 83  1  0  0  0
  2  3  1  0  0  0
  2 25  1  0  0  0
  2 85  1  0  0  0
  2 86  1  0  0  0
  3  4  1  0  0  0
  3 87  1  0  0  0
  3 88  1  0  0  0
  4  5  1  0  0  0
  4 89  1  0  0  0
  4 90  1  0  0  0
  5  6  1  0  0  0
  5 26  1  0  0  0
  5 91  1  0  0  0
  6 25  1  0  0  0
  6 92  1  0  0  0
  6 93  1  0  0  0
  7  8  2  0  0  0
  7 26  1  0  0  0
  7 29  1  0  0  0
  8  9  1  0  0  0
  8 22  1  0  0  0
  9 10  1  0  0  0
  9 27  2  0  0  0
 10 11  2  0  0  0
 10 15  1  0  0  0
 11 12  1  0  0  0
 11 94  1  0  0  0
 12 13  2  0  0  0
 12 95  1  0  0  0
 13 14  1  0  0  0
 13 31  1  0  0  0
 14 15  2  0  0  0
 14 96  1  0  0  0
 15 97  1  0  0  0
 16 17  2  0  0  0
 16 21  1  0  0  0
 16 31  1  0  0  0
 17 18  1  0  0  0
 17 98  1  0  0  0
 18 19  2  0  0  0
 18 99  1  0  0  0
 19 20  1  0  0  0
 19 24  1  0  0  0
 20 21  2  0  0  0
 20100  1  0  0  0
 21 23  1  0  0  0
 22 28  1  0  0  0
 22 32  2  0  0  0
 26 27  1  0  0  0
 28101  1  0  0  0
 28102  1  0  0  0
 29103  1  0  0  0
 29104  1  0  0  0
 33 34  1  0  0  0
 33 66  1  0  0  0
 33 70  2  0  0  0
 34 36  1  0  0  0
 34 59  1  0  0  0
 34105  1  0  0  0
 35 44  2  0  0  0
 35 45  1  0  0  0
 35 68  1  0  0  0
 36 56  1  0  0  0
 36106  1  0  0  0
 37 39  1  0  0  0
 37 47  1  0  0  0
 37 66  1  0  0  0
 37107  1  0  0  0
 38 43  2  0  0  0
 38 46  1  0  0  0
 38 47  1  0  0  0
 39 64  1  0  0  0
 39 67  2  0  0  0
 40 52  1  0  0  0
 40 53  2  0  0  0
 40 58  1  0  0  0
 41108  1  0  0  0
 41109  1  0  0  0
 41110  1  0  0  0
 41 48  1  0  0  0
 42 43  1  0  0  0
 42 66  1  0  0  0
 42111  1  0  0  0
 42112  1  0  0  0
 43 44  1  0  0  0
 44113  1  0  0  0
 45 46  2  0  0  0
 45114  1  0  0  0
 46115  1  0  0  0
 47116  1  0  0  0
 47117  1  0  0  0
 48 56  1  0  0  0
 48 65  1  0  0  0
 48118  1  0  0  0
 49 50  1  0  0  0
 49 53  1  0  0  0
 49 64  1  0  0  0
 49119  1  0  0  0
 50 51  1  0  0  0
 50120  1  0  0  0
 50121  1  0  0  0
 51 52  1  0  0  0
 51122  1  0  0  0
 51123  1  0  0  0
 52124  1  0  0  0
 52125  1  0  0  0
 53 54  1  0  0  0
 54 55  2  0  0  0
 54126  1  0  0  0
 55 57  1  0  0  0
 55127  1  0  0  0
 56 69  2  0  0  0
 57 58  2  0  0  0
 57128  1  0  0  0
 58129  1  0  0  0
 59 60  1  0  0  0
 59 61  1  0  0  0
 59 62  1  0  0  0
 60130  1  0  0  0
 60131  1  0  0  0
 60132  1  0  0  0
 61133  1  0  0  0
 61134  1  0  0  0
 61135  1  0  0  0
 62136  1  0  0  0
 62137  1  0  0  0
 62138  1  0  0  0
 63 65  1  0  0  0
 63139  1  0  0  0
 63140  1  0  0  0
 63141  1  0  0  0
 64142  1  0  0  0
 65143  1  0  0  0
 68 79  1  0  0  0
 71 72  2  0  0  0
 71 73  1  0  0  0
 71144  1  0  0  0
 72 74  1  0  0  0
 72145  1  0  0  0
 73 76  2  0  0  0
 73146  1  0  0  0
 74 75  2  0  0  0
 74 82  1  0  0  0
 75 76  1  0  0  0
 75 80  1  0  0  0
 76 83  1  0  0  0
 77 79  1  0  0  0
 77 84  1  0  0  0
 77147  1  0  0  0
 77148  1  0  0  0
 78 79  1  0  0  0
 78 84  1  0  0  0
 78149  1  0  0  0
 78150  1  0  0  0
 79151  1  0  0  0
 80152  1  0  0  0
 80153  1  0  0  0
 80154  1  0  0  0
 81 83  1  0  0  0
 81155  1  0  0  0
 81156  1  0  0  0
 81157  1  0  0  0
 82158  1  0  0  0
 82159  1  0  0  0
 82 84  1  0  0  0
 84160  1  0  0  0
M  CHG  1  84   1
M  ISO  4   1 100  68 101  79 101  83 100
M  END
> <chiral flag>
0

> <version>
0

> <s_m_source_file>
/data/baiqing/PycharmProjects/Reinvent-master-3.2/result/LINK_invent/BTK/process_docking_weight1_custom_product_contain_oxygen_bond_distance_aromatic_linkinvent_7_9_3/rearranged_h_0030.sdf

> <i_m_source_file_index>
85

> <r_mmod_Potential_Energy-OPLS-2005>
333.410034179688

> <r_mmod_Stretch_Energy-OPLS-2005>
178.155578613281

> <r_mmod_Bend_Energy-OPLS-2005>
238.475006103516

> <r_mmod_Torsional_Energy-OPLS-2005>
327.468536376953

> <r_mmod_Improper_Torsional_Energy-OPLS-2005>
22.3416481018066

> <r_mmod_Van_der_Waal_Energy-OPLS-2005>
144.404479980469

> <r_mmod_Electrostatic_Energy-OPLS-2005>
-244.612258911133

> <r_mmod_Solvation_Energy-OPLS-2005>
-466.892333984375

> <b_mmod_Minimization_Converged-OPLS-2005>
0

> <r_mmod_RMS_Derivative-OPLS-2005>
1.19920301437378

$$$$
85
                    3D
 Structure written by MMmdl.
166175  0  0  1  0            999 V2000
  -30.6342  -14.7510   20.4740 C   0  0  0  0  0  0
  -30.4294  -12.4637   19.4745 C   0  0  0  0  0  0
  -29.5084  -12.5145   18.2369 C   0  0  0  0  0  0
  -28.0375  -12.3335   18.6538 C   0  0  0  0  0  0
  -27.6428  -13.2370   19.8519 C   0  0  2  0  0  0
  -28.6885  -13.1840   20.9875 C   0  0  0  0  0  0
  -25.2522  -13.8219   20.5728 C   0  0  0  0  0  0
  -24.1818  -13.0456   20.9226 C   0  0  0  0  0  0
  -24.6414  -11.6934   20.8753 C   0  0  0  0  0  0
  -23.9090  -10.4303   21.0408 C   0  0  0  0  0  0
  -24.3638   -9.4216   21.9179 C   0  0  0  0  0  0
  -23.6306   -8.2253   22.0744 C   0  0  0  0  0  0
  -22.4284   -8.0300   21.3544 C   0  0  0  0  0  0
  -21.9928   -9.0280   20.4646 C   0  0  0  0  0  0
  -22.7263  -10.2149   20.3059 C   0  0  0  0  0  0
  -21.6857   -6.0746   22.5280 C   0  0  0  0  0  0
  -21.4015   -6.5643   23.8216 C   0  0  0  0  0  0
  -21.3658   -5.6786   24.9174 C   0  0  0  0  0  0
  -21.6043   -4.3050   24.7217 C   0  0  0  0  0  0
  -21.8822   -3.8153   23.4336 C   0  0  0  0  0  0
  -21.9194   -4.6973   22.3397 C   0  0  0  0  0  0
  -22.7842  -13.5240   21.1891 C   0  0  0  0  0  0
  -22.1669   -4.2165   21.0969 F   0  0  0  0  0  0
  -21.5624   -3.4530   25.7725 F   0  0  0  0  0  0
  -29.9894  -13.5338   20.4025 N   0  0  0  0  0  0
  -26.2953  -12.9439   20.3308 N   0  0  0  0  0  0
  -25.9343  -11.6575   20.5749 N   0  0  0  0  0  0
  -22.0482  -12.8222   22.0437 N   0  0  0  0  0  0
  -25.4215  -15.1947   20.4165 N   0  0  0  0  0  0
  -31.8085  -14.8244   20.1003 O   0  0  0  0  0  0
  -21.6646   -6.8902   21.4247 O   0  0  0  0  0  0
  -22.3529  -14.5546   20.6737 O   0  0  0  0  0  0
  -24.6312  -31.8551   23.1978 C   0  0  0  0  0  0
  -25.9131  -32.4757   23.8329 C   0  0  1  0  0  0
  -27.2148  -27.2504   20.1388 C   0  0  0  0  0  0
  -25.5919  -33.8562   24.2242 N   0  0  0  0  0  0
  -23.4295  -30.4773   21.5409 C   0  0  2  0  0  0
  -24.8763  -28.9223   20.1125 C   0  0  0  0  0  0
  -22.7505  -29.4601   22.4898 C   0  0  0  0  0  0
  -18.0295  -28.1392   22.8490 C   0  0  0  0  0  0
  -24.1488  -36.7289   23.2633 C   0  0  0  0  0  0
  -25.9762  -30.7645   21.3810 C   0  0  0  0  0  0
  -26.0483  -29.3854   20.7247 C   0  0  0  0  0  0
  -27.2216  -28.5631   20.7240 C   0  0  0  0  0  0
  -26.0251  -26.8648   19.4823 C   0  0  0  0  0  0
  -24.8699  -27.6704   19.4798 C   0  0  0  0  0  0
  -23.6496  -29.8127   20.1570 C   0  0  0  0  0  0
  -25.4110  -36.3069   24.0320 C   0  0  1  0  0  0
  -20.5899  -28.3709   23.1261 C   0  0  2  0  0  0
  -20.6785  -26.9425   22.5405 C   0  0  0  0  0  0
  -19.5753  -26.6388   21.5214 C   0  0  0  0  0  0
  -18.1938  -26.7928   22.1642 C   0  0  0  0  0  0
  -19.1549  -28.8867   23.2871 C   0  0  0  0  0  0
  -18.9470  -30.1461   23.8900 C   0  0  0  0  0  0
  -17.6472  -30.6594   24.0566 C   0  0  0  0  0  0
  -25.9059  -34.9441   23.5087 C   0  0  0  0  0  0
  -16.5362  -29.9094   23.6331 C   0  0  0  0  0  0
  -16.7281  -28.6508   23.0357 C   0  0  0  0  0  0
  -26.4494  -31.6594   25.0729 C   0  0  0  0  0  0
  -25.3721  -31.3787   26.1464 C   0  0  0  0  0  0
  -27.0311  -30.2987   24.6246 C   0  0  0  0  0  0
  -27.6054  -32.4334   25.7494 C   0  0  0  0  0  0
  -27.5586  -37.1775   24.8447 C   0  0  0  0  0  0
  -21.4211  -29.3044   22.3638 N   0  0  0  0  0  0
  -26.4272  -37.3780   23.9432 N   0  0  0  0  0  0
  -24.6981  -31.0507   22.0961 N   0  0  0  0  0  0
  -23.4200  -28.8141   23.3002 O   0  0  0  0  0  0
  -28.3076  -26.3507   20.1738 O   0  0  0  0  0  0
  -26.5643  -34.8919   22.4664 O   0  0  0  0  0  0
  -23.5460  -32.1375   23.7264 O   0  0  0  0  0  0
  -29.5156  -18.4561   20.4763 C   0  0  0  0  0  0
  -29.9084  -19.8593   20.5584 C   0  0  0  0  0  0
  -31.2120  -20.0966   21.0769 C   0  0  0  0  0  0
  -31.9417  -19.0462   21.7105 C   0  0  0  0  0  0
  -31.4917  -17.6918   21.6709 C   0  0  0  0  0  0
  -30.3174  -17.3319   20.9426 C   0  0  0  0  0  0
  -28.4763  -24.4303   21.8514 C   0  0  0  0  0  0
  -28.5284  -22.8754   21.8006 C   0  0  0  0  0  0
  -28.7564  -23.7062   19.5930 C   0  0  0  0  0  0
  -28.0690  -24.8771   20.4396 C   0  0  2  0  0  0
  -31.8635  -21.4732   20.9304 C   0  0  0  0  0  0
  -33.2525  -19.3718   22.4412 C   0  0  0  0  0  0
  -32.2879  -16.6340   22.4411 C   0  0  0  0  0  0
  -28.9949  -21.0628   19.9973 C   0  0  0  0  0  0
  -29.9047  -15.9004   20.7802 N   0  0  0  0  0  0
  -29.1300  -22.5265   20.4943 N   0  3  2  0  0  0
  -31.4703  -12.5746   19.1679 H   0  0  0  0  0  0
  -30.3689  -11.4903   19.9638 H   0  0  0  0  0  0
  -29.7907  -11.7429   17.5191 H   0  0  0  0  0  0
  -29.6312  -13.4700   17.7244 H   0  0  0  0  0  0
  -27.8999  -11.2851   18.9194 H   0  0  0  0  0  0
  -27.3791  -12.5214   17.8050 H   0  0  0  0  0  0
  -27.6330  -14.2560   19.4640 H   0  0  0  0  0  0
  -28.7274  -12.1914   21.4377 H   0  0  0  0  0  0
  -28.4217  -13.8722   21.7906 H   0  0  0  0  0  0
  -25.2785   -9.5675   22.4752 H   0  0  0  0  0  0
  -24.0014   -7.4637   22.7456 H   0  0  0  0  0  0
  -21.0859   -8.8818   19.8947 H   0  0  0  0  0  0
  -22.3742  -10.9698   19.6172 H   0  0  0  0  0  0
  -21.2006   -7.6147   23.9735 H   0  0  0  0  0  0
  -21.1476   -6.0503   25.9076 H   0  0  0  0  0  0
  -22.0595   -2.7614   23.2833 H   0  0  0  0  0  0
  -22.4114  -11.9880   22.4807 H   0  0  0  0  0  0
  -21.1109  -13.1254   22.2663 H   0  0  0  0  0  0
  -24.6545  -15.8477   20.5341 H   0  0  0  0  0  0
  -26.2656  -15.6349   20.0736 H   0  0  0  0  0  0
  -26.7201  -32.5411   23.1074 H   0  0  0  0  0  0
  -25.0027  -33.9702   25.0358 H   0  0  0  0  0  0
  -22.7264  -31.2995   21.3942 H   0  0  0  0  0  0
  -23.3769  -35.9599   23.3236 H   0  0  0  0  0  0
  -24.3596  -36.8980   22.2064 H   0  0  0  0  0  0
  -23.7213  -37.6455   23.6706 H   0  0  0  0  0  0
  -26.1183  -31.5252   20.6124 H   0  0  0  0  0  0
  -26.8527  -30.8129   22.0156 H   0  0  0  0  0  0
  -28.1201  -28.9121   21.2134 H   0  0  0  0  0  0
  -25.9680  -25.9185   18.9642 H   0  0  0  0  0  0
  -23.9757  -27.3167   18.9841 H   0  0  0  0  0  0
  -23.7792  -30.5904   19.4032 H   0  0  0  0  0  0
  -22.7674  -29.2493   19.8479 H   0  0  0  0  0  0
  -25.1285  -36.1899   25.0808 H   0  0  0  0  0  0
  -20.9993  -28.3295   24.1380 H   0  0  0  0  0  0
  -20.5697  -26.2319   23.3610 H   0  0  0  0  0  0
  -21.6652  -26.7453   22.1184 H   0  0  0  0  0  0
  -19.6916  -25.6297   21.1248 H   0  0  0  0  0  0
  -19.6676  -27.3195   20.6740 H   0  0  0  0  0  0
  -17.4190  -26.6645   21.4066 H   0  0  0  0  0  0
  -18.0365  -26.0085   22.9061 H   0  0  0  0  0  0
  -19.7943  -30.7270   24.2281 H   0  0  0  0  0  0
  -17.5027  -31.6271   24.5168 H   0  0  0  0  0  0
  -15.5363  -30.3001   23.7654 H   0  0  0  0  0  0
  -15.8675  -28.0825   22.7084 H   0  0  0  0  0  0
  -24.5805  -30.7249   25.7788 H   0  0  0  0  0  0
  -24.9038  -32.2993   26.4959 H   0  0  0  0  0  0
  -25.8016  -30.8872   27.0201 H   0  0  0  0  0  0
  -26.2879  -29.6752   24.1263 H   0  0  0  0  0  0
  -27.3940  -29.7251   25.4787 H   0  0  0  0  0  0
  -27.8798  -30.4221   23.9514 H   0  0  0  0  0  0
  -27.2668  -33.3659   26.2024 H   0  0  0  0  0  0
  -28.3886  -32.6853   25.0332 H   0  0  0  0  0  0
  -28.0688  -31.8487   26.5452 H   0  0  0  0  0  0
  -28.2535  -38.0141   24.7597 H   0  0  0  0  0  0
  -28.1150  -36.2679   24.6131 H   0  0  0  0  0  0
  -27.2324  -37.1245   25.8849 H   0  0  0  0  0  0
  -20.9395  -29.8762   21.6838 H   0  0  0  0  0  0
  -26.0142  -38.2830   24.1517 H   0  0  0  0  0  0
  -28.5694  -18.2339   20.0039 H   0  0  0  0  0  0
  -29.4665  -24.8234   22.0858 H   0  0  0  0  0  0
  -27.7898  -24.7966   22.6142 H   0  0  0  0  0  0
  -27.5167  -22.4721   21.8521 H   0  0  0  0  0  0
  -29.0938  -22.4501   22.6307 H   0  0  0  0  0  0
  -29.6661  -24.0738   19.1184 H   0  0  0  0  0  0
  -28.0892  -23.3843   18.7930 H   0  0  0  0  0  0
  -26.9995  -24.6763   20.3935 H   0  0  0  0  0  0
  -31.5518  -21.9805   20.0193 H   0  0  0  0  0  0
  -32.9447  -21.4018   20.8131 H   0  0  0  0  0  0
  -31.6532  -22.1032   21.7956 H   0  0  0  0  0  0
  -33.3993  -20.4298   22.6459 H   0  0  0  0  0  0
  -34.1071  -19.0164   21.8645 H   0  0  0  0  0  0
  -33.2952  -18.9260   23.4317 H   0  0  0  0  0  0
  -33.1761  -16.3437   21.8789 H   0  0  0  0  0  0
  -31.7055  -15.7449   22.6678 H   0  0  0  0  0  0
  -32.6016  -16.9750   23.4231 H   0  0  0  0  0  0
  -27.9508  -20.7684   20.1026 H   0  0  0  0  0  0
  -29.1753  -21.0818   18.9218 H   0  0  0  0  0  0
  -28.9141  -15.7324   20.8694 H   0  0  0  0  0  0
  -30.1240  -22.6333   20.6327 H   0  0  0  0  0  0
  1 25  1  0  0  0
  1 30  2  0  0  0
  1 85  1  0  0  0
  2  3  1  0  0  0
  2 25  1  0  0  0
  2 87  1  0  0  0
  2 88  1  0  0  0
  3  4  1  0  0  0
  3 89  1  0  0  0
  3 90  1  0  0  0
  4  5  1  0  0  0
  4 91  1  0  0  0
  4 92  1  0  0  0
  5  6  1  0  0  0
  5 26  1  0  0  0
  5 93  1  0  0  0
  6 25  1  0  0  0
  6 94  1  0  0  0
  6 95  1  0  0  0
  7  8  2  0  0  0
  7 26  1  0  0  0
  7 29  1  0  0  0
  8  9  1  0  0  0
  8 22  1  0  0  0
  9 10  1  0  0  0
  9 27  2  0  0  0
 10 11  2  0  0  0
 10 15  1  0  0  0
 11 12  1  0  0  0
 11 96  1  0  0  0
 12 13  2  0  0  0
 12 97  1  0  0  0
 13 14  1  0  0  0
 13 31  1  0  0  0
 14 15  2  0  0  0
 14 98  1  0  0  0
 15 99  1  0  0  0
 16 17  2  0  0  0
 16 21  1  0  0  0
 16 31  1  0  0  0
 17 18  1  0  0  0
 17100  1  0  0  0
 18 19  2  0  0  0
 18101  1  0  0  0
 19 20  1  0  0  0
 19 24  1  0  0  0
 20 21  2  0  0  0
 20102  1  0  0  0
 21 23  1  0  0  0
 22 28  1  0  0  0
 22 32  2  0  0  0
 26 27  1  0  0  0
 28103  1  0  0  0
 28104  1  0  0  0
 29105  1  0  0  0
 29106  1  0  0  0
 33 34  1  0  0  0
 33 66  1  0  0  0
 33 70  2  0  0  0
 34 36  1  0  0  0
 34 59  1  0  0  0
 34107  1  0  0  0
 35 44  2  0  0  0
 35 45  1  0  0  0
 35 68  1  0  0  0
 36 56  1  0  0  0
 36108  1  0  0  0
 37 39  1  0  0  0
 37 47  1  0  0  0
 37 66  1  0  0  0
 37109  1  0  0  0
 38 43  2  0  0  0
 38 46  1  0  0  0
 38 47  1  0  0  0
 39 64  1  0  0  0
 39 67  2  0  0  0
 40 52  1  0  0  0
 40 53  2  0  0  0
 40 58  1  0  0  0
 41110  1  0  0  0
 41111  1  0  0  0
 41112  1  0  0  0
 41 48  1  0  0  0
 42 43  1  0  0  0
 42 66  1  0  0  0
 42113  1  0  0  0
 42114  1  0  0  0
 43 44  1  0  0  0
 44115  1  0  0  0
 45 46  2  0  0  0
 45116  1  0  0  0
 46117  1  0  0  0
 47118  1  0  0  0
 47119  1  0  0  0
 48 56  1  0  0  0
 48 65  1  0  0  0
 48120  1  0  0  0
 49 50  1  0  0  0
 49 53  1  0  0  0
 49 64  1  0  0  0
 49121  1  0  0  0
 50 51  1  0  0  0
 50122  1  0  0  0
 50123  1  0  0  0
 51 52  1  0  0  0
 51124  1  0  0  0
 51125  1  0  0  0
 52126  1  0  0  0
 52127  1  0  0  0
 53 54  1  0  0  0
 54 55  2  0  0  0
 54128  1  0  0  0
 55 57  1  0  0  0
 55129  1  0  0  0
 56 69  2  0  0  0
 57 58  2  0  0  0
 57130  1  0  0  0
 58131  1  0  0  0
 59 60  1  0  0  0
 59 61  1  0  0  0
 59 62  1  0  0  0
 60132  1  0  0  0
 60133  1  0  0  0
 60134  1  0  0  0
 61135  1  0  0  0
 61136  1  0  0  0
 61137  1  0  0  0
 62138  1  0  0  0
 62139  1  0  0  0
 62140  1  0  0  0
 63 65  1  0  0  0
 63141  1  0  0  0
 63142  1  0  0  0
 63143  1  0  0  0
 64144  1  0  0  0
 65145  1  0  0  0
 68 80  1  0  0  0
 71 72  2  0  0  0
 71 76  1  0  0  0
 71146  1  0  0  0
 72 73  1  0  0  0
 72 84  1  0  0  0
 73 74  2  0  0  0
 73 81  1  0  0  0
 74 75  1  0  0  0
 74 82  1  0  0  0
 75 76  2  0  0  0
 75 83  1  0  0  0
 76 85  1  0  0  0
 77 78  1  0  0  0
 77 80  1  0  0  0
 77147  1  0  0  0
 77148  1  0  0  0
 78 86  1  0  0  0
 78149  1  0  0  0
 78150  1  0  0  0
 79 80  1  0  0  0
 79 86  1  0  0  0
 79151  1  0  0  0
 79152  1  0  0  0
 80153  1  0  0  0
 81154  1  0  0  0
 81155  1  0  0  0
 81156  1  0  0  0
 82157  1  0  0  0
 82158  1  0  0  0
 82159  1  0  0  0
 83160  1  0  0  0
 83161  1  0  0  0
 83162  1  0  0  0
 84163  1  0  0  0
 84164  1  0  0  0
 84 86  1  0  0  0
 85165  1  0  0  0
 86166  1  0  0  0
M  CHG  1  86   1
M  ISO  4   1 100  68 101  80 101  85 100
M  END
> <chiral flag>
0

> <version>
0

> <s_m_source_file>
/data/baiqing/PycharmProjects/Reinvent-master-3.2/result/LINK_invent/BTK/process_docking_weight1_custom_product_contain_oxygen_bond_distance_aromatic_linkinvent_7_9_3/rearranged_h_0030.sdf

> <i_m_source_file_index>
86

> <r_mmod_Potential_Energy-OPLS-2005>
137.503143310547

> <r_mmod_Stretch_Energy-OPLS-2005>
136.574813842773

> <r_mmod_Bend_Energy-OPLS-2005>
199.990615844727

> <r_mmod_Torsional_Energy-OPLS-2005>
295.774200439453

> <r_mmod_Improper_Torsional_Energy-OPLS-2005>
4.50094842910767

> <r_mmod_Van_der_Waal_Energy-OPLS-2005>
160.447402954102

> <r_mmod_Electrostatic_Energy-OPLS-2005>
-315.129821777344

> <r_mmod_Solvation_Energy-OPLS-2005>
-432.977783203125

> <b_mmod_Minimization_Converged-OPLS-2005>
0

> <r_mmod_RMS_Derivative-OPLS-2005>
1.59687507152557

$$$$
86
                    3D
 Structure written by MMmdl.
155164  0  0  1  0            999 V2000
  -30.3843  -15.4762   20.3400 C   0  0  0  0  0  0
  -30.4198  -12.9627   19.5341 C   0  0  0  0  0  0
  -29.5393  -12.6239   18.3030 C   0  0  0  0  0  0
  -28.1003  -12.3042   18.7388 C   0  0  0  0  0  0
  -27.5970  -13.3004   19.8128 C   0  0  2  0  0  0
  -28.6188  -13.5767   20.9377 C   0  0  0  0  0  0
  -25.2328  -13.8281   20.5809 C   0  0  0  0  0  0
  -24.1705  -13.0429   20.9276 C   0  0  0  0  0  0
  -24.6402  -11.6941   20.8757 C   0  0  0  0  0  0
  -23.9108  -10.4290   21.0390 C   0  0  0  0  0  0
  -24.3649   -9.4208   21.9169 C   0  0  0  0  0  0
  -23.6314   -8.2247   22.0744 C   0  0  0  0  0  0
  -22.4292   -8.0288   21.3545 C   0  0  0  0  0  0
  -21.9937   -9.0266   20.4647 C   0  0  0  0  0  0
  -22.7276  -10.2135   20.3047 C   0  0  0  0  0  0
  -21.6851   -6.0741   22.5288 C   0  0  0  0  0  0
  -21.4019   -6.5640   23.8218 C   0  0  0  0  0  0
  -21.3660   -5.6792   24.9179 C   0  0  0  0  0  0
  -21.6049   -4.3056   24.7226 C   0  0  0  0  0  0
  -21.8810   -3.8152   23.4345 C   0  0  0  0  0  0
  -21.9185   -4.6968   22.3400 C   0  0  0  0  0  0
  -22.7721  -13.5172   21.1914 C   0  0  0  0  0  0
  -22.1661   -4.2158   21.0979 F   0  0  0  0  0  0
  -21.5628   -3.4536   25.7735 F   0  0  0  0  0  0
  -29.8169  -14.1455   20.2876 N   0  0  0  0  0  0
  -26.2765  -12.9608   20.3218 N   0  0  0  0  0  0
  -25.9342  -11.6685   20.5698 N   0  0  0  0  0  0
  -22.0387  -12.8161   22.0475 N   0  0  0  0  0  0
  -25.3940  -15.2027   20.4308 N   0  0  0  0  0  0
  -31.6107  -15.3903   20.1465 O   0  0  0  0  0  0
  -21.6646   -6.8892   21.4252 O   0  0  0  0  0  0
  -22.3399  -14.5472   20.6746 O   0  0  0  0  0  0
  -24.6757  -31.8096   23.1588 C   0  0  0  0  0  0
  -25.9370  -32.4515   23.8111 C   0  0  1  0  0  0
  -27.2162  -26.7866   20.1987 C   0  0  0  0  0  0
  -25.5985  -33.8342   24.1999 N   0  0  0  0  0  0
  -23.4973  -30.4161   21.5107 C   0  0  2  0  0  0
  -24.9526  -28.7763   20.1117 C   0  0  0  0  0  0
  -22.7729  -29.4366   22.4726 C   0  0  0  0  0  0
  -18.0331  -28.1417   22.8454 C   0  0  0  0  0  0
  -24.1497  -36.7188   23.2653 C   0  0  0  0  0  0
  -26.0741  -30.5682   21.4121 C   0  0  0  0  0  0
  -26.1397  -29.1439   20.7578 C   0  0  0  0  0  0
  -27.2599  -28.1723   20.7753 C   0  0  0  0  0  0
  -26.0016  -26.6092   19.4945 C   0  0  0  0  0  0
  -24.9173  -27.5326   19.4586 C   0  0  0  0  0  0
  -23.7463  -29.7238   20.1413 C   0  0  0  0  0  0
  -25.4147  -36.2937   24.0286 C   0  0  1  0  0  0
  -20.5966  -28.3788   23.1150 C   0  0  2  0  0  0
  -20.6810  -26.9452   22.5401 C   0  0  0  0  0  0
  -19.5781  -26.6370   21.5216 C   0  0  0  0  0  0
  -18.1962  -26.7941   22.1619 C   0  0  0  0  0  0
  -19.1597  -28.8921   23.2788 C   0  0  0  0  0  0
  -18.9507  -30.1502   23.8838 C   0  0  0  0  0  0
  -17.6499  -30.6607   24.0550 C   0  0  0  0  0  0
  -25.9116  -34.9320   23.4980 C   0  0  0  0  0  0
  -16.5386  -29.9091   23.6347 C   0  0  0  0  0  0
  -16.7310  -28.6510   23.0365 C   0  0  0  0  0  0
  -26.4559  -31.6523   25.0714 C   0  0  0  0  0  0
  -25.3633  -31.3840   26.1342 C   0  0  0  0  0  0
  -27.0476  -30.2864   24.6573 C   0  0  0  0  0  0
  -27.6018  -32.4369   25.7530 C   0  0  0  0  0  0
  -27.5564  -37.1764   24.8468 C   0  0  0  0  0  0
  -21.4381  -29.3047   22.3478 N   0  0  0  0  0  0
  -26.4290  -37.3676   23.9382 N   0  0  0  0  0  0
  -24.7715  -30.9624   22.0795 N   0  0  0  0  0  0
  -23.4217  -28.7964   23.3035 O   0  0  0  0  0  0
  -28.1717  -25.5938   20.3009 O   0  0  0  0  0  0
  -26.5749  -34.8881   22.4592 O   0  0  0  0  0  0
  -23.5789  -32.1138   23.6586 O   0  0  0  0  0  0
  -29.8667  -20.6416   21.9522 C   0  0  0  0  0  0
  -29.3820  -21.9693   21.5400 C   0  0  0  0  0  0
  -28.5228  -20.9299   19.6250 C   0  0  0  0  0  0
  -29.7096  -19.3896   21.2349 C   0  0  0  0  0  0
  -29.0456  -19.5278   20.0418 C   0  0  0  0  0  0
  -28.6439  -22.2967   20.3419 C   0  0  0  0  0  0
  -30.0863  -17.8745   21.5463 C   0  0  0  0  0  0
  -30.6352  -17.5921   22.7513 C   0  0  0  0  0  0
  -29.0808  -17.9393   19.5166 C   0  0  0  0  0  0
  -30.5824  -16.2267   24.8745 C   0  0  0  0  0  0
  -27.9044  -23.9298   19.9862 C   0  0  0  0  0  0
  -30.9413  -16.2446   23.3855 C   0  0  0  0  0  0
  -29.7242  -16.8573   20.5210 N   0  0  0  0  0  0
  -31.4320  -13.1787   19.1899 H   0  0  0  0  0  0
  -30.5241  -12.0929   20.1845 H   0  0  0  0  0  0
  -29.9626  -11.7862   17.7469 H   0  0  0  0  0  0
  -29.5351  -13.4734   17.6196 H   0  0  0  0  0  0
  -28.0957  -11.2937   19.1488 H   0  0  0  0  0  0
  -27.4315  -12.2889   17.8773 H   0  0  0  0  0  0
  -27.4795  -14.2401   19.2721 H   0  0  0  0  0  0
  -28.8379  -12.6776   21.5160 H   0  0  0  0  0  0
  -28.2171  -14.3079   21.6409 H   0  0  0  0  0  0
  -25.2790   -9.5688   22.4746 H   0  0  0  0  0  0
  -24.0022   -7.4642   22.7461 H   0  0  0  0  0  0
  -21.0862   -8.8782   19.8959 H   0  0  0  0  0  0
  -22.3729  -10.9665   19.6160 H   0  0  0  0  0  0
  -21.2025   -7.6149   23.9724 H   0  0  0  0  0  0
  -21.1494   -6.0521   25.9077 H   0  0  0  0  0  0
  -22.0589   -2.7616   23.2827 H   0  0  0  0  0  0
  -22.4028  -11.9855   22.4909 H   0  0  0  0  0  0
  -21.0989  -13.1158   22.2654 H   0  0  0  0  0  0
  -24.6278  -15.8519   20.5690 H   0  0  0  0  0  0
  -26.2483  -15.6557   20.1358 H   0  0  0  0  0  0
  -26.7461  -32.5013   23.0834 H   0  0  0  0  0  0
  -25.0029  -33.9398   25.0080 H   0  0  0  0  0  0
  -22.8183  -31.2523   21.3299 H   0  0  0  0  0  0
  -23.3759  -35.9520   23.3312 H   0  0  0  0  0  0
  -24.3556  -36.8845   22.2068 H   0  0  0  0  0  0
  -23.7273  -37.6380   23.6722 H   0  0  0  0  0  0
  -26.2740  -31.3013   20.6297 H   0  0  0  0  0  0
  -26.9262  -30.6277   22.0764 H   0  0  0  0  0  0
  -28.1503  -28.4520   21.3202 H   0  0  0  0  0  0
  -25.8472  -25.6622   18.9974 H   0  0  0  0  0  0
  -24.0195  -27.2417   18.9298 H   0  0  0  0  0  0
  -23.9177  -30.4903   19.3842 H   0  0  0  0  0  0
  -22.8510  -29.1910   19.8157 H   0  0  0  0  0  0
  -25.1356  -36.1718   25.0777 H   0  0  0  0  0  0
  -21.0048  -28.3412   24.1276 H   0  0  0  0  0  0
  -20.5689  -26.2409   23.3661 H   0  0  0  0  0  0
  -21.6674  -26.7407   22.1221 H   0  0  0  0  0  0
  -19.6952  -25.6260   21.1301 H   0  0  0  0  0  0
  -19.6722  -27.3134   20.6712 H   0  0  0  0  0  0
  -17.4230  -26.6665   21.4023 H   0  0  0  0  0  0
  -18.0362  -26.0108   22.9044 H   0  0  0  0  0  0
  -19.7988  -30.7322   24.2189 H   0  0  0  0  0  0
  -17.5057  -31.6278   24.5166 H   0  0  0  0  0  0
  -15.5390  -30.2976   23.7705 H   0  0  0  0  0  0
  -15.8707  -28.0806   22.7120 H   0  0  0  0  0  0
  -24.5786  -30.7233   25.7627 H   0  0  0  0  0  0
  -24.8865  -32.3081   26.4632 H   0  0  0  0  0  0
  -25.7809  -30.9063   27.0215 H   0  0  0  0  0  0
  -26.3171  -29.6484   24.1587 H   0  0  0  0  0  0
  -27.3931  -29.7304   25.5299 H   0  0  0  0  0  0
  -27.9147  -30.3984   24.0063 H   0  0  0  0  0  0
  -27.2539  -33.3691   26.1989 H   0  0  0  0  0  0
  -28.3893  -32.6902   25.0421 H   0  0  0  0  0  0
  -28.0623  -31.8594   26.5554 H   0  0  0  0  0  0
  -28.2591  -38.0046   24.7462 H   0  0  0  0  0  0
  -28.1051  -36.2572   24.6365 H   0  0  0  0  0  0
  -27.2274  -37.1493   25.8872 H   0  0  0  0  0  0
  -20.9666  -29.8707   21.6557 H   0  0  0  0  0  0
  -26.0130  -38.2739   24.1345 H   0  0  0  0  0  0
  -30.3810  -20.5975   22.9017 H   0  0  0  0  0  0
  -29.5725  -22.7882   22.2193 H   0  0  0  0  0  0
  -27.9687  -20.9533   18.6975 H   0  0  0  0  0  0
  -30.8632  -18.4295   23.3959 H   0  0  0  0  0  0
  -29.6268  -17.8997   18.5735 H   0  0  0  0  0  0
  -28.0597  -17.6287   19.2923 H   0  0  0  0  0  0
  -30.7677  -15.2410   25.3040 H   0  0  0  0  0  0
  -29.5254  -16.4564   25.0261 H   0  0  0  0  0  0
  -31.1719  -16.9516   25.4369 H   0  0  0  0  0  0
  -26.8848  -23.7883   20.3462 H   0  0  0  0  0  0
  -27.7957  -23.9081   18.9017 H   0  0  0  0  0  0
  -32.0008  -16.0199   23.2550 H   0  0  0  0  0  0
  -30.3753  -15.4439   22.9188 H   0  0  0  0  0  0
  1 25  1  0  0  0
  1 30  2  0  0  0
  1 83  1  0  0  0
  2  3  1  0  0  0
  2 25  1  0  0  0
  2 84  1  0  0  0
  2 85  1  0  0  0
  3  4  1  0  0  0
  3 86  1  0  0  0
  3 87  1  0  0  0
  4  5  1  0  0  0
  4 88  1  0  0  0
  4 89  1  0  0  0
  5  6  1  0  0  0
  5 26  1  0  0  0
  5 90  1  0  0  0
  6 25  1  0  0  0
  6 91  1  0  0  0
  6 92  1  0  0  0
  7  8  2  0  0  0
  7 26  1  0  0  0
  7 29  1  0  0  0
  8  9  1  0  0  0
  8 22  1  0  0  0
  9 10  1  0  0  0
  9 27  2  0  0  0
 10 11  2  0  0  0
 10 15  1  0  0  0
 11 12  1  0  0  0
 11 93  1  0  0  0
 12 13  2  0  0  0
 12 94  1  0  0  0
 13 14  1  0  0  0
 13 31  1  0  0  0
 14 15  2  0  0  0
 14 95  1  0  0  0
 15 96  1  0  0  0
 16 17  2  0  0  0
 16 21  1  0  0  0
 16 31  1  0  0  0
 17 18  1  0  0  0
 17 97  1  0  0  0
 18 19  2  0  0  0
 18 98  1  0  0  0
 19 20  1  0  0  0
 19 24  1  0  0  0
 20 21  2  0  0  0
 20 99  1  0  0  0
 21 23  1  0  0  0
 22 28  1  0  0  0
 22 32  2  0  0  0
 26 27  1  0  0  0
 28100  1  0  0  0
 28101  1  0  0  0
 29102  1  0  0  0
 29103  1  0  0  0
 33 34  1  0  0  0
 33 66  1  0  0  0
 33 70  2  0  0  0
 34 36  1  0  0  0
 34 59  1  0  0  0
 34104  1  0  0  0
 35 44  2  0  0  0
 35 45  1  0  0  0
 35 68  1  0  0  0
 36 56  1  0  0  0
 36105  1  0  0  0
 37 39  1  0  0  0
 37 47  1  0  0  0
 37 66  1  0  0  0
 37106  1  0  0  0
 38 43  2  0  0  0
 38 46  1  0  0  0
 38 47  1  0  0  0
 39 64  1  0  0  0
 39 67  2  0  0  0
 40 52  1  0  0  0
 40 53  2  0  0  0
 40 58  1  0  0  0
 41107  1  0  0  0
 41108  1  0  0  0
 41109  1  0  0  0
 41 48  1  0  0  0
 42 43  1  0  0  0
 42 66  1  0  0  0
 42110  1  0  0  0
 42111  1  0  0  0
 43 44  1  0  0  0
 44112  1  0  0  0
 45 46  2  0  0  0
 45113  1  0  0  0
 46114  1  0  0  0
 47115  1  0  0  0
 47116  1  0  0  0
 48 56  1  0  0  0
 48 65  1  0  0  0
 48117  1  0  0  0
 49 50  1  0  0  0
 49 53  1  0  0  0
 49 64  1  0  0  0
 49118  1  0  0  0
 50 51  1  0  0  0
 50119  1  0  0  0
 50120  1  0  0  0
 51 52  1  0  0  0
 51121  1  0  0  0
 51122  1  0  0  0
 52123  1  0  0  0
 52124  1  0  0  0
 53 54  1  0  0  0
 54 55  2  0  0  0
 54125  1  0  0  0
 55 57  1  0  0  0
 55126  1  0  0  0
 56 69  2  0  0  0
 57 58  2  0  0  0
 57127  1  0  0  0
 58128  1  0  0  0
 59 60  1  0  0  0
 59 61  1  0  0  0
 59 62  1  0  0  0
 60129  1  0  0  0
 60130  1  0  0  0
 60131  1  0  0  0
 61132  1  0  0  0
 61133  1  0  0  0
 61134  1  0  0  0
 62135  1  0  0  0
 62136  1  0  0  0
 62137  1  0  0  0
 63 65  1  0  0  0
 63138  1  0  0  0
 63139  1  0  0  0
 63140  1  0  0  0
 64141  1  0  0  0
 65142  1  0  0  0
 68 81  1  0  0  0
 71 72  2  0  0  0
 71 74  1  0  0  0
 71143  1  0  0  0
 72 76  1  0  0  0
 72144  1  0  0  0
 73 75  1  0  0  0
 73 76  2  0  0  0
 73145  1  0  0  0
 74 75  2  0  0  0
 74 77  1  0  0  0
 75 79  1  0  0  0
 76 81  1  0  0  0
 77 78  2  0  0  0
 77 83  1  0  0  0
 78 82  1  0  0  0
 78146  1  0  0  0
 79 83  1  0  0  0
 79147  1  0  0  0
 79148  1  0  0  0
 80 82  1  0  0  0
 80149  1  0  0  0
 80150  1  0  0  0
 80151  1  0  0  0
 81152  1  0  0  0
 81153  1  0  0  0
 82154  1  0  0  0
 82155  1  0  0  0
M  ISO  4   1 100  68 101  81 101  83 100
M  END
> <chiral flag>
0

> <version>
0

> <s_m_source_file>
/data/baiqing/PycharmProjects/Reinvent-master-3.2/result/LINK_invent/BTK/process_docking_weight1_custom_product_contain_oxygen_bond_distance_aromatic_linkinvent_7_9_3/rearranged_h_0030.sdf

> <i_m_source_file_index>
87

> <r_mmod_Potential_Energy-OPLS-2005>
1937.16979980469

> <r_mmod_Stretch_Energy-OPLS-2005>
733.041748046875

> <r_mmod_Bend_Energy-OPLS-2005>
576.418029785156

> <r_mmod_Torsional_Energy-OPLS-2005>
282.997772216797

> <r_mmod_Improper_Torsional_Energy-OPLS-2005>
5.27048206329346

> <r_mmod_Van_der_Waal_Energy-OPLS-2005>
124.321784973145

> <r_mmod_Electrostatic_Energy-OPLS-2005>
-296.999114990234

> <r_mmod_Solvation_Energy-OPLS-2005>
-190.419540405273

> <b_mmod_Minimization_Converged-OPLS-2005>
0

> <r_mmod_RMS_Derivative-OPLS-2005>
1.94526731967926

$$$$
87
                    3D
 Structure written by MMmdl.
155163  0  0  1  0            999 V2000
  -30.6905  -14.6148   20.4794 C   0  0  0  0  0  0
  -30.4160  -12.3772   19.4570 C   0  0  0  0  0  0
  -29.4981  -12.4873   18.2224 C   0  0  0  0  0  0
  -28.0227  -12.3380   18.6374 C   0  0  0  0  0  0
  -27.6458  -13.2284   19.8524 C   0  0  2  0  0  0
  -28.6925  -13.1322   20.9846 C   0  0  0  0  0  0
  -25.2525  -13.8205   20.5698 C   0  0  0  0  0  0
  -24.1806  -13.0449   20.9206 C   0  0  0  0  0  0
  -24.6397  -11.6925   20.8760 C   0  0  0  0  0  0
  -23.9076  -10.4300   21.0411 C   0  0  0  0  0  0
  -24.3623   -9.4215   21.9190 C   0  0  0  0  0  0
  -23.6297   -8.2249   22.0758 C   0  0  0  0  0  0
  -22.4279   -8.0287   21.3546 C   0  0  0  0  0  0
  -21.9918   -9.0263   20.4648 C   0  0  0  0  0  0
  -22.7249  -10.2142   20.3059 C   0  0  0  0  0  0
  -21.6850   -6.0741   22.5278 C   0  0  0  0  0  0
  -21.4013   -6.5643   23.8213 C   0  0  0  0  0  0
  -21.3660   -5.6797   24.9173 C   0  0  0  0  0  0
  -21.6039   -4.3057   24.7222 C   0  0  0  0  0  0
  -21.8821   -3.8151   23.4344 C   0  0  0  0  0  0
  -21.9192   -4.6971   22.3400 C   0  0  0  0  0  0
  -22.7823  -13.5230   21.1861 C   0  0  0  0  0  0
  -22.1658   -4.2156   21.0978 F   0  0  0  0  0  0
  -21.5630   -3.4541   25.7735 F   0  0  0  0  0  0
  -30.0044  -13.4339   20.4027 N   0  0  0  0  0  0
  -26.2957  -12.9408   20.3300 N   0  0  0  0  0  0
  -25.9329  -11.6551   20.5768 N   0  0  0  0  0  0
  -22.0469  -12.8217   22.0417 N   0  0  0  0  0  0
  -25.4217  -15.1929   20.4114 N   0  0  0  0  0  0
  -31.8765  -14.6734   20.1493 O   0  0  0  0  0  0
  -21.6637   -6.8885   21.4239 O   0  0  0  0  0  0
  -22.3506  -14.5535   20.6710 O   0  0  0  0  0  0
  -24.6249  -31.8631   23.2063 C   0  0  0  0  0  0
  -25.9110  -32.4790   23.8375 C   0  0  1  0  0  0
  -27.2094  -27.3311   20.1073 C   0  0  0  0  0  0
  -25.5936  -33.8590   24.2294 N   0  0  0  0  0  0
  -23.4166  -30.4907   21.5502 C   0  0  2  0  0  0
  -24.8589  -28.9562   20.1085 C   0  0  0  0  0  0
  -22.7458  -29.4640   22.4942 C   0  0  0  0  0  0
  -18.0280  -28.1378   22.8477 C   0  0  0  0  0  0
  -24.1492  -36.7301   23.2635 C   0  0  0  0  0  0
  -25.9589  -30.7968   21.3773 C   0  0  0  0  0  0
  -26.0302  -29.4284   20.7133 C   0  0  0  0  0  0
  -27.2111  -28.6276   20.7048 C   0  0  0  0  0  0
  -26.0132  -26.9196   19.4685 C   0  0  0  0  0  0
  -24.8513  -27.7059   19.4786 C   0  0  0  0  0  0
  -23.6283  -29.8357   20.1620 C   0  0  0  0  0  0
  -25.4113  -36.3086   24.0333 C   0  0  1  0  0  0
  -20.5881  -28.3678   23.1280 C   0  0  2  0  0  0
  -20.6776  -26.9404   22.5405 C   0  0  0  0  0  0
  -19.5754  -26.6381   21.5204 C   0  0  0  0  0  0
  -18.1924  -26.7914   22.1615 C   0  0  0  0  0  0
  -19.1533  -28.8843   23.2866 C   0  0  0  0  0  0
  -18.9468  -30.1446   23.8885 C   0  0  0  0  0  0
  -17.6468  -30.6581   24.0560 C   0  0  0  0  0  0
  -25.9054  -34.9458   23.5108 C   0  0  0  0  0  0
  -16.5357  -29.9084   23.6334 C   0  0  0  0  0  0
  -16.7270  -28.6501   23.0347 C   0  0  0  0  0  0
  -26.4493  -31.6591   25.0739 C   0  0  0  0  0  0
  -25.3733  -31.3737   26.1471 C   0  0  0  0  0  0
  -27.0333  -30.3015   24.6193 C   0  0  0  0  0  0
  -27.6052  -32.4324   25.7507 C   0  0  0  0  0  0
  -27.5584  -37.1794   24.8461 C   0  0  0  0  0  0
  -21.4180  -29.3038   22.3680 N   0  0  0  0  0  0
  -26.4287  -37.3786   23.9415 N   0  0  0  0  0  0
  -24.6858  -31.0655   22.1012 N   0  0  0  0  0  0
  -23.4195  -28.8161   23.2996 O   0  0  0  0  0  0
  -28.3096  -26.4609   20.1718 O   0  0  0  0  0  0
  -26.5623  -34.8921   22.4674 O   0  0  0  0  0  0
  -23.5420  -32.1433   23.7402 O   0  0  0  0  0  0
  -30.0625  -19.3898   19.4976 C   0  0  0  0  0  0
  -28.7172  -20.3514   21.7275 C   0  0  0  0  0  0
  -29.5868  -20.7360   19.5114 C   0  0  0  0  0  0
  -29.8963  -18.4950   20.5907 C   0  0  0  0  0  0
  -28.9169  -21.2595   20.6525 C   0  0  0  0  0  0
  -29.1966  -19.0090   21.7120 C   0  0  0  0  0  0
  -29.7806  -21.5760   18.2600 C   0  0  0  0  0  0
  -30.6607  -17.1238   20.5941 C   0  0  0  0  0  0
  -29.0166  -23.8859   20.4950 C   0  0  0  0  0  0
  -27.9939  -25.0204   20.0797 C   0  0  0  0  0  0
  -28.3495  -22.5718   20.7433 N   0  0  0  0  0  0
  -30.0027  -15.7766   20.7074 N   0  0  0  0  0  0
  -28.9558  -18.0221   23.1102 Cl  0  0  0  0  0  0
  -31.4618  -12.4610   19.1560 H   0  0  0  0  0  0
  -30.3197  -11.3957   19.9236 H   0  0  0  0  0  0
  -29.7582  -11.7228   17.4891 H   0  0  0  0  0  0
  -29.6490  -13.4486   17.7289 H   0  0  0  0  0  0
  -27.8587  -11.2886   18.8845 H   0  0  0  0  0  0
  -27.3681  -12.5540   17.7927 H   0  0  0  0  0  0
  -27.6513  -14.2556   19.4877 H   0  0  0  0  0  0
  -28.6978  -12.1337   21.4236 H   0  0  0  0  0  0
  -28.4531  -13.8220   21.7952 H   0  0  0  0  0  0
  -25.2767   -9.5681   22.4771 H   0  0  0  0  0  0
  -23.9998   -7.4636   22.7478 H   0  0  0  0  0  0
  -21.0850   -8.8787   19.8954 H   0  0  0  0  0  0
  -22.3712  -10.9682   19.6173 H   0  0  0  0  0  0
  -21.2007   -7.6152   23.9716 H   0  0  0  0  0  0
  -21.1478   -6.0526   25.9076 H   0  0  0  0  0  0
  -22.0600   -2.7614   23.2841 H   0  0  0  0  0  0
  -22.4070  -11.9870   22.4801 H   0  0  0  0  0  0
  -21.1094  -13.1246   22.2629 H   0  0  0  0  0  0
  -24.6562  -15.8485   20.5260 H   0  0  0  0  0  0
  -26.2738  -15.6339   20.0900 H   0  0  0  0  0  0
  -26.7179  -32.5470   23.1120 H   0  0  0  0  0  0
  -25.0081  -33.9745   25.0439 H   0  0  0  0  0  0
  -22.7101  -31.3122   21.4128 H   0  0  0  0  0  0
  -23.3760  -35.9629   23.3290 H   0  0  0  0  0  0
  -24.3582  -36.8936   22.2051 H   0  0  0  0  0  0
  -23.7239  -37.6498   23.6662 H   0  0  0  0  0  0
  -26.0896  -31.5632   20.6129 H   0  0  0  0  0  0
  -26.8394  -30.8405   22.0063 H   0  0  0  0  0  0
  -28.1079  -28.9799   21.1944 H   0  0  0  0  0  0
  -25.9325  -25.9711   18.9612 H   0  0  0  0  0  0
  -23.9534  -27.3376   18.9997 H   0  0  0  0  0  0
  -23.7470  -30.6174   19.4105 H   0  0  0  0  0  0
  -22.7467  -29.2686   19.8578 H   0  0  0  0  0  0
  -25.1278  -36.1937   25.0826 H   0  0  0  0  0  0
  -20.9962  -28.3257   24.1406 H   0  0  0  0  0  0
  -20.5686  -26.2293   23.3608 H   0  0  0  0  0  0
  -21.6648  -26.7451   22.1191 H   0  0  0  0  0  0
  -19.6938  -25.6293   21.1233 H   0  0  0  0  0  0
  -19.6697  -27.3199   20.6736 H   0  0  0  0  0  0
  -17.4198  -26.6658   21.4011 H   0  0  0  0  0  0
  -18.0319  -26.0061   22.9019 H   0  0  0  0  0  0
  -19.7955  -30.7239   24.2265 H   0  0  0  0  0  0
  -17.5040  -31.6265   24.5147 H   0  0  0  0  0  0
  -15.5356  -30.2983   23.7672 H   0  0  0  0  0  0
  -15.8666  -28.0819   22.7074 H   0  0  0  0  0  0
  -24.5920  -30.7063   25.7813 H   0  0  0  0  0  0
  -24.8908  -32.2909   26.4865 H   0  0  0  0  0  0
  -25.8066  -30.8950   27.0265 H   0  0  0  0  0  0
  -26.2907  -29.6768   24.1215 H   0  0  0  0  0  0
  -27.4026  -29.7257   25.4690 H   0  0  0  0  0  0
  -27.8779  -30.4293   23.9418 H   0  0  0  0  0  0
  -27.2667  -33.3638   26.2058 H   0  0  0  0  0  0
  -28.3873  -32.6869   25.0341 H   0  0  0  0  0  0
  -28.0707  -31.8473   26.5446 H   0  0  0  0  0  0
  -28.2570  -38.0119   24.7531 H   0  0  0  0  0  0
  -28.1104  -36.2648   24.6238 H   0  0  0  0  0  0
  -27.2306  -37.1383   25.8864 H   0  0  0  0  0  0
  -20.9349  -29.8783   21.6914 H   0  0  0  0  0  0
  -26.0173  -38.2858   24.1448 H   0  0  0  0  0  0
  -30.5973  -19.0432   18.6242 H   0  0  0  0  0  0
  -28.1921  -20.6875   22.6098 H   0  0  0  0  0  0
  -29.8594  -20.9465   17.3733 H   0  0  0  0  0  0
  -30.6903  -22.1716   18.3359 H   0  0  0  0  0  0
  -28.9366  -22.2480   18.1017 H   0  0  0  0  0  0
  -31.3878  -17.1863   21.4052 H   0  0  0  0  0  0
  -31.2654  -17.1116   19.6852 H   0  0  0  0  0  0
  -29.5046  -24.1818   21.4243 H   0  0  0  0  0  0
  -29.8091  -23.7999   19.7530 H   0  0  0  0  0  0
  -27.1049  -24.8564   20.6931 H   0  0  0  0  0  0
  -27.7088  -24.8019   19.0496 H   0  0  0  0  0  0
  -27.6431  -22.6499   21.4709 H   0  0  0  0  0  0
  -29.0169  -15.7301   20.9133 H   0  0  0  0  0  0
  1 25  1  0  0  0
  1 30  2  0  0  0
  1 82  1  0  0  0
  2  3  1  0  0  0
  2 25  1  0  0  0
  2 84  1  0  0  0
  2 85  1  0  0  0
  3  4  1  0  0  0
  3 86  1  0  0  0
  3 87  1  0  0  0
  4  5  1  0  0  0
  4 88  1  0  0  0
  4 89  1  0  0  0
  5  6  1  0  0  0
  5 26  1  0  0  0
  5 90  1  0  0  0
  6 25  1  0  0  0
  6 91  1  0  0  0
  6 92  1  0  0  0
  7  8  2  0  0  0
  7 26  1  0  0  0
  7 29  1  0  0  0
  8  9  1  0  0  0
  8 22  1  0  0  0
  9 10  1  0  0  0
  9 27  2  0  0  0
 10 11  2  0  0  0
 10 15  1  0  0  0
 11 12  1  0  0  0
 11 93  1  0  0  0
 12 13  2  0  0  0
 12 94  1  0  0  0
 13 14  1  0  0  0
 13 31  1  0  0  0
 14 15  2  0  0  0
 14 95  1  0  0  0
 15 96  1  0  0  0
 16 17  2  0  0  0
 16 21  1  0  0  0
 16 31  1  0  0  0
 17 18  1  0  0  0
 17 97  1  0  0  0
 18 19  2  0  0  0
 18 98  1  0  0  0
 19 20  1  0  0  0
 19 24  1  0  0  0
 20 21  2  0  0  0
 20 99  1  0  0  0
 21 23  1  0  0  0
 22 28  1  0  0  0
 22 32  2  0  0  0
 26 27  1  0  0  0
 28100  1  0  0  0
 28101  1  0  0  0
 29102  1  0  0  0
 29103  1  0  0  0
 33 34  1  0  0  0
 33 66  1  0  0  0
 33 70  2  0  0  0
 34 36  1  0  0  0
 34 59  1  0  0  0
 34104  1  0  0  0
 35 44  2  0  0  0
 35 45  1  0  0  0
 35 68  1  0  0  0
 36 56  1  0  0  0
 36105  1  0  0  0
 37 39  1  0  0  0
 37 47  1  0  0  0
 37 66  1  0  0  0
 37106  1  0  0  0
 38 43  2  0  0  0
 38 46  1  0  0  0
 38 47  1  0  0  0
 39 64  1  0  0  0
 39 67  2  0  0  0
 40 52  1  0  0  0
 40 53  2  0  0  0
 40 58  1  0  0  0
 41107  1  0  0  0
 41108  1  0  0  0
 41109  1  0  0  0
 41 48  1  0  0  0
 42 43  1  0  0  0
 42 66  1  0  0  0
 42110  1  0  0  0
 42111  1  0  0  0
 43 44  1  0  0  0
 44112  1  0  0  0
 45 46  2  0  0  0
 45113  1  0  0  0
 46114  1  0  0  0
 47115  1  0  0  0
 47116  1  0  0  0
 48 56  1  0  0  0
 48 65  1  0  0  0
 48117  1  0  0  0
 49 50  1  0  0  0
 49 53  1  0  0  0
 49 64  1  0  0  0
 49118  1  0  0  0
 50 51  1  0  0  0
 50119  1  0  0  0
 50120  1  0  0  0
 51 52  1  0  0  0
 51121  1  0  0  0
 51122  1  0  0  0
 52123  1  0  0  0
 52124  1  0  0  0
 53 54  1  0  0  0
 54 55  2  0  0  0
 54125  1  0  0  0
 55 57  1  0  0  0
 55126  1  0  0  0
 56 69  2  0  0  0
 57 58  2  0  0  0
 57127  1  0  0  0
 58128  1  0  0  0
 59 60  1  0  0  0
 59 61  1  0  0  0
 59 62  1  0  0  0
 60129  1  0  0  0
 60130  1  0  0  0
 60131  1  0  0  0
 61132  1  0  0  0
 61133  1  0  0  0
 61134  1  0  0  0
 62135  1  0  0  0
 62136  1  0  0  0
 62137  1  0  0  0
 63 65  1  0  0  0
 63138  1  0  0  0
 63139  1  0  0  0
 63140  1  0  0  0
 64141  1  0  0  0
 65142  1  0  0  0
 68 80  1  0  0  0
 71 73  2  0  0  0
 71 74  1  0  0  0
 71143  1  0  0  0
 72 75  2  0  0  0
 72 76  1  0  0  0
 72144  1  0  0  0
 73 75  1  0  0  0
 73 77  1  0  0  0
 74 76  2  0  0  0
 74 78  1  0  0  0
 75 81  1  0  0  0
 76 83  1  0  0  0
 77145  1  0  0  0
 77146  1  0  0  0
 77147  1  0  0  0
 78 82  1  0  0  0
 78148  1  0  0  0
 78149  1  0  0  0
 79 80  1  0  0  0
 79 81  1  0  0  0
 79150  1  0  0  0
 79151  1  0  0  0
 80152  1  0  0  0
 80153  1  0  0  0
 81154  1  0  0  0
 82155  1  0  0  0
M  ISO  4   1 100  68 101  80 101  82 100
M  END
> <chiral flag>
0

> <version>
0

> <s_m_source_file>
/data/baiqing/PycharmProjects/Reinvent-master-3.2/result/LINK_invent/BTK/process_docking_weight1_custom_product_contain_oxygen_bond_distance_aromatic_linkinvent_7_9_3/rearranged_h_0030.sdf

> <i_m_source_file_index>
88

> <r_mmod_Potential_Energy-OPLS-2005>
31.7349472045898

> <r_mmod_Stretch_Energy-OPLS-2005>
70.0263824462891

> <r_mmod_Bend_Energy-OPLS-2005>
152.33186340332

> <r_mmod_Torsional_Energy-OPLS-2005>
216.365417480469

> <r_mmod_Improper_Torsional_Energy-OPLS-2005>
8.78408432006836

> <r_mmod_Van_der_Waal_Energy-OPLS-2005>
153.055862426758

> <r_mmod_Electrostatic_Energy-OPLS-2005>
-407.186096191406

> <r_mmod_Solvation_Energy-OPLS-2005>
-211.200149536133

> <b_mmod_Minimization_Converged-OPLS-2005>
0

> <r_mmod_RMS_Derivative-OPLS-2005>
1.34405016899109

$$$$
88
                    3D
 Structure written by MMmdl.
167176  0  0  1  0            999 V2000
  -30.5204  -14.7118   20.5258 C   0  0  0  0  0  0
  -30.4398  -12.4426   19.4697 C   0  0  0  0  0  0
  -29.5054  -12.4993   18.2397 C   0  0  0  0  0  0
  -28.0336  -12.2944   18.6542 C   0  0  0  0  0  0
  -27.6335  -13.2068   19.8435 C   0  0  2  0  0  0
  -28.6594  -13.0881   20.9900 C   0  0  0  0  0  0
  -25.2462  -13.8191   20.5649 C   0  0  0  0  0  0
  -24.1771  -13.0449   20.9275 C   0  0  0  0  0  0
  -24.6326  -11.6916   20.8756 C   0  0  0  0  0  0
  -23.9017  -10.4287   21.0393 C   0  0  0  0  0  0
  -24.3582   -9.4192   21.9168 C   0  0  0  0  0  0
  -23.6263   -8.2221   22.0738 C   0  0  0  0  0  0
  -22.4241   -8.0265   21.3528 C   0  0  0  0  0  0
  -21.9862   -9.0234   20.4617 C   0  0  0  0  0  0
  -22.7203  -10.2106   20.3019 C   0  0  0  0  0  0
  -21.6863   -6.0715   22.5276 C   0  0  0  0  0  0
  -21.4052   -6.5640   23.8209 C   0  0  0  0  0  0
  -21.3624   -5.6797   24.9174 C   0  0  0  0  0  0
  -21.6001   -4.3055   24.7231 C   0  0  0  0  0  0
  -21.8841   -3.8149   23.4372 C   0  0  0  0  0  0
  -21.9227   -4.6951   22.3416 C   0  0  0  0  0  0
  -22.7775  -13.5184   21.1960 C   0  0  0  0  0  0
  -22.1694   -4.2140   21.0989 F   0  0  0  0  0  0
  -21.5552   -3.4523   25.7738 F   0  0  0  0  0  0
  -29.9717  -13.4599   20.4357 N   0  0  0  0  0  0
  -26.2823  -12.9334   20.3151 N   0  0  0  0  0  0
  -25.9210  -11.6512   20.5683 N   0  0  0  0  0  0
  -22.0438  -12.8119   22.0508 N   0  0  0  0  0  0
  -25.4162  -15.1898   20.3958 N   0  0  0  0  0  0
  -31.6961  -14.9157   20.1812 O   0  0  0  0  0  0
  -21.6621   -6.8845   21.4237 O   0  0  0  0  0  0
  -22.3429  -14.5491   20.6840 O   0  0  0  0  0  0
  -24.6179  -31.8622   23.2030 C   0  0  0  0  0  0
  -25.9056  -32.4783   23.8336 C   0  0  1  0  0  0
  -27.2346  -27.3373   20.1321 C   0  0  0  0  0  0
  -25.5898  -33.8583   24.2281 N   0  0  0  0  0  0
  -23.4152  -30.4817   21.5427 C   0  0  2  0  0  0
  -24.8714  -28.9406   20.1125 C   0  0  0  0  0  0
  -22.7464  -29.4568   22.4874 C   0  0  0  0  0  0
  -18.0291  -28.1462   22.8277 C   0  0  0  0  0  0
  -24.1500  -36.7309   23.2649 C   0  0  0  0  0  0
  -25.9513  -30.7964   21.3770 C   0  0  0  0  0  0
  -26.0312  -29.4213   20.7290 C   0  0  0  0  0  0
  -27.2144  -28.6270   20.7434 C   0  0  0  0  0  0
  -26.0650  -26.9292   19.4437 C   0  0  0  0  0  0
  -24.8875  -27.7022   19.4569 C   0  0  0  0  0  0
  -23.6393  -29.8233   20.1533 C   0  0  0  0  0  0
  -25.4121  -36.3097   24.0330 C   0  0  1  0  0  0
  -20.5886  -28.3623   23.1336 C   0  0  2  0  0  0
  -20.6704  -26.9293   22.5641 C   0  0  0  0  0  0
  -19.5922  -26.6249   21.5169 C   0  0  0  0  0  0
  -18.1899  -26.8204   22.0997 C   0  0  0  0  0  0
  -19.1554  -28.8780   23.2930 C   0  0  0  0  0  0
  -18.9496  -30.1266   23.9189 C   0  0  0  0  0  0
  -17.6533  -30.6480   24.0757 C   0  0  0  0  0  0
  -25.9031  -34.9446   23.5116 C   0  0  0  0  0  0
  -16.5412  -29.9176   23.6238 C   0  0  0  0  0  0
  -16.7280  -28.6663   23.0075 C   0  0  0  0  0  0
  -26.4495  -31.6561   25.0657 C   0  0  0  0  0  0
  -25.3771  -31.3639   26.1402 C   0  0  0  0  0  0
  -27.0359  -30.2996   24.6070 C   0  0  0  0  0  0
  -27.6064  -32.4274   25.7433 C   0  0  0  0  0  0
  -27.5590  -37.1813   24.8474 C   0  0  0  0  0  0
  -21.4181  -29.2982   22.3682 N   0  0  0  0  0  0
  -26.4301  -37.3788   23.9418 N   0  0  0  0  0  0
  -24.6785  -31.0617   22.0997 N   0  0  0  0  0  0
  -23.4203  -28.8055   23.2902 O   0  0  0  0  0  0
  -28.3530  -26.4933   20.2126 O   0  0  0  0  0  0
  -26.5615  -34.8912   22.4678 O   0  0  0  0  0  0
  -23.5335  -32.1403   23.7376 O   0  0  0  0  0  0
  -30.4151  -19.4239   20.2325 C   0  0  0  0  0  0
  -30.4662  -17.9997   20.1572 C   0  0  0  0  0  0
  -29.6201  -20.1319   21.1811 C   0  0  0  0  0  0
  -28.8699  -19.3007   22.0759 C   0  0  0  0  0  0
  -28.8060  -17.8682   21.8944 C   0  0  0  0  0  0
  -29.6645  -17.1763   20.9772 C   0  0  0  0  0  0
  -27.7083  -23.1901   21.8594 C   0  0  0  0  0  0
  -26.4995  -22.6357   22.0627 C   0  0  0  0  0  0
  -27.9821  -24.6849   22.0019 C   0  0  0  0  0  0
  -29.0632  -23.9121   20.0626 C   0  0  0  0  0  0
  -28.1083  -25.0670   20.5274 C   0  0  1  0  0  0
  -28.1544  -19.9153   23.2848 C   0  0  0  0  0  0
  -27.7531  -17.0874   22.6827 C   0  0  0  0  0  0
  -25.9897  -21.3998   21.3504 C   0  0  0  0  0  0
  -29.7528  -21.7160   21.3030 C   0  0  0  0  0  0
  -29.6197  -15.7141   20.8273 N   0  0  0  0  0  0
  -28.6513  -22.6635   20.8201 N   0  3  2  0  0  0
  -31.4714  -12.6163   19.1633 H   0  0  0  0  0  0
  -30.4239  -11.4536   19.9308 H   0  0  0  0  0  0
  -29.7947  -11.7438   17.5046 H   0  0  0  0  0  0
  -29.6164  -13.4699   17.7588 H   0  0  0  0  0  0
  -27.9124  -11.2495   18.9444 H   0  0  0  0  0  0
  -27.3709  -12.4519   17.8019 H   0  0  0  0  0  0
  -27.6420  -14.2288   19.4662 H   0  0  0  0  0  0
  -28.6775  -12.0757   21.3931 H   0  0  0  0  0  0
  -28.3716  -13.7135   21.8375 H   0  0  0  0  0  0
  -25.2735   -9.5691   22.4706 H   0  0  0  0  0  0
  -23.9961   -7.4618   22.7471 H   0  0  0  0  0  0
  -21.0771   -8.8816   19.8903 H   0  0  0  0  0  0
  -22.3730  -10.9647   19.6100 H   0  0  0  0  0  0
  -21.2113   -7.6160   23.9719 H   0  0  0  0  0  0
  -21.1357   -6.0512   25.9067 H   0  0  0  0  0  0
  -22.0655   -2.7609   23.2896 H   0  0  0  0  0  0
  -22.4117  -11.9763   22.4817 H   0  0  0  0  0  0
  -21.1020  -13.1088   22.2715 H   0  0  0  0  0  0
  -24.6486  -15.8423   20.5127 H   0  0  0  0  0  0
  -26.2302  -15.6232   19.9778 H   0  0  0  0  0  0
  -26.7092  -32.5461   23.1056 H   0  0  0  0  0  0
  -25.0006  -33.9737   25.0399 H   0  0  0  0  0  0
  -22.7038  -31.2973   21.3999 H   0  0  0  0  0  0
  -23.3745  -35.9664   23.3323 H   0  0  0  0  0  0
  -24.3583  -36.8916   22.2061 H   0  0  0  0  0  0
  -23.7271  -37.6526   23.6641 H   0  0  0  0  0  0
  -26.0730  -31.5610   20.6097 H   0  0  0  0  0  0
  -26.8338  -30.8548   21.9982 H   0  0  0  0  0  0
  -28.0956  -28.9886   21.2566 H   0  0  0  0  0  0
  -26.0375  -26.0061   18.8840 H   0  0  0  0  0  0
  -24.0028  -27.3498   18.9425 H   0  0  0  0  0  0
  -23.7750  -30.6048   19.4033 H   0  0  0  0  0  0
  -22.7610  -29.2628   19.8273 H   0  0  0  0  0  0
  -25.1306  -36.1968   25.0822 H   0  0  0  0  0  0
  -20.9992  -28.3245   24.1470 H   0  0  0  0  0  0
  -20.5195  -26.2320   23.3931 H   0  0  0  0  0  0
  -21.6689  -26.7147   22.1849 H   0  0  0  0  0  0
  -19.6904  -25.5979   21.1575 H   0  0  0  0  0  0
  -19.7377  -27.2719   20.6492 H   0  0  0  0  0  0
  -17.4563  -26.7660   21.2929 H   0  0  0  0  0  0
  -17.9526  -26.0050   22.7868 H   0  0  0  0  0  0
  -19.7944  -30.6941   24.2865 H   0  0  0  0  0  0
  -17.5125  -31.6072   24.5559 H   0  0  0  0  0  0
  -15.5460  -30.3235   23.7517 H   0  0  0  0  0  0
  -15.8620  -28.1231   22.6494 H   0  0  0  0  0  0
  -24.5911  -30.7034   25.7714 H   0  0  0  0  0  0
  -24.8978  -32.2767   26.4939 H   0  0  0  0  0  0
  -25.8127  -30.8722   27.0108 H   0  0  0  0  0  0
  -26.2901  -29.6701   24.1175 H   0  0  0  0  0  0
  -27.4193  -29.7296   25.4557 H   0  0  0  0  0  0
  -27.8724  -30.4323   23.9197 H   0  0  0  0  0  0
  -27.2687  -33.3562   26.2055 H   0  0  0  0  0  0
  -28.3861  -32.6852   25.0243 H   0  0  0  0  0  0
  -28.0734  -31.8340   26.5317 H   0  0  0  0  0  0
  -28.2621  -38.0104   24.7493 H   0  0  0  0  0  0
  -28.1078  -36.2618   24.6342 H   0  0  0  0  0  0
  -27.2271  -37.1506   25.8872 H   0  0  0  0  0  0
  -20.9329  -29.8736   21.6951 H   0  0  0  0  0  0
  -26.0193  -38.2863   24.1430 H   0  0  0  0  0  0
  -31.0578  -19.9797   19.5625 H   0  0  0  0  0  0
  -31.1059  -17.5257   19.4280 H   0  0  0  0  0  0
  -25.7407  -23.2240   22.5624 H   0  0  0  0  0  0
  -28.9187  -24.8569   22.5344 H   0  0  0  0  0  0
  -27.1888  -25.2246   22.5166 H   0  0  0  0  0  0
  -30.0980  -24.1779   20.2811 H   0  0  0  0  0  0
  -28.9679  -23.7447   18.9901 H   0  0  0  0  0  0
  -27.1483  -24.7964   20.1048 H   0  0  0  0  0  0
  -28.4324  -20.9480   23.4921 H   0  0  0  0  0  0
  -28.4145  -19.3806   24.1960 H   0  0  0  0  0  0
  -27.0728  -19.8443   23.1871 H   0  0  0  0  0  0
  -27.8615  -16.0108   22.5766 H   0  0  0  0  0  0
  -27.7686  -17.3153   23.7466 H   0  0  0  0  0  0
  -26.7603  -17.3485   22.3134 H   0  0  0  0  0  0
  -25.1904  -20.9186   21.9158 H   0  0  0  0  0  0
  -26.7696  -20.6677   21.1603 H   0  0  0  0  0  0
  -25.5948  -21.7005   20.3792 H   0  0  0  0  0  0
  -30.6677  -21.9774   20.7716 H   0  0  0  0  0  0
  -29.9816  -21.9744   22.3370 H   0  0  0  0  0  0
  -28.7002  -15.3386   20.9900 H   0  0  0  0  0  0
  -28.1112  -22.1079   20.1785 H   0  0  0  0  0  0
  1 25  1  0  0  0
  1 30  2  0  0  0
  1 86  1  0  0  0
  2  3  1  0  0  0
  2 25  1  0  0  0
  2 88  1  0  0  0
  2 89  1  0  0  0
  3  4  1  0  0  0
  3 90  1  0  0  0
  3 91  1  0  0  0
  4  5  1  0  0  0
  4 92  1  0  0  0
  4 93  1  0  0  0
  5  6  1  0  0  0
  5 26  1  0  0  0
  5 94  1  0  0  0
  6 25  1  0  0  0
  6 95  1  0  0  0
  6 96  1  0  0  0
  7  8  2  0  0  0
  7 26  1  0  0  0
  7 29  1  0  0  0
  8  9  1  0  0  0
  8 22  1  0  0  0
  9 10  1  0  0  0
  9 27  2  0  0  0
 10 11  2  0  0  0
 10 15  1  0  0  0
 11 12  1  0  0  0
 11 97  1  0  0  0
 12 13  2  0  0  0
 12 98  1  0  0  0
 13 14  1  0  0  0
 13 31  1  0  0  0
 14 15  2  0  0  0
 14 99  1  0  0  0
 15100  1  0  0  0
 16 17  2  0  0  0
 16 21  1  0  0  0
 16 31  1  0  0  0
 17 18  1  0  0  0
 17101  1  0  0  0
 18 19  2  0  0  0
 18102  1  0  0  0
 19 20  1  0  0  0
 19 24  1  0  0  0
 20 21  2  0  0  0
 20103  1  0  0  0
 21 23  1  0  0  0
 22 28  1  0  0  0
 22 32  2  0  0  0
 26 27  1  0  0  0
 28104  1  0  0  0
 28105  1  0  0  0
 29106  1  0  0  0
 29107  1  0  0  0
 33 34  1  0  0  0
 33 66  1  0  0  0
 33 70  2  0  0  0
 34 36  1  0  0  0
 34 59  1  0  0  0
 34108  1  0  0  0
 35 44  2  0  0  0
 35 45  1  0  0  0
 35 68  1  0  0  0
 36 56  1  0  0  0
 36109  1  0  0  0
 37 39  1  0  0  0
 37 47  1  0  0  0
 37 66  1  0  0  0
 37110  1  0  0  0
 38 43  2  0  0  0
 38 46  1  0  0  0
 38 47  1  0  0  0
 39 64  1  0  0  0
 39 67  2  0  0  0
 40 52  1  0  0  0
 40 53  2  0  0  0
 40 58  1  0  0  0
 41111  1  0  0  0
 41112  1  0  0  0
 41113  1  0  0  0
 41 48  1  0  0  0
 42 43  1  0  0  0
 42 66  1  0  0  0
 42114  1  0  0  0
 42115  1  0  0  0
 43 44  1  0  0  0
 44116  1  0  0  0
 45 46  2  0  0  0
 45117  1  0  0  0
 46118  1  0  0  0
 47119  1  0  0  0
 47120  1  0  0  0
 48 56  1  0  0  0
 48 65  1  0  0  0
 48121  1  0  0  0
 49 50  1  0  0  0
 49 53  1  0  0  0
 49 64  1  0  0  0
 49122  1  0  0  0
 50 51  1  0  0  0
 50123  1  0  0  0
 50124  1  0  0  0
 51 52  1  0  0  0
 51125  1  0  0  0
 51126  1  0  0  0
 52127  1  0  0  0
 52128  1  0  0  0
 53 54  1  0  0  0
 54 55  2  0  0  0
 54129  1  0  0  0
 55 57  1  0  0  0
 55130  1  0  0  0
 56 69  2  0  0  0
 57 58  2  0  0  0
 57131  1  0  0  0
 58132  1  0  0  0
 59 60  1  0  0  0
 59 61  1  0  0  0
 59 62  1  0  0  0
 60133  1  0  0  0
 60134  1  0  0  0
 60135  1  0  0  0
 61136  1  0  0  0
 61137  1  0  0  0
 61138  1  0  0  0
 62139  1  0  0  0
 62140  1  0  0  0
 62141  1  0  0  0
 63 65  1  0  0  0
 63142  1  0  0  0
 63143  1  0  0  0
 63144  1  0  0  0
 64145  1  0  0  0
 65146  1  0  0  0
 68 81  1  0  0  0
 71 72  2  0  0  0
 71 73  1  0  0  0
 71147  1  0  0  0
 72 76  1  0  0  0
 72148  1  0  0  0
 73 74  2  0  0  0
 73 85  1  0  0  0
 74 75  1  0  0  0
 74 82  1  0  0  0
 75 76  2  0  0  0
 75 83  1  0  0  0
 76 86  1  0  0  0
 77 78  2  0  0  0
 77 79  1  0  0  0
 77 87  1  0  0  0
 78 84  1  0  0  0
 78149  1  0  0  0
 79 81  1  0  0  0
 79150  1  0  0  0
 79151  1  0  0  0
 80 81  1  0  0  0
 80 87  1  0  0  0
 80152  1  0  0  0
 80153  1  0  0  0
 81154  1  0  0  0
 82155  1  0  0  0
 82156  1  0  0  0
 82157  1  0  0  0
 83158  1  0  0  0
 83159  1  0  0  0
 83160  1  0  0  0
 84161  1  0  0  0
 84162  1  0  0  0
 84163  1  0  0  0
 85164  1  0  0  0
 85165  1  0  0  0
 85 87  1  0  0  0
 86166  1  0  0  0
 87167  1  0  0  0
M  CHG  1  87   1
M  ISO  4   1 100  68 101  81 101  86 100
M  END
> <chiral flag>
0

> <version>
0

> <s_m_source_file>
/data/baiqing/PycharmProjects/Reinvent-master-3.2/result/LINK_invent/BTK/process_docking_weight1_custom_product_contain_oxygen_bond_distance_aromatic_linkinvent_7_9_3/rearranged_h_0030.sdf

> <i_m_source_file_index>
89

> <r_mmod_Potential_Energy-OPLS-2005>
80.3741149902344

> <r_mmod_Stretch_Energy-OPLS-2005>
89.3702163696289

> <r_mmod_Bend_Energy-OPLS-2005>
203.198486328125

> <r_mmod_Torsional_Energy-OPLS-2005>
288.161651611328

> <r_mmod_Improper_Torsional_Energy-OPLS-2005>
8.80811309814453

> <r_mmod_Van_der_Waal_Energy-OPLS-2005>
150.481552124023

> <r_mmod_Electrostatic_Energy-OPLS-2005>
-310.440460205078

> <r_mmod_Solvation_Energy-OPLS-2005>
-418.734161376953

> <b_mmod_Minimization_Converged-OPLS-2005>
0

> <r_mmod_RMS_Derivative-OPLS-2005>
8.38719844818115

$$$$
89
                    3D
 Structure written by MMmdl.
160169  0  0  1  0            999 V2000
  -30.6614  -14.5893   20.4812 C   0  0  0  0  0  0
  -30.4233  -12.3523   19.4599 C   0  0  0  0  0  0
  -29.5135  -12.5106   18.2229 C   0  0  0  0  0  0
  -28.0295  -12.3620   18.6179 C   0  0  0  0  0  0
  -27.6485  -13.2259   19.8515 C   0  0  2  0  0  0
  -28.6895  -13.0984   20.9873 C   0  0  0  0  0  0
  -25.2519  -13.8196   20.5636 C   0  0  0  0  0  0
  -24.1811  -13.0452   20.9150 C   0  0  0  0  0  0
  -24.6396  -11.6930   20.8697 C   0  0  0  0  0  0
  -23.9084  -10.4311   21.0378 C   0  0  0  0  0  0
  -24.3644   -9.4229   21.9170 C   0  0  0  0  0  0
  -23.6314   -8.2271   22.0755 C   0  0  0  0  0  0
  -22.4287   -8.0300   21.3564 C   0  0  0  0  0  0
  -21.9924   -9.0266   20.4657 C   0  0  0  0  0  0
  -22.7247  -10.2145   20.3046 C   0  0  0  0  0  0
  -21.6853   -6.0755   22.5293 C   0  0  0  0  0  0
  -21.4008   -6.5651   23.8227 C   0  0  0  0  0  0
  -21.3658   -5.6797   24.9183 C   0  0  0  0  0  0
  -21.6047   -4.3064   24.7220 C   0  0  0  0  0  0
  -21.8811   -3.8160   23.4337 C   0  0  0  0  0  0
  -21.9193   -4.6986   22.3396 C   0  0  0  0  0  0
  -22.7833  -13.5234   21.1827 C   0  0  0  0  0  0
  -22.1664   -4.2170   21.0977 F   0  0  0  0  0  0
  -21.5637   -3.4543   25.7730 F   0  0  0  0  0  0
  -30.0140  -13.3894   20.4229 N   0  0  0  0  0  0
  -26.2969  -12.9401   20.3240 N   0  0  0  0  0  0
  -25.9323  -11.6546   20.5691 N   0  0  0  0  0  0
  -22.0488  -12.8262   22.0402 N   0  0  0  0  0  0
  -25.4168  -15.1934   20.4042 N   0  0  0  0  0  0
  -31.8400  -14.7073   20.1386 O   0  0  0  0  0  0
  -21.6652   -6.8903   21.4258 O   0  0  0  0  0  0
  -22.3529  -14.5550   20.6663 O   0  0  0  0  0  0
  -24.6287  -31.8615   23.2002 C   0  0  0  0  0  0
  -25.9136  -32.4779   23.8346 C   0  0  1  0  0  0
  -27.2254  -27.3343   20.1078 C   0  0  0  0  0  0
  -25.5944  -33.8576   24.2274 N   0  0  0  0  0  0
  -23.4218  -30.4840   21.5439 C   0  0  2  0  0  0
  -24.8681  -28.9419   20.1115 C   0  0  0  0  0  0
  -22.7488  -29.4629   22.4926 C   0  0  0  0  0  0
  -18.0305  -28.1361   22.8486 C   0  0  0  0  0  0
  -24.1501  -36.7296   23.2632 C   0  0  0  0  0  0
  -25.9643  -30.7921   21.3748 C   0  0  0  0  0  0
  -26.0362  -29.4215   20.7166 C   0  0  0  0  0  0
  -27.2186  -28.6259   20.7116 C   0  0  0  0  0  0
  -26.0403  -26.9164   19.4582 C   0  0  0  0  0  0
  -24.8702  -27.6925   19.4758 C   0  0  0  0  0  0
  -23.6376  -29.8203   20.1592 C   0  0  0  0  0  0
  -25.4121  -36.3079   24.0321 C   0  0  1  0  0  0
  -20.5892  -28.3706   23.1289 C   0  0  2  0  0  0
  -20.6813  -26.9433   22.5424 C   0  0  0  0  0  0
  -19.5812  -26.6443   21.5189 C   0  0  0  0  0  0
  -18.1988  -26.7914   22.1617 C   0  0  0  0  0  0
  -19.1536  -28.8858   23.2880 C   0  0  0  0  0  0
  -18.9433  -30.1449   23.8889 C   0  0  0  0  0  0
  -17.6429  -30.6572   24.0528 C   0  0  0  0  0  0
  -25.9052  -34.9449   23.5093 C   0  0  0  0  0  0
  -16.5338  -29.9049   23.6297 C   0  0  0  0  0  0
  -16.7282  -28.6459   23.0328 C   0  0  0  0  0  0
  -26.4509  -31.6589   25.0726 C   0  0  0  0  0  0
  -25.3720  -31.3747   26.1436 C   0  0  0  0  0  0
  -27.0335  -30.3006   24.6185 C   0  0  0  0  0  0
  -27.6073  -32.4316   25.7504 C   0  0  0  0  0  0
  -27.5583  -37.1808   24.8461 C   0  0  0  0  0  0
  -21.4200  -29.3059   22.3696 N   0  0  0  0  0  0
  -26.4304  -37.3763   23.9397 N   0  0  0  0  0  0
  -24.6895  -31.0628   22.0953 N   0  0  0  0  0  0
  -23.4230  -28.8158   23.2976 O   0  0  0  0  0  0
  -28.3465  -26.4969   20.1575 O   0  0  0  0  0  0
  -26.5618  -34.8916   22.4660 O   0  0  0  0  0  0
  -23.5450  -32.1404   23.7338 O   0  0  0  0  0  0
  -29.3401  -19.5127   20.3382 C   0  0  0  0  0  0
  -27.9394  -19.2370   22.7259 C   0  0  0  0  0  0
  -29.4240  -18.2625   21.0431 C   0  0  0  0  0  0
  -28.5548  -20.6220   20.7975 C   0  0  0  0  0  0
  -28.7268  -18.1552   22.2762 C   0  0  0  0  0  0
  -27.8287  -20.4363   21.9986 C   0  0  0  0  0  0
  -28.9509  -24.2150   19.1196 C   0  0  0  0  0  0
  -28.8560  -24.1543   21.1718 C   0  0  0  0  0  0
  -28.1303  -25.0344   20.1346 C   0  0  2  0  0  0
  -28.7993  -16.9243   23.1707 C   0  0  0  0  0  0
  -30.3081  -17.1042   20.4815 C   0  0  0  0  0  0
  -28.3208  -21.9092   19.9372 C   0  0  0  0  0  0
  -29.8922  -15.6880   20.7002 N   0  0  0  0  0  0
  -29.1700  -23.1484   20.1265 N   0  3  1  0  0  0
  -26.7400  -21.6390   22.5964 Cl  0  0  0  0  0  0
  -31.4748  -12.4390   19.1816 H   0  0  0  0  0  0
  -30.3158  -11.3615   19.9018 H   0  0  0  0  0  0
  -29.7727  -11.7809   17.4548 H   0  0  0  0  0  0
  -29.6768  -13.4925   17.7744 H   0  0  0  0  0  0
  -27.8426  -11.3078   18.8249 H   0  0  0  0  0  0
  -27.3951  -12.6232   17.7701 H   0  0  0  0  0  0
  -27.6625  -14.2577   19.5003 H   0  0  0  0  0  0
  -28.6749  -12.0977   21.4171 H   0  0  0  0  0  0
  -28.4467  -13.7788   21.8042 H   0  0  0  0  0  0
  -25.2796   -9.5701   22.4732 H   0  0  0  0  0  0
  -24.0015   -7.4661   22.7468 H   0  0  0  0  0  0
  -21.0860   -8.8789   19.8959 H   0  0  0  0  0  0
  -22.3714  -10.9682   19.6149 H   0  0  0  0  0  0
  -21.1993   -7.6158   23.9735 H   0  0  0  0  0  0
  -21.1486   -6.0528   25.9093 H   0  0  0  0  0  0
  -22.0581   -2.7624   23.2826 H   0  0  0  0  0  0
  -22.4102  -11.9935   22.4817 H   0  0  0  0  0  0
  -21.1099  -13.1299   22.2559 H   0  0  0  0  0  0
  -24.6309  -15.8284   20.4758 H   0  0  0  0  0  0
  -26.2581  -15.6458   20.0718 H   0  0  0  0  0  0
  -26.7219  -32.5458   23.1108 H   0  0  0  0  0  0
  -25.0120  -33.9722   25.0439 H   0  0  0  0  0  0
  -22.7170  -31.3049   21.3992 H   0  0  0  0  0  0
  -23.3752  -35.9637   23.3306 H   0  0  0  0  0  0
  -24.3595  -36.8908   22.2043 H   0  0  0  0  0  0
  -23.7276  -37.6509   23.6650 H   0  0  0  0  0  0
  -26.1025  -31.5555   20.6073 H   0  0  0  0  0  0
  -26.8426  -30.8344   22.0078 H   0  0  0  0  0  0
  -28.1172  -28.9843   21.1971 H   0  0  0  0  0  0
  -25.9882  -25.9823   18.9188 H   0  0  0  0  0  0
  -23.9796  -27.3259   18.9841 H   0  0  0  0  0  0
  -23.7637  -30.5951   19.4021 H   0  0  0  0  0  0
  -22.7564  -29.2525   19.8559 H   0  0  0  0  0  0
  -25.1306  -36.1921   25.0810 H   0  0  0  0  0  0
  -20.9978  -28.3281   24.1412 H   0  0  0  0  0  0
  -20.5685  -26.2331   23.3619 H   0  0  0  0  0  0
  -21.6697  -26.7442   22.1248 H   0  0  0  0  0  0
  -19.6751  -27.3332   20.6799 H   0  0  0  0  0  0
  -19.6984  -25.6401   21.1116 H   0  0  0  0  0  0
  -17.4239  -26.6647   21.4041 H   0  0  0  0  0  0
  -18.0443  -26.0035   22.8994 H   0  0  0  0  0  0
  -19.7897  -30.7270   24.2270 H   0  0  0  0  0  0
  -17.4955  -31.6274   24.5083 H   0  0  0  0  0  0
  -15.5328  -30.2931   23.7570 H   0  0  0  0  0  0
  -15.8697  -28.0759   22.7006 H   0  0  0  0  0  0
  -24.5911  -30.7080   25.7773 H   0  0  0  0  0  0
  -24.8887  -32.2912   26.4823 H   0  0  0  0  0  0
  -25.8016  -30.8962   27.0243 H   0  0  0  0  0  0
  -26.2907  -29.6777   24.1187 H   0  0  0  0  0  0
  -27.4003  -29.7251   25.4697 H   0  0  0  0  0  0
  -27.8797  -30.4290   23.9429 H   0  0  0  0  0  0
  -27.2696  -33.3626   26.2074 H   0  0  0  0  0  0
  -28.3891  -32.6860   25.0334 H   0  0  0  0  0  0
  -28.0731  -31.8441   26.5426 H   0  0  0  0  0  0
  -28.2595  -38.0108   24.7500 H   0  0  0  0  0  0
  -28.1086  -36.2637   24.6299 H   0  0  0  0  0  0
  -27.2303  -37.1479   25.8865 H   0  0  0  0  0  0
  -20.9380  -29.8876   21.6989 H   0  0  0  0  0  0
  -26.0186  -38.2843   24.1372 H   0  0  0  0  0  0
  -29.8661  -19.6103   19.3971 H   0  0  0  0  0  0
  -27.3964  -19.1492   23.6561 H   0  0  0  0  0  0
  -29.8902  -24.6937   18.8378 H   0  0  0  0  0  0
  -28.3920  -23.9026   18.2370 H   0  0  0  0  0  0
  -28.2289  -23.7992   21.9862 H   0  0  0  0  0  0
  -29.7625  -24.6223   21.5627 H   0  0  0  0  0  0
  -27.0868  -24.7227   20.1475 H   0  0  0  0  0  0
  -28.1954  -16.1068   22.7732 H   0  0  0  0  0  0
  -28.4235  -17.1418   24.1707 H   0  0  0  0  0  0
  -29.8281  -16.5820   23.2894 H   0  0  0  0  0  0
  -31.3161  -17.2384   20.8787 H   0  0  0  0  0  0
  -30.3997  -17.2442   19.4025 H   0  0  0  0  0  0
  -27.2678  -22.1825   19.9924 H   0  0  0  0  0  0
  -28.4640  -21.5967   18.9025 H   0  0  0  0  0  0
  -28.9208  -15.5348   20.9139 H   0  0  0  0  0  0
  -30.1443  -22.8884   20.1522 H   0  0  0  0  0  0
  1 25  1  0  0  0
  1 30  2  0  0  0
  1 83  1  0  0  0
  2  3  1  0  0  0
  2 25  1  0  0  0
  2 86  1  0  0  0
  2 87  1  0  0  0
  3  4  1  0  0  0
  3 88  1  0  0  0
  3 89  1  0  0  0
  4  5  1  0  0  0
  4 90  1  0  0  0
  4 91  1  0  0  0
  5  6  1  0  0  0
  5 26  1  0  0  0
  5 92  1  0  0  0
  6 25  1  0  0  0
  6 93  1  0  0  0
  6 94  1  0  0  0
  7  8  2  0  0  0
  7 26  1  0  0  0
  7 29  1  0  0  0
  8  9  1  0  0  0
  8 22  1  0  0  0
  9 10  1  0  0  0
  9 27  2  0  0  0
 10 11  2  0  0  0
 10 15  1  0  0  0
 11 12  1  0  0  0
 11 95  1  0  0  0
 12 13  2  0  0  0
 12 96  1  0  0  0
 13 14  1  0  0  0
 13 31  1  0  0  0
 14 15  2  0  0  0
 14 97  1  0  0  0
 15 98  1  0  0  0
 16 17  2  0  0  0
 16 21  1  0  0  0
 16 31  1  0  0  0
 17 18  1  0  0  0
 17 99  1  0  0  0
 18 19  2  0  0  0
 18100  1  0  0  0
 19 20  1  0  0  0
 19 24  1  0  0  0
 20 21  2  0  0  0
 20101  1  0  0  0
 21 23  1  0  0  0
 22 28  1  0  0  0
 22 32  2  0  0  0
 26 27  1  0  0  0
 28102  1  0  0  0
 28103  1  0  0  0
 29104  1  0  0  0
 29105  1  0  0  0
 33 34  1  0  0  0
 33 66  1  0  0  0
 33 70  2  0  0  0
 34 36  1  0  0  0
 34 59  1  0  0  0
 34106  1  0  0  0
 35 44  2  0  0  0
 35 45  1  0  0  0
 35 68  1  0  0  0
 36 56  1  0  0  0
 36107  1  0  0  0
 37 39  1  0  0  0
 37 47  1  0  0  0
 37 66  1  0  0  0
 37108  1  0  0  0
 38 43  2  0  0  0
 38 46  1  0  0  0
 38 47  1  0  0  0
 39 64  1  0  0  0
 39 67  2  0  0  0
 40 52  1  0  0  0
 40 53  2  0  0  0
 40 58  1  0  0  0
 41109  1  0  0  0
 41110  1  0  0  0
 41111  1  0  0  0
 41 48  1  0  0  0
 42 43  1  0  0  0
 42 66  1  0  0  0
 42112  1  0  0  0
 42113  1  0  0  0
 43 44  1  0  0  0
 44114  1  0  0  0
 45 46  2  0  0  0
 45115  1  0  0  0
 46116  1  0  0  0
 47117  1  0  0  0
 47118  1  0  0  0
 48 56  1  0  0  0
 48 65  1  0  0  0
 48119  1  0  0  0
 49 50  1  0  0  0
 49 53  1  0  0  0
 49 64  1  0  0  0
 49120  1  0  0  0
 50 51  1  0  0  0
 50121  1  0  0  0
 50122  1  0  0  0
 51 52  1  0  0  0
 51123  1  0  0  0
 51124  1  0  0  0
 52125  1  0  0  0
 52126  1  0  0  0
 53 54  1  0  0  0
 54 55  2  0  0  0
 54127  1  0  0  0
 55 57  1  0  0  0
 55128  1  0  0  0
 56 69  2  0  0  0
 57 58  2  0  0  0
 57129  1  0  0  0
 58130  1  0  0  0
 59 60  1  0  0  0
 59 61  1  0  0  0
 59 62  1  0  0  0
 60131  1  0  0  0
 60132  1  0  0  0
 60133  1  0  0  0
 61134  1  0  0  0
 61135  1  0  0  0
 61136  1  0  0  0
 62137  1  0  0  0
 62138  1  0  0  0
 62139  1  0  0  0
 63 65  1  0  0  0
 63140  1  0  0  0
 63141  1  0  0  0
 63142  1  0  0  0
 64143  1  0  0  0
 65144  1  0  0  0
 68 79  1  0  0  0
 71 73  2  0  0  0
 71 74  1  0  0  0
 71145  1  0  0  0
 72 75  2  0  0  0
 72 76  1  0  0  0
 72146  1  0  0  0
 73 75  1  0  0  0
 73 81  1  0  0  0
 74 76  2  0  0  0
 74 82  1  0  0  0
 75 80  1  0  0  0
 76 85  1  0  0  0
 77 79  1  0  0  0
 77 84  1  0  0  0
 77147  1  0  0  0
 77148  1  0  0  0
 78 79  1  0  0  0
 78 84  1  0  0  0
 78149  1  0  0  0
 78150  1  0  0  0
 79151  1  0  0  0
 80152  1  0  0  0
 80153  1  0  0  0
 80154  1  0  0  0
 81 83  1  0  0  0
 81155  1  0  0  0
 81156  1  0  0  0
 82157  1  0  0  0
 82158  1  0  0  0
 82 84  1  0  0  0
 83159  1  0  0  0
 84160  1  0  0  0
M  CHG  1  84   1
M  ISO  4   1 100  68 101  79 101  83 100
M  END
> <chiral flag>
0

> <version>
0

> <s_m_source_file>
/data/baiqing/PycharmProjects/Reinvent-master-3.2/result/LINK_invent/BTK/process_docking_weight1_custom_product_contain_oxygen_bond_distance_aromatic_linkinvent_7_9_3/rearranged_h_0030.sdf

> <i_m_source_file_index>
90

> <r_mmod_Potential_Energy-OPLS-2005>
-220.582366943359

> <r_mmod_Stretch_Energy-OPLS-2005>
66.2912292480469

> <r_mmod_Bend_Energy-OPLS-2005>
143.860565185547

> <r_mmod_Torsional_Energy-OPLS-2005>
227.338134765625

> <r_mmod_Improper_Torsional_Energy-OPLS-2005>
6.68386793136597

> <r_mmod_Van_der_Waal_Energy-OPLS-2005>
149.226425170898

> <r_mmod_Electrostatic_Energy-OPLS-2005>
-390.761596679688

> <r_mmod_Solvation_Energy-OPLS-2005>
-464.462860107422

> <b_mmod_Minimization_Converged-OPLS-2005>
0

> <r_mmod_RMS_Derivative-OPLS-2005>
3.48652052879333

$$$$
90
                    3D
 Structure written by MMmdl.
163172  0  0  1  0            999 V2000
  -30.7372  -14.4585   20.6241 C   0  0  0  0  0  0
  -30.4160  -12.3213   19.4188 C   0  0  0  0  0  0
  -29.4892  -12.5138   18.2030 C   0  0  0  0  0  0
  -28.0130  -12.3682   18.6182 C   0  0  0  0  0  0
  -27.6590  -13.2108   19.8725 C   0  0  2  0  0  0
  -28.6995  -13.0039   20.9949 C   0  0  0  0  0  0
  -25.2574  -13.8169   20.5681 C   0  0  0  0  0  0
  -24.1829  -13.0442   20.9170 C   0  0  0  0  0  0
  -24.6388  -11.6910   20.8729 C   0  0  0  0  0  0
  -23.9058  -10.4293   21.0401 C   0  0  0  0  0  0
  -24.3611   -9.4213   21.9182 C   0  0  0  0  0  0
  -23.6285   -8.2248   22.0755 C   0  0  0  0  0  0
  -22.4271   -8.0283   21.3547 C   0  0  0  0  0  0
  -21.9901   -9.0254   20.4649 C   0  0  0  0  0  0
  -22.7229  -10.2131   20.3053 C   0  0  0  0  0  0
  -21.6856   -6.0731   22.5279 C   0  0  0  0  0  0
  -21.4018   -6.5635   23.8212 C   0  0  0  0  0  0
  -21.3655   -5.6788   24.9174 C   0  0  0  0  0  0
  -21.6039   -4.3051   24.7229 C   0  0  0  0  0  0
  -21.8819   -3.8143   23.4349 C   0  0  0  0  0  0
  -21.9195   -4.6958   22.3403 C   0  0  0  0  0  0
  -22.7851  -13.5244   21.1830 C   0  0  0  0  0  0
  -22.1665   -4.2143   21.0981 F   0  0  0  0  0  0
  -21.5622   -3.4535   25.7741 F   0  0  0  0  0  0
  -30.0301  -13.3080   20.4420 N   0  0  0  0  0  0
  -26.3011  -12.9346   20.3357 N   0  0  0  0  0  0
  -25.9314  -11.6501   20.5755 N   0  0  0  0  0  0
  -22.0482  -12.8246   22.0384 N   0  0  0  0  0  0
  -25.4296  -15.1887   20.4108 N   0  0  0  0  0  0
  -31.8299  -14.6537   20.0858 O   0  0  0  0  0  0
  -21.6639   -6.8875   21.4243 O   0  0  0  0  0  0
  -22.3546  -14.5558   20.6684 O   0  0  0  0  0  0
  -24.6178  -31.8674   23.2105 C   0  0  0  0  0  0
  -25.9067  -32.4816   23.8397 C   0  0  1  0  0  0
  -27.2202  -27.3989   20.0975 C   0  0  0  0  0  0
  -25.5916  -33.8614   24.2332 N   0  0  0  0  0  0
  -23.4054  -30.4942   21.5522 C   0  0  2  0  0  0
  -24.8475  -28.9615   20.1131 C   0  0  0  0  0  0
  -22.7424  -29.4660   22.4978 C   0  0  0  0  0  0
  -18.0276  -28.1375   22.8488 C   0  0  0  0  0  0
  -24.1485  -36.7306   23.2635 C   0  0  0  0  0  0
  -25.9391  -30.8207   21.3710 C   0  0  0  0  0  0
  -26.0109  -29.4540   20.7163 C   0  0  0  0  0  0
  -27.1981  -28.6803   20.7067 C   0  0  0  0  0  0
  -26.0400  -26.9497   19.4571 C   0  0  0  0  0  0
  -24.8590  -27.7105   19.4802 C   0  0  0  0  0  0
  -23.6136  -29.8333   20.1651 C   0  0  0  0  0  0
  -25.4106  -36.3107   24.0337 C   0  0  1  0  0  0
  -20.5869  -28.3667   23.1305 C   0  0  2  0  0  0
  -20.6765  -26.9399   22.5409 C   0  0  0  0  0  0
  -19.5742  -26.6385   21.5204 C   0  0  0  0  0  0
  -18.1923  -26.7921   22.1620 C   0  0  0  0  0  0
  -19.1527  -28.8837   23.2895 C   0  0  0  0  0  0
  -18.9455  -30.1443   23.8905 C   0  0  0  0  0  0
  -17.6457  -30.6581   24.0564 C   0  0  0  0  0  0
  -25.9037  -34.9471   23.5130 C   0  0  0  0  0  0
  -16.5348  -29.9083   23.6324 C   0  0  0  0  0  0
  -16.7266  -28.6499   23.0346 C   0  0  0  0  0  0
  -26.4483  -31.6592   25.0728 C   0  0  0  0  0  0
  -25.3747  -31.3702   26.1475 C   0  0  0  0  0  0
  -27.0312  -30.3029   24.6116 C   0  0  0  0  0  0
  -27.6059  -32.4305   25.7496 C   0  0  0  0  0  0
  -27.5579  -37.1812   24.8466 C   0  0  0  0  0  0
  -21.4149  -29.3037   22.3716 N   0  0  0  0  0  0
  -26.4293  -37.3792   23.9408 N   0  0  0  0  0  0
  -24.6726  -31.0755   22.1021 N   0  0  0  0  0  0
  -23.4192  -28.8186   23.3012 O   0  0  0  0  0  0
  -28.3834  -26.6412   20.1268 O   0  0  0  0  0  0
  -26.5592  -34.8924   22.4687 O   0  0  0  0  0  0
  -23.5366  -32.1442   23.7485 O   0  0  0  0  0  0
  -31.3367  -18.7999   20.9983 C   0  0  0  0  0  0
  -31.1049  -20.1929   20.9546 C   0  0  0  0  0  0
  -29.3244  -18.5062   22.3171 C   0  0  0  0  0  0
  -30.4797  -17.9478   21.7276 C   0  0  0  0  0  0
  -30.0128  -20.7743   21.6402 C   0  0  0  0  0  0
  -29.0873  -19.9056   22.2841 C   0  0  0  0  0  0
  -29.1867  -24.5751   19.0095 C   0  0  0  0  0  0
  -29.4386  -23.1270   19.4858 C   0  0  0  0  0  0
  -28.7847  -24.4696   21.3399 C   0  0  0  0  0  0
  -28.2880  -25.1913   20.0800 C   0  0  1  0  0  0
  -27.8767  -20.4519   23.0242 C   0  0  0  0  0  0
  -30.9140  -16.5065   22.0389 C   0  0  0  0  0  0
  -29.9669  -22.3093   21.8128 C   0  0  0  0  0  0
  -30.1789  -15.3929   21.4181 N   0  0  0  0  0  0
  -29.0476  -23.0642   20.9153 N   0  3  2  0  0  0
  -31.4604  -12.4145   19.1159 H   0  0  0  0  0  0
  -30.3156  -11.3112   19.8199 H   0  0  0  0  0  0
  -29.7310  -11.7883   17.4251 H   0  0  0  0  0  0
  -29.6549  -13.4990   17.7646 H   0  0  0  0  0  0
  -27.8286  -11.3121   18.8178 H   0  0  0  0  0  0
  -27.3598  -12.6380   17.7873 H   0  0  0  0  0  0
  -27.7014  -14.2575   19.5713 H   0  0  0  0  0  0
  -28.6778  -11.9719   21.3478 H   0  0  0  0  0  0
  -28.4494  -13.6126   21.8642 H   0  0  0  0  0  0
  -25.2753   -9.5690   22.4761 H   0  0  0  0  0  0
  -23.9993   -7.4642   22.7479 H   0  0  0  0  0  0
  -21.0827   -8.8768   19.8961 H   0  0  0  0  0  0
  -22.3682  -10.9666   19.6162 H   0  0  0  0  0  0
  -21.2017   -7.6145   23.9714 H   0  0  0  0  0  0
  -21.1474   -6.0520   25.9076 H   0  0  0  0  0  0
  -22.0601   -2.7606   23.2852 H   0  0  0  0  0  0
  -22.4087  -11.9908   22.4779 H   0  0  0  0  0  0
  -21.1101  -13.1285   22.2579 H   0  0  0  0  0  0
  -24.6660  -15.8463   20.5268 H   0  0  0  0  0  0
  -26.2886  -15.6297   20.1060 H   0  0  0  0  0  0
  -26.7131  -32.5513   23.1151 H   0  0  0  0  0  0
  -25.0088  -33.9770   25.0493 H   0  0  0  0  0  0
  -22.6953  -31.3126   21.4160 H   0  0  0  0  0  0
  -23.3745  -35.9640   23.3312 H   0  0  0  0  0  0
  -24.3582  -36.8906   22.2046 H   0  0  0  0  0  0
  -23.7237  -37.6516   23.6639 H   0  0  0  0  0  0
  -26.0596  -31.5861   20.6030 H   0  0  0  0  0  0
  -26.8245  -30.8695   21.9929 H   0  0  0  0  0  0
  -28.0937  -29.0547   21.1827 H   0  0  0  0  0  0
  -25.9969  -26.0218   18.9082 H   0  0  0  0  0  0
  -23.9698  -27.3355   18.9922 H   0  0  0  0  0  0
  -23.7265  -30.6110   19.4089 H   0  0  0  0  0  0
  -22.7352  -29.2590   19.8655 H   0  0  0  0  0  0
  -25.1280  -36.1975   25.0830 H   0  0  0  0  0  0
  -20.9963  -28.3233   24.1424 H   0  0  0  0  0  0
  -20.5658  -26.2274   23.3599 H   0  0  0  0  0  0
  -21.6638  -26.7434   22.1208 H   0  0  0  0  0  0
  -19.6904  -25.6299   21.1223 H   0  0  0  0  0  0
  -19.6678  -27.3203   20.6740 H   0  0  0  0  0  0
  -17.4190  -26.6668   21.4025 H   0  0  0  0  0  0
  -18.0327  -26.0060   22.9012 H   0  0  0  0  0  0
  -19.7935  -30.7256   24.2276 H   0  0  0  0  0  0
  -17.5015  -31.6262   24.5163 H   0  0  0  0  0  0
  -15.5349  -30.2988   23.7642 H   0  0  0  0  0  0
  -15.8667  -28.0822   22.7055 H   0  0  0  0  0  0
  -24.5925  -30.7037   25.7821 H   0  0  0  0  0  0
  -24.8929  -32.2855   26.4920 H   0  0  0  0  0  0
  -25.8102  -30.8881   27.0236 H   0  0  0  0  0  0
  -26.2860  -29.6796   24.1155 H   0  0  0  0  0  0
  -27.4059  -29.7257   25.4579 H   0  0  0  0  0  0
  -27.8709  -30.4341   23.9286 H   0  0  0  0  0  0
  -27.2683  -33.3599   26.2092 H   0  0  0  0  0  0
  -28.3864  -32.6869   25.0320 H   0  0  0  0  0  0
  -28.0727  -31.8410   26.5398 H   0  0  0  0  0  0
  -28.2605  -38.0101   24.7511 H   0  0  0  0  0  0
  -28.1066  -36.2635   24.6295 H   0  0  0  0  0  0
  -27.2298  -37.1471   25.8870 H   0  0  0  0  0  0
  -20.9307  -29.8785   21.6961 H   0  0  0  0  0  0
  -26.0182  -38.2873   24.1403 H   0  0  0  0  0  0
  -32.2302  -18.4007   20.5374 H   0  0  0  0  0  0
  -31.8299  -20.8234   20.4580 H   0  0  0  0  0  0
  -28.6605  -17.8635   22.8795 H   0  0  0  0  0  0
  -28.7395  -24.6194   18.0166 H   0  0  0  0  0  0
  -30.1327  -25.1153   18.9704 H   0  0  0  0  0  0
  -30.4832  -22.8527   19.3339 H   0  0  0  0  0  0
  -28.8325  -22.4155   18.9239 H   0  0  0  0  0  0
  -28.0633  -24.5205   22.1562 H   0  0  0  0  0  0
  -29.7110  -24.9325   21.6837 H   0  0  0  0  0  0
  -27.2798  -24.8164   19.9249 H   0  0  0  0  0  0
  -27.1825  -19.6536   23.2892 H   0  0  0  0  0  0
  -27.3265  -21.1661   22.4124 H   0  0  0  0  0  0
  -28.1787  -20.9455   23.9485 H   0  0  0  0  0  0
  -30.8208  -16.3734   23.1176 H   0  0  0  0  0  0
  -31.9858  -16.4190   21.8503 H   0  0  0  0  0  0
  -30.9756  -22.7132   21.7116 H   0  0  0  0  0  0
  -29.6872  -22.5174   22.8462 H   0  0  0  0  0  0
  -29.2609  -15.1892   21.7830 H   0  0  0  0  0  0
  -28.1630  -22.5790   20.9407 H   0  0  0  0  0  0
  1 25  1  0  0  0
  1 30  2  0  0  0
  1 84  1  0  0  0
  2  3  1  0  0  0
  2 25  1  0  0  0
  2 86  1  0  0  0
  2 87  1  0  0  0
  3  4  1  0  0  0
  3 88  1  0  0  0
  3 89  1  0  0  0
  4  5  1  0  0  0
  4 90  1  0  0  0
  4 91  1  0  0  0
  5  6  1  0  0  0
  5 26  1  0  0  0
  5 92  1  0  0  0
  6 25  1  0  0  0
  6 93  1  0  0  0
  6 94  1  0  0  0
  7  8  2  0  0  0
  7 26  1  0  0  0
  7 29  1  0  0  0
  8  9  1  0  0  0
  8 22  1  0  0  0
  9 10  1  0  0  0
  9 27  2  0  0  0
 10 11  2  0  0  0
 10 15  1  0  0  0
 11 12  1  0  0  0
 11 95  1  0  0  0
 12 13  2  0  0  0
 12 96  1  0  0  0
 13 14  1  0  0  0
 13 31  1  0  0  0
 14 15  2  0  0  0
 14 97  1  0  0  0
 15 98  1  0  0  0
 16 17  2  0  0  0
 16 21  1  0  0  0
 16 31  1  0  0  0
 17 18  1  0  0  0
 17 99  1  0  0  0
 18 19  2  0  0  0
 18100  1  0  0  0
 19 20  1  0  0  0
 19 24  1  0  0  0
 20 21  2  0  0  0
 20101  1  0  0  0
 21 23  1  0  0  0
 22 28  1  0  0  0
 22 32  2  0  0  0
 26 27  1  0  0  0
 28102  1  0  0  0
 28103  1  0  0  0
 29104  1  0  0  0
 29105  1  0  0  0
 33 34  1  0  0  0
 33 66  1  0  0  0
 33 70  2  0  0  0
 34 36  1  0  0  0
 34 59  1  0  0  0
 34106  1  0  0  0
 35 44  2  0  0  0
 35 45  1  0  0  0
 35 68  1  0  0  0
 36 56  1  0  0  0
 36107  1  0  0  0
 37 39  1  0  0  0
 37 47  1  0  0  0
 37 66  1  0  0  0
 37108  1  0  0  0
 38 43  2  0  0  0
 38 46  1  0  0  0
 38 47  1  0  0  0
 39 64  1  0  0  0
 39 67  2  0  0  0
 40 52  1  0  0  0
 40 53  2  0  0  0
 40 58  1  0  0  0
 41109  1  0  0  0
 41110  1  0  0  0
 41111  1  0  0  0
 41 48  1  0  0  0
 42 43  1  0  0  0
 42 66  1  0  0  0
 42112  1  0  0  0
 42113  1  0  0  0
 43 44  1  0  0  0
 44114  1  0  0  0
 45 46  2  0  0  0
 45115  1  0  0  0
 46116  1  0  0  0
 47117  1  0  0  0
 47118  1  0  0  0
 48 56  1  0  0  0
 48 65  1  0  0  0
 48119  1  0  0  0
 49 50  1  0  0  0
 49 53  1  0  0  0
 49 64  1  0  0  0
 49120  1  0  0  0
 50 51  1  0  0  0
 50121  1  0  0  0
 50122  1  0  0  0
 51 52  1  0  0  0
 51123  1  0  0  0
 51124  1  0  0  0
 52125  1  0  0  0
 52126  1  0  0  0
 53 54  1  0  0  0
 54 55  2  0  0  0
 54127  1  0  0  0
 55 57  1  0  0  0
 55128  1  0  0  0
 56 69  2  0  0  0
 57 58  2  0  0  0
 57129  1  0  0  0
 58130  1  0  0  0
 59 60  1  0  0  0
 59 61  1  0  0  0
 59 62  1  0  0  0
 60131  1  0  0  0
 60132  1  0  0  0
 60133  1  0  0  0
 61134  1  0  0  0
 61135  1  0  0  0
 61136  1  0  0  0
 62137  1  0  0  0
 62138  1  0  0  0
 62139  1  0  0  0
 63 65  1  0  0  0
 63140  1  0  0  0
 63141  1  0  0  0
 63142  1  0  0  0
 64143  1  0  0  0
 65144  1  0  0  0
 68 80  1  0  0  0
 71 72  2  0  0  0
 71 74  1  0  0  0
 71145  1  0  0  0
 72 75  1  0  0  0
 72146  1  0  0  0
 73 74  2  0  0  0
 73 76  1  0  0  0
 73147  1  0  0  0
 74 82  1  0  0  0
 75 76  2  0  0  0
 75 83  1  0  0  0
 76 81  1  0  0  0
 77 78  1  0  0  0
 77 80  1  0  0  0
 77148  1  0  0  0
 77149  1  0  0  0
 78 85  1  0  0  0
 78150  1  0  0  0
 78151  1  0  0  0
 79 80  1  0  0  0
 79 85  1  0  0  0
 79152  1  0  0  0
 79153  1  0  0  0
 80154  1  0  0  0
 81155  1  0  0  0
 81156  1  0  0  0
 81157  1  0  0  0
 82 84  1  0  0  0
 82158  1  0  0  0
 82159  1  0  0  0
 83160  1  0  0  0
 83161  1  0  0  0
 83 85  1  0  0  0
 84162  1  0  0  0
 85163  1  0  0  0
M  CHG  1  85   1
M  ISO  4   1 100  68 101  80 101  84 100
M  END
> <chiral flag>
0

> <version>
0

> <s_m_source_file>
/data/baiqing/PycharmProjects/Reinvent-master-3.2/result/LINK_invent/BTK/process_docking_weight1_custom_product_contain_oxygen_bond_distance_aromatic_linkinvent_7_9_3/rearranged_h_0030.sdf

> <i_m_source_file_index>
91

> <r_mmod_Potential_Energy-OPLS-2005>
-147.076950073242

> <r_mmod_Stretch_Energy-OPLS-2005>
42.381778717041

> <r_mmod_Bend_Energy-OPLS-2005>
132.15852355957

> <r_mmod_Torsional_Energy-OPLS-2005>
262.404113769531

> <r_mmod_Improper_Torsional_Energy-OPLS-2005>
4.05472087860107

> <r_mmod_Van_der_Waal_Energy-OPLS-2005>
150.410919189453

> <r_mmod_Electrostatic_Energy-OPLS-2005>
-325.681976318359

> <r_mmod_Solvation_Energy-OPLS-2005>
-427.845092773438

> <b_mmod_Minimization_Converged-OPLS-2005>
0

> <r_mmod_RMS_Derivative-OPLS-2005>
0.673087239265442

$$$$
