0
                    3D
 Structure written by MMmdl.
158166  0  0  1  0            999 V2000
  -30.6926  -14.5754   20.4782 C   0  0  0  0  0  0
  -30.4188  -12.3453   19.4542 C   0  0  0  0  0  0
  -29.5055  -12.4964   18.2191 C   0  0  0  0  0  0
  -28.0266  -12.3465   18.6282 C   0  0  0  0  0  0
  -27.6510  -13.2165   19.8586 C   0  0  2  0  0  0
  -28.6963  -13.0906   20.9890 C   0  0  0  0  0  0
  -25.2579  -13.8152   20.5682 C   0  0  0  0  0  0
  -24.1838  -13.0425   20.9180 C   0  0  0  0  0  0
  -24.6382  -11.6892   20.8695 C   0  0  0  0  0  0
  -23.9042  -10.4288   21.0368 C   0  0  0  0  0  0
  -24.3607   -9.4231   21.9172 C   0  0  0  0  0  0
  -23.6296   -8.2255   22.0751 C   0  0  0  0  0  0
  -22.4274   -8.0263   21.3543 C   0  0  0  0  0  0
  -21.9893   -9.0221   20.4622 C   0  0  0  0  0  0
  -22.7201  -10.2114   20.3021 C   0  0  0  0  0  0
  -21.6864   -6.0718   22.5265 C   0  0  0  0  0  0
  -21.4015   -6.5624   23.8202 C   0  0  0  0  0  0
  -21.3676   -5.6782   24.9167 C   0  0  0  0  0  0
  -21.6055   -4.3047   24.7224 C   0  0  0  0  0  0
  -21.8828   -3.8133   23.4343 C   0  0  0  0  0  0
  -21.9201   -4.6944   22.3400 C   0  0  0  0  0  0
  -22.7876  -13.5233   21.1839 C   0  0  0  0  0  0
  -22.1671   -4.2136   21.0973 F   0  0  0  0  0  0
  -21.5639   -3.4530   25.7738 F   0  0  0  0  0  0
  -30.0195  -13.3852   20.4224 N   0  0  0  0  0  0
  -26.2994  -12.9329   20.3298 N   0  0  0  0  0  0
  -25.9316  -11.6481   20.5718 N   0  0  0  0  0  0
  -22.0507  -12.8215   22.0371 N   0  0  0  0  0  0
  -25.4267  -15.1864   20.4089 N   0  0  0  0  0  0
  -31.8835  -14.6311   20.1617 O   0  0  0  0  0  0
  -21.6648   -6.8849   21.4218 O   0  0  0  0  0  0
  -22.3566  -14.5554   20.6684 O   0  0  0  0  0  0
  -24.6250  -31.8654   23.2095 C   0  0  0  0  0  0
  -25.9116  -32.4805   23.8412 C   0  0  1  0  0  0
  -27.2142  -27.3518   20.0985 C   0  0  0  0  0  0
  -25.5951  -33.8605   24.2336 N   0  0  0  0  0  0
  -23.4161  -30.4956   21.5512 C   0  0  2  0  0  0
  -24.8578  -28.9640   20.1073 C   0  0  0  0  0  0
  -22.7469  -29.4677   22.4946 C   0  0  0  0  0  0
  -18.0289  -28.1408   22.8482 C   0  0  0  0  0  0
  -24.1487  -36.7315   23.2635 C   0  0  0  0  0  0
  -25.9560  -30.8017   21.3791 C   0  0  0  0  0  0
  -26.0263  -29.4334   20.7207 C   0  0  0  0  0  0
  -27.2070  -28.6356   20.7174 C   0  0  0  0  0  0
  -26.0256  -26.9511   19.4365 C   0  0  0  0  0  0
  -24.8572  -27.7246   19.4568 C   0  0  0  0  0  0
  -23.6273  -29.8408   20.1620 C   0  0  0  0  0  0
  -25.4111  -36.3107   24.0331 C   0  0  1  0  0  0
  -20.5886  -28.3724   23.1276 C   0  0  2  0  0  0
  -20.6798  -26.9453   22.5404 C   0  0  0  0  0  0
  -19.5767  -26.6399   21.5221 C   0  0  0  0  0  0
  -18.1940  -26.7952   22.1622 C   0  0  0  0  0  0
  -19.1540  -28.8882   23.2874 C   0  0  0  0  0  0
  -18.9463  -30.1476   23.8909 C   0  0  0  0  0  0
  -17.6463  -30.6601   24.0577 C   0  0  0  0  0  0
  -25.9048  -34.9472   23.5128 C   0  0  0  0  0  0
  -16.5356  -29.9108   23.6330 C   0  0  0  0  0  0
  -16.7271  -28.6527   23.0344 C   0  0  0  0  0  0
  -26.4492  -31.6580   25.0760 C   0  0  0  0  0  0
  -25.3725  -31.3676   26.1475 C   0  0  0  0  0  0
  -27.0317  -30.3010   24.6174 C   0  0  0  0  0  0
  -27.6077  -32.4269   25.7541 C   0  0  0  0  0  0
  -27.5578  -37.1824   24.8459 C   0  0  0  0  0  0
  -21.4190  -29.3082   22.3675 N   0  0  0  0  0  0
  -26.4292  -37.3800   23.9401 N   0  0  0  0  0  0
  -24.6845  -31.0696   22.1033 N   0  0  0  0  0  0
  -23.4205  -28.8210   23.3006 O   0  0  0  0  0  0
  -28.3169  -26.4874   20.1668 O   0  0  0  0  0  0
  -26.5598  -34.8921   22.4678 O   0  0  0  0  0  0
  -23.5423  -32.1450   23.7431 O   0  0  0  0  0  0
  -30.6687  -19.5781   20.7667 C   0  0  0  0  0  0
  -30.1291  -20.8910   20.6616 C   0  0  0  0  0  0
  -28.4961  -18.6291   20.3540 C   0  0  0  0  0  0
  -29.8706  -18.4171   20.5971 C   0  0  0  0  0  0
  -28.7593  -21.0995   20.3797 C   0  0  0  0  0  0
  -27.9422  -19.9326   20.2377 C   0  0  0  0  0  0
  -30.4890  -17.0456   20.6213 C   0  0  0  0  0  0
  -29.8945  -15.8147   20.6492 C   0  0  0  0  0  0
  -26.1046  -20.2294   18.4691 C   0  0  0  0  0  0
  -28.1360  -22.5172   20.1892 C   0  0  0  0  0  0
  -26.4437  -20.0137   19.9517 C   0  0  0  0  0  0
  -28.9251  -23.8683   20.3890 C   0  0  0  0  0  0
  -28.0110  -25.0679   19.9365 C   0  0  0  0  0  0
  -31.4671  -12.4202   19.1600 H   0  0  0  0  0  0
  -30.3099  -11.3549   19.8988 H   0  0  0  0  0  0
  -29.7630  -11.7486   17.4665 H   0  0  0  0  0  0
  -29.6692  -13.4685   17.7498 H   0  0  0  0  0  0
  -27.8555  -11.2942   18.8521 H   0  0  0  0  0  0
  -27.3772  -12.5894   17.7875 H   0  0  0  0  0  0
  -27.6560  -14.2461   19.5105 H   0  0  0  0  0  0
  -28.6934  -12.0838   21.4088 H   0  0  0  0  0  0
  -28.4630  -13.7616   21.8171 H   0  0  0  0  0  0
  -25.2740   -9.5730   22.4757 H   0  0  0  0  0  0
  -24.0019   -7.4652   22.7459 H   0  0  0  0  0  0
  -21.0840   -8.8689   19.8913 H   0  0  0  0  0  0
  -22.3631  -10.9651   19.6122 H   0  0  0  0  0  0
  -21.2001   -7.6136   23.9697 H   0  0  0  0  0  0
  -21.1494   -6.0510   25.9067 H   0  0  0  0  0  0
  -22.0598   -2.7597   23.2839 H   0  0  0  0  0  0
  -22.4103  -11.9915   22.4861 H   0  0  0  0  0  0
  -21.1086  -13.1196   22.2477 H   0  0  0  0  0  0
  -24.6596  -15.8395   20.5246 H   0  0  0  0  0  0
  -26.2751  -15.6291   20.0813 H   0  0  0  0  0  0
  -26.7198  -32.5487   23.1179 H   0  0  0  0  0  0
  -25.0123  -33.9742   25.0500 H   0  0  0  0  0  0
  -22.7107  -31.3172   21.4151 H   0  0  0  0  0  0
  -23.3750  -35.9645   23.3293 H   0  0  0  0  0  0
  -24.3596  -36.8944   22.2055 H   0  0  0  0  0  0
  -23.7228  -37.6515   23.6653 H   0  0  0  0  0  0
  -26.0828  -31.5619   20.6078 H   0  0  0  0  0  0
  -26.8409  -30.8528   22.0008 H   0  0  0  0  0  0
  -28.0960  -28.9824   21.2250 H   0  0  0  0  0  0
  -25.9558  -26.0197   18.8968 H   0  0  0  0  0  0
  -23.9677  -27.3661   18.9543 H   0  0  0  0  0  0
  -23.7489  -30.6233   19.4127 H   0  0  0  0  0  0
  -22.7467  -29.2732   19.8555 H   0  0  0  0  0  0
  -25.1285  -36.1984   25.0830 H   0  0  0  0  0  0
  -20.9970  -28.3308   24.1401 H   0  0  0  0  0  0
  -20.5742  -26.2349   23.3612 H   0  0  0  0  0  0
  -21.6662  -26.7529   22.1168 H   0  0  0  0  0  0
  -19.6938  -25.6301   21.1271 H   0  0  0  0  0  0
  -19.6691  -27.3199   20.6743 H   0  0  0  0  0  0
  -17.4218  -26.6704   21.4014 H   0  0  0  0  0  0
  -18.0329  -26.0090   22.9017 H   0  0  0  0  0  0
  -19.7935  -30.7290   24.2288 H   0  0  0  0  0  0
  -17.5016  -31.6279   24.5181 H   0  0  0  0  0  0
  -15.5360  -30.3024   23.7639 H   0  0  0  0  0  0
  -15.8666  -28.0852   22.7052 H   0  0  0  0  0  0
  -24.5939  -30.6984   25.7788 H   0  0  0  0  0  0
  -24.8857  -32.2811   26.4900 H   0  0  0  0  0  0
  -25.8050  -30.8863   27.0256 H   0  0  0  0  0  0
  -26.2873  -29.6777   24.1204 H   0  0  0  0  0  0
  -27.4038  -29.7239   25.4652 H   0  0  0  0  0  0
  -27.8738  -30.4306   23.9371 H   0  0  0  0  0  0
  -27.2730  -33.3575   26.2127 H   0  0  0  0  0  0
  -28.3905  -32.6796   25.0379 H   0  0  0  0  0  0
  -28.0717  -31.8367   26.5454 H   0  0  0  0  0  0
  -28.2588  -38.0129   24.7529 H   0  0  0  0  0  0
  -28.1083  -36.2669   24.6262 H   0  0  0  0  0  0
  -27.2299  -37.1436   25.8860 H   0  0  0  0  0  0
  -20.9378  -29.8827   21.6897 H   0  0  0  0  0  0
  -26.0181  -38.2880   24.1399 H   0  0  0  0  0  0
  -31.7277  -19.4693   20.9571 H   0  0  0  0  0  0
  -30.7919  -21.7377   20.7810 H   0  0  0  0  0  0
  -27.8535  -17.7736   20.2143 H   0  0  0  0  0  0
  -31.5701  -17.0642   20.5586 H   0  0  0  0  0  0
  -28.8230  -15.7600   20.7408 H   0  0  0  0  0  0
  -25.0289  -20.1545   18.3083 H   0  0  0  0  0  0
  -26.5843  -19.4821   17.8362 H   0  0  0  0  0  0
  -26.4094  -21.2118   18.1131 H   0  0  0  0  0  0
  -27.2577  -22.5676   20.8325 H   0  0  0  0  0  0
  -27.7623  -22.5373   19.1677 H   0  0  0  0  0  0
  -25.9694  -20.7789   20.5662 H   0  0  0  0  0  0
  -25.9817  -19.0797   20.2731 H   0  0  0  0  0  0
  -29.8441  -23.8640   19.8056 H   0  0  0  0  0  0
  -29.2103  -23.9857   21.4336 H   0  0  0  0  0  0
  -27.0583  -24.8591   20.4255 H   0  0  0  0  0  0
  -27.8520  -24.9479   18.8637 H   0  0  0  0  0  0
  1 25  1  0  0  0
  1 30  2  0  0  0
  1 78  1  0  0  0
  2  3  1  0  0  0
  2 25  1  0  0  0
  2 84  1  0  0  0
  2 85  1  0  0  0
  3  4  1  0  0  0
  3 86  1  0  0  0
  3 87  1  0  0  0
  4  5  1  0  0  0
  4 88  1  0  0  0
  4 89  1  0  0  0
  5  6  1  0  0  0
  5 26  1  0  0  0
  5 90  1  0  0  0
  6 25  1  0  0  0
  6 91  1  0  0  0
  6 92  1  0  0  0
  7  8  2  0  0  0
  7 26  1  0  0  0
  7 29  1  0  0  0
  8  9  1  0  0  0
  8 22  1  0  0  0
  9 10  1  0  0  0
  9 27  2  0  0  0
 10 11  2  0  0  0
 10 15  1  0  0  0
 11 12  1  0  0  0
 11 93  1  0  0  0
 12 13  2  0  0  0
 12 94  1  0  0  0
 13 14  1  0  0  0
 13 31  1  0  0  0
 14 15  2  0  0  0
 14 95  1  0  0  0
 15 96  1  0  0  0
 16 17  2  0  0  0
 16 21  1  0  0  0
 16 31  1  0  0  0
 17 18  1  0  0  0
 17 97  1  0  0  0
 18 19  2  0  0  0
 18 98  1  0  0  0
 19 20  1  0  0  0
 19 24  1  0  0  0
 20 21  2  0  0  0
 20 99  1  0  0  0
 21 23  1  0  0  0
 22 28  1  0  0  0
 22 32  2  0  0  0
 26 27  1  0  0  0
 28100  1  0  0  0
 28101  1  0  0  0
 29102  1  0  0  0
 29103  1  0  0  0
 33 34  1  0  0  0
 33 66  1  0  0  0
 33 70  2  0  0  0
 34 36  1  0  0  0
 34 59  1  0  0  0
 34104  1  0  0  0
 35 44  2  0  0  0
 35 45  1  0  0  0
 35 68  1  0  0  0
 36 56  1  0  0  0
 36105  1  0  0  0
 37 39  1  0  0  0
 37 47  1  0  0  0
 37 66  1  0  0  0
 37106  1  0  0  0
 38 43  2  0  0  0
 38 46  1  0  0  0
 38 47  1  0  0  0
 39 64  1  0  0  0
 39 67  2  0  0  0
 40 52  1  0  0  0
 40 53  2  0  0  0
 40 58  1  0  0  0
 41107  1  0  0  0
 41108  1  0  0  0
 41109  1  0  0  0
 41 48  1  0  0  0
 42 43  1  0  0  0
 42 66  1  0  0  0
 42110  1  0  0  0
 42111  1  0  0  0
 43 44  1  0  0  0
 44112  1  0  0  0
 45 46  2  0  0  0
 45113  1  0  0  0
 46114  1  0  0  0
 47115  1  0  0  0
 47116  1  0  0  0
 48 56  1  0  0  0
 48 65  1  0  0  0
 48117  1  0  0  0
 49 50  1  0  0  0
 49 53  1  0  0  0
 49 64  1  0  0  0
 49118  1  0  0  0
 50 51  1  0  0  0
 50119  1  0  0  0
 50120  1  0  0  0
 51 52  1  0  0  0
 51121  1  0  0  0
 51122  1  0  0  0
 52123  1  0  0  0
 52124  1  0  0  0
 53 54  1  0  0  0
 54 55  2  0  0  0
 54125  1  0  0  0
 55 57  1  0  0  0
 55126  1  0  0  0
 56 69  2  0  0  0
 57 58  2  0  0  0
 57127  1  0  0  0
 58128  1  0  0  0
 59 60  1  0  0  0
 59 61  1  0  0  0
 59 62  1  0  0  0
 60129  1  0  0  0
 60130  1  0  0  0
 60131  1  0  0  0
 61132  1  0  0  0
 61133  1  0  0  0
 61134  1  0  0  0
 62135  1  0  0  0
 62136  1  0  0  0
 62137  1  0  0  0
 63 65  1  0  0  0
 63138  1  0  0  0
 63139  1  0  0  0
 63140  1  0  0  0
 64141  1  0  0  0
 65142  1  0  0  0
 68 83  1  0  0  0
 71 72  2  0  0  0
 71 74  1  0  0  0
 71143  1  0  0  0
 72 75  1  0  0  0
 72144  1  0  0  0
 73 74  2  0  0  0
 73 76  1  0  0  0
 73145  1  0  0  0
 74 77  1  0  0  0
 75 76  2  0  0  0
 75 80  1  0  0  0
 76 81  1  0  0  0
 77 78  2  0  0  0
 77146  1  0  0  0
 78147  1  0  0  0
 79 81  1  0  0  0
 79148  1  0  0  0
 79149  1  0  0  0
 79150  1  0  0  0
 80 82  1  0  0  0
 80151  1  0  0  0
 80152  1  0  0  0
 81153  1  0  0  0
 81154  1  0  0  0
 82 83  1  0  0  0
 82155  1  0  0  0
 82156  1  0  0  0
 83157  1  0  0  0
 83158  1  0  0  0
M  ISO  4   1 100  68 101  78 100  83 101
M  END
> <chiral flag>
0

> <version>
0

> <s_m_source_file>
/data/baiqing/PycharmProjects/Reinvent-master-3.2/result/LINK_invent/BTK/process_docking_weight1_custom_product_contain_oxygen_bond_distance_aromatic_linkinvent_7_9_3/rearranged_h_0128.sdf

> <i_m_source_file_index>
1

> <r_mmod_Potential_Energy-OPLS-2005>
54.2458839416504

> <r_mmod_Stretch_Energy-OPLS-2005>
61.5522994995117

> <r_mmod_Bend_Energy-OPLS-2005>
134.983062744141

> <r_mmod_Torsional_Energy-OPLS-2005>
185.540557861328

> <r_mmod_Improper_Torsional_Energy-OPLS-2005>
6.9649600982666

> <r_mmod_Van_der_Waal_Energy-OPLS-2005>
161.636459350586

> <r_mmod_Electrostatic_Energy-OPLS-2005>
-346.051513671875

> <r_mmod_Solvation_Energy-OPLS-2005>
-191.285522460938

> <b_mmod_Minimization_Converged-OPLS-2005>
0

> <r_mmod_RMS_Derivative-OPLS-2005>
3.13973689079285

$$$$
1
                    3D
 Structure written by MMmdl.
161169  0  0  1  0            999 V2000
  -30.6889  -14.4851   20.4353 C   0  0  0  0  0  0
  -30.4157  -12.2740   19.4477 C   0  0  0  0  0  0
  -29.5065  -12.4721   18.2168 C   0  0  0  0  0  0
  -28.0217  -12.3512   18.6126 C   0  0  0  0  0  0
  -27.6573  -13.2051   19.8574 C   0  0  2  0  0  0
  -28.6999  -13.0474   20.9895 C   0  0  0  0  0  0
  -25.2587  -13.8157   20.5596 C   0  0  0  0  0  0
  -24.1854  -13.0445   20.9154 C   0  0  0  0  0  0
  -24.6402  -11.6909   20.8721 C   0  0  0  0  0  0
  -23.9071  -10.4299   21.0401 C   0  0  0  0  0  0
  -24.3633   -9.4224   21.9179 C   0  0  0  0  0  0
  -23.6320   -8.2260   22.0751 C   0  0  0  0  0  0
  -22.4309   -8.0281   21.3527 C   0  0  0  0  0  0
  -21.9928   -9.0255   20.4633 C   0  0  0  0  0  0
  -22.7241  -10.2144   20.3047 C   0  0  0  0  0  0
  -21.6862   -6.0735   22.5270 C   0  0  0  0  0  0
  -21.4014   -6.5646   23.8209 C   0  0  0  0  0  0
  -21.3660   -5.6791   24.9165 C   0  0  0  0  0  0
  -21.6068   -4.3065   24.7220 C   0  0  0  0  0  0
  -21.8822   -3.8147   23.4333 C   0  0  0  0  0  0
  -21.9201   -4.6969   22.3400 C   0  0  0  0  0  0
  -22.7882  -13.5247   21.1831 C   0  0  0  0  0  0
  -22.1665   -4.2159   21.0966 F   0  0  0  0  0  0
  -21.5654   -3.4542   25.7722 F   0  0  0  0  0  0
  -30.0335  -13.2979   20.4276 N   0  0  0  0  0  0
  -26.3006  -12.9305   20.3250 N   0  0  0  0  0  0
  -25.9323  -11.6475   20.5722 N   0  0  0  0  0  0
  -22.0543  -12.8214   22.0384 N   0  0  0  0  0  0
  -25.4334  -15.1865   20.3958 N   0  0  0  0  0  0
  -31.8933  -14.5906   20.2044 O   0  0  0  0  0  0
  -21.6670   -6.8890   21.4234 O   0  0  0  0  0  0
  -22.3567  -14.5554   20.6697 O   0  0  0  0  0  0
  -24.6097  -31.8682   23.2149 C   0  0  0  0  0  0
  -25.8991  -32.4840   23.8435 C   0  0  1  0  0  0
  -27.2463  -27.4749   20.0697 C   0  0  0  0  0  0
  -25.5839  -33.8646   24.2333 N   0  0  0  0  0  0
  -23.3982  -30.4914   21.5537 C   0  0  2  0  0  0
  -24.8437  -28.9634   20.1157 C   0  0  0  0  0  0
  -22.7386  -29.4645   22.5021 C   0  0  0  0  0  0
  -18.0261  -28.1380   22.8504 C   0  0  0  0  0  0
  -24.1469  -36.7348   23.2642 C   0  0  0  0  0  0
  -25.9223  -30.8410   21.3697 C   0  0  0  0  0  0
  -25.9990  -29.4794   20.7160 C   0  0  0  0  0  0
  -27.1967  -28.7361   20.7001 C   0  0  0  0  0  0
  -26.0710  -26.9587   19.4782 C   0  0  0  0  0  0
  -24.8736  -27.6997   19.5004 C   0  0  0  0  0  0
  -23.6010  -29.8213   20.1680 C   0  0  0  0  0  0
  -25.4099  -36.3147   24.0330 C   0  0  1  0  0  0
  -20.5843  -28.3643   23.1349 C   0  0  2  0  0  0
  -20.6729  -26.9380   22.5440 C   0  0  0  0  0  0
  -19.5708  -26.6374   21.5231 C   0  0  0  0  0  0
  -18.1889  -26.7928   22.1635 C   0  0  0  0  0  0
  -19.1508  -28.8828   23.2930 C   0  0  0  0  0  0
  -18.9430  -30.1435   23.8937 C   0  0  0  0  0  0
  -17.6427  -30.6576   24.0564 C   0  0  0  0  0  0
  -25.9006  -34.9493   23.5139 C   0  0  0  0  0  0
  -16.5317  -29.9073   23.6333 C   0  0  0  0  0  0
  -16.7247  -28.6490   23.0366 C   0  0  0  0  0  0
  -26.4440  -31.6639   25.0771 C   0  0  0  0  0  0
  -25.3700  -31.3721   26.1517 C   0  0  0  0  0  0
  -27.0284  -30.3075   24.6173 C   0  0  0  0  0  0
  -27.6022  -32.4380   25.7504 C   0  0  0  0  0  0
  -27.5596  -37.1821   24.8449 C   0  0  0  0  0  0
  -21.4114  -29.3025   22.3764 N   0  0  0  0  0  0
  -26.4303  -37.3816   23.9396 N   0  0  0  0  0  0
  -24.6609  -31.0805   22.1043 N   0  0  0  0  0  0
  -23.4162  -28.8167   23.3055 O   0  0  0  0  0  0
  -28.4529  -26.8116   20.0752 O   0  0  0  0  0  0
  -26.5598  -34.8933   22.4715 O   0  0  0  0  0  0
  -23.5295  -32.1416   23.7561 O   0  0  0  0  0  0
  -30.7339  -17.6121   17.3503 C   0  0  0  0  0  0
  -30.7570  -16.5766   18.2961 C   0  0  0  0  0  0
  -29.1097  -17.7676   19.6176 C   0  0  0  0  0  0
  -29.0732  -18.8338   18.6764 C   0  0  0  0  0  0
  -29.8965  -18.7338   17.5143 C   0  0  0  0  0  0
  -29.9421  -16.6350   19.4498 C   0  0  0  0  0  0
  -28.1746  -19.9737   19.0118 C   0  0  0  0  0  0
  -28.0656  -21.1929   18.4434 C   0  0  0  0  0  0
  -28.1985  -24.4698   19.4482 C   0  0  0  0  0  0
  -27.6422  -23.6274   18.5650 C   0  0  0  0  0  0
  -29.9182  -19.7584   16.3912 C   0  0  0  0  0  0
  -25.7211  -22.0716   18.1983 C   0  0  0  0  0  0
  -28.7230  -25.8404   19.0727 C   0  0  0  0  0  0
  -27.0807  -22.2570   18.8861 C   0  0  1  0  0  0
  -29.8846  -15.5673   20.4103 N   0  0  0  0  0  0
  -31.4668  -12.3404   19.1623 H   0  0  0  0  0  0
  -30.2812  -11.2776   19.8724 H   0  0  0  0  0  0
  -29.7460  -11.7350   17.4485 H   0  0  0  0  0  0
  -29.6975  -13.4504   17.7713 H   0  0  0  0  0  0
  -27.8169  -11.2989   18.8113 H   0  0  0  0  0  0
  -27.3862  -12.6268   17.7691 H   0  0  0  0  0  0
  -27.6793  -14.2409   19.5219 H   0  0  0  0  0  0
  -28.6668  -12.0443   21.4112 H   0  0  0  0  0  0
  -28.4834  -13.7332   21.8100 H   0  0  0  0  0  0
  -25.2783   -9.5718   22.4766 H   0  0  0  0  0  0
  -24.0035   -7.4656   22.7479 H   0  0  0  0  0  0
  -21.0856   -8.8766   19.8944 H   0  0  0  0  0  0
  -22.3679  -10.9697   19.6178 H   0  0  0  0  0  0
  -21.1990   -7.6156   23.9696 H   0  0  0  0  0  0
  -21.1481   -6.0531   25.9068 H   0  0  0  0  0  0
  -22.0599   -2.7617   23.2825 H   0  0  0  0  0  0
  -22.4133  -11.9846   22.4735 H   0  0  0  0  0  0
  -21.1170  -13.1249   22.2625 H   0  0  0  0  0  0
  -24.6665  -15.8444   20.4825 H   0  0  0  0  0  0
  -26.2734  -15.6101   20.0228 H   0  0  0  0  0  0
  -26.7067  -32.5539   23.1213 H   0  0  0  0  0  0
  -24.9921  -33.9807   25.0430 H   0  0  0  0  0  0
  -22.6885  -31.3077   21.4174 H   0  0  0  0  0  0
  -23.3746  -35.9669   23.3301 H   0  0  0  0  0  0
  -24.3567  -36.8980   22.2066 H   0  0  0  0  0  0
  -23.7192  -37.6532   23.6663 H   0  0  0  0  0  0
  -26.0359  -31.6134   20.6083 H   0  0  0  0  0  0
  -26.8074  -30.8871   21.9928 H   0  0  0  0  0  0
  -28.0918  -29.1330   21.1578 H   0  0  0  0  0  0
  -26.0605  -25.9905   19.0014 H   0  0  0  0  0  0
  -23.9855  -27.2977   19.0331 H   0  0  0  0  0  0
  -23.6917  -30.5919   19.4012 H   0  0  0  0  0  0
  -22.7290  -29.2297   19.8822 H   0  0  0  0  0  0
  -25.1281  -36.2048   25.0827 H   0  0  0  0  0  0
  -20.9948  -28.3191   24.1466 H   0  0  0  0  0  0
  -20.5617  -26.2248   23.3624 H   0  0  0  0  0  0
  -21.6594  -26.7405   22.1235 H   0  0  0  0  0  0
  -19.6846  -25.6286   21.1250 H   0  0  0  0  0  0
  -19.6658  -27.3196   20.6766 H   0  0  0  0  0  0
  -17.4175  -26.6733   21.4018 H   0  0  0  0  0  0
  -18.0256  -26.0037   22.8991 H   0  0  0  0  0  0
  -19.7894  -30.7248   24.2319 H   0  0  0  0  0  0
  -17.4967  -31.6253   24.5158 H   0  0  0  0  0  0
  -15.5319  -30.2986   23.7601 H   0  0  0  0  0  0
  -15.8654  -28.0787   22.7104 H   0  0  0  0  0  0
  -24.5849  -30.7111   25.7820 H   0  0  0  0  0  0
  -24.8915  -32.2864   26.5036 H   0  0  0  0  0  0
  -25.8035  -30.8809   27.0236 H   0  0  0  0  0  0
  -26.2826  -29.6849   24.1206 H   0  0  0  0  0  0
  -27.4000  -29.7329   25.4674 H   0  0  0  0  0  0
  -27.8695  -30.4402   23.9361 H   0  0  0  0  0  0
  -27.2622  -33.3645   26.2153 H   0  0  0  0  0  0
  -28.3761  -32.7015   25.0277 H   0  0  0  0  0  0
  -28.0776  -31.8474   26.5354 H   0  0  0  0  0  0
  -28.2611  -38.0123   24.7530 H   0  0  0  0  0  0
  -28.1095  -36.2663   24.6237 H   0  0  0  0  0  0
  -27.2311  -37.1426   25.8846 H   0  0  0  0  0  0
  -20.9277  -29.8788   21.7019 H   0  0  0  0  0  0
  -26.0224  -38.2900   24.1406 H   0  0  0  0  0  0
  -31.3662  -17.5342   16.4775 H   0  0  0  0  0  0
  -31.4001  -15.7323   18.0876 H   0  0  0  0  0  0
  -28.4802  -17.8241   20.4954 H   0  0  0  0  0  0
  -27.4967  -19.7834   19.8332 H   0  0  0  0  0  0
  -28.6897  -21.5008   17.6252 H   0  0  0  0  0  0
  -28.2994  -24.1848   20.4857 H   0  0  0  0  0  0
  -27.5743  -23.9363   17.5299 H   0  0  0  0  0  0
  -30.4427  -19.3792   15.5122 H   0  0  0  0  0  0
  -30.4397  -20.6650   16.7019 H   0  0  0  0  0  0
  -28.9083  -20.0016   16.0598 H   0  0  0  0  0  0
  -25.3091  -21.0803   18.3918 H   0  0  0  0  0  0
  -25.8081  -22.1857   17.1164 H   0  0  0  0  0  0
  -24.9971  -22.8063   18.5520 H   0  0  0  0  0  0
  -28.3569  -26.1602   18.0948 H   0  0  0  0  0  0
  -29.8076  -25.7687   18.9765 H   0  0  0  0  0  0
  -26.9468  -22.1725   19.9642 H   0  0  0  0  0  0
  -28.9899  -15.4447   20.8605 H   0  0  0  0  0  0
  1 25  1  0  0  0
  1 30  2  0  0  0
  1 85  1  0  0  0
  2  3  1  0  0  0
  2 25  1  0  0  0
  2 86  1  0  0  0
  2 87  1  0  0  0
  3  4  1  0  0  0
  3 88  1  0  0  0
  3 89  1  0  0  0
  4  5  1  0  0  0
  4 90  1  0  0  0
  4 91  1  0  0  0
  5  6  1  0  0  0
  5 26  1  0  0  0
  5 92  1  0  0  0
  6 25  1  0  0  0
  6 93  1  0  0  0
  6 94  1  0  0  0
  7  8  2  0  0  0
  7 26  1  0  0  0
  7 29  1  0  0  0
  8  9  1  0  0  0
  8 22  1  0  0  0
  9 10  1  0  0  0
  9 27  2  0  0  0
 10 11  2  0  0  0
 10 15  1  0  0  0
 11 12  1  0  0  0
 11 95  1  0  0  0
 12 13  2  0  0  0
 12 96  1  0  0  0
 13 14  1  0  0  0
 13 31  1  0  0  0
 14 15  2  0  0  0
 14 97  1  0  0  0
 15 98  1  0  0  0
 16 17  2  0  0  0
 16 21  1  0  0  0
 16 31  1  0  0  0
 17 18  1  0  0  0
 17 99  1  0  0  0
 18 19  2  0  0  0
 18100  1  0  0  0
 19 20  1  0  0  0
 19 24  1  0  0  0
 20 21  2  0  0  0
 20101  1  0  0  0
 21 23  1  0  0  0
 22 28  1  0  0  0
 22 32  2  0  0  0
 26 27  1  0  0  0
 28102  1  0  0  0
 28103  1  0  0  0
 29104  1  0  0  0
 29105  1  0  0  0
 33 34  1  0  0  0
 33 66  1  0  0  0
 33 70  2  0  0  0
 34 36  1  0  0  0
 34 59  1  0  0  0
 34106  1  0  0  0
 35 44  2  0  0  0
 35 45  1  0  0  0
 35 68  1  0  0  0
 36 56  1  0  0  0
 36107  1  0  0  0
 37 39  1  0  0  0
 37 47  1  0  0  0
 37 66  1  0  0  0
 37108  1  0  0  0
 38 43  2  0  0  0
 38 46  1  0  0  0
 38 47  1  0  0  0
 39 64  1  0  0  0
 39 67  2  0  0  0
 40 52  1  0  0  0
 40 53  2  0  0  0
 40 58  1  0  0  0
 41109  1  0  0  0
 41110  1  0  0  0
 41111  1  0  0  0
 41 48  1  0  0  0
 42 43  1  0  0  0
 42 66  1  0  0  0
 42112  1  0  0  0
 42113  1  0  0  0
 43 44  1  0  0  0
 44114  1  0  0  0
 45 46  2  0  0  0
 45115  1  0  0  0
 46116  1  0  0  0
 47117  1  0  0  0
 47118  1  0  0  0
 48 56  1  0  0  0
 48 65  1  0  0  0
 48119  1  0  0  0
 49 50  1  0  0  0
 49 53  1  0  0  0
 49 64  1  0  0  0
 49120  1  0  0  0
 50 51  1  0  0  0
 50121  1  0  0  0
 50122  1  0  0  0
 51 52  1  0  0  0
 51123  1  0  0  0
 51124  1  0  0  0
 52125  1  0  0  0
 52126  1  0  0  0
 53 54  1  0  0  0
 54 55  2  0  0  0
 54127  1  0  0  0
 55 57  1  0  0  0
 55128  1  0  0  0
 56 69  2  0  0  0
 57 58  2  0  0  0
 57129  1  0  0  0
 58130  1  0  0  0
 59 60  1  0  0  0
 59 61  1  0  0  0
 59 62  1  0  0  0
 60131  1  0  0  0
 60132  1  0  0  0
 60133  1  0  0  0
 61134  1  0  0  0
 61135  1  0  0  0
 61136  1  0  0  0
 62137  1  0  0  0
 62138  1  0  0  0
 62139  1  0  0  0
 63 65  1  0  0  0
 63140  1  0  0  0
 63141  1  0  0  0
 63142  1  0  0  0
 64143  1  0  0  0
 65144  1  0  0  0
 68 83  1  0  0  0
 71 72  2  0  0  0
 71 75  1  0  0  0
 71145  1  0  0  0
 72 76  1  0  0  0
 72146  1  0  0  0
 73 74  1  0  0  0
 73 76  2  0  0  0
 73147  1  0  0  0
 74 75  2  0  0  0
 74 77  1  0  0  0
 75 81  1  0  0  0
 76 85  1  0  0  0
 77 78  2  0  0  0
 77148  1  0  0  0
 78 84  1  0  0  0
 78149  1  0  0  0
 79 80  2  0  0  0
 79 83  1  0  0  0
 79150  1  0  0  0
 80 84  1  0  0  0
 80151  1  0  0  0
 81152  1  0  0  0
 81153  1  0  0  0
 81154  1  0  0  0
 82155  1  0  0  0
 82156  1  0  0  0
 82157  1  0  0  0
 82 84  1  0  0  0
 83158  1  0  0  0
 83159  1  0  0  0
 84160  1  0  0  0
 85161  1  0  0  0
M  ISO  4   1 100  68 101  83 101  85 100
M  END
> <chiral flag>
0

> <version>
0

> <s_m_source_file>
/data/baiqing/PycharmProjects/Reinvent-master-3.2/result/LINK_invent/BTK/process_docking_weight1_custom_product_contain_oxygen_bond_distance_aromatic_linkinvent_7_9_3/rearranged_h_0128.sdf

> <i_m_source_file_index>
2

> <r_mmod_Potential_Energy-OPLS-2005>
-8.55703353881836

> <r_mmod_Stretch_Energy-OPLS-2005>
35.4431991577148

> <r_mmod_Bend_Energy-OPLS-2005>
105.536666870117

> <r_mmod_Torsional_Energy-OPLS-2005>
228.764831542969

> <r_mmod_Improper_Torsional_Energy-OPLS-2005>
9.30264091491699

> <r_mmod_Van_der_Waal_Energy-OPLS-2005>
162.123626708984

> <r_mmod_Electrostatic_Energy-OPLS-2005>
-372.474884033203

> <r_mmod_Solvation_Energy-OPLS-2005>
-199.226852416992

> <b_mmod_Minimization_Converged-OPLS-2005>
0

> <r_mmod_RMS_Derivative-OPLS-2005>
3.18571615219116

$$$$
2
                    3D
 Structure written by MMmdl.
156164  0  0  1  0            999 V2000
  -30.6161  -14.6565   20.5214 C   0  0  0  0  0  0
  -30.4407  -12.4084   19.4575 C   0  0  0  0  0  0
  -29.5114  -12.5192   18.2276 C   0  0  0  0  0  0
  -28.0326  -12.3547   18.6359 C   0  0  0  0  0  0
  -27.6522  -13.2216   19.8650 C   0  0  2  0  0  0
  -28.6957  -13.0729   20.9960 C   0  0  0  0  0  0
  -25.2506  -13.8182   20.5594 C   0  0  0  0  0  0
  -24.1812  -13.0452   20.9209 C   0  0  0  0  0  0
  -24.6388  -11.6924   20.8743 C   0  0  0  0  0  0
  -23.9060  -10.4297   21.0408 C   0  0  0  0  0  0
  -24.3601   -9.4210   21.9190 C   0  0  0  0  0  0
  -23.6281   -8.2242   22.0752 C   0  0  0  0  0  0
  -22.4263   -8.0278   21.3543 C   0  0  0  0  0  0
  -21.9906   -9.0260   20.4648 C   0  0  0  0  0  0
  -22.7236  -10.2140   20.3061 C   0  0  0  0  0  0
  -21.6859   -6.0719   22.5272 C   0  0  0  0  0  0
  -21.4014   -6.5620   23.8207 C   0  0  0  0  0  0
  -21.3652   -5.6784   24.9170 C   0  0  0  0  0  0
  -21.6047   -4.3048   24.7221 C   0  0  0  0  0  0
  -21.8821   -3.8135   23.4344 C   0  0  0  0  0  0
  -21.9197   -4.6944   22.3400 C   0  0  0  0  0  0
  -22.7827  -13.5244   21.1863 C   0  0  0  0  0  0
  -22.1670   -4.2126   21.0976 F   0  0  0  0  0  0
  -21.5620   -3.4538   25.7738 F   0  0  0  0  0  0
  -30.0113  -13.4255   20.4397 N   0  0  0  0  0  0
  -26.2967  -12.9379   20.3299 N   0  0  0  0  0  0
  -25.9320  -11.6533   20.5761 N   0  0  0  0  0  0
  -22.0466  -12.8249   22.0432 N   0  0  0  0  0  0
  -25.4136  -15.1884   20.3771 N   0  0  0  0  0  0
  -31.7705  -14.8227   20.1171 O   0  0  0  0  0  0
  -21.6639   -6.8863   21.4236 O   0  0  0  0  0  0
  -22.3507  -14.5539   20.6685 O   0  0  0  0  0  0
  -24.6274  -31.8608   23.2039 C   0  0  0  0  0  0
  -25.9110  -32.4785   23.8374 C   0  0  1  0  0  0
  -27.2203  -27.3134   20.1162 C   0  0  0  0  0  0
  -25.5912  -33.8582   24.2294 N   0  0  0  0  0  0
  -23.4210  -30.4868   21.5474 C   0  0  2  0  0  0
  -24.8671  -28.9479   20.1097 C   0  0  0  0  0  0
  -22.7489  -29.4625   22.4936 C   0  0  0  0  0  0
  -18.0284  -28.1380   22.8483 C   0  0  0  0  0  0
  -24.1471  -36.7281   23.2646 C   0  0  0  0  0  0
  -25.9644  -30.7919   21.3761 C   0  0  0  0  0  0
  -26.0378  -29.4195   20.7167 C   0  0  0  0  0  0
  -27.2176  -28.6144   20.7113 C   0  0  0  0  0  0
  -26.0243  -26.9042   19.4782 C   0  0  0  0  0  0
  -24.8638  -27.6968   19.4795 C   0  0  0  0  0  0
  -23.6364  -29.8293   20.1603 C   0  0  0  0  0  0
  -25.4095  -36.3086   24.0338 C   0  0  1  0  0  0
  -20.5893  -28.3681   23.1284 C   0  0  2  0  0  0
  -20.6770  -26.9399   22.5413 C   0  0  0  0  0  0
  -19.5745  -26.6385   21.5209 C   0  0  0  0  0  0
  -18.1923  -26.7920   22.1623 C   0  0  0  0  0  0
  -19.1541  -28.8844   23.2882 C   0  0  0  0  0  0
  -18.9459  -30.1443   23.8909 C   0  0  0  0  0  0
  -17.6461  -30.6579   24.0567 C   0  0  0  0  0  0
  -25.9039  -34.9456   23.5119 C   0  0  0  0  0  0
  -16.5352  -29.9084   23.6321 C   0  0  0  0  0  0
  -16.7274  -28.6500   23.0343 C   0  0  0  0  0  0
  -26.4486  -31.6584   25.0742 C   0  0  0  0  0  0
  -25.3707  -31.3716   26.1467 C   0  0  0  0  0  0
  -27.0306  -30.3001   24.6185 C   0  0  0  0  0  0
  -27.6066  -32.4299   25.7504 C   0  0  0  0  0  0
  -27.5558  -37.1793   24.8467 C   0  0  0  0  0  0
  -21.4205  -29.3023   22.3670 N   0  0  0  0  0  0
  -26.4268  -37.3778   23.9420 N   0  0  0  0  0  0
  -24.6901  -31.0626   22.0997 N   0  0  0  0  0  0
  -23.4210  -28.8159   23.3010 O   0  0  0  0  0  0
  -28.3219  -26.4395   20.1744 O   0  0  0  0  0  0
  -26.5619  -34.8927   22.4692 O   0  0  0  0  0  0
  -23.5432  -32.1404   23.7364 O   0  0  0  0  0  0
  -30.9562  -17.8679   20.2364 C   0  0  0  0  0  0
  -28.7844  -19.3919   21.1257 C   0  0  0  0  0  0
  -30.9643  -19.2930   20.1175 C   0  0  0  0  0  0
  -28.7961  -17.9676   21.2935 C   0  0  0  0  0  0
  -29.8764  -17.1561   20.8199 C   0  0  0  0  0  0
  -29.8637  -20.0992   20.5299 C   0  0  0  0  0  0
  -29.1537  -23.9457   20.3690 C   0  0  0  0  0  0
  -32.2049  -19.9517   19.5365 C   0  0  0  0  0  0
  -27.6261  -17.3426   22.0436 C   0  0  0  0  0  0
  -28.0174  -24.9893   20.0358 C   0  0  0  0  0  0
  -28.7872  -22.4032   20.4793 C   0  0  0  0  0  0
  -29.8163  -15.6895   20.9489 N   0  0  0  0  0  0
  -30.3185  -24.3266   20.5383 O   0  0  0  0  0  0
  -29.9418  -21.5029   20.3683 O   0  0  0  0  0  0
  -31.4819  -12.5349   19.1574 H   0  0  0  0  0  0
  -30.3761  -11.4114   19.8960 H   0  0  0  0  0  0
  -29.7803  -11.7704   17.4807 H   0  0  0  0  0  0
  -29.6532  -13.4901   17.7502 H   0  0  0  0  0  0
  -27.8655  -11.3018   18.8625 H   0  0  0  0  0  0
  -27.3818  -12.5918   17.7932 H   0  0  0  0  0  0
  -27.6739  -14.2579   19.5276 H   0  0  0  0  0  0
  -28.7128  -12.0468   21.3689 H   0  0  0  0  0  0
  -28.4348  -13.6935   21.8540 H   0  0  0  0  0  0
  -25.2739   -9.5695   22.4774 H   0  0  0  0  0  0
  -23.9987   -7.4637   22.7480 H   0  0  0  0  0  0
  -21.0838   -8.8785   19.8959 H   0  0  0  0  0  0
  -22.3695  -10.9667   19.6162 H   0  0  0  0  0  0
  -21.2018   -7.6132   23.9699 H   0  0  0  0  0  0
  -21.1466   -6.0511   25.9069 H   0  0  0  0  0  0
  -22.0606   -2.7596   23.2856 H   0  0  0  0  0  0
  -22.4061  -11.9913   22.4837 H   0  0  0  0  0  0
  -21.1065  -13.1253   22.2589 H   0  0  0  0  0  0
  -24.6356  -15.8337   20.4615 H   0  0  0  0  0  0
  -26.2320  -15.6157   19.9621 H   0  0  0  0  0  0
  -26.7191  -32.5454   23.1137 H   0  0  0  0  0  0
  -25.0023  -33.9719   25.0419 H   0  0  0  0  0  0
  -22.7135  -31.3069   21.4092 H   0  0  0  0  0  0
  -23.3727  -35.9620   23.3344 H   0  0  0  0  0  0
  -24.3547  -36.8858   22.2050 H   0  0  0  0  0  0
  -23.7235  -37.6503   23.6637 H   0  0  0  0  0  0
  -26.0944  -31.5539   20.6065 H   0  0  0  0  0  0
  -26.8457  -30.8418   22.0039 H   0  0  0  0  0  0
  -28.1129  -28.9697   21.2021 H   0  0  0  0  0  0
  -25.9478  -25.9520   18.9772 H   0  0  0  0  0  0
  -23.9686  -27.3327   18.9948 H   0  0  0  0  0  0
  -23.7621  -30.6110   19.4105 H   0  0  0  0  0  0
  -22.7552  -29.2640   19.8515 H   0  0  0  0  0  0
  -25.1269  -36.1935   25.0827 H   0  0  0  0  0  0
  -20.9981  -28.3252   24.1410 H   0  0  0  0  0  0
  -20.5667  -26.2283   23.3611 H   0  0  0  0  0  0
  -21.6641  -26.7425   22.1215 H   0  0  0  0  0  0
  -19.6911  -25.6298   21.1230 H   0  0  0  0  0  0
  -19.6686  -27.3212   20.6747 H   0  0  0  0  0  0
  -17.4192  -26.6665   21.4024 H   0  0  0  0  0  0
  -18.0334  -26.0067   22.9028 H   0  0  0  0  0  0
  -19.7934  -30.7244   24.2305 H   0  0  0  0  0  0
  -17.5016  -31.6251   24.5187 H   0  0  0  0  0  0
  -15.5354  -30.2985   23.7647 H   0  0  0  0  0  0
  -15.8671  -28.0823   22.7060 H   0  0  0  0  0  0
  -24.5879  -30.7081   25.7780 H   0  0  0  0  0  0
  -24.8903  -32.2873   26.4909 H   0  0  0  0  0  0
  -25.8020  -30.8868   27.0231 H   0  0  0  0  0  0
  -26.2856  -29.6767   24.1231 H   0  0  0  0  0  0
  -27.4015  -29.7248   25.4676 H   0  0  0  0  0  0
  -27.8731  -30.4274   23.9387 H   0  0  0  0  0  0
  -27.2699  -33.3596   26.2097 H   0  0  0  0  0  0
  -28.3860  -32.6849   25.0314 H   0  0  0  0  0  0
  -28.0754  -31.8406   26.5394 H   0  0  0  0  0  0
  -28.2603  -38.0066   24.7484 H   0  0  0  0  0  0
  -28.1017  -36.2590   24.6312 H   0  0  0  0  0  0
  -27.2276  -37.1489   25.8874 H   0  0  0  0  0  0
  -20.9394  -29.8709   21.6850 H   0  0  0  0  0  0
  -26.0147  -38.2852   24.1420 H   0  0  0  0  0  0
  -31.8160  -17.3225   19.8759 H   0  0  0  0  0  0
  -27.9355  -19.9497   21.4965 H   0  0  0  0  0  0
  -33.0998  -19.3998   19.8262 H   0  0  0  0  0  0
  -32.3291  -20.9754   19.8928 H   0  0  0  0  0  0
  -32.1557  -19.9706   18.4482 H   0  0  0  0  0  0
  -27.7999  -17.4051   23.1195 H   0  0  0  0  0  0
  -27.4682  -16.2939   21.7982 H   0  0  0  0  0  0
  -26.6945  -17.8683   21.8267 H   0  0  0  0  0  0
  -27.1603  -24.7451   20.6638 H   0  0  0  0  0  0
  -27.7234  -24.7963   19.0040 H   0  0  0  0  0  0
  -28.0679  -22.1577   19.6964 H   0  0  0  0  0  0
  -28.2896  -22.2407   21.4352 H   0  0  0  0  0  0
  -28.9372  -15.3518   21.3070 H   0  0  0  0  0  0
  1 25  1  0  0  0
  1 30  2  0  0  0
  1 82  1  0  0  0
  2  3  1  0  0  0
  2 25  1  0  0  0
  2 85  1  0  0  0
  2 86  1  0  0  0
  3  4  1  0  0  0
  3 87  1  0  0  0
  3 88  1  0  0  0
  4  5  1  0  0  0
  4 89  1  0  0  0
  4 90  1  0  0  0
  5  6  1  0  0  0
  5 26  1  0  0  0
  5 91  1  0  0  0
  6 25  1  0  0  0
  6 92  1  0  0  0
  6 93  1  0  0  0
  7  8  2  0  0  0
  7 26  1  0  0  0
  7 29  1  0  0  0
  8  9  1  0  0  0
  8 22  1  0  0  0
  9 10  1  0  0  0
  9 27  2  0  0  0
 10 11  2  0  0  0
 10 15  1  0  0  0
 11 12  1  0  0  0
 11 94  1  0  0  0
 12 13  2  0  0  0
 12 95  1  0  0  0
 13 14  1  0  0  0
 13 31  1  0  0  0
 14 15  2  0  0  0
 14 96  1  0  0  0
 15 97  1  0  0  0
 16 17  2  0  0  0
 16 21  1  0  0  0
 16 31  1  0  0  0
 17 18  1  0  0  0
 17 98  1  0  0  0
 18 19  2  0  0  0
 18 99  1  0  0  0
 19 20  1  0  0  0
 19 24  1  0  0  0
 20 21  2  0  0  0
 20100  1  0  0  0
 21 23  1  0  0  0
 22 28  1  0  0  0
 22 32  2  0  0  0
 26 27  1  0  0  0
 28101  1  0  0  0
 28102  1  0  0  0
 29103  1  0  0  0
 29104  1  0  0  0
 33 34  1  0  0  0
 33 66  1  0  0  0
 33 70  2  0  0  0
 34 36  1  0  0  0
 34 59  1  0  0  0
 34105  1  0  0  0
 35 44  2  0  0  0
 35 45  1  0  0  0
 35 68  1  0  0  0
 36 56  1  0  0  0
 36106  1  0  0  0
 37 39  1  0  0  0
 37 47  1  0  0  0
 37 66  1  0  0  0
 37107  1  0  0  0
 38 43  2  0  0  0
 38 46  1  0  0  0
 38 47  1  0  0  0
 39 64  1  0  0  0
 39 67  2  0  0  0
 40 52  1  0  0  0
 40 53  2  0  0  0
 40 58  1  0  0  0
 41108  1  0  0  0
 41109  1  0  0  0
 41110  1  0  0  0
 41 48  1  0  0  0
 42 43  1  0  0  0
 42 66  1  0  0  0
 42111  1  0  0  0
 42112  1  0  0  0
 43 44  1  0  0  0
 44113  1  0  0  0
 45 46  2  0  0  0
 45114  1  0  0  0
 46115  1  0  0  0
 47116  1  0  0  0
 47117  1  0  0  0
 48 56  1  0  0  0
 48 65  1  0  0  0
 48118  1  0  0  0
 49 50  1  0  0  0
 49 53  1  0  0  0
 49 64  1  0  0  0
 49119  1  0  0  0
 50 51  1  0  0  0
 50120  1  0  0  0
 50121  1  0  0  0
 51 52  1  0  0  0
 51122  1  0  0  0
 51123  1  0  0  0
 52124  1  0  0  0
 52125  1  0  0  0
 53 54  1  0  0  0
 54 55  2  0  0  0
 54126  1  0  0  0
 55 57  1  0  0  0
 55127  1  0  0  0
 56 69  2  0  0  0
 57 58  2  0  0  0
 57128  1  0  0  0
 58129  1  0  0  0
 59 60  1  0  0  0
 59 61  1  0  0  0
 59 62  1  0  0  0
 60130  1  0  0  0
 60131  1  0  0  0
 60132  1  0  0  0
 61133  1  0  0  0
 61134  1  0  0  0
 61135  1  0  0  0
 62136  1  0  0  0
 62137  1  0  0  0
 62138  1  0  0  0
 63 65  1  0  0  0
 63139  1  0  0  0
 63140  1  0  0  0
 63141  1  0  0  0
 64142  1  0  0  0
 65143  1  0  0  0
 68 80  1  0  0  0
 71 73  2  0  0  0
 71 75  1  0  0  0
 71144  1  0  0  0
 72 74  1  0  0  0
 72 76  2  0  0  0
 72145  1  0  0  0
 73 76  1  0  0  0
 73 78  1  0  0  0
 74 75  2  0  0  0
 74 79  1  0  0  0
 75 82  1  0  0  0
 76 84  1  0  0  0
 77 80  1  0  0  0
 77 81  1  0  0  0
 77 83  2  0  0  0
 78146  1  0  0  0
 78147  1  0  0  0
 78148  1  0  0  0
 79149  1  0  0  0
 79150  1  0  0  0
 79151  1  0  0  0
 80152  1  0  0  0
 80153  1  0  0  0
 81 84  1  0  0  0
 81154  1  0  0  0
 81155  1  0  0  0
 82156  1  0  0  0
M  ISO  4   1 100  68 101  80 101  82 100
M  END
> <chiral flag>
0

> <version>
0

> <s_m_source_file>
/data/baiqing/PycharmProjects/Reinvent-master-3.2/result/LINK_invent/BTK/process_docking_weight1_custom_product_contain_oxygen_bond_distance_aromatic_linkinvent_7_9_3/rearranged_h_0128.sdf

> <i_m_source_file_index>
3

> <r_mmod_Potential_Energy-OPLS-2005>
45.2642250061035

> <r_mmod_Stretch_Energy-OPLS-2005>
86.7859420776367

> <r_mmod_Bend_Energy-OPLS-2005>
144.843475341797

> <r_mmod_Torsional_Energy-OPLS-2005>
210.396011352539

> <r_mmod_Improper_Torsional_Energy-OPLS-2005>
3.96345186233521

> <r_mmod_Van_der_Waal_Energy-OPLS-2005>
145.739700317383

> <r_mmod_Electrostatic_Energy-OPLS-2005>
-359.184997558594

> <r_mmod_Solvation_Energy-OPLS-2005>
-241.015090942383

> <b_mmod_Minimization_Converged-OPLS-2005>
0

> <r_mmod_RMS_Derivative-OPLS-2005>
2.46341967582703

$$$$
3
                    3D
 Structure written by MMmdl.
158166  0  0  1  0            999 V2000
  -30.7073  -14.4871   20.5741 C   0  0  0  0  0  0
  -30.4179  -12.3155   19.4424 C   0  0  0  0  0  0
  -29.4989  -12.5093   18.2174 C   0  0  0  0  0  0
  -28.0170  -12.3664   18.6176 C   0  0  0  0  0  0
  -27.6571  -13.2075   19.8703 C   0  0  2  0  0  0
  -28.6905  -12.9877   20.9943 C   0  0  0  0  0  0
  -25.2565  -13.8157   20.5630 C   0  0  0  0  0  0
  -24.1832  -13.0445   20.9186 C   0  0  0  0  0  0
  -24.6387  -11.6911   20.8746 C   0  0  0  0  0  0
  -23.9056  -10.4296   21.0421 C   0  0  0  0  0  0
  -24.3611   -9.4207   21.9193 C   0  0  0  0  0  0
  -23.6290   -8.2240   22.0754 C   0  0  0  0  0  0
  -22.4270   -8.0281   21.3545 C   0  0  0  0  0  0
  -21.9908   -9.0257   20.4645 C   0  0  0  0  0  0
  -22.7232  -10.2141   20.3064 C   0  0  0  0  0  0
  -21.6849   -6.0737   22.5283 C   0  0  0  0  0  0
  -21.4010   -6.5640   23.8218 C   0  0  0  0  0  0
  -21.3661   -5.6793   24.9181 C   0  0  0  0  0  0
  -21.6046   -4.3056   24.7230 C   0  0  0  0  0  0
  -21.8820   -3.8149   23.4351 C   0  0  0  0  0  0
  -21.9188   -4.6966   22.3405 C   0  0  0  0  0  0
  -22.7860  -13.5244   21.1870 C   0  0  0  0  0  0
  -22.1655   -4.2152   21.0982 F   0  0  0  0  0  0
  -21.5634   -3.4536   25.7740 F   0  0  0  0  0  0
  -30.0254  -13.3069   20.4612 N   0  0  0  0  0  0
  -26.2990  -12.9328   20.3310 N   0  0  0  0  0  0
  -25.9305  -11.6493   20.5749 N   0  0  0  0  0  0
  -22.0512  -12.8222   22.0425 N   0  0  0  0  0  0
  -25.4289  -15.1851   20.3943 N   0  0  0  0  0  0
  -31.8220  -14.6645   20.0697 O   0  0  0  0  0  0
  -21.6636   -6.8877   21.4242 O   0  0  0  0  0  0
  -22.3536  -14.5552   20.6729 O   0  0  0  0  0  0
  -24.6168  -31.8668   23.2086 C   0  0  0  0  0  0
  -25.9051  -32.4817   23.8391 C   0  0  1  0  0  0
  -27.2310  -27.4205   20.1032 C   0  0  0  0  0  0
  -25.5901  -33.8615   24.2321 N   0  0  0  0  0  0
  -23.4062  -30.4899   21.5495 C   0  0  2  0  0  0
  -24.8540  -28.9553   20.1126 C   0  0  0  0  0  0
  -22.7424  -29.4653   22.4980 C   0  0  0  0  0  0
  -18.0274  -28.1383   22.8495 C   0  0  0  0  0  0
  -24.1486  -36.7311   23.2640 C   0  0  0  0  0  0
  -25.9368  -30.8293   21.3635 C   0  0  0  0  0  0
  -26.0161  -29.4636   20.7086 C   0  0  0  0  0  0
  -27.2115  -28.7049   20.6978 C   0  0  0  0  0  0
  -26.0560  -26.9337   19.4930 C   0  0  0  0  0  0
  -24.8695  -27.6904   19.4996 C   0  0  0  0  0  0
  -23.6158  -29.8224   20.1642 C   0  0  0  0  0  0
  -25.4108  -36.3108   24.0337 C   0  0  1  0  0  0
  -20.5866  -28.3671   23.1313 C   0  0  2  0  0  0
  -20.6762  -26.9403   22.5421 C   0  0  0  0  0  0
  -19.5738  -26.6386   21.5219 C   0  0  0  0  0  0
  -18.1916  -26.7930   22.1628 C   0  0  0  0  0  0
  -19.1524  -28.8844   23.2900 C   0  0  0  0  0  0
  -18.9453  -30.1451   23.8907 C   0  0  0  0  0  0
  -17.6455  -30.6588   24.0570 C   0  0  0  0  0  0
  -25.9038  -34.9474   23.5127 C   0  0  0  0  0  0
  -16.5346  -29.9089   23.6332 C   0  0  0  0  0  0
  -16.7263  -28.6508   23.0350 C   0  0  0  0  0  0
  -26.4471  -31.6597   25.0723 C   0  0  0  0  0  0
  -25.3737  -31.3698   26.1470 C   0  0  0  0  0  0
  -27.0309  -30.3042   24.6105 C   0  0  0  0  0  0
  -27.6039  -32.4324   25.7492 C   0  0  0  0  0  0
  -27.5582  -37.1806   24.8465 C   0  0  0  0  0  0
  -21.4149  -29.3036   22.3720 N   0  0  0  0  0  0
  -26.4293  -37.3795   23.9413 N   0  0  0  0  0  0
  -24.6718  -31.0759   22.0993 N   0  0  0  0  0  0
  -23.4187  -28.8195   23.3033 O   0  0  0  0  0  0
  -28.3602  -26.6288   20.1263 O   0  0  0  0  0  0
  -26.5603  -34.8924   22.4690 O   0  0  0  0  0  0
  -23.5356  -32.1422   23.7470 O   0  0  0  0  0  0
  -27.4215  -20.1111   21.6912 C   0  0  0  0  0  0
  -27.7273  -17.6968   21.6706 C   0  0  0  0  0  0
  -29.3374  -19.1401   20.5576 C   0  0  0  0  0  0
  -26.9794  -18.8261   22.0689 C   0  0  0  0  0  0
  -28.5888  -20.2960   20.9141 C   0  0  0  0  0  0
  -28.9294  -17.8323   20.9387 C   0  0  0  0  0  0
  -25.1129  -17.5666   23.1997 C   0  0  0  0  0  0
  -25.7284  -18.7070   22.8405 C   0  0  0  0  0  0
  -29.0099  -21.6566   20.4605 C   0  0  0  0  0  0
  -28.4205  -22.8374   20.7859 C   0  0  0  0  0  0
  -29.9889  -15.6883   21.2028 C   0  0  0  0  0  0
  -28.8540  -24.1662   20.2719 C   0  0  0  0  0  0
  -29.8280  -15.6320   22.7197 C   0  0  0  0  0  0
  -28.1786  -25.4137   20.8921 C   0  0  0  0  0  0
  -29.6463  -16.7037   20.4795 N   0  0  0  0  0  0
  -29.7140  -24.3014   19.3943 O   0  0  0  0  0  0
  -31.4646  -12.4049   19.1476 H   0  0  0  0  0  0
  -30.3127  -11.3059   19.8425 H   0  0  0  0  0  0
  -29.7468  -11.7838   17.4415 H   0  0  0  0  0  0
  -29.6695  -13.4950   17.7817 H   0  0  0  0  0  0
  -27.8271  -11.3105   18.8144 H   0  0  0  0  0  0
  -27.3710  -12.6395   17.7825 H   0  0  0  0  0  0
  -27.7018  -14.2558   19.5748 H   0  0  0  0  0  0
  -28.6702  -11.9483   21.3252 H   0  0  0  0  0  0
  -28.4218  -13.5643   21.8751 H   0  0  0  0  0  0
  -25.2753   -9.5684   22.4772 H   0  0  0  0  0  0
  -24.0009   -7.4621   22.7460 H   0  0  0  0  0  0
  -21.0852   -8.8775   19.8935 H   0  0  0  0  0  0
  -22.3692  -10.9690   19.6181 H   0  0  0  0  0  0
  -21.1999   -7.6146   23.9726 H   0  0  0  0  0  0
  -21.1483   -6.0519   25.9086 H   0  0  0  0  0  0
  -22.0597   -2.7610   23.2852 H   0  0  0  0  0  0
  -22.4134  -11.9861   22.4769 H   0  0  0  0  0  0
  -21.1138  -13.1247   22.2665 H   0  0  0  0  0  0
  -24.6599  -15.8391   20.4857 H   0  0  0  0  0  0
  -26.2708  -15.6137   20.0320 H   0  0  0  0  0  0
  -26.7128  -32.5531   23.1162 H   0  0  0  0  0  0
  -25.0061  -33.9778   25.0473 H   0  0  0  0  0  0
  -22.6955  -31.3071   21.4091 H   0  0  0  0  0  0
  -23.3749  -35.9644   23.3305 H   0  0  0  0  0  0
  -24.3577  -36.8926   22.2053 H   0  0  0  0  0  0
  -23.7237  -37.6513   23.6658 H   0  0  0  0  0  0
  -26.0510  -31.5955   20.5954 H   0  0  0  0  0  0
  -26.8238  -30.8826   21.9831 H   0  0  0  0  0  0
  -28.1075  -29.0889   21.1649 H   0  0  0  0  0  0
  -26.0545  -25.9608   19.0213 H   0  0  0  0  0  0
  -23.9771  -27.2935   19.0352 H   0  0  0  0  0  0
  -23.7238  -30.5976   19.4047 H   0  0  0  0  0  0
  -22.7395  -29.2426   19.8683 H   0  0  0  0  0  0
  -25.1285  -36.1971   25.0830 H   0  0  0  0  0  0
  -20.9960  -28.3240   24.1432 H   0  0  0  0  0  0
  -20.5673  -26.2276   23.3610 H   0  0  0  0  0  0
  -21.6632  -26.7445   22.1212 H   0  0  0  0  0  0
  -19.6900  -25.6300   21.1235 H   0  0  0  0  0  0
  -19.6678  -27.3205   20.6756 H   0  0  0  0  0  0
  -17.4191  -26.6692   21.4023 H   0  0  0  0  0  0
  -18.0303  -26.0067   22.9016 H   0  0  0  0  0  0
  -19.7929  -30.7267   24.2276 H   0  0  0  0  0  0
  -17.5010  -31.6266   24.5177 H   0  0  0  0  0  0
  -15.5346  -30.2996   23.7652 H   0  0  0  0  0  0
  -15.8663  -28.0835   22.7055 H   0  0  0  0  0  0
  -24.5918  -30.7033   25.7809 H   0  0  0  0  0  0
  -24.8916  -32.2849   26.4919 H   0  0  0  0  0  0
  -25.8096  -30.8874   27.0226 H   0  0  0  0  0  0
  -26.2857  -29.6800   24.1160 H   0  0  0  0  0  0
  -27.4081  -29.7281   25.4564 H   0  0  0  0  0  0
  -27.8689  -30.4363   23.9256 H   0  0  0  0  0  0
  -27.2647  -33.3608   26.2099 H   0  0  0  0  0  0
  -28.3832  -32.6911   25.0313 H   0  0  0  0  0  0
  -28.0725  -31.8435   26.5388 H   0  0  0  0  0  0
  -28.2598  -38.0106   24.7525 H   0  0  0  0  0  0
  -28.1079  -36.2638   24.6279 H   0  0  0  0  0  0
  -27.2300  -37.1443   25.8868 H   0  0  0  0  0  0
  -20.9312  -29.8760   21.6940 H   0  0  0  0  0  0
  -26.0181  -38.2869   24.1428 H   0  0  0  0  0  0
  -26.8221  -20.9585   21.9873 H   0  0  0  0  0  0
  -27.3648  -16.7108   21.9126 H   0  0  0  0  0  0
  -30.2306  -19.2579   19.9598 H   0  0  0  0  0  0
  -24.1967  -17.5988   23.7721 H   0  0  0  0  0  0
  -25.4901  -16.5887   22.9409 H   0  0  0  0  0  0
  -25.2700  -19.6375   23.1477 H   0  0  0  0  0  0
  -29.8632  -21.6807   19.7961 H   0  0  0  0  0  0
  -27.5753  -22.8588   21.4549 H   0  0  0  0  0  0
  -30.1465  -16.5713   23.1709 H   0  0  0  0  0  0
  -30.4430  -14.8395   23.1476 H   0  0  0  0  0  0
  -28.7959  -15.4444   23.0082 H   0  0  0  0  0  0
  -28.6013  -25.5709   21.8844 H   0  0  0  0  0  0
  -27.1229  -25.1856   21.0439 H   0  0  0  0  0  0
  1 25  1  0  0  0
  1 30  2  0  0  0
  1 81  1  0  0  0
  2  3  1  0  0  0
  2 25  1  0  0  0
  2 87  1  0  0  0
  2 88  1  0  0  0
  3  4  1  0  0  0
  3 89  1  0  0  0
  3 90  1  0  0  0
  4  5  1  0  0  0
  4 91  1  0  0  0
  4 92  1  0  0  0
  5  6  1  0  0  0
  5 26  1  0  0  0
  5 93  1  0  0  0
  6 25  1  0  0  0
  6 94  1  0  0  0
  6 95  1  0  0  0
  7  8  2  0  0  0
  7 26  1  0  0  0
  7 29  1  0  0  0
  8  9  1  0  0  0
  8 22  1  0  0  0
  9 10  1  0  0  0
  9 27  2  0  0  0
 10 11  2  0  0  0
 10 15  1  0  0  0
 11 12  1  0  0  0
 11 96  1  0  0  0
 12 13  2  0  0  0
 12 97  1  0  0  0
 13 14  1  0  0  0
 13 31  1  0  0  0
 14 15  2  0  0  0
 14 98  1  0  0  0
 15 99  1  0  0  0
 16 17  2  0  0  0
 16 21  1  0  0  0
 16 31  1  0  0  0
 17 18  1  0  0  0
 17100  1  0  0  0
 18 19  2  0  0  0
 18101  1  0  0  0
 19 20  1  0  0  0
 19 24  1  0  0  0
 20 21  2  0  0  0
 20102  1  0  0  0
 21 23  1  0  0  0
 22 28  1  0  0  0
 22 32  2  0  0  0
 26 27  1  0  0  0
 28103  1  0  0  0
 28104  1  0  0  0
 29105  1  0  0  0
 29106  1  0  0  0
 33 34  1  0  0  0
 33 66  1  0  0  0
 33 70  2  0  0  0
 34 36  1  0  0  0
 34 59  1  0  0  0
 34107  1  0  0  0
 35 44  2  0  0  0
 35 45  1  0  0  0
 35 68  1  0  0  0
 36 56  1  0  0  0
 36108  1  0  0  0
 37 39  1  0  0  0
 37 47  1  0  0  0
 37 66  1  0  0  0
 37109  1  0  0  0
 38 43  2  0  0  0
 38 46  1  0  0  0
 38 47  1  0  0  0
 39 64  1  0  0  0
 39 67  2  0  0  0
 40 52  1  0  0  0
 40 53  2  0  0  0
 40 58  1  0  0  0
 41110  1  0  0  0
 41111  1  0  0  0
 41112  1  0  0  0
 41 48  1  0  0  0
 42 43  1  0  0  0
 42 66  1  0  0  0
 42113  1  0  0  0
 42114  1  0  0  0
 43 44  1  0  0  0
 44115  1  0  0  0
 45 46  2  0  0  0
 45116  1  0  0  0
 46117  1  0  0  0
 47118  1  0  0  0
 47119  1  0  0  0
 48 56  1  0  0  0
 48 65  1  0  0  0
 48120  1  0  0  0
 49 50  1  0  0  0
 49 53  1  0  0  0
 49 64  1  0  0  0
 49121  1  0  0  0
 50 51  1  0  0  0
 50122  1  0  0  0
 50123  1  0  0  0
 51 52  1  0  0  0
 51124  1  0  0  0
 51125  1  0  0  0
 52126  1  0  0  0
 52127  1  0  0  0
 53 54  1  0  0  0
 54 55  2  0  0  0
 54128  1  0  0  0
 55 57  1  0  0  0
 55129  1  0  0  0
 56 69  2  0  0  0
 57 58  2  0  0  0
 57130  1  0  0  0
 58131  1  0  0  0
 59 60  1  0  0  0
 59 61  1  0  0  0
 59 62  1  0  0  0
 60132  1  0  0  0
 60133  1  0  0  0
 60134  1  0  0  0
 61135  1  0  0  0
 61136  1  0  0  0
 61137  1  0  0  0
 62138  1  0  0  0
 62139  1  0  0  0
 62140  1  0  0  0
 63 65  1  0  0  0
 63141  1  0  0  0
 63142  1  0  0  0
 63143  1  0  0  0
 64144  1  0  0  0
 65145  1  0  0  0
 68 84  1  0  0  0
 71 74  2  0  0  0
 71 75  1  0  0  0
 71146  1  0  0  0
 72 74  1  0  0  0
 72 76  2  0  0  0
 72147  1  0  0  0
 73 75  2  0  0  0
 73 76  1  0  0  0
 73148  1  0  0  0
 74 78  1  0  0  0
 75 79  1  0  0  0
 76 85  1  0  0  0
 77 78  2  0  0  0
 77149  1  0  0  0
 77150  1  0  0  0
 78151  1  0  0  0
 79 80  2  0  0  0
 79152  1  0  0  0
 80 82  1  0  0  0
 80153  1  0  0  0
 81 83  1  0  0  0
 81 85  2  0  0  0
 82 84  1  0  0  0
 82 86  2  0  0  0
 83154  1  0  0  0
 83155  1  0  0  0
 83156  1  0  0  0
 84157  1  0  0  0
 84158  1  0  0  0
M  ISO  4   1 100  68 101  81 100  84 101
M  END
> <chiral flag>
0

> <version>
0

> <s_m_source_file>
/data/baiqing/PycharmProjects/Reinvent-master-3.2/result/LINK_invent/BTK/process_docking_weight1_custom_product_contain_oxygen_bond_distance_aromatic_linkinvent_7_9_3/rearranged_h_0128.sdf

> <i_m_source_file_index>
4

> <r_mmod_Potential_Energy-OPLS-2005>
101.357597351074

> <r_mmod_Stretch_Energy-OPLS-2005>
47.2774620056152

> <r_mmod_Bend_Energy-OPLS-2005>
110.540237426758

> <r_mmod_Torsional_Energy-OPLS-2005>
242.931900024414

> <r_mmod_Improper_Torsional_Energy-OPLS-2005>
4.69920873641968

> <r_mmod_Van_der_Waal_Energy-OPLS-2005>
151.911148071289

> <r_mmod_Electrostatic_Energy-OPLS-2005>
-253.712554931641

> <r_mmod_Solvation_Energy-OPLS-2005>
-217.632461547852

> <b_mmod_Minimization_Converged-OPLS-2005>
0

> <r_mmod_RMS_Derivative-OPLS-2005>
0.619424045085907

$$$$
4
                    3D
 Structure written by MMmdl.
160168  0  0  1  0            999 V2000
  -30.6495  -14.5389   20.5471 C   0  0  0  0  0  0
  -30.4298  -12.3421   19.4222 C   0  0  0  0  0  0
  -29.4952  -12.5028   18.2032 C   0  0  0  0  0  0
  -28.0162  -12.3524   18.6173 C   0  0  0  0  0  0
  -27.6541  -13.2030   19.8637 C   0  0  2  0  0  0
  -28.6989  -13.0092   20.9856 C   0  0  0  0  0  0
  -25.2566  -13.8149   20.5657 C   0  0  0  0  0  0
  -24.1825  -13.0427   20.9176 C   0  0  0  0  0  0
  -24.6372  -11.6894   20.8731 C   0  0  0  0  0  0
  -23.9042  -10.4286   21.0393 C   0  0  0  0  0  0
  -24.3596   -9.4209   21.9180 C   0  0  0  0  0  0
  -23.6273   -8.2241   22.0754 C   0  0  0  0  0  0
  -22.4262   -8.0271   21.3542 C   0  0  0  0  0  0
  -21.9891   -9.0239   20.4649 C   0  0  0  0  0  0
  -22.7208  -10.2125   20.3051 C   0  0  0  0  0  0
  -21.6850   -6.0724   22.5274 C   0  0  0  0  0  0
  -21.4011   -6.5633   23.8206 C   0  0  0  0  0  0
  -21.3662   -5.6789   24.9177 C   0  0  0  0  0  0
  -21.6044   -4.3049   24.7229 C   0  0  0  0  0  0
  -21.8823   -3.8139   23.4351 C   0  0  0  0  0  0
  -21.9191   -4.6953   22.3404 C   0  0  0  0  0  0
  -22.7859  -13.5237   21.1843 C   0  0  0  0  0  0
  -22.1664   -4.2134   21.0979 F   0  0  0  0  0  0
  -21.5633   -3.4539   25.7748 F   0  0  0  0  0  0
  -30.0166  -13.3382   20.4230 N   0  0  0  0  0  0
  -26.2980  -12.9300   20.3312 N   0  0  0  0  0  0
  -25.9291  -11.6467   20.5741 N   0  0  0  0  0  0
  -22.0499  -12.8225   22.0399 N   0  0  0  0  0  0
  -25.4296  -15.1868   20.4050 N   0  0  0  0  0  0
  -31.8127  -14.7147   20.1697 O   0  0  0  0  0  0
  -21.6635   -6.8864   21.4234 O   0  0  0  0  0  0
  -22.3544  -14.5539   20.6687 O   0  0  0  0  0  0
  -24.6198  -31.8657   23.2073 C   0  0  0  0  0  0
  -25.9071  -32.4810   23.8377 C   0  0  1  0  0  0
  -27.2262  -27.3843   20.1247 C   0  0  0  0  0  0
  -25.5917  -33.8600   24.2311 N   0  0  0  0  0  0
  -23.4088  -30.4879   21.5495 C   0  0  2  0  0  0
  -24.8543  -28.9418   20.1213 C   0  0  0  0  0  0
  -22.7429  -29.4648   22.5002 C   0  0  0  0  0  0
  -18.0269  -28.1369   22.8485 C   0  0  0  0  0  0
  -24.1491  -36.7307   23.2643 C   0  0  0  0  0  0
  -25.9409  -30.8172   21.3656 C   0  0  0  0  0  0
  -26.0181  -29.4441   20.7215 C   0  0  0  0  0  0
  -27.2094  -28.6746   20.7150 C   0  0  0  0  0  0
  -26.0510  -26.9122   19.5055 C   0  0  0  0  0  0
  -24.8682  -27.6751   19.5106 C   0  0  0  0  0  0
  -23.6213  -29.8182   20.1659 C   0  0  0  0  0  0
  -25.4112  -36.3100   24.0341 C   0  0  1  0  0  0
  -20.5860  -28.3665   23.1302 C   0  0  2  0  0  0
  -20.6773  -26.9398   22.5410 C   0  0  0  0  0  0
  -19.5755  -26.6378   21.5197 C   0  0  0  0  0  0
  -18.1933  -26.7910   22.1613 C   0  0  0  0  0  0
  -19.1521  -28.8834   23.2887 C   0  0  0  0  0  0
  -18.9455  -30.1441   23.8893 C   0  0  0  0  0  0
  -17.6463  -30.6585   24.0557 C   0  0  0  0  0  0
  -25.9048  -34.9468   23.5123 C   0  0  0  0  0  0
  -16.5354  -29.9080   23.6318 C   0  0  0  0  0  0
  -16.7259  -28.6495   23.0336 C   0  0  0  0  0  0
  -26.4480  -31.6597   25.0716 C   0  0  0  0  0  0
  -25.3729  -31.3700   26.1460 C   0  0  0  0  0  0
  -27.0324  -30.3041   24.6091 C   0  0  0  0  0  0
  -27.6055  -32.4312   25.7473 C   0  0  0  0  0  0
  -27.5587  -37.1805   24.8465 C   0  0  0  0  0  0
  -21.4155  -29.3035   22.3723 N   0  0  0  0  0  0
  -26.4300  -37.3788   23.9413 N   0  0  0  0  0  0
  -24.6748  -31.0723   22.0996 N   0  0  0  0  0  0
  -23.4193  -28.8213   23.3054 O   0  0  0  0  0  0
  -28.3770  -26.6179   20.0784 O   0  0  0  0  0  0
  -26.5614  -34.8929   22.4686 O   0  0  0  0  0  0
  -23.5382  -32.1432   23.7444 O   0  0  0  0  0  0
  -31.2914  -17.2976   21.9116 C   0  0  0  0  0  0
  -30.7102  -19.6677   21.7740 C   0  0  0  0  0  0
  -29.3028  -18.0026   20.6971 C   0  0  0  0  0  0
  -31.5714  -18.6449   22.2369 C   0  0  0  0  0  0
  -30.1628  -16.9545   21.1376 C   0  0  0  0  0  0
  -29.5603  -19.3712   21.0042 C   0  0  0  0  0  0
  -33.5510  -18.1703   23.7162 C   0  0  0  0  0  0
  -32.7261  -19.0161   23.0744 C   0  0  0  0  0  0
  -28.6573  -22.8575   20.3040 C   0  0  0  0  0  0
  -26.4537  -23.8553   21.2740 C   0  0  0  0  0  0
  -28.5050  -21.6051   21.2243 C   0  0  0  0  0  0
  -28.4579  -25.4397   20.9268 C   0  0  0  0  0  0
  -27.7382  -24.1209   20.4592 C   0  0  1  0  0  0
  -29.8382  -15.5744   20.8877 N   0  0  0  0  0  0
  -29.5227  -22.8536   19.4232 O   0  0  0  0  0  0
  -28.7134  -20.3587   20.5030 O   0  0  0  0  0  0
  -31.4722  -12.4639   19.1225 H   0  0  0  0  0  0
  -30.3505  -11.3371   19.8379 H   0  0  0  0  0  0
  -29.7447  -11.7684   17.4356 H   0  0  0  0  0  0
  -29.6493  -13.4828   17.7465 H   0  0  0  0  0  0
  -27.8349  -11.2966   18.8240 H   0  0  0  0  0  0
  -27.3631  -12.6137   17.7840 H   0  0  0  0  0  0
  -27.6864  -14.2446   19.5434 H   0  0  0  0  0  0
  -28.6965  -11.9763   21.3365 H   0  0  0  0  0  0
  -28.4591  -13.6185   21.8586 H   0  0  0  0  0  0
  -25.2744   -9.5696   22.4749 H   0  0  0  0  0  0
  -23.9993   -7.4640   22.7473 H   0  0  0  0  0  0
  -21.0826   -8.8742   19.8954 H   0  0  0  0  0  0
  -22.3653  -10.9657   19.6157 H   0  0  0  0  0  0
  -21.1999   -7.6142   23.9704 H   0  0  0  0  0  0
  -21.1483   -6.0526   25.9079 H   0  0  0  0  0  0
  -22.0599   -2.7597   23.2856 H   0  0  0  0  0  0
  -22.4109  -11.9878   22.4773 H   0  0  0  0  0  0
  -21.1121  -13.1255   22.2615 H   0  0  0  0  0  0
  -24.6563  -15.8366   20.4993 H   0  0  0  0  0  0
  -26.2682  -15.6238   20.0447 H   0  0  0  0  0  0
  -26.7155  -32.5539   23.1146 H   0  0  0  0  0  0
  -25.0034  -33.9739   25.0433 H   0  0  0  0  0  0
  -22.6991  -31.3067   21.4097 H   0  0  0  0  0  0
  -23.3751  -35.9653   23.3307 H   0  0  0  0  0  0
  -24.3582  -36.8924   22.2058 H   0  0  0  0  0  0
  -23.7249  -37.6514   23.6653 H   0  0  0  0  0  0
  -26.0494  -31.5760   20.5888 H   0  0  0  0  0  0
  -26.8280  -30.8782   21.9829 H   0  0  0  0  0  0
  -28.1114  -29.0586   21.1713 H   0  0  0  0  0  0
  -26.0447  -25.9514   19.0127 H   0  0  0  0  0  0
  -23.9766  -27.2846   19.0386 H   0  0  0  0  0  0
  -23.7398  -30.5930   19.4083 H   0  0  0  0  0  0
  -22.7419  -29.2458   19.8669 H   0  0  0  0  0  0
  -25.1277  -36.1967   25.0831 H   0  0  0  0  0  0
  -20.9934  -28.3256   24.1418 H   0  0  0  0  0  0
  -20.5690  -26.2275   23.3615 H   0  0  0  0  0  0
  -21.6647  -26.7461   22.1186 H   0  0  0  0  0  0
  -19.6916  -25.6277   21.1225 H   0  0  0  0  0  0
  -19.6683  -27.3214   20.6741 H   0  0  0  0  0  0
  -17.4192  -26.6657   21.4017 H   0  0  0  0  0  0
  -18.0323  -26.0053   22.9003 H   0  0  0  0  0  0
  -19.7954  -30.7236   24.2278 H   0  0  0  0  0  0
  -17.5030  -31.6265   24.5170 H   0  0  0  0  0  0
  -15.5354  -30.2984   23.7648 H   0  0  0  0  0  0
  -15.8660  -28.0832   22.7017 H   0  0  0  0  0  0
  -24.5903  -30.7042   25.7779 H   0  0  0  0  0  0
  -24.8911  -32.2855   26.4894 H   0  0  0  0  0  0
  -25.8069  -30.8871   27.0221 H   0  0  0  0  0  0
  -26.2866  -29.6779   24.1172 H   0  0  0  0  0  0
  -27.4116  -29.7291   25.4545 H   0  0  0  0  0  0
  -27.8687  -30.4346   23.9225 H   0  0  0  0  0  0
  -27.2678  -33.3612   26.2040 H   0  0  0  0  0  0
  -28.3859  -32.6856   25.0290 H   0  0  0  0  0  0
  -28.0718  -31.8433   26.5385 H   0  0  0  0  0  0
  -28.2591  -38.0119   24.7522 H   0  0  0  0  0  0
  -28.1094  -36.2638   24.6265 H   0  0  0  0  0  0
  -27.2304  -37.1418   25.8873 H   0  0  0  0  0  0
  -20.9340  -29.8771   21.6941 H   0  0  0  0  0  0
  -26.0195  -38.2867   24.1412 H   0  0  0  0  0  0
  -31.9379  -16.5095   22.2689 H   0  0  0  0  0  0
  -30.9600  -20.6920   22.0065 H   0  0  0  0  0  0
  -28.4285  -17.7592   20.1098 H   0  0  0  0  0  0
  -34.3745  -18.5505   24.3050 H   0  0  0  0  0  0
  -33.4358  -17.0974   23.6823 H   0  0  0  0  0  0
  -32.9226  -20.0759   23.1722 H   0  0  0  0  0  0
  -25.9004  -23.0019   20.8814 H   0  0  0  0  0  0
  -25.7792  -24.7111   21.2364 H   0  0  0  0  0  0
  -26.6724  -23.6717   22.3266 H   0  0  0  0  0  0
  -27.4982  -21.5668   21.6351 H   0  0  0  0  0  0
  -29.1669  -21.7133   22.0805 H   0  0  0  0  0  0
  -29.5236  -25.2357   21.0313 H   0  0  0  0  0  0
  -28.1323  -25.7091   21.9333 H   0  0  0  0  0  0
  -27.4154  -24.3033   19.4353 H   0  0  0  0  0  0
  -28.8617  -15.3326   20.9570 H   0  0  0  0  0  0
  1 25  1  0  0  0
  1 30  2  0  0  0
  1 84  1  0  0  0
  2  3  1  0  0  0
  2 25  1  0  0  0
  2 87  1  0  0  0
  2 88  1  0  0  0
  3  4  1  0  0  0
  3 89  1  0  0  0
  3 90  1  0  0  0
  4  5  1  0  0  0
  4 91  1  0  0  0
  4 92  1  0  0  0
  5  6  1  0  0  0
  5 26  1  0  0  0
  5 93  1  0  0  0
  6 25  1  0  0  0
  6 94  1  0  0  0
  6 95  1  0  0  0
  7  8  2  0  0  0
  7 26  1  0  0  0
  7 29  1  0  0  0
  8  9  1  0  0  0
  8 22  1  0  0  0
  9 10  1  0  0  0
  9 27  2  0  0  0
 10 11  2  0  0  0
 10 15  1  0  0  0
 11 12  1  0  0  0
 11 96  1  0  0  0
 12 13  2  0  0  0
 12 97  1  0  0  0
 13 14  1  0  0  0
 13 31  1  0  0  0
 14 15  2  0  0  0
 14 98  1  0  0  0
 15 99  1  0  0  0
 16 17  2  0  0  0
 16 21  1  0  0  0
 16 31  1  0  0  0
 17 18  1  0  0  0
 17100  1  0  0  0
 18 19  2  0  0  0
 18101  1  0  0  0
 19 20  1  0  0  0
 19 24  1  0  0  0
 20 21  2  0  0  0
 20102  1  0  0  0
 21 23  1  0  0  0
 22 28  1  0  0  0
 22 32  2  0  0  0
 26 27  1  0  0  0
 28103  1  0  0  0
 28104  1  0  0  0
 29105  1  0  0  0
 29106  1  0  0  0
 33 34  1  0  0  0
 33 66  1  0  0  0
 33 70  2  0  0  0
 34 36  1  0  0  0
 34 59  1  0  0  0
 34107  1  0  0  0
 35 44  2  0  0  0
 35 45  1  0  0  0
 35 68  1  0  0  0
 36 56  1  0  0  0
 36108  1  0  0  0
 37 39  1  0  0  0
 37 47  1  0  0  0
 37 66  1  0  0  0
 37109  1  0  0  0
 38 43  2  0  0  0
 38 46  1  0  0  0
 38 47  1  0  0  0
 39 64  1  0  0  0
 39 67  2  0  0  0
 40 52  1  0  0  0
 40 53  2  0  0  0
 40 58  1  0  0  0
 41110  1  0  0  0
 41111  1  0  0  0
 41112  1  0  0  0
 41 48  1  0  0  0
 42 43  1  0  0  0
 42 66  1  0  0  0
 42113  1  0  0  0
 42114  1  0  0  0
 43 44  1  0  0  0
 44115  1  0  0  0
 45 46  2  0  0  0
 45116  1  0  0  0
 46117  1  0  0  0
 47118  1  0  0  0
 47119  1  0  0  0
 48 56  1  0  0  0
 48 65  1  0  0  0
 48120  1  0  0  0
 49 50  1  0  0  0
 49 53  1  0  0  0
 49 64  1  0  0  0
 49121  1  0  0  0
 50 51  1  0  0  0
 50122  1  0  0  0
 50123  1  0  0  0
 51 52  1  0  0  0
 51124  1  0  0  0
 51125  1  0  0  0
 52126  1  0  0  0
 52127  1  0  0  0
 53 54  1  0  0  0
 54 55  2  0  0  0
 54128  1  0  0  0
 55 57  1  0  0  0
 55129  1  0  0  0
 56 69  2  0  0  0
 57 58  2  0  0  0
 57130  1  0  0  0
 58131  1  0  0  0
 59 60  1  0  0  0
 59 61  1  0  0  0
 59 62  1  0  0  0
 60132  1  0  0  0
 60133  1  0  0  0
 60134  1  0  0  0
 61135  1  0  0  0
 61136  1  0  0  0
 61137  1  0  0  0
 62138  1  0  0  0
 62139  1  0  0  0
 62140  1  0  0  0
 63 65  1  0  0  0
 63141  1  0  0  0
 63142  1  0  0  0
 63143  1  0  0  0
 64144  1  0  0  0
 65145  1  0  0  0
 68 82  1  0  0  0
 71 74  2  0  0  0
 71 75  1  0  0  0
 71146  1  0  0  0
 72 74  1  0  0  0
 72 76  2  0  0  0
 72147  1  0  0  0
 73 75  2  0  0  0
 73 76  1  0  0  0
 73148  1  0  0  0
 74 78  1  0  0  0
 75 84  1  0  0  0
 76 86  1  0  0  0
 77 78  2  0  0  0
 77149  1  0  0  0
 77150  1  0  0  0
 78151  1  0  0  0
 79 81  1  0  0  0
 79 83  1  0  0  0
 79 85  2  0  0  0
 80152  1  0  0  0
 80153  1  0  0  0
 80154  1  0  0  0
 80 83  1  0  0  0
 81 86  1  0  0  0
 81155  1  0  0  0
 81156  1  0  0  0
 82 83  1  0  0  0
 82157  1  0  0  0
 82158  1  0  0  0
 83159  1  0  0  0
 84160  1  0  0  0
M  ISO  4   1 100  68 101  82 101  84 100
M  END
> <chiral flag>
0

> <version>
0

> <s_m_source_file>
/data/baiqing/PycharmProjects/Reinvent-master-3.2/result/LINK_invent/BTK/process_docking_weight1_custom_product_contain_oxygen_bond_distance_aromatic_linkinvent_7_9_3/rearranged_h_0128.sdf

> <i_m_source_file_index>
5

> <r_mmod_Potential_Energy-OPLS-2005>
69.4101943969727

> <r_mmod_Stretch_Energy-OPLS-2005>
53.0915565490723

> <r_mmod_Bend_Energy-OPLS-2005>
121.912330627441

> <r_mmod_Torsional_Energy-OPLS-2005>
270.388000488281

> <r_mmod_Improper_Torsional_Energy-OPLS-2005>
5.79016065597534

> <r_mmod_Van_der_Waal_Energy-OPLS-2005>
147.625152587891

> <r_mmod_Electrostatic_Energy-OPLS-2005>
-319.425354003906

> <r_mmod_Solvation_Energy-OPLS-2005>
-232.370086669922

> <b_mmod_Minimization_Converged-OPLS-2005>
0

> <r_mmod_RMS_Derivative-OPLS-2005>
2.27662992477417

$$$$
5
                    3D
 Structure written by MMmdl.
152160  0  0  1  0            999 V2000
  -30.6524  -14.5913   20.5044 C   0  0  0  0  0  0
  -30.4213  -12.3667   19.4543 C   0  0  0  0  0  0
  -29.4945  -12.5027   18.2267 C   0  0  0  0  0  0
  -28.0153  -12.3598   18.6369 C   0  0  0  0  0  0
  -27.6495  -13.2180   19.8766 C   0  0  2  0  0  0
  -28.6924  -13.0525   21.0017 C   0  0  0  0  0  0
  -25.2534  -13.8181   20.5743 C   0  0  0  0  0  0
  -24.1790  -13.0437   20.9185 C   0  0  0  0  0  0
  -24.6368  -11.6904   20.8760 C   0  0  0  0  0  0
  -23.9057  -10.4281   21.0434 C   0  0  0  0  0  0
  -24.3631   -9.4189   21.9204 C   0  0  0  0  0  0
  -23.6306   -8.2225   22.0751 C   0  0  0  0  0  0
  -22.4286   -8.0275   21.3541 C   0  0  0  0  0  0
  -21.9917   -9.0235   20.4636 C   0  0  0  0  0  0
  -22.7238  -10.2118   20.3067 C   0  0  0  0  0  0
  -21.6846   -6.0750   22.5274 C   0  0  0  0  0  0
  -21.4016   -6.5659   23.8209 C   0  0  0  0  0  0
  -21.3658   -5.6813   24.9175 C   0  0  0  0  0  0
  -21.6030   -4.3069   24.7219 C   0  0  0  0  0  0
  -21.8824   -3.8163   23.4341 C   0  0  0  0  0  0
  -21.9190   -4.6980   22.3398 C   0  0  0  0  0  0
  -22.7822  -13.5209   21.1865 C   0  0  0  0  0  0
  -22.1660   -4.2185   21.0978 F   0  0  0  0  0  0
  -21.5622   -3.4554   25.7730 F   0  0  0  0  0  0
  -30.0089  -13.3839   20.4403 N   0  0  0  0  0  0
  -26.2959  -12.9355   20.3426 N   0  0  0  0  0  0
  -25.9298  -11.6498   20.5827 N   0  0  0  0  0  0
  -22.0506  -12.8162   22.0431 N   0  0  0  0  0  0
  -25.4301  -15.1898   20.4164 N   0  0  0  0  0  0
  -31.8255  -14.6903   20.1323 O   0  0  0  0  0  0
  -21.6638   -6.8883   21.4233 O   0  0  0  0  0  0
  -22.3495  -14.5523   20.6741 O   0  0  0  0  0  0
  -24.6184  -31.8661   23.2065 C   0  0  0  0  0  0
  -25.9063  -32.4818   23.8390 C   0  0  1  0  0  0
  -27.2327  -27.3953   20.1132 C   0  0  0  0  0  0
  -25.5913  -33.8622   24.2336 N   0  0  0  0  0  0
  -23.4117  -30.4862   21.5457 C   0  0  2  0  0  0
  -24.8644  -28.9515   20.1111 C   0  0  0  0  0  0
  -22.7445  -29.4640   22.4953 C   0  0  0  0  0  0
  -18.0286  -28.1390   22.8498 C   0  0  0  0  0  0
  -24.1482  -36.7298   23.2631 C   0  0  0  0  0  0
  -25.9444  -30.8216   21.3687 C   0  0  0  0  0  0
  -26.0261  -29.4526   20.7154 C   0  0  0  0  0  0
  -27.2178  -28.6819   20.7162 C   0  0  0  0  0  0
  -26.0608  -26.9248   19.4919 C   0  0  0  0  0  0
  -24.8791  -27.6890   19.4931 C   0  0  0  0  0  0
  -23.6260  -29.8193   20.1606 C   0  0  0  0  0  0
  -25.4115  -36.3128   24.0332 C   0  0  1  0  0  0
  -20.5876  -28.3683   23.1312 C   0  0  2  0  0  0
  -20.6770  -26.9411   22.5424 C   0  0  0  0  0  0
  -19.5744  -26.6395   21.5224 C   0  0  0  0  0  0
  -18.1919  -26.7939   22.1627 C   0  0  0  0  0  0
  -19.1531  -28.8851   23.2906 C   0  0  0  0  0  0
  -18.9457  -30.1458   23.8924 C   0  0  0  0  0  0
  -17.6454  -30.6592   24.0571 C   0  0  0  0  0  0
  -25.9053  -34.9476   23.5143 C   0  0  0  0  0  0
  -16.5347  -29.9095   23.6336 C   0  0  0  0  0  0
  -16.7269  -28.6510   23.0357 C   0  0  0  0  0  0
  -26.4488  -31.6590   25.0720 C   0  0  0  0  0  0
  -25.3742  -31.3691   26.1459 C   0  0  0  0  0  0
  -27.0314  -30.3026   24.6114 C   0  0  0  0  0  0
  -27.6087  -32.4287   25.7472 C   0  0  0  0  0  0
  -27.5596  -37.1801   24.8465 C   0  0  0  0  0  0
  -21.4160  -29.3046   22.3708 N   0  0  0  0  0  0
  -26.4307  -37.3812   23.9418 N   0  0  0  0  0  0
  -24.6760  -31.0727   22.0988 N   0  0  0  0  0  0
  -23.4199  -28.8187   23.3009 O   0  0  0  0  0  0
  -28.3168  -26.5392   20.1541 O   0  0  0  0  0  0
  -26.5609  -34.8928   22.4707 O   0  0  0  0  0  0
  -23.5370  -32.1428   23.7437 O   0  0  0  0  0  0
  -28.4834  -18.7912   21.1830 C   0  0  0  0  0  0
  -28.2954  -20.2225   21.1690 C   0  0  0  0  0  0
  -29.7111  -18.3825   20.7156 C   0  0  0  0  0  0
  -29.3840  -20.9280   20.7070 C   0  0  0  0  0  0
  -30.2835  -17.0502   20.5492 C   0  0  0  0  0  0
  -29.8387  -15.7901   20.8364 C   0  0  0  0  0  0
  -28.3959  -25.7886   21.3133 C   0  0  0  0  0  0
  -28.4935  -24.4362   21.4699 C   0  0  0  0  0  0
  -28.4957  -23.8719   22.8809 C   0  0  0  0  0  0
  -28.5644  -23.3455   20.3787 C   0  0  0  0  0  0
  -29.6165  -22.3201   20.5749 N   0  0  0  0  0  0
  -30.6640  -19.7980   20.2825 S   0  0  0  0  0  0
  -31.4637  -12.4751   19.1503 H   0  0  0  0  0  0
  -30.3391  -11.3711   19.8901 H   0  0  0  0  0  0
  -29.7454  -11.7472   17.4810 H   0  0  0  0  0  0
  -29.6499  -13.4716   17.7491 H   0  0  0  0  0  0
  -27.8339  -11.3061   18.8502 H   0  0  0  0  0  0
  -27.3640  -12.6200   17.8023 H   0  0  0  0  0  0
  -27.6752  -14.2583   19.5555 H   0  0  0  0  0  0
  -28.6954  -12.0266   21.3721 H   0  0  0  0  0  0
  -28.4474  -13.6684   21.8690 H   0  0  0  0  0  0
  -25.2787   -9.5650   22.4769 H   0  0  0  0  0  0
  -24.0023   -7.4600   22.7451 H   0  0  0  0  0  0
  -21.0856   -8.8716   19.8937 H   0  0  0  0  0  0
  -22.3697  -10.9644   19.6165 H   0  0  0  0  0  0
  -21.2031   -7.6172   23.9710 H   0  0  0  0  0  0
  -21.1473   -6.0564   25.9074 H   0  0  0  0  0  0
  -22.0619   -2.7631   23.2838 H   0  0  0  0  0  0
  -22.4192  -11.9832   22.4784 H   0  0  0  0  0  0
  -21.1122  -13.1127   22.2706 H   0  0  0  0  0  0
  -24.6703  -15.8553   20.5139 H   0  0  0  0  0  0
  -26.2915  -15.6165   20.1000 H   0  0  0  0  0  0
  -26.7133  -32.5533   23.1153 H   0  0  0  0  0  0
  -25.0068  -33.9795   25.0488 H   0  0  0  0  0  0
  -22.7025  -31.3029   21.4014 H   0  0  0  0  0  0
  -23.3780  -35.9595   23.3291 H   0  0  0  0  0  0
  -24.3580  -36.8935   22.2050 H   0  0  0  0  0  0
  -23.7176  -37.6471   23.6656 H   0  0  0  0  0  0
  -26.0652  -31.5878   20.6014 H   0  0  0  0  0  0
  -26.8268  -30.8733   21.9932 H   0  0  0  0  0  0
  -28.1106  -29.0572   21.1991 H   0  0  0  0  0  0
  -26.0645  -25.9460   19.0337 H   0  0  0  0  0  0
  -23.9891  -27.2966   19.0230 H   0  0  0  0  0  0
  -23.7358  -30.5932   19.3996 H   0  0  0  0  0  0
  -22.7511  -29.2375   19.8632 H   0  0  0  0  0  0
  -25.1291  -36.2001   25.0821 H   0  0  0  0  0  0
  -20.9982  -28.3250   24.1426 H   0  0  0  0  0  0
  -20.5680  -26.2287   23.3614 H   0  0  0  0  0  0
  -21.6640  -26.7441   22.1218 H   0  0  0  0  0  0
  -19.6902  -25.6308   21.1246 H   0  0  0  0  0  0
  -19.6694  -27.3219   20.6763 H   0  0  0  0  0  0
  -17.4200  -26.6713   21.4020 H   0  0  0  0  0  0
  -18.0304  -26.0078   22.9016 H   0  0  0  0  0  0
  -19.7929  -30.7272   24.2312 H   0  0  0  0  0  0
  -17.5003  -31.6281   24.5156 H   0  0  0  0  0  0
  -15.5347  -30.2997   23.7644 H   0  0  0  0  0  0
  -15.8674  -28.0831   22.7062 H   0  0  0  0  0  0
  -24.5915  -30.7057   25.7768 H   0  0  0  0  0  0
  -24.8935  -32.2839   26.4934 H   0  0  0  0  0  0
  -25.8077  -30.8819   27.0201 H   0  0  0  0  0  0
  -26.2861  -29.6776   24.1188 H   0  0  0  0  0  0
  -27.4093  -29.7279   25.4577 H   0  0  0  0  0  0
  -27.8698  -30.4335   23.9271 H   0  0  0  0  0  0
  -27.2758  -33.3589   26.2087 H   0  0  0  0  0  0
  -28.3879  -32.6836   25.0275 H   0  0  0  0  0  0
  -28.0776  -31.8377   26.5352 H   0  0  0  0  0  0
  -28.2613  -38.0106   24.7574 H   0  0  0  0  0  0
  -28.1104  -36.2650   24.6231 H   0  0  0  0  0  0
  -27.2319  -37.1378   25.8867 H   0  0  0  0  0  0
  -20.9317  -29.8773   21.6939 H   0  0  0  0  0  0
  -26.0203  -38.2891   24.1461 H   0  0  0  0  0  0
  -27.7076  -18.1230   21.5301 H   0  0  0  0  0  0
  -27.3757  -20.6705   21.5182 H   0  0  0  0  0  0
  -31.2592  -17.0989   20.0856 H   0  0  0  0  0  0
  -28.8701  -15.6911   21.2996 H   0  0  0  0  0  0
  -28.3465  -26.4358   22.1796 H   0  0  0  0  0  0
  -28.3467  -24.6516   23.6296 H   0  0  0  0  0  0
  -29.4347  -23.3662   23.1062 H   0  0  0  0  0  0
  -27.6843  -23.1519   22.9879 H   0  0  0  0  0  0
  -28.7173  -23.8278   19.4119 H   0  0  0  0  0  0
  -27.5901  -22.8562   20.3190 H   0  0  0  0  0  0
  -30.5643  -22.6224   20.3572 H   0  0  0  0  0  0
  1 25  1  0  0  0
  1 30  2  0  0  0
  1 76  1  0  0  0
  2  3  1  0  0  0
  2 25  1  0  0  0
  2 83  1  0  0  0
  2 84  1  0  0  0
  3  4  1  0  0  0
  3 85  1  0  0  0
  3 86  1  0  0  0
  4  5  1  0  0  0
  4 87  1  0  0  0
  4 88  1  0  0  0
  5  6  1  0  0  0
  5 26  1  0  0  0
  5 89  1  0  0  0
  6 25  1  0  0  0
  6 90  1  0  0  0
  6 91  1  0  0  0
  7  8  2  0  0  0
  7 26  1  0  0  0
  7 29  1  0  0  0
  8  9  1  0  0  0
  8 22  1  0  0  0
  9 10  1  0  0  0
  9 27  2  0  0  0
 10 11  2  0  0  0
 10 15  1  0  0  0
 11 12  1  0  0  0
 11 92  1  0  0  0
 12 13  2  0  0  0
 12 93  1  0  0  0
 13 14  1  0  0  0
 13 31  1  0  0  0
 14 15  2  0  0  0
 14 94  1  0  0  0
 15 95  1  0  0  0
 16 17  2  0  0  0
 16 21  1  0  0  0
 16 31  1  0  0  0
 17 18  1  0  0  0
 17 96  1  0  0  0
 18 19  2  0  0  0
 18 97  1  0  0  0
 19 20  1  0  0  0
 19 24  1  0  0  0
 20 21  2  0  0  0
 20 98  1  0  0  0
 21 23  1  0  0  0
 22 28  1  0  0  0
 22 32  2  0  0  0
 26 27  1  0  0  0
 28 99  1  0  0  0
 28100  1  0  0  0
 29101  1  0  0  0
 29102  1  0  0  0
 33 34  1  0  0  0
 33 66  1  0  0  0
 33 70  2  0  0  0
 34 36  1  0  0  0
 34 59  1  0  0  0
 34103  1  0  0  0
 35 44  2  0  0  0
 35 45  1  0  0  0
 35 68  1  0  0  0
 36 56  1  0  0  0
 36104  1  0  0  0
 37 39  1  0  0  0
 37 47  1  0  0  0
 37 66  1  0  0  0
 37105  1  0  0  0
 38 43  2  0  0  0
 38 46  1  0  0  0
 38 47  1  0  0  0
 39 64  1  0  0  0
 39 67  2  0  0  0
 40 52  1  0  0  0
 40 53  2  0  0  0
 40 58  1  0  0  0
 41106  1  0  0  0
 41107  1  0  0  0
 41108  1  0  0  0
 41 48  1  0  0  0
 42 43  1  0  0  0
 42 66  1  0  0  0
 42109  1  0  0  0
 42110  1  0  0  0
 43 44  1  0  0  0
 44111  1  0  0  0
 45 46  2  0  0  0
 45112  1  0  0  0
 46113  1  0  0  0
 47114  1  0  0  0
 47115  1  0  0  0
 48 56  1  0  0  0
 48 65  1  0  0  0
 48116  1  0  0  0
 49 50  1  0  0  0
 49 53  1  0  0  0
 49 64  1  0  0  0
 49117  1  0  0  0
 50 51  1  0  0  0
 50118  1  0  0  0
 50119  1  0  0  0
 51 52  1  0  0  0
 51120  1  0  0  0
 51121  1  0  0  0
 52122  1  0  0  0
 52123  1  0  0  0
 53 54  1  0  0  0
 54 55  2  0  0  0
 54124  1  0  0  0
 55 57  1  0  0  0
 55125  1  0  0  0
 56 69  2  0  0  0
 57 58  2  0  0  0
 57126  1  0  0  0
 58127  1  0  0  0
 59 60  1  0  0  0
 59 61  1  0  0  0
 59 62  1  0  0  0
 60128  1  0  0  0
 60129  1  0  0  0
 60130  1  0  0  0
 61131  1  0  0  0
 61132  1  0  0  0
 61133  1  0  0  0
 62134  1  0  0  0
 62135  1  0  0  0
 62136  1  0  0  0
 63 65  1  0  0  0
 63137  1  0  0  0
 63138  1  0  0  0
 63139  1  0  0  0
 64140  1  0  0  0
 65141  1  0  0  0
 68 77  1  0  0  0
 71 72  1  0  0  0
 71 73  2  0  0  0
 71142  1  0  0  0
 72 74  2  0  0  0
 72143  1  0  0  0
 73 75  1  0  0  0
 73 82  1  0  0  0
 74 81  1  0  0  0
 74 82  1  0  0  0
 75 76  2  0  0  0
 75144  1  0  0  0
 76145  1  0  0  0
 77 78  2  0  0  0
 77146  1  0  0  0
 78 79  1  0  0  0
 78 80  1  0  0  0
 79147  1  0  0  0
 79148  1  0  0  0
 79149  1  0  0  0
 80 81  1  0  0  0
 80150  1  0  0  0
 80151  1  0  0  0
 81152  1  0  0  0
M  ISO  4   1 100  68 101  76 100  77 101
M  END
> <chiral flag>
0

> <version>
0

> <s_m_source_file>
/data/baiqing/PycharmProjects/Reinvent-master-3.2/result/LINK_invent/BTK/process_docking_weight1_custom_product_contain_oxygen_bond_distance_aromatic_linkinvent_7_9_3/rearranged_h_0128.sdf

> <i_m_source_file_index>
6

> <r_mmod_Potential_Energy-OPLS-2005>
3.12838983535767

> <r_mmod_Stretch_Energy-OPLS-2005>
48.0810241699219

> <r_mmod_Bend_Energy-OPLS-2005>
123.825172424316

> <r_mmod_Torsional_Energy-OPLS-2005>
196.060089111328

> <r_mmod_Improper_Torsional_Energy-OPLS-2005>
5.18329763412476

> <r_mmod_Van_der_Waal_Energy-OPLS-2005>
124.292106628418

> <r_mmod_Electrostatic_Energy-OPLS-2005>
-326.383758544922

> <r_mmod_Solvation_Energy-OPLS-2005>
-199.858459472656

> <b_mmod_Minimization_Converged-OPLS-2005>
0

> <r_mmod_RMS_Derivative-OPLS-2005>
2.76931214332581

$$$$
6
                    3D
 Structure written by MMmdl.
158166  0  0  1  0            999 V2000
  -30.6362  -14.7589   20.4635 C   0  0  0  0  0  0
  -30.4164  -12.4544   19.5179 C   0  0  0  0  0  0
  -29.5194  -12.5183   18.2626 C   0  0  0  0  0  0
  -28.0401  -12.3548   18.6551 C   0  0  0  0  0  0
  -27.6411  -13.2484   19.8607 C   0  0  2  0  0  0
  -28.6756  -13.2011   21.0075 C   0  0  0  0  0  0
  -25.2480  -13.8245   20.5716 C   0  0  0  0  0  0
  -24.1781  -13.0470   20.9194 C   0  0  0  0  0  0
  -24.6386  -11.6950   20.8739 C   0  0  0  0  0  0
  -23.9068  -10.4315   21.0398 C   0  0  0  0  0  0
  -24.3620   -9.4231   21.9174 C   0  0  0  0  0  0
  -23.6299   -8.2265   22.0751 C   0  0  0  0  0  0
  -22.4277   -8.0293   21.3553 C   0  0  0  0  0  0
  -21.9910   -9.0263   20.4653 C   0  0  0  0  0  0
  -22.7233  -10.2145   20.3056 C   0  0  0  0  0  0
  -21.6863   -6.0738   22.5276 C   0  0  0  0  0  0
  -21.4025   -6.5642   23.8207 C   0  0  0  0  0  0
  -21.3661   -5.6792   24.9165 C   0  0  0  0  0  0
  -21.6041   -4.3053   24.7217 C   0  0  0  0  0  0
  -21.8817   -3.8148   23.4337 C   0  0  0  0  0  0
  -21.9196   -4.6965   22.3395 C   0  0  0  0  0  0
  -22.7792  -13.5234   21.1837 C   0  0  0  0  0  0
  -22.1663   -4.2151   21.0972 F   0  0  0  0  0  0
  -21.5625   -3.4536   25.7730 F   0  0  0  0  0  0
  -29.9859  -13.5381   20.4418 N   0  0  0  0  0  0
  -26.2924  -12.9485   20.3314 N   0  0  0  0  0  0
  -25.9328  -11.6609   20.5755 N   0  0  0  0  0  0
  -22.0435  -12.8252   22.0407 N   0  0  0  0  0  0
  -25.4173  -15.1975   20.4173 N   0  0  0  0  0  0
  -31.7774  -14.8072   19.9958 O   0  0  0  0  0  0
  -21.6653   -6.8881   21.4241 O   0  0  0  0  0  0
  -22.3468  -14.5524   20.6652 O   0  0  0  0  0  0
  -24.6309  -31.8512   23.1944 C   0  0  0  0  0  0
  -25.9145  -32.4713   23.8297 C   0  0  1  0  0  0
  -27.2210  -27.2474   20.1299 C   0  0  0  0  0  0
  -25.5950  -33.8517   24.2234 N   0  0  0  0  0  0
  -23.4285  -30.4707   21.5353 C   0  0  2  0  0  0
  -24.8773  -28.9118   20.0967 C   0  0  0  0  0  0
  -22.7492  -29.4584   22.4883 C   0  0  0  0  0  0
  -18.0300  -28.1376   22.8486 C   0  0  0  0  0  0
  -24.1498  -36.7248   23.2642 C   0  0  0  0  0  0
  -25.9734  -30.7544   21.3818 C   0  0  0  0  0  0
  -26.0416  -29.3785   20.7164 C   0  0  0  0  0  0
  -27.2093  -28.5543   20.7273 C   0  0  0  0  0  0
  -26.0435  -26.8468   19.4681 C   0  0  0  0  0  0
  -24.8849  -27.6566   19.4599 C   0  0  0  0  0  0
  -23.6456  -29.7978   20.1510 C   0  0  0  0  0  0
  -25.4130  -36.3037   24.0328 C   0  0  1  0  0  0
  -20.5901  -28.3690   23.1253 C   0  0  2  0  0  0
  -20.6783  -26.9407   22.5393 C   0  0  0  0  0  0
  -19.5762  -26.6377   21.5196 C   0  0  0  0  0  0
  -18.1945  -26.7922   22.1611 C   0  0  0  0  0  0
  -19.1550  -28.8854   23.2863 C   0  0  0  0  0  0
  -18.9471  -30.1461   23.8873 C   0  0  0  0  0  0
  -17.6467  -30.6579   24.0559 C   0  0  0  0  0  0
  -25.9073  -34.9409   23.5084 C   0  0  0  0  0  0
  -16.5361  -29.9069   23.6339 C   0  0  0  0  0  0
  -16.7283  -28.6486   23.0360 C   0  0  0  0  0  0
  -26.4507  -31.6544   25.0699 C   0  0  0  0  0  0
  -25.3718  -31.3705   26.1411 C   0  0  0  0  0  0
  -27.0387  -30.2952   24.6241 C   0  0  0  0  0  0
  -27.6057  -32.4285   25.7467 C   0  0  0  0  0  0
  -27.5584  -37.1785   24.8468 C   0  0  0  0  0  0
  -21.4200  -29.3029   22.3626 N   0  0  0  0  0  0
  -26.4297  -37.3740   23.9406 N   0  0  0  0  0  0
  -24.6955  -31.0463   22.0916 N   0  0  0  0  0  0
  -23.4184  -28.8154   23.3012 O   0  0  0  0  0  0
  -28.3145  -26.3693   20.2905 O   0  0  0  0  0  0
  -26.5629  -34.8897   22.4647 O   0  0  0  0  0  0
  -23.5466  -32.1355   23.7241 O   0  0  0  0  0  0
  -30.9467  -19.0880   21.6566 C   0  0  0  0  0  0
  -28.9922  -19.8224   20.4311 C   0  0  0  0  0  0
  -29.8739  -18.7206   20.8233 C   0  0  0  0  0  0
  -31.2000  -20.4220   22.0374 C   0  0  0  0  0  0
  -29.1835  -21.2165   20.8554 C   0  0  0  0  0  0
  -30.3408  -21.4792   21.6374 C   0  0  0  0  0  0
  -29.9802  -17.2463   20.3322 C   0  0  0  0  0  0
  -30.0164  -16.0289   21.0142 C   0  0  0  0  0  0
  -32.4255  -20.6925   22.8979 C   0  0  0  0  0  0
  -30.6294  -22.8992   22.1203 C   0  0  0  0  0  0
  -28.0949  -22.3969   20.7601 C   0  0  0  0  0  0
  -27.9495  -23.5840   19.6545 C   0  0  0  0  0  0
  -28.5832  -25.0879   19.5551 C   0  0  0  0  0  0
  -31.4674  -12.5317   19.2349 H   0  0  0  0  0  0
  -30.3221  -11.4838   20.0080 H   0  0  0  0  0  0
  -29.8075  -11.7430   17.5515 H   0  0  0  0  0  0
  -29.6660  -13.4739   17.7565 H   0  0  0  0  0  0
  -27.8804  -11.3047   18.9014 H   0  0  0  0  0  0
  -27.3977  -12.5687   17.8003 H   0  0  0  0  0  0
  -27.6342  -14.2713   19.4834 H   0  0  0  0  0  0
  -28.7010  -12.2129   21.4689 H   0  0  0  0  0  0
  -28.4015  -13.9013   21.7975 H   0  0  0  0  0  0
  -25.2761   -9.5723   22.4744 H   0  0  0  0  0  0
  -24.0015   -7.4666   22.7473 H   0  0  0  0  0  0
  -21.0838   -8.8774   19.8967 H   0  0  0  0  0  0
  -22.3672  -10.9681   19.6169 H   0  0  0  0  0  0
  -21.2030   -7.6150   23.9714 H   0  0  0  0  0  0
  -21.1482   -6.0520   25.9068 H   0  0  0  0  0  0
  -22.0595   -2.7611   23.2832 H   0  0  0  0  0  0
  -22.4049  -11.9952   22.4868 H   0  0  0  0  0  0
  -21.1043  -13.1283   22.2566 H   0  0  0  0  0  0
  -24.6564  -15.8566   20.5440 H   0  0  0  0  0  0
  -26.2817  -15.6407   20.1320 H   0  0  0  0  0  0
  -26.7198  -32.5338   23.1016 H   0  0  0  0  0  0
  -25.0122  -33.9646   25.0395 H   0  0  0  0  0  0
  -22.7252  -31.2932   21.3864 H   0  0  0  0  0  0
  -23.3772  -35.9567   23.3296 H   0  0  0  0  0  0
  -24.3589  -36.8876   22.2059 H   0  0  0  0  0  0
  -23.7247  -37.6444   23.6670 H   0  0  0  0  0  0
  -26.1333  -31.5219   20.6236 H   0  0  0  0  0  0
  -26.8413  -30.7861   22.0290 H   0  0  0  0  0  0
  -28.0950  -28.8988   21.2416 H   0  0  0  0  0  0
  -25.9932  -25.8775   18.9952 H   0  0  0  0  0  0
  -23.9930  -27.2946   18.9678 H   0  0  0  0  0  0
  -23.7602  -30.5715   19.3909 H   0  0  0  0  0  0
  -22.7651  -29.2250   19.8543 H   0  0  0  0  0  0
  -25.1321  -36.1871   25.0820 H   0  0  0  0  0  0
  -20.9998  -28.3277   24.1371 H   0  0  0  0  0  0
  -20.5672  -26.2306   23.3602 H   0  0  0  0  0  0
  -21.6654  -26.7426   22.1195 H   0  0  0  0  0  0
  -19.6922  -25.6282   21.1243 H   0  0  0  0  0  0
  -19.6704  -27.3168   20.6714 H   0  0  0  0  0  0
  -17.4214  -26.6674   21.4014 H   0  0  0  0  0  0
  -18.0353  -26.0053   22.8996 H   0  0  0  0  0  0
  -19.7947  -30.7290   24.2216 H   0  0  0  0  0  0
  -17.5021  -31.6263   24.5151 H   0  0  0  0  0  0
  -15.5360  -30.2960   23.7679 H   0  0  0  0  0  0
  -15.8687  -28.0797   22.7086 H   0  0  0  0  0  0
  -24.5879  -30.7084   25.7713 H   0  0  0  0  0  0
  -24.8935  -32.2883   26.4840 H   0  0  0  0  0  0
  -25.8017  -30.8851   27.0182 H   0  0  0  0  0  0
  -26.3007  -29.6661   24.1257 H   0  0  0  0  0  0
  -27.4036  -29.7257   25.4803 H   0  0  0  0  0  0
  -27.8890  -30.4214   23.9537 H   0  0  0  0  0  0
  -27.2668  -33.3589   26.2036 H   0  0  0  0  0  0
  -28.3869  -32.6839   25.0290 H   0  0  0  0  0  0
  -28.0724  -31.8417   26.5390 H   0  0  0  0  0  0
  -28.2593  -38.0090   24.7517 H   0  0  0  0  0  0
  -28.1098  -36.2622   24.6299 H   0  0  0  0  0  0
  -27.2301  -37.1426   25.8871 H   0  0  0  0  0  0
  -20.9388  -29.8704   21.6788 H   0  0  0  0  0  0
  -26.0175  -38.2814   24.1387 H   0  0  0  0  0  0
  -31.6438  -18.3207   21.9668 H   0  0  0  0  0  0
  -28.1367  -19.5886   19.8128 H   0  0  0  0  0  0
  -30.2359  -17.1872   19.2829 H   0  0  0  0  0  0
  -29.7111  -16.0128   22.0501 H   0  0  0  0  0  0
  -32.8784  -19.7694   23.2602 H   0  0  0  0  0  0
  -32.1670  -21.2921   23.7710 H   0  0  0  0  0  0
  -33.1823  -21.2260   22.3213 H   0  0  0  0  0  0
  -31.6924  -23.0926   22.2534 H   0  0  0  0  0  0
  -30.1293  -23.0809   23.0719 H   0  0  0  0  0  0
  -30.2864  -23.6456   21.4082 H   0  0  0  0  0  0
  -28.0064  -22.8585   21.7441 H   0  0  0  0  0  0
  -27.1615  -21.8386   20.6793 H   0  0  0  0  0  0
  -26.8756  -23.7591   19.5917 H   0  0  0  0  0  0
  -28.1847  -23.1004   18.7063 H   0  0  0  0  0  0
  -28.4320  -25.3751   18.5135 H   0  0  0  0  0  0
  -29.6634  -24.9626   19.6198 H   0  0  0  0  0  0
  1 25  1  0  0  0
  1 30  2  0  0  0
  1 78  1  0  0  0
  2  3  1  0  0  0
  2 25  1  0  0  0
  2 84  1  0  0  0
  2 85  1  0  0  0
  3  4  1  0  0  0
  3 86  1  0  0  0
  3 87  1  0  0  0
  4  5  1  0  0  0
  4 88  1  0  0  0
  4 89  1  0  0  0
  5  6  1  0  0  0
  5 26  1  0  0  0
  5 90  1  0  0  0
  6 25  1  0  0  0
  6 91  1  0  0  0
  6 92  1  0  0  0
  7  8  2  0  0  0
  7 26  1  0  0  0
  7 29  1  0  0  0
  8  9  1  0  0  0
  8 22  1  0  0  0
  9 10  1  0  0  0
  9 27  2  0  0  0
 10 11  2  0  0  0
 10 15  1  0  0  0
 11 12  1  0  0  0
 11 93  1  0  0  0
 12 13  2  0  0  0
 12 94  1  0  0  0
 13 14  1  0  0  0
 13 31  1  0  0  0
 14 15  2  0  0  0
 14 95  1  0  0  0
 15 96  1  0  0  0
 16 17  2  0  0  0
 16 21  1  0  0  0
 16 31  1  0  0  0
 17 18  1  0  0  0
 17 97  1  0  0  0
 18 19  2  0  0  0
 18 98  1  0  0  0
 19 20  1  0  0  0
 19 24  1  0  0  0
 20 21  2  0  0  0
 20 99  1  0  0  0
 21 23  1  0  0  0
 22 28  1  0  0  0
 22 32  2  0  0  0
 26 27  1  0  0  0
 28100  1  0  0  0
 28101  1  0  0  0
 29102  1  0  0  0
 29103  1  0  0  0
 33 34  1  0  0  0
 33 66  1  0  0  0
 33 70  2  0  0  0
 34 36  1  0  0  0
 34 59  1  0  0  0
 34104  1  0  0  0
 35 44  2  0  0  0
 35 45  1  0  0  0
 35 68  1  0  0  0
 36 56  1  0  0  0
 36105  1  0  0  0
 37 39  1  0  0  0
 37 47  1  0  0  0
 37 66  1  0  0  0
 37106  1  0  0  0
 38 43  2  0  0  0
 38 46  1  0  0  0
 38 47  1  0  0  0
 39 64  1  0  0  0
 39 67  2  0  0  0
 40 52  1  0  0  0
 40 53  2  0  0  0
 40 58  1  0  0  0
 41107  1  0  0  0
 41108  1  0  0  0
 41109  1  0  0  0
 41 48  1  0  0  0
 42 43  1  0  0  0
 42 66  1  0  0  0
 42110  1  0  0  0
 42111  1  0  0  0
 43 44  1  0  0  0
 44112  1  0  0  0
 45 46  2  0  0  0
 45113  1  0  0  0
 46114  1  0  0  0
 47115  1  0  0  0
 47116  1  0  0  0
 48 56  1  0  0  0
 48 65  1  0  0  0
 48117  1  0  0  0
 49 50  1  0  0  0
 49 53  1  0  0  0
 49 64  1  0  0  0
 49118  1  0  0  0
 50 51  1  0  0  0
 50119  1  0  0  0
 50120  1  0  0  0
 51 52  1  0  0  0
 51121  1  0  0  0
 51122  1  0  0  0
 52123  1  0  0  0
 52124  1  0  0  0
 53 54  1  0  0  0
 54 55  2  0  0  0
 54125  1  0  0  0
 55 57  1  0  0  0
 55126  1  0  0  0
 56 69  2  0  0  0
 57 58  2  0  0  0
 57127  1  0  0  0
 58128  1  0  0  0
 59 60  1  0  0  0
 59 61  1  0  0  0
 59 62  1  0  0  0
 60129  1  0  0  0
 60130  1  0  0  0
 60131  1  0  0  0
 61132  1  0  0  0
 61133  1  0  0  0
 61134  1  0  0  0
 62135  1  0  0  0
 62136  1  0  0  0
 62137  1  0  0  0
 63 65  1  0  0  0
 63138  1  0  0  0
 63139  1  0  0  0
 63140  1  0  0  0
 64141  1  0  0  0
 65142  1  0  0  0
 68 83  1  0  0  0
 71 73  2  0  0  0
 71 74  1  0  0  0
 71143  1  0  0  0
 72 73  1  0  0  0
 72 75  2  0  0  0
 72144  1  0  0  0
 73 77  1  0  0  0
 74 76  2  0  0  0
 74 79  1  0  0  0
 75 76  1  0  0  0
 75 81  1  0  0  0
 76 80  1  0  0  0
 77 78  2  0  0  0
 77145  1  0  0  0
 78146  1  0  0  0
 79147  1  0  0  0
 79148  1  0  0  0
 79149  1  0  0  0
 80150  1  0  0  0
 80151  1  0  0  0
 80152  1  0  0  0
 81 82  1  0  0  0
 81153  1  0  0  0
 81154  1  0  0  0
 82 83  1  0  0  0
 82155  1  0  0  0
 82156  1  0  0  0
 83157  1  0  0  0
 83158  1  0  0  0
M  ISO  4   1 100  68 101  78 100  83 101
M  END
> <chiral flag>
0

> <version>
0

> <s_m_source_file>
/data/baiqing/PycharmProjects/Reinvent-master-3.2/result/LINK_invent/BTK/process_docking_weight1_custom_product_contain_oxygen_bond_distance_aromatic_linkinvent_7_9_3/rearranged_h_0128.sdf

> <i_m_source_file_index>
7

> <r_mmod_Potential_Energy-OPLS-2005>
357.473052978516

> <r_mmod_Stretch_Energy-OPLS-2005>
141.29833984375

> <r_mmod_Bend_Energy-OPLS-2005>
283.242370605469

> <r_mmod_Torsional_Energy-OPLS-2005>
237.040451049805

> <r_mmod_Improper_Torsional_Energy-OPLS-2005>
10.7211847305298

> <r_mmod_Van_der_Waal_Energy-OPLS-2005>
139.847930908203

> <r_mmod_Electrostatic_Energy-OPLS-2005>
-357.847137451172

> <r_mmod_Solvation_Energy-OPLS-2005>
-192.501129150391

> <b_mmod_Minimization_Converged-OPLS-2005>
0

> <r_mmod_RMS_Derivative-OPLS-2005>
1.39842057228088

$$$$
7
                    3D
 Structure written by MMmdl.
154162  0  0  1  0            999 V2000
  -30.6351  -14.7404   20.4538 C   0  0  0  0  0  0
  -30.4212  -12.4500   19.4771 C   0  0  0  0  0  0
  -29.5029  -12.4990   18.2369 C   0  0  0  0  0  0
  -28.0293  -12.3303   18.6517 C   0  0  0  0  0  0
  -27.6374  -13.2375   19.8487 C   0  0  2  0  0  0
  -28.6822  -13.1860   20.9845 C   0  0  0  0  0  0
  -25.2492  -13.8215   20.5711 C   0  0  0  0  0  0
  -24.1792  -13.0446   20.9213 C   0  0  0  0  0  0
  -24.6391  -11.6922   20.8750 C   0  0  0  0  0  0
  -23.9070  -10.4291   21.0408 C   0  0  0  0  0  0
  -24.3625   -9.4200   21.9180 C   0  0  0  0  0  0
  -23.6300   -8.2240   22.0751 C   0  0  0  0  0  0
  -22.4285   -8.0279   21.3541 C   0  0  0  0  0  0
  -21.9918   -9.0251   20.4644 C   0  0  0  0  0  0
  -22.7245  -10.2127   20.3055 C   0  0  0  0  0  0
  -21.6851   -6.0736   22.5273 C   0  0  0  0  0  0
  -21.4017   -6.5643   23.8207 C   0  0  0  0  0  0
  -21.3658   -5.6795   24.9167 C   0  0  0  0  0  0
  -21.6044   -4.3057   24.7220 C   0  0  0  0  0  0
  -21.8818   -3.8148   23.4341 C   0  0  0  0  0  0
  -21.9196   -4.6965   22.3399 C   0  0  0  0  0  0
  -22.7813  -13.5220   21.1872 C   0  0  0  0  0  0
  -22.1663   -4.2152   21.0975 F   0  0  0  0  0  0
  -21.5628   -3.4541   25.7729 F   0  0  0  0  0  0
  -29.9830  -13.5279   20.3974 N   0  0  0  0  0  0
  -26.2920  -12.9434   20.3294 N   0  0  0  0  0  0
  -25.9322  -11.6568   20.5763 N   0  0  0  0  0  0
  -22.0484  -12.8187   22.0435 N   0  0  0  0  0  0
  -25.4174  -15.1943   20.4126 N   0  0  0  0  0  0
  -31.8269  -14.7746   20.1404 O   0  0  0  0  0  0
  -21.6646   -6.8881   21.4234 O   0  0  0  0  0  0
  -22.3482  -14.5523   20.6727 O   0  0  0  0  0  0
  -24.6300  -31.8538   23.1972 C   0  0  0  0  0  0
  -25.9129  -32.4747   23.8308 C   0  0  1  0  0  0
  -27.2230  -27.2663   20.1330 C   0  0  0  0  0  0
  -25.5924  -33.8551   24.2233 N   0  0  0  0  0  0
  -23.4265  -30.4744   21.5382 C   0  0  2  0  0  0
  -24.8748  -28.9204   20.1065 C   0  0  0  0  0  0
  -22.7496  -29.4581   22.4896 C   0  0  0  0  0  0
  -18.0281  -28.1399   22.8479 C   0  0  0  0  0  0
  -24.1490  -36.7281   23.2645 C   0  0  0  0  0  0
  -25.9702  -30.7698   21.3748 C   0  0  0  0  0  0
  -26.0418  -29.3926   20.7178 C   0  0  0  0  0  0
  -27.2144  -28.5753   20.7213 C   0  0  0  0  0  0
  -26.0314  -26.8524   19.4990 C   0  0  0  0  0  0
  -24.8747  -27.6593   19.4889 C   0  0  0  0  0  0
  -23.6445  -29.8066   20.1536 C   0  0  0  0  0  0
  -25.4117  -36.3062   24.0321 C   0  0  1  0  0  0
  -20.5888  -28.3697   23.1274 C   0  0  2  0  0  0
  -20.6775  -26.9414   22.5418 C   0  0  0  0  0  0
  -19.5752  -26.6376   21.5229 C   0  0  0  0  0  0
  -18.1921  -26.7943   22.1616 C   0  0  0  0  0  0
  -19.1539  -28.8866   23.2870 C   0  0  0  0  0  0
  -18.9466  -30.1464   23.8892 C   0  0  0  0  0  0
  -17.6472  -30.6601   24.0569 C   0  0  0  0  0  0
  -25.9055  -34.9435   23.5074 C   0  0  0  0  0  0
  -16.5359  -29.9101   23.6346 C   0  0  0  0  0  0
  -16.7268  -28.6516   23.0364 C   0  0  0  0  0  0
  -26.4515  -31.6588   25.0707 C   0  0  0  0  0  0
  -25.3737  -31.3755   26.1430 C   0  0  0  0  0  0
  -27.0373  -30.3005   24.6198 C   0  0  0  0  0  0
  -27.6048  -32.4356   25.7483 C   0  0  0  0  0  0
  -27.5575  -37.1789   24.8462 C   0  0  0  0  0  0
  -21.4199  -29.3036   22.3652 N   0  0  0  0  0  0
  -26.4288  -37.3765   23.9407 N   0  0  0  0  0  0
  -24.6946  -31.0506   22.0935 N   0  0  0  0  0  0
  -23.4196  -28.8127   23.2994 O   0  0  0  0  0  0
  -28.3404  -26.4111   20.2369 O   0  0  0  0  0  0
  -26.5632  -34.8911   22.4650 O   0  0  0  0  0  0
  -23.5446  -32.1350   23.7269 O   0  0  0  0  0  0
  -31.1116  -20.1173   20.3268 C   0  0  0  0  0  0
  -31.6415  -17.7263   20.3994 C   0  0  0  0  0  0
  -29.7309  -19.8839   20.5028 C   0  0  0  0  0  0
  -30.2825  -17.3562   20.5494 C   0  0  0  0  0  0
  -29.3383  -18.4740   20.6082 C   0  0  0  0  0  0
  -32.0439  -19.0684   20.2871 C   0  0  0  0  0  0
  -28.8264  -21.1445   20.5857 C   0  0  0  0  0  0
  -29.1166  -22.4653   20.2479 C   0  0  0  0  0  0
  -28.2553  -23.7307   20.4691 C   0  0  0  0  0  0
  -27.6165  -18.0657   22.1203 C   0  0  0  0  0  0
  -28.4477  -25.0595   19.5918 C   0  0  0  0  0  0
  -29.8980  -15.9094   20.6501 N   0  0  0  0  0  0
  -27.3784  -23.7430   21.3380 O   0  0  0  0  0  0
  -28.0112  -18.1736   20.7606 O   0  0  0  0  0  0
  -33.3594  -19.3580   20.1462 F   0  0  0  0  0  0
  -31.4634  -12.5540   19.1717 H   0  0  0  0  0  0
  -30.3536  -11.4788   19.9690 H   0  0  0  0  0  0
  -29.7816  -11.7176   17.5278 H   0  0  0  0  0  0
  -29.6324  -13.4480   17.7140 H   0  0  0  0  0  0
  -27.8841  -11.2832   18.9197 H   0  0  0  0  0  0
  -27.3707  -12.5189   17.8025 H   0  0  0  0  0  0
  -27.6267  -14.2560   19.4608 H   0  0  0  0  0  0
  -28.7153  -12.1948   21.4380 H   0  0  0  0  0  0
  -28.4207  -13.8815   21.7833 H   0  0  0  0  0  0
  -25.2774   -9.5683   22.4750 H   0  0  0  0  0  0
  -24.0010   -7.4635   22.7469 H   0  0  0  0  0  0
  -21.0852   -8.8763   19.8953 H   0  0  0  0  0  0
  -22.3698  -10.9666   19.6165 H   0  0  0  0  0  0
  -21.2007   -7.6150   23.9711 H   0  0  0  0  0  0
  -21.1481   -6.0525   25.9071 H   0  0  0  0  0  0
  -22.0602   -2.7612   23.2834 H   0  0  0  0  0  0
  -22.4130  -11.9842   22.4790 H   0  0  0  0  0  0
  -21.1100  -13.1181   22.2677 H   0  0  0  0  0  0
  -24.6438  -15.8423   20.5141 H   0  0  0  0  0  0
  -26.2542  -15.6343   20.0526 H   0  0  0  0  0  0
  -26.7183  -32.5400   23.1031 H   0  0  0  0  0  0
  -25.0089  -33.9695   25.0387 H   0  0  0  0  0  0
  -22.7240  -31.2961   21.3890 H   0  0  0  0  0  0
  -23.3763  -35.9605   23.3300 H   0  0  0  0  0  0
  -24.3574  -36.8926   22.2061 H   0  0  0  0  0  0
  -23.7241  -37.6473   23.6687 H   0  0  0  0  0  0
  -26.1102  -31.5318   20.6067 H   0  0  0  0  0  0
  -26.8468  -30.8171   22.0085 H   0  0  0  0  0  0
  -28.1077  -28.9283   21.2165 H   0  0  0  0  0  0
  -25.9559  -25.8779   19.0406 H   0  0  0  0  0  0
  -23.9759  -27.2912   19.0131 H   0  0  0  0  0  0
  -23.7680  -30.5819   19.3970 H   0  0  0  0  0  0
  -22.7647  -29.2376   19.8483 H   0  0  0  0  0  0
  -25.1304  -36.1898   25.0814 H   0  0  0  0  0  0
  -20.9964  -28.3282   24.1403 H   0  0  0  0  0  0
  -20.5706  -26.2301   23.3622 H   0  0  0  0  0  0
  -21.6635  -26.7453   22.1198 H   0  0  0  0  0  0
  -19.6933  -25.6289   21.1262 H   0  0  0  0  0  0
  -19.6724  -27.3177   20.6764 H   0  0  0  0  0  0
  -17.4207  -26.6710   21.3996 H   0  0  0  0  0  0
  -18.0297  -26.0078   22.8999 H   0  0  0  0  0  0
  -19.7953  -30.7270   24.2256 H   0  0  0  0  0  0
  -17.5038  -31.6288   24.5162 H   0  0  0  0  0  0
  -15.5365  -30.3015   23.7686 H   0  0  0  0  0  0
  -15.8655  -28.0842   22.7106 H   0  0  0  0  0  0
  -24.5880  -30.7146   25.7759 H   0  0  0  0  0  0
  -24.8979  -32.2946   26.4858 H   0  0  0  0  0  0
  -25.8040  -30.8916   27.0206 H   0  0  0  0  0  0
  -26.2960  -29.6729   24.1242 H   0  0  0  0  0  0
  -27.4094  -29.7289   25.4712 H   0  0  0  0  0  0
  -27.8811  -30.4292   23.9415 H   0  0  0  0  0  0
  -27.2624  -33.3661   26.2023 H   0  0  0  0  0  0
  -28.3869  -32.6920   25.0324 H   0  0  0  0  0  0
  -28.0702  -31.8519   26.5436 H   0  0  0  0  0  0
  -28.2583  -38.0094   24.7501 H   0  0  0  0  0  0
  -28.1080  -36.2620   24.6293 H   0  0  0  0  0  0
  -27.2290  -37.1431   25.8866 H   0  0  0  0  0  0
  -20.9383  -29.8750   21.6852 H   0  0  0  0  0  0
  -26.0169  -38.2839   24.1422 H   0  0  0  0  0  0
  -31.4980  -21.1218   20.2562 H   0  0  0  0  0  0
  -32.4348  -16.9998   20.3681 H   0  0  0  0  0  0
  -27.8486  -20.9614   21.0091 H   0  0  0  0  0  0
  -30.0720  -22.6754   19.7932 H   0  0  0  0  0  0
  -26.5852  -17.7176   22.1746 H   0  0  0  0  0  0
  -27.6706  -19.0320   22.6231 H   0  0  0  0  0  0
  -28.2364  -17.3544   22.6687 H   0  0  0  0  0  0
  -27.8009  -24.9979   18.7185 H   0  0  0  0  0  0
  -29.4586  -25.0084   19.1891 H   0  0  0  0  0  0
  -28.9185  -15.7480   20.8237 H   0  0  0  0  0  0
  1 25  1  0  0  0
  1 30  2  0  0  0
  1 82  1  0  0  0
  2  3  1  0  0  0
  2 25  1  0  0  0
  2 86  1  0  0  0
  2 87  1  0  0  0
  3  4  1  0  0  0
  3 88  1  0  0  0
  3 89  1  0  0  0
  4  5  1  0  0  0
  4 90  1  0  0  0
  4 91  1  0  0  0
  5  6  1  0  0  0
  5 26  1  0  0  0
  5 92  1  0  0  0
  6 25  1  0  0  0
  6 93  1  0  0  0
  6 94  1  0  0  0
  7  8  2  0  0  0
  7 26  1  0  0  0
  7 29  1  0  0  0
  8  9  1  0  0  0
  8 22  1  0  0  0
  9 10  1  0  0  0
  9 27  2  0  0  0
 10 11  2  0  0  0
 10 15  1  0  0  0
 11 12  1  0  0  0
 11 95  1  0  0  0
 12 13  2  0  0  0
 12 96  1  0  0  0
 13 14  1  0  0  0
 13 31  1  0  0  0
 14 15  2  0  0  0
 14 97  1  0  0  0
 15 98  1  0  0  0
 16 17  2  0  0  0
 16 21  1  0  0  0
 16 31  1  0  0  0
 17 18  1  0  0  0
 17 99  1  0  0  0
 18 19  2  0  0  0
 18100  1  0  0  0
 19 20  1  0  0  0
 19 24  1  0  0  0
 20 21  2  0  0  0
 20101  1  0  0  0
 21 23  1  0  0  0
 22 28  1  0  0  0
 22 32  2  0  0  0
 26 27  1  0  0  0
 28102  1  0  0  0
 28103  1  0  0  0
 29104  1  0  0  0
 29105  1  0  0  0
 33 34  1  0  0  0
 33 66  1  0  0  0
 33 70  2  0  0  0
 34 36  1  0  0  0
 34 59  1  0  0  0
 34106  1  0  0  0
 35 44  2  0  0  0
 35 45  1  0  0  0
 35 68  1  0  0  0
 36 56  1  0  0  0
 36107  1  0  0  0
 37 39  1  0  0  0
 37 47  1  0  0  0
 37 66  1  0  0  0
 37108  1  0  0  0
 38 43  2  0  0  0
 38 46  1  0  0  0
 38 47  1  0  0  0
 39 64  1  0  0  0
 39 67  2  0  0  0
 40 52  1  0  0  0
 40 53  2  0  0  0
 40 58  1  0  0  0
 41109  1  0  0  0
 41110  1  0  0  0
 41111  1  0  0  0
 41 48  1  0  0  0
 42 43  1  0  0  0
 42 66  1  0  0  0
 42112  1  0  0  0
 42113  1  0  0  0
 43 44  1  0  0  0
 44114  1  0  0  0
 45 46  2  0  0  0
 45115  1  0  0  0
 46116  1  0  0  0
 47117  1  0  0  0
 47118  1  0  0  0
 48 56  1  0  0  0
 48 65  1  0  0  0
 48119  1  0  0  0
 49 50  1  0  0  0
 49 53  1  0  0  0
 49 64  1  0  0  0
 49120  1  0  0  0
 50 51  1  0  0  0
 50121  1  0  0  0
 50122  1  0  0  0
 51 52  1  0  0  0
 51123  1  0  0  0
 51124  1  0  0  0
 52125  1  0  0  0
 52126  1  0  0  0
 53 54  1  0  0  0
 54 55  2  0  0  0
 54127  1  0  0  0
 55 57  1  0  0  0
 55128  1  0  0  0
 56 69  2  0  0  0
 57 58  2  0  0  0
 57129  1  0  0  0
 58130  1  0  0  0
 59 60  1  0  0  0
 59 61  1  0  0  0
 59 62  1  0  0  0
 60131  1  0  0  0
 60132  1  0  0  0
 60133  1  0  0  0
 61134  1  0  0  0
 61135  1  0  0  0
 61136  1  0  0  0
 62137  1  0  0  0
 62138  1  0  0  0
 62139  1  0  0  0
 63 65  1  0  0  0
 63140  1  0  0  0
 63141  1  0  0  0
 63142  1  0  0  0
 64143  1  0  0  0
 65144  1  0  0  0
 68 81  1  0  0  0
 71 73  2  0  0  0
 71 76  1  0  0  0
 71145  1  0  0  0
 72 74  1  0  0  0
 72 76  2  0  0  0
 72146  1  0  0  0
 73 75  1  0  0  0
 73 77  1  0  0  0
 74 75  2  0  0  0
 74 82  1  0  0  0
 75 84  1  0  0  0
 76 85  1  0  0  0
 77 78  2  0  0  0
 77147  1  0  0  0
 78 79  1  0  0  0
 78148  1  0  0  0
 79 81  1  0  0  0
 79 83  2  0  0  0
 80 84  1  0  0  0
 80149  1  0  0  0
 80150  1  0  0  0
 80151  1  0  0  0
 81152  1  0  0  0
 81153  1  0  0  0
 82154  1  0  0  0
M  ISO  4   1 100  68 101  81 101  82 100
M  END
> <chiral flag>
0

> <version>
0

> <s_m_source_file>
/data/baiqing/PycharmProjects/Reinvent-master-3.2/result/LINK_invent/BTK/process_docking_weight1_custom_product_contain_oxygen_bond_distance_aromatic_linkinvent_7_9_3/rearranged_h_0128.sdf

> <i_m_source_file_index>
8

> <r_mmod_Potential_Energy-OPLS-2005>
164.30908203125

> <r_mmod_Stretch_Energy-OPLS-2005>
129.718719482422

> <r_mmod_Bend_Energy-OPLS-2005>
166.922592163086

> <r_mmod_Torsional_Energy-OPLS-2005>
246.129516601562

> <r_mmod_Improper_Torsional_Energy-OPLS-2005>
5.21742820739746

> <r_mmod_Van_der_Waal_Energy-OPLS-2005>
139.705154418945

> <r_mmod_Electrostatic_Energy-OPLS-2005>
-381.844848632812

> <r_mmod_Solvation_Energy-OPLS-2005>
-224.33528137207

> <b_mmod_Minimization_Converged-OPLS-2005>
0

> <r_mmod_RMS_Derivative-OPLS-2005>
1.60326731204987

$$$$
8
                    3D
 Structure written by MMmdl.
153161  0  0  1  0            999 V2000
  -30.7043  -14.4860   20.5643 C   0  0  0  0  0  0
  -30.4198  -12.3182   19.4201 C   0  0  0  0  0  0
  -29.4891  -12.5039   18.2044 C   0  0  0  0  0  0
  -28.0132  -12.3575   18.6219 C   0  0  0  0  0  0
  -27.6580  -13.2078   19.8704 C   0  0  2  0  0  0
  -28.7016  -13.0100   20.9933 C   0  0  0  0  0  0
  -25.2575  -13.8161   20.5676 C   0  0  0  0  0  0
  -24.1836  -13.0442   20.9187 C   0  0  0  0  0  0
  -24.6390  -11.6909   20.8739 C   0  0  0  0  0  0
  -23.9063  -10.4296   21.0417 C   0  0  0  0  0  0
  -24.3619   -9.4209   21.9193 C   0  0  0  0  0  0
  -23.6296   -8.2240   22.0758 C   0  0  0  0  0  0
  -22.4275   -8.0281   21.3547 C   0  0  0  0  0  0
  -21.9911   -9.0257   20.4653 C   0  0  0  0  0  0
  -22.7237  -10.2141   20.3067 C   0  0  0  0  0  0
  -21.6849   -6.0739   22.5281 C   0  0  0  0  0  0
  -21.4011   -6.5643   23.8213 C   0  0  0  0  0  0
  -21.3656   -5.6796   24.9177 C   0  0  0  0  0  0
  -21.6047   -4.3062   24.7225 C   0  0  0  0  0  0
  -21.8820   -3.8152   23.4345 C   0  0  0  0  0  0
  -21.9190   -4.6966   22.3404 C   0  0  0  0  0  0
  -22.7862  -13.5242   21.1855 C   0  0  0  0  0  0
  -22.1663   -4.2158   21.0979 F   0  0  0  0  0  0
  -21.5627   -3.4546   25.7737 F   0  0  0  0  0  0
  -30.0278  -13.3123   20.4320 N   0  0  0  0  0  0
  -26.3011  -12.9333   20.3358 N   0  0  0  0  0  0
  -25.9315  -11.6495   20.5775 N   0  0  0  0  0  0
  -22.0502  -12.8229   22.0404 N   0  0  0  0  0  0
  -25.4297  -15.1876   20.4043 N   0  0  0  0  0  0
  -31.8450  -14.6409   20.1187 O   0  0  0  0  0  0
  -21.6636   -6.8882   21.4242 O   0  0  0  0  0  0
  -22.3550  -14.5554   20.6705 O   0  0  0  0  0  0
  -24.6158  -31.8663   23.2080 C   0  0  0  0  0  0
  -25.9041  -32.4811   23.8391 C   0  0  1  0  0  0
  -27.2399  -27.4323   20.1023 C   0  0  0  0  0  0
  -25.5900  -33.8609   24.2329 N   0  0  0  0  0  0
  -23.4055  -30.4874   21.5486 C   0  0  2  0  0  0
  -24.8549  -28.9511   20.1165 C   0  0  0  0  0  0
  -22.7418  -29.4647   22.4992 C   0  0  0  0  0  0
  -18.0265  -28.1378   22.8494 C   0  0  0  0  0  0
  -24.1487  -36.7312   23.2635 C   0  0  0  0  0  0
  -25.9328  -30.8349   21.3576 C   0  0  0  0  0  0
  -26.0152  -29.4672   20.7073 C   0  0  0  0  0  0
  -27.2153  -28.7179   20.6914 C   0  0  0  0  0  0
  -26.0644  -26.9290   19.5075 C   0  0  0  0  0  0
  -24.8732  -27.6803   19.5141 C   0  0  0  0  0  0
  -23.6152  -29.8161   20.1653 C   0  0  0  0  0  0
  -25.4105  -36.3105   24.0340 C   0  0  1  0  0  0
  -20.5860  -28.3666   23.1317 C   0  0  2  0  0  0
  -20.6757  -26.9407   22.5409 C   0  0  0  0  0  0
  -19.5738  -26.6392   21.5205 C   0  0  0  0  0  0
  -18.1912  -26.7930   22.1619 C   0  0  0  0  0  0
  -19.1516  -28.8839   23.2901 C   0  0  0  0  0  0
  -18.9450  -30.1445   23.8912 C   0  0  0  0  0  0
  -17.6450  -30.6585   24.0569 C   0  0  0  0  0  0
  -25.9035  -34.9466   23.5130 C   0  0  0  0  0  0
  -16.5341  -29.9089   23.6330 C   0  0  0  0  0  0
  -16.7254  -28.6506   23.0352 C   0  0  0  0  0  0
  -26.4471  -31.6583   25.0715 C   0  0  0  0  0  0
  -25.3745  -31.3689   26.1476 C   0  0  0  0  0  0
  -27.0277  -30.3020   24.6072 C   0  0  0  0  0  0
  -27.6074  -32.4284   25.7460 C   0  0  0  0  0  0
  -27.5580  -37.1807   24.8464 C   0  0  0  0  0  0
  -21.4142  -29.3030   22.3722 N   0  0  0  0  0  0
  -26.4294  -37.3787   23.9408 N   0  0  0  0  0  0
  -24.6698  -31.0772   22.0973 N   0  0  0  0  0  0
  -23.4184  -28.8191   23.3043 O   0  0  0  0  0  0
  -28.3846  -26.6663   20.1083 O   0  0  0  0  0  0
  -26.5590  -34.8910   22.4689 O   0  0  0  0  0  0
  -23.5348  -32.1410   23.7472 O   0  0  0  0  0  0
  -29.5423  -17.9635   20.9087 C   0  0  0  0  0  0
  -31.2490  -19.5778   21.5450 C   0  0  0  0  0  0
  -31.7142  -17.1874   21.6948 C   0  0  0  0  0  0
  -29.9445  -19.3204   21.0644 C   0  0  0  0  0  0
  -30.4226  -16.8863   21.2039 C   0  0  0  0  0  0
  -32.1236  -18.5219   21.8589 C   0  0  0  0  0  0
  -29.0037  -20.4326   20.7537 C   0  0  0  0  0  0
  -29.2196  -21.7620   20.9085 C   0  0  0  0  0  0
  -28.7819  -24.2043   20.1783 C   0  0  0  0  0  0
  -28.1830  -22.8509   20.6173 C   0  0  0  0  0  0
  -28.2677  -25.4678   20.9031 C   0  0  0  0  0  0
  -29.9883  -15.5259   21.0499 N   0  0  0  0  0  0
  -29.6333  -24.2694   19.2852 O   0  0  0  0  0  0
  -33.3656  -18.7917   22.3266 F   0  0  0  0  0  0
  -31.4627  -12.4163   19.1139 H   0  0  0  0  0  0
  -30.3247  -11.3110   19.8276 H   0  0  0  0  0  0
  -29.7312  -11.7765   17.4289 H   0  0  0  0  0  0
  -29.6490  -13.4878   17.7601 H   0  0  0  0  0  0
  -27.8322  -11.3015   18.8282 H   0  0  0  0  0  0
  -27.3585  -12.6198   17.7898 H   0  0  0  0  0  0
  -27.6955  -14.2522   19.5589 H   0  0  0  0  0  0
  -28.6823  -11.9807   21.3540 H   0  0  0  0  0  0
  -28.4661  -13.6289   21.8602 H   0  0  0  0  0  0
  -25.2768   -9.5679   22.4767 H   0  0  0  0  0  0
  -24.0006   -7.4629   22.7475 H   0  0  0  0  0  0
  -21.0843   -8.8782   19.8956 H   0  0  0  0  0  0
  -22.3703  -10.9684   19.6177 H   0  0  0  0  0  0
  -21.2002   -7.6149   23.9719 H   0  0  0  0  0  0
  -21.1478   -6.0528   25.9082 H   0  0  0  0  0  0
  -22.0598   -2.7614   23.2845 H   0  0  0  0  0  0
  -22.4117  -11.9875   22.4765 H   0  0  0  0  0  0
  -21.1126  -13.1261   22.2633 H   0  0  0  0  0  0
  -24.6598  -15.8410   20.4993 H   0  0  0  0  0  0
  -26.2741  -15.6212   20.0534 H   0  0  0  0  0  0
  -26.7122  -32.5528   23.1170 H   0  0  0  0  0  0
  -25.0088  -33.9778   25.0500 H   0  0  0  0  0  0
  -22.6941  -31.3028   21.4052 H   0  0  0  0  0  0
  -23.3736  -35.9663   23.3320 H   0  0  0  0  0  0
  -24.3588  -36.8895   22.2046 H   0  0  0  0  0  0
  -23.7256  -37.6532   23.6629 H   0  0  0  0  0  0
  -26.0376  -31.5987   20.5856 H   0  0  0  0  0  0
  -26.8229  -30.8958   21.9718 H   0  0  0  0  0  0
  -28.1139  -29.1147   21.1434 H   0  0  0  0  0  0
  -26.0689  -25.9524   19.0439 H   0  0  0  0  0  0
  -23.9795  -27.2739   19.0606 H   0  0  0  0  0  0
  -23.7222  -30.5877   19.4022 H   0  0  0  0  0  0
  -22.7408  -29.2324   19.8730 H   0  0  0  0  0  0
  -25.1279  -36.1978   25.0833 H   0  0  0  0  0  0
  -20.9948  -28.3230   24.1444 H   0  0  0  0  0  0
  -20.5663  -26.2277   23.3593 H   0  0  0  0  0  0
  -21.6625  -26.7445   22.1206 H   0  0  0  0  0  0
  -19.6901  -25.6309   21.1224 H   0  0  0  0  0  0
  -19.6681  -27.3211   20.6747 H   0  0  0  0  0  0
  -17.4185  -26.6685   21.4008 H   0  0  0  0  0  0
  -18.0308  -26.0057   22.9005 H   0  0  0  0  0  0
  -19.7921  -30.7255   24.2295 H   0  0  0  0  0  0
  -17.5003  -31.6267   24.5165 H   0  0  0  0  0  0
  -15.5344  -30.2998   23.7640 H   0  0  0  0  0  0
  -15.8655  -28.0828   22.7067 H   0  0  0  0  0  0
  -24.5947  -30.6992   25.7830 H   0  0  0  0  0  0
  -24.8901  -32.2835   26.4909 H   0  0  0  0  0  0
  -25.8118  -30.8895   27.0242 H   0  0  0  0  0  0
  -26.2795  -29.6794   24.1155 H   0  0  0  0  0  0
  -27.4071  -29.7252   25.4517 H   0  0  0  0  0  0
  -27.8623  -30.4328   23.9182 H   0  0  0  0  0  0
  -27.2746  -33.3621   26.2004 H   0  0  0  0  0  0
  -28.3898  -32.6768   25.0275 H   0  0  0  0  0  0
  -28.0713  -31.8408   26.5392 H   0  0  0  0  0  0
  -28.2604  -38.0096   24.7509 H   0  0  0  0  0  0
  -28.1069  -36.2631   24.6296 H   0  0  0  0  0  0
  -27.2300  -37.1467   25.8866 H   0  0  0  0  0  0
  -20.9302  -29.8765   21.6952 H   0  0  0  0  0  0
  -26.0183  -38.2867   24.1408 H   0  0  0  0  0  0
  -28.5458  -17.7501   20.5481 H   0  0  0  0  0  0
  -31.6030  -20.5863   21.6905 H   0  0  0  0  0  0
  -32.4064  -16.4009   21.9559 H   0  0  0  0  0  0
  -28.0381  -20.1282   20.3733 H   0  0  0  0  0  0
  -30.1647  -22.1215   21.2894 H   0  0  0  0  0  0
  -27.5940  -23.0127   21.5202 H   0  0  0  0  0  0
  -27.4923  -22.5046   19.8484 H   0  0  0  0  0  0
  -28.8632  -25.6020   21.8064 H   0  0  0  0  0  0
  -27.2426  -25.2966   21.2335 H   0  0  0  0  0  0
  -29.0153  -15.3337   21.2322 H   0  0  0  0  0  0
  1 25  1  0  0  0
  1 30  2  0  0  0
  1 82  1  0  0  0
  2  3  1  0  0  0
  2 25  1  0  0  0
  2 85  1  0  0  0
  2 86  1  0  0  0
  3  4  1  0  0  0
  3 87  1  0  0  0
  3 88  1  0  0  0
  4  5  1  0  0  0
  4 89  1  0  0  0
  4 90  1  0  0  0
  5  6  1  0  0  0
  5 26  1  0  0  0
  5 91  1  0  0  0
  6 25  1  0  0  0
  6 92  1  0  0  0
  6 93  1  0  0  0
  7  8  2  0  0  0
  7 26  1  0  0  0
  7 29  1  0  0  0
  8  9  1  0  0  0
  8 22  1  0  0  0
  9 10  1  0  0  0
  9 27  2  0  0  0
 10 11  2  0  0  0
 10 15  1  0  0  0
 11 12  1  0  0  0
 11 94  1  0  0  0
 12 13  2  0  0  0
 12 95  1  0  0  0
 13 14  1  0  0  0
 13 31  1  0  0  0
 14 15  2  0  0  0
 14 96  1  0  0  0
 15 97  1  0  0  0
 16 17  2  0  0  0
 16 21  1  0  0  0
 16 31  1  0  0  0
 17 18  1  0  0  0
 17 98  1  0  0  0
 18 19  2  0  0  0
 18 99  1  0  0  0
 19 20  1  0  0  0
 19 24  1  0  0  0
 20 21  2  0  0  0
 20100  1  0  0  0
 21 23  1  0  0  0
 22 28  1  0  0  0
 22 32  2  0  0  0
 26 27  1  0  0  0
 28101  1  0  0  0
 28102  1  0  0  0
 29103  1  0  0  0
 29104  1  0  0  0
 33 34  1  0  0  0
 33 66  1  0  0  0
 33 70  2  0  0  0
 34 36  1  0  0  0
 34 59  1  0  0  0
 34105  1  0  0  0
 35 44  2  0  0  0
 35 45  1  0  0  0
 35 68  1  0  0  0
 36 56  1  0  0  0
 36106  1  0  0  0
 37 39  1  0  0  0
 37 47  1  0  0  0
 37 66  1  0  0  0
 37107  1  0  0  0
 38 43  2  0  0  0
 38 46  1  0  0  0
 38 47  1  0  0  0
 39 64  1  0  0  0
 39 67  2  0  0  0
 40 52  1  0  0  0
 40 53  2  0  0  0
 40 58  1  0  0  0
 41108  1  0  0  0
 41109  1  0  0  0
 41110  1  0  0  0
 41 48  1  0  0  0
 42 43  1  0  0  0
 42 66  1  0  0  0
 42111  1  0  0  0
 42112  1  0  0  0
 43 44  1  0  0  0
 44113  1  0  0  0
 45 46  2  0  0  0
 45114  1  0  0  0
 46115  1  0  0  0
 47116  1  0  0  0
 47117  1  0  0  0
 48 56  1  0  0  0
 48 65  1  0  0  0
 48118  1  0  0  0
 49 50  1  0  0  0
 49 53  1  0  0  0
 49 64  1  0  0  0
 49119  1  0  0  0
 50 51  1  0  0  0
 50120  1  0  0  0
 50121  1  0  0  0
 51 52  1  0  0  0
 51122  1  0  0  0
 51123  1  0  0  0
 52124  1  0  0  0
 52125  1  0  0  0
 53 54  1  0  0  0
 54 55  2  0  0  0
 54126  1  0  0  0
 55 57  1  0  0  0
 55127  1  0  0  0
 56 69  2  0  0  0
 57 58  2  0  0  0
 57128  1  0  0  0
 58129  1  0  0  0
 59 60  1  0  0  0
 59 61  1  0  0  0
 59 62  1  0  0  0
 60130  1  0  0  0
 60131  1  0  0  0
 60132  1  0  0  0
 61133  1  0  0  0
 61134  1  0  0  0
 61135  1  0  0  0
 62136  1  0  0  0
 62137  1  0  0  0
 62138  1  0  0  0
 63 65  1  0  0  0
 63139  1  0  0  0
 63140  1  0  0  0
 63141  1  0  0  0
 64142  1  0  0  0
 65143  1  0  0  0
 68 81  1  0  0  0
 71 74  2  0  0  0
 71 75  1  0  0  0
 71144  1  0  0  0
 72 74  1  0  0  0
 72 76  2  0  0  0
 72145  1  0  0  0
 73 75  2  0  0  0
 73 76  1  0  0  0
 73146  1  0  0  0
 74 77  1  0  0  0
 75 82  1  0  0  0
 76 84  1  0  0  0
 77 78  2  0  0  0
 77147  1  0  0  0
 78 80  1  0  0  0
 78148  1  0  0  0
 79 80  1  0  0  0
 79 81  1  0  0  0
 79 83  2  0  0  0
 80149  1  0  0  0
 80150  1  0  0  0
 81151  1  0  0  0
 81152  1  0  0  0
 82153  1  0  0  0
M  ISO  4   1 100  68 101  81 101  82 100
M  END
> <chiral flag>
0

> <version>
0

> <s_m_source_file>
/data/baiqing/PycharmProjects/Reinvent-master-3.2/result/LINK_invent/BTK/process_docking_weight1_custom_product_contain_oxygen_bond_distance_aromatic_linkinvent_7_9_3/rearranged_h_0128.sdf

> <i_m_source_file_index>
9

> <r_mmod_Potential_Energy-OPLS-2005>
0.643462955951691

> <r_mmod_Stretch_Energy-OPLS-2005>
40.0082550048828

> <r_mmod_Bend_Energy-OPLS-2005>
90.163688659668

> <r_mmod_Torsional_Energy-OPLS-2005>
244.252746582031

> <r_mmod_Improper_Torsional_Energy-OPLS-2005>
4.16297101974487

> <r_mmod_Van_der_Waal_Energy-OPLS-2005>
151.056716918945

> <r_mmod_Electrostatic_Energy-OPLS-2005>
-315.455169677734

> <r_mmod_Solvation_Energy-OPLS-2005>
-228.148025512695

> <b_mmod_Minimization_Converged-OPLS-2005>
0

> <r_mmod_RMS_Derivative-OPLS-2005>
1.38567352294922

$$$$
9
                    3D
 Structure written by MMmdl.
159167  0  0  1  0            999 V2000
  -30.7708  -14.3982   20.5264 C   0  0  0  0  0  0
  -30.3873  -12.2400   19.4396 C   0  0  0  0  0  0
  -29.4940  -12.4917   18.2094 C   0  0  0  0  0  0
  -28.0067  -12.3957   18.6026 C   0  0  0  0  0  0
  -27.6607  -13.2208   19.8747 C   0  0  2  0  0  0
  -28.6986  -13.0057   20.9975 C   0  0  0  0  0  0
  -25.2583  -13.8193   20.5704 C   0  0  0  0  0  0
  -24.1848  -13.0440   20.9160 C   0  0  0  0  0  0
  -24.6431  -11.6914   20.8715 C   0  0  0  0  0  0
  -23.9099  -10.4297   21.0400 C   0  0  0  0  0  0
  -24.3640   -9.4218   21.9177 C   0  0  0  0  0  0
  -23.6321   -8.2255   22.0774 C   0  0  0  0  0  0
  -22.4305   -8.0295   21.3561 C   0  0  0  0  0  0
  -21.9936   -9.0252   20.4644 C   0  0  0  0  0  0
  -22.7266  -10.2132   20.3052 C   0  0  0  0  0  0
  -21.6866   -6.0751   22.5285 C   0  0  0  0  0  0
  -21.4026   -6.5649   23.8214 C   0  0  0  0  0  0
  -21.3658   -5.6797   24.9174 C   0  0  0  0  0  0
  -21.6046   -4.3061   24.7228 C   0  0  0  0  0  0
  -21.8816   -3.8162   23.4348 C   0  0  0  0  0  0
  -21.9202   -4.6979   22.3405 C   0  0  0  0  0  0
  -22.7867  -13.5226   21.1824 C   0  0  0  0  0  0
  -22.1662   -4.2159   21.0987 F   0  0  0  0  0  0
  -21.5633   -3.4547   25.7742 F   0  0  0  0  0  0
  -30.0358  -13.2568   20.4447 N   0  0  0  0  0  0
  -26.3039  -12.9397   20.3377 N   0  0  0  0  0  0
  -25.9360  -11.6531   20.5744 N   0  0  0  0  0  0
  -22.0513  -12.8204   22.0365 N   0  0  0  0  0  0
  -25.4296  -15.1914   20.4161 N   0  0  0  0  0  0
  -31.9238  -14.4419   20.0914 O   0  0  0  0  0  0
  -21.6662   -6.8891   21.4243 O   0  0  0  0  0  0
  -22.3532  -14.5527   20.6676 O   0  0  0  0  0  0
  -24.6157  -31.8703   23.2133 C   0  0  0  0  0  0
  -25.9071  -32.4829   23.8421 C   0  0  1  0  0  0
  -27.2243  -27.4739   20.0765 C   0  0  0  0  0  0
  -25.5924  -33.8620   24.2362 N   0  0  0  0  0  0
  -23.3994  -30.5023   21.5503 C   0  0  2  0  0  0
  -24.8371  -28.9741   20.1115 C   0  0  0  0  0  0
  -22.7400  -29.4723   22.4952 C   0  0  0  0  0  0
  -18.0291  -28.1421   22.8478 C   0  0  0  0  0  0
  -24.1468  -36.7343   23.2626 C   0  0  0  0  0  0
  -25.9221  -30.8544   21.3514 C   0  0  0  0  0  0
  -25.9965  -29.4900   20.7021 C   0  0  0  0  0  0
  -27.1946  -28.7475   20.6787 C   0  0  0  0  0  0
  -26.0474  -26.9665   19.4770 C   0  0  0  0  0  0
  -24.8555  -27.7118   19.4950 C   0  0  0  0  0  0
  -23.6027  -29.8414   20.1615 C   0  0  0  0  0  0
  -25.4079  -36.3115   24.0340 C   0  0  1  0  0  0
  -20.5879  -28.3723   23.1293 C   0  0  2  0  0  0
  -20.6786  -26.9464   22.5397 C   0  0  0  0  0  0
  -19.5763  -26.6419   21.5205 C   0  0  0  0  0  0
  -18.1941  -26.7970   22.1608 C   0  0  0  0  0  0
  -19.1536  -28.8884   23.2895 C   0  0  0  0  0  0
  -18.9455  -30.1482   23.8922 C   0  0  0  0  0  0
  -17.6455  -30.6613   24.0589 C   0  0  0  0  0  0
  -25.9024  -34.9481   23.5142 C   0  0  0  0  0  0
  -16.5353  -29.9125   23.6319 C   0  0  0  0  0  0
  -16.7277  -28.6550   23.0324 C   0  0  0  0  0  0
  -26.4503  -31.6583   25.0733 C   0  0  0  0  0  0
  -25.3770  -31.3638   26.1471 C   0  0  0  0  0  0
  -27.0371  -30.3053   24.6068 C   0  0  0  0  0  0
  -27.6084  -32.4262   25.7533 C   0  0  0  0  0  0
  -27.5587  -37.1801   24.8437 C   0  0  0  0  0  0
  -21.4132  -29.3091   22.3681 N   0  0  0  0  0  0
  -26.4257  -37.3812   23.9446 N   0  0  0  0  0  0
  -24.6653  -31.0876   22.0994 N   0  0  0  0  0  0
  -23.4177  -28.8247   23.2976 O   0  0  0  0  0  0
  -28.4097  -26.7804   20.0889 O   0  0  0  0  0  0
  -26.5567  -34.8928   22.4691 O   0  0  0  0  0  0
  -23.5360  -32.1426   23.7562 O   0  0  0  0  0  0
  -29.2687  -18.6200   21.5820 C   0  0  0  0  0  0
  -31.1322  -19.1128   20.1039 C   0  0  0  0  0  0
  -30.2875  -18.1707   20.7187 C   0  0  0  0  0  0
  -29.9559  -20.9494   21.1929 C   0  0  0  0  0  0
  -29.1014  -20.0044   21.8198 C   0  0  0  0  0  0
  -30.9898  -20.4886   20.3396 C   0  0  0  0  0  0
  -30.6054  -16.7666   20.4517 C   0  0  0  0  0  0
  -29.7712  -22.3917   21.4309 C   0  0  0  0  0  0
  -30.1138  -15.6209   20.9766 C   0  0  0  0  0  0
  -29.6682  -23.2937   20.4410 C   0  0  0  0  0  0
  -28.0014  -20.4673   22.7603 C   0  0  0  0  0  0
  -32.0063  -21.4243   19.6973 C   0  0  0  0  0  0
  -29.5834  -24.7885   20.6249 C   0  0  0  0  0  0
  -28.3360  -25.3682   19.9638 C   0  0  0  0  0  0
  -31.4403  -12.2525   19.1545 H   0  0  0  0  0  0
  -30.2119  -11.2410   19.8417 H   0  0  0  0  0  0
  -29.7190  -11.7693   17.4229 H   0  0  0  0  0  0
  -29.7077  -13.4773   17.7932 H   0  0  0  0  0  0
  -27.7742  -11.3424   18.7626 H   0  0  0  0  0  0
  -27.3827  -12.7193   17.7702 H   0  0  0  0  0  0
  -27.7062  -14.2726   19.5902 H   0  0  0  0  0  0
  -28.6468  -11.9788   21.3647 H   0  0  0  0  0  0
  -28.4834  -13.6313   21.8625 H   0  0  0  0  0  0
  -25.2788   -9.5688   22.4738 H   0  0  0  0  0  0
  -24.0027   -7.4661   22.7520 H   0  0  0  0  0  0
  -21.0870   -8.8767   19.8952 H   0  0  0  0  0  0
  -22.3734  -10.9664   19.6159 H   0  0  0  0  0  0
  -21.1994   -7.6152   23.9707 H   0  0  0  0  0  0
  -21.1492   -6.0541   25.9072 H   0  0  0  0  0  0
  -22.0588   -2.7622   23.2858 H   0  0  0  0  0  0
  -22.4162  -11.9866   22.4730 H   0  0  0  0  0  0
  -21.1109  -13.1191   22.2548 H   0  0  0  0  0  0
  -24.6686  -15.8504   20.5377 H   0  0  0  0  0  0
  -26.2940  -15.6327   20.1254 H   0  0  0  0  0  0
  -26.7164  -32.5571   23.1210 H   0  0  0  0  0  0
  -25.0102  -33.9769   25.0528 H   0  0  0  0  0  0
  -22.6902  -31.3212   21.4152 H   0  0  0  0  0  0
  -23.3738  -35.9662   23.3187 H   0  0  0  0  0  0
  -24.3600  -36.9064   22.2068 H   0  0  0  0  0  0
  -23.7179  -37.6501   23.6704 H   0  0  0  0  0  0
  -26.0151  -31.6170   20.5764 H   0  0  0  0  0  0
  -26.8190  -30.9199   21.9546 H   0  0  0  0  0  0
  -28.0955  -29.1478   21.1229 H   0  0  0  0  0  0
  -26.0349  -26.0081   18.9790 H   0  0  0  0  0  0
  -23.9663  -27.3189   19.0222 H   0  0  0  0  0  0
  -23.7177  -30.6197   19.4061 H   0  0  0  0  0  0
  -22.7246  -29.2685   19.8594 H   0  0  0  0  0  0
  -25.1228  -36.1978   25.0827 H   0  0  0  0  0  0
  -20.9999  -28.3321   24.1403 H   0  0  0  0  0  0
  -20.5729  -26.2347   23.3596 H   0  0  0  0  0  0
  -21.6660  -26.7524   22.1183 H   0  0  0  0  0  0
  -19.6939  -25.6321   21.1256 H   0  0  0  0  0  0
  -19.6709  -27.3216   20.6723 H   0  0  0  0  0  0
  -17.4215  -26.6729   21.4005 H   0  0  0  0  0  0
  -18.0336  -26.0123   22.9008 H   0  0  0  0  0  0
  -19.7928  -30.7303   24.2304 H   0  0  0  0  0  0
  -17.5007  -31.6291   24.5199 H   0  0  0  0  0  0
  -15.5358  -30.3040   23.7620 H   0  0  0  0  0  0
  -15.8681  -28.0895   22.6990 H   0  0  0  0  0  0
  -24.5978  -30.6954   25.7780 H   0  0  0  0  0  0
  -24.8930  -32.2774   26.4930 H   0  0  0  0  0  0
  -25.8135  -30.8800   27.0219 H   0  0  0  0  0  0
  -26.2935  -29.6776   24.1144 H   0  0  0  0  0  0
  -27.4216  -29.7303   25.4501 H   0  0  0  0  0  0
  -27.8710  -30.4413   23.9177 H   0  0  0  0  0  0
  -27.2740  -33.3555   26.2147 H   0  0  0  0  0  0
  -28.3931  -32.6799   25.0394 H   0  0  0  0  0  0
  -28.0720  -31.8341   26.5435 H   0  0  0  0  0  0
  -28.2485  -38.0212   24.7643 H   0  0  0  0  0  0
  -28.1200  -36.2757   24.6041 H   0  0  0  0  0  0
  -27.2352  -37.1191   25.8840 H   0  0  0  0  0  0
  -20.9287  -29.8827   21.6913 H   0  0  0  0  0  0
  -26.0137  -38.2867   24.1529 H   0  0  0  0  0  0
  -28.6209  -17.9043   22.0679 H   0  0  0  0  0  0
  -31.9318  -18.7770   19.4572 H   0  0  0  0  0  0
  -31.3822  -16.6754   19.7030 H   0  0  0  0  0  0
  -29.7629  -22.7168   22.4634 H   0  0  0  0  0  0
  -29.3141  -15.6249   21.6990 H   0  0  0  0  0  0
  -29.6542  -22.9531   19.4156 H   0  0  0  0  0  0
  -27.3506  -19.6443   23.0540 H   0  0  0  0  0  0
  -27.3819  -21.2291   22.2862 H   0  0  0  0  0  0
  -28.4351  -20.8925   23.6659 H   0  0  0  0  0  0
  -32.8924  -20.8823   19.3652 H   0  0  0  0  0  0
  -32.3416  -22.1838   20.4045 H   0  0  0  0  0  0
  -31.5816  -21.9192   18.8245 H   0  0  0  0  0  0
  -30.4745  -25.2285   20.1757 H   0  0  0  0  0  0
  -29.5984  -25.0407   21.6859 H   0  0  0  0  0  0
  -27.4563  -24.9607   20.4663 H   0  0  0  0  0  0
  -28.2846  -25.0943   18.9085 H   0  0  0  0  0  0
  1 25  1  0  0  0
  1 30  2  0  0  0
  1 79  1  0  0  0
  2  3  1  0  0  0
  2 25  1  0  0  0
  2 85  1  0  0  0
  2 86  1  0  0  0
  3  4  1  0  0  0
  3 87  1  0  0  0
  3 88  1  0  0  0
  4  5  1  0  0  0
  4 89  1  0  0  0
  4 90  1  0  0  0
  5  6  1  0  0  0
  5 26  1  0  0  0
  5 91  1  0  0  0
  6 25  1  0  0  0
  6 92  1  0  0  0
  6 93  1  0  0  0
  7  8  2  0  0  0
  7 26  1  0  0  0
  7 29  1  0  0  0
  8  9  1  0  0  0
  8 22  1  0  0  0
  9 10  1  0  0  0
  9 27  2  0  0  0
 10 11  2  0  0  0
 10 15  1  0  0  0
 11 12  1  0  0  0
 11 94  1  0  0  0
 12 13  2  0  0  0
 12 95  1  0  0  0
 13 14  1  0  0  0
 13 31  1  0  0  0
 14 15  2  0  0  0
 14 96  1  0  0  0
 15 97  1  0  0  0
 16 17  2  0  0  0
 16 21  1  0  0  0
 16 31  1  0  0  0
 17 18  1  0  0  0
 17 98  1  0  0  0
 18 19  2  0  0  0
 18 99  1  0  0  0
 19 20  1  0  0  0
 19 24  1  0  0  0
 20 21  2  0  0  0
 20100  1  0  0  0
 21 23  1  0  0  0
 22 28  1  0  0  0
 22 32  2  0  0  0
 26 27  1  0  0  0
 28101  1  0  0  0
 28102  1  0  0  0
 29103  1  0  0  0
 29104  1  0  0  0
 33 34  1  0  0  0
 33 66  1  0  0  0
 33 70  2  0  0  0
 34 36  1  0  0  0
 34 59  1  0  0  0
 34105  1  0  0  0
 35 44  2  0  0  0
 35 45  1  0  0  0
 35 68  1  0  0  0
 36 56  1  0  0  0
 36106  1  0  0  0
 37 39  1  0  0  0
 37 47  1  0  0  0
 37 66  1  0  0  0
 37107  1  0  0  0
 38 43  2  0  0  0
 38 46  1  0  0  0
 38 47  1  0  0  0
 39 64  1  0  0  0
 39 67  2  0  0  0
 40 52  1  0  0  0
 40 53  2  0  0  0
 40 58  1  0  0  0
 41108  1  0  0  0
 41109  1  0  0  0
 41110  1  0  0  0
 41 48  1  0  0  0
 42 43  1  0  0  0
 42 66  1  0  0  0
 42111  1  0  0  0
 42112  1  0  0  0
 43 44  1  0  0  0
 44113  1  0  0  0
 45 46  2  0  0  0
 45114  1  0  0  0
 46115  1  0  0  0
 47116  1  0  0  0
 47117  1  0  0  0
 48 56  1  0  0  0
 48 65  1  0  0  0
 48118  1  0  0  0
 49 50  1  0  0  0
 49 53  1  0  0  0
 49 64  1  0  0  0
 49119  1  0  0  0
 50 51  1  0  0  0
 50120  1  0  0  0
 50121  1  0  0  0
 51 52  1  0  0  0
 51122  1  0  0  0
 51123  1  0  0  0
 52124  1  0  0  0
 52125  1  0  0  0
 53 54  1  0  0  0
 54 55  2  0  0  0
 54126  1  0  0  0
 55 57  1  0  0  0
 55127  1  0  0  0
 56 69  2  0  0  0
 57 58  2  0  0  0
 57128  1  0  0  0
 58129  1  0  0  0
 59 60  1  0  0  0
 59 61  1  0  0  0
 59 62  1  0  0  0
 60130  1  0  0  0
 60131  1  0  0  0
 60132  1  0  0  0
 61133  1  0  0  0
 61134  1  0  0  0
 61135  1  0  0  0
 62136  1  0  0  0
 62137  1  0  0  0
 62138  1  0  0  0
 63 65  1  0  0  0
 63139  1  0  0  0
 63140  1  0  0  0
 63141  1  0  0  0
 64142  1  0  0  0
 65143  1  0  0  0
 68 84  1  0  0  0
 71 73  2  0  0  0
 71 75  1  0  0  0
 71144  1  0  0  0
 72 73  1  0  0  0
 72 76  2  0  0  0
 72145  1  0  0  0
 73 77  1  0  0  0
 74 75  2  0  0  0
 74 76  1  0  0  0
 74 78  1  0  0  0
 75 81  1  0  0  0
 76 82  1  0  0  0
 77 79  2  0  0  0
 77146  1  0  0  0
 78 80  2  0  0  0
 78147  1  0  0  0
 79148  1  0  0  0
 80 83  1  0  0  0
 80149  1  0  0  0
 81150  1  0  0  0
 81151  1  0  0  0
 81152  1  0  0  0
 82153  1  0  0  0
 82154  1  0  0  0
 82155  1  0  0  0
 83 84  1  0  0  0
 83156  1  0  0  0
 83157  1  0  0  0
 84158  1  0  0  0
 84159  1  0  0  0
M  ISO  4   1 100  68 101  79 100  84 101
M  END
> <chiral flag>
0

> <version>
0

> <s_m_source_file>
/data/baiqing/PycharmProjects/Reinvent-master-3.2/result/LINK_invent/BTK/process_docking_weight1_custom_product_contain_oxygen_bond_distance_aromatic_linkinvent_7_9_3/rearranged_h_0128.sdf

> <i_m_source_file_index>
10

> <r_mmod_Potential_Energy-OPLS-2005>
-3.63558554649353

> <r_mmod_Stretch_Energy-OPLS-2005>
32.0889282226562

> <r_mmod_Bend_Energy-OPLS-2005>
106.738075256348

> <r_mmod_Torsional_Energy-OPLS-2005>
197.601745605469

> <r_mmod_Improper_Torsional_Energy-OPLS-2005>
4.12355613708496

> <r_mmod_Van_der_Waal_Energy-OPLS-2005>
176.314407348633

> <r_mmod_Electrostatic_Energy-OPLS-2005>
-350.606781005859

> <r_mmod_Solvation_Energy-OPLS-2005>
-187.964141845703

> <b_mmod_Minimization_Converged-OPLS-2005>
0

> <r_mmod_RMS_Derivative-OPLS-2005>
2.51840567588806

$$$$
10
                    3D
 Structure written by MMmdl.
150158  0  0  1  0            999 V2000
  -30.4660  -15.0284   20.4441 C   0  0  0  0  0  0
  -30.4580  -12.6426   19.5085 C   0  0  0  0  0  0
  -29.5336  -12.5626   18.2662 C   0  0  0  0  0  0
  -28.0654  -12.3292   18.6744 C   0  0  0  0  0  0
  -27.6363  -13.2451   19.8488 C   0  0  2  0  0  0
  -28.6775  -13.2306   20.9858 C   0  0  0  0  0  0
  -25.2490  -13.8200   20.5710 C   0  0  0  0  0  0
  -24.1789  -13.0431   20.9196 C   0  0  0  0  0  0
  -24.6400  -11.6915   20.8729 C   0  0  0  0  0  0
  -23.9078  -10.4290   21.0397 C   0  0  0  0  0  0
  -24.3625   -9.4206   21.9178 C   0  0  0  0  0  0
  -23.6293   -8.2246   22.0755 C   0  0  0  0  0  0
  -22.4275   -8.0283   21.3546 C   0  0  0  0  0  0
  -21.9912   -9.0257   20.4648 C   0  0  0  0  0  0
  -22.7247  -10.2130   20.3052 C   0  0  0  0  0  0
  -21.6854   -6.0733   22.5279 C   0  0  0  0  0  0
  -21.4017   -6.5638   23.8211 C   0  0  0  0  0  0
  -21.3659   -5.6791   24.9174 C   0  0  0  0  0  0
  -21.6046   -4.3054   24.7225 C   0  0  0  0  0  0
  -21.8819   -3.8145   23.4346 C   0  0  0  0  0  0
  -21.9192   -4.6961   22.3402 C   0  0  0  0  0  0
  -22.7814  -13.5212   21.1863 C   0  0  0  0  0  0
  -22.1662   -4.2148   21.0979 F   0  0  0  0  0  0
  -21.5625   -3.4538   25.7736 F   0  0  0  0  0  0
  -29.9471  -13.7191   20.4159 N   0  0  0  0  0  0
  -26.2915  -12.9421   20.3260 N   0  0  0  0  0  0
  -25.9334  -11.6554   20.5718 N   0  0  0  0  0  0
  -22.0468  -12.8205   22.0425 N   0  0  0  0  0  0
  -25.4192  -15.1930   20.4190 N   0  0  0  0  0  0
  -31.6291  -15.1449   20.0370 O   0  0  0  0  0  0
  -21.6642   -6.8878   21.4240 O   0  0  0  0  0  0
  -22.3500  -14.5519   20.6711 O   0  0  0  0  0  0
  -24.6483  -31.8377   23.1816 C   0  0  0  0  0  0
  -25.9227  -32.4661   23.8233 C   0  0  1  0  0  0
  -27.2280  -27.0831   20.1592 C   0  0  0  0  0  0
  -25.5951  -33.8469   24.2148 N   0  0  0  0  0  0
  -23.4558  -30.4527   21.5277 C   0  0  2  0  0  0
  -24.9086  -28.8662   20.1086 C   0  0  0  0  0  0
  -22.7596  -29.4510   22.4835 C   0  0  0  0  0  0
  -18.0310  -28.1401   22.8476 C   0  0  0  0  0  0
  -24.1492  -36.7246   23.2646 C   0  0  0  0  0  0
  -26.0142  -30.6938   21.3883 C   0  0  0  0  0  0
  -26.0859  -29.2988   20.7314 C   0  0  0  0  0  0
  -27.2428  -28.4241   20.7374 C   0  0  0  0  0  0
  -26.0248  -26.7628   19.4934 C   0  0  0  0  0  0
  -24.8941  -27.6138   19.4729 C   0  0  0  0  0  0
  -23.6862  -29.7743   20.1497 C   0  0  0  0  0  0
  -25.4127  -36.3013   24.0311 C   0  0  1  0  0  0
  -20.5925  -28.3732   23.1223 C   0  0  2  0  0  0
  -20.6792  -26.9429   22.5404 C   0  0  0  0  0  0
  -19.5763  -26.6381   21.5216 C   0  0  0  0  0  0
  -18.1947  -26.7937   22.1629 C   0  0  0  0  0  0
  -19.1568  -28.8886   23.2839 C   0  0  0  0  0  0
  -18.9483  -30.1480   23.8868 C   0  0  0  0  0  0
  -17.6479  -30.6594   24.0559 C   0  0  0  0  0  0
  -25.9079  -34.9389   23.5044 C   0  0  0  0  0  0
  -16.5370  -29.9086   23.6338 C   0  0  0  0  0  0
  -16.7294  -28.6506   23.0357 C   0  0  0  0  0  0
  -26.4532  -31.6555   25.0702 C   0  0  0  0  0  0
  -25.3702  -31.3761   26.1388 C   0  0  0  0  0  0
  -27.0413  -30.2945   24.6325 C   0  0  0  0  0  0
  -27.6044  -32.4343   25.7495 C   0  0  0  0  0  0
  -27.5568  -37.1786   24.8472 C   0  0  0  0  0  0
  -21.4282  -29.3043   22.3586 N   0  0  0  0  0  0
  -26.4289  -37.3728   23.9398 N   0  0  0  0  0  0
  -24.7261  -31.0180   22.0874 N   0  0  0  0  0  0
  -23.4211  -28.8073   23.3018 O   0  0  0  0  0  0
  -28.2800  -26.0810   20.2492 O   0  0  0  0  0  0
  -26.5677  -34.8899   22.4631 O   0  0  0  0  0  0
  -23.5589  -32.1278   23.7002 O   0  0  0  0  0  0
  -29.0121  -20.3700   21.0892 C   0  0  0  0  0  0
  -29.6494  -20.9341   19.1289 C   0  0  0  0  0  0
  -29.1734  -21.5941   20.2519 C   0  0  0  0  0  0
  -29.3916  -19.1272   20.4928 C   0  0  0  0  0  0
  -31.4098  -23.8548   21.4666 C   0  0  0  0  0  0
  -29.3219  -17.6322   20.9522 C   0  0  0  0  0  0
  -29.5947  -16.2099   20.9912 C   0  0  0  0  0  0
  -30.5303  -23.7676   20.4553 C   0  0  0  0  0  0
  -28.1107  -24.5257   19.9863 C   0  0  0  0  0  0
  -29.1063  -23.2606   20.5810 C   0  0  1  0  0  0
  -29.8043  -19.5325   19.2504 O   0  0  0  0  0  0
  -31.4843  -12.8330   19.1922 H   0  0  0  0  0  0
  -30.4891  -11.6834   20.0277 H   0  0  0  0  0  0
  -29.8677  -11.7711   17.5938 H   0  0  0  0  0  0
  -29.6083  -13.4936   17.7025 H   0  0  0  0  0  0
  -27.9660  -11.2838   18.9688 H   0  0  0  0  0  0
  -27.4047  -12.4702   17.8183 H   0  0  0  0  0  0
  -27.6100  -14.2574   19.4444 H   0  0  0  0  0  0
  -28.7897  -12.2223   21.3872 H   0  0  0  0  0  0
  -28.3408  -13.8302   21.8285 H   0  0  0  0  0  0
  -25.2771   -9.5679   22.4751 H   0  0  0  0  0  0
  -23.9997   -7.4639   22.7480 H   0  0  0  0  0  0
  -21.0839   -8.8779   19.8959 H   0  0  0  0  0  0
  -22.3707  -10.9666   19.6159 H   0  0  0  0  0  0
  -21.2016   -7.6148   23.9714 H   0  0  0  0  0  0
  -21.1481   -6.0523   25.9076 H   0  0  0  0  0  0
  -22.0597   -2.7607   23.2851 H   0  0  0  0  0  0
  -22.4093  -11.9866   22.4810 H   0  0  0  0  0  0
  -21.1089  -13.1228   22.2641 H   0  0  0  0  0  0
  -24.6560  -15.8498   20.5400 H   0  0  0  0  0  0
  -26.2777  -15.6349   20.1147 H   0  0  0  0  0  0
  -26.7294  -32.5251   23.0959 H   0  0  0  0  0  0
  -25.0056  -33.9569   25.0267 H   0  0  0  0  0  0
  -22.7613  -31.2800   21.3670 H   0  0  0  0  0  0
  -23.3747  -35.9586   23.3317 H   0  0  0  0  0  0
  -24.3567  -36.8873   22.2059 H   0  0  0  0  0  0
  -23.7264  -37.6450   23.6685 H   0  0  0  0  0  0
  -26.1754  -31.4440   20.6129 H   0  0  0  0  0  0
  -26.8820  -30.7473   22.0340 H   0  0  0  0  0  0
  -28.1375  -28.7505   21.2489 H   0  0  0  0  0  0
  -25.9290  -25.8041   19.0052 H   0  0  0  0  0  0
  -23.9967  -27.2773   18.9721 H   0  0  0  0  0  0
  -23.8265  -30.5458   19.3918 H   0  0  0  0  0  0
  -22.8000  -29.2184   19.8389 H   0  0  0  0  0  0
  -25.1323  -36.1834   25.0804 H   0  0  0  0  0  0
  -21.0017  -28.3327   24.1344 H   0  0  0  0  0  0
  -20.5687  -26.2346   23.3628 H   0  0  0  0  0  0
  -21.6656  -26.7427   22.1201 H   0  0  0  0  0  0
  -19.6923  -25.6284   21.1264 H   0  0  0  0  0  0
  -19.6696  -27.3175   20.6732 H   0  0  0  0  0  0
  -17.4212  -26.6676   21.4036 H   0  0  0  0  0  0
  -18.0347  -26.0088   22.9036 H   0  0  0  0  0  0
  -19.7958  -30.7306   24.2222 H   0  0  0  0  0  0
  -17.5030  -31.6270   24.5168 H   0  0  0  0  0  0
  -15.5368  -30.2979   23.7676 H   0  0  0  0  0  0
  -15.8695  -28.0814   22.7087 H   0  0  0  0  0  0
  -24.5866  -30.7134   25.7698 H   0  0  0  0  0  0
  -24.8912  -32.2953   26.4772 H   0  0  0  0  0  0
  -25.7964  -30.8945   27.0196 H   0  0  0  0  0  0
  -26.3045  -29.6650   24.1321 H   0  0  0  0  0  0
  -27.3997  -29.7269   25.4923 H   0  0  0  0  0  0
  -27.8964  -30.4174   23.9674 H   0  0  0  0  0  0
  -27.2614  -33.3659   26.2009 H   0  0  0  0  0  0
  -28.3884  -32.6883   25.0348 H   0  0  0  0  0  0
  -28.0681  -31.8517   26.5465 H   0  0  0  0  0  0
  -28.2601  -38.0065   24.7476 H   0  0  0  0  0  0
  -28.1048  -36.2592   24.6357 H   0  0  0  0  0  0
  -27.2277  -37.1501   25.8874 H   0  0  0  0  0  0
  -20.9508  -29.8743   21.6743 H   0  0  0  0  0  0
  -26.0153  -38.2801   24.1373 H   0  0  0  0  0  0
  -28.6573  -20.4047   22.1100 H   0  0  0  0  0  0
  -29.9979  -21.3106   18.1765 H   0  0  0  0  0  0
  -32.4119  -24.2246   21.3004 H   0  0  0  0  0  0
  -31.1477  -23.5586   22.4725 H   0  0  0  0  0  0
  -28.5526  -17.7264   21.7069 H   0  0  0  0  0  0
  -28.9567  -15.7994   21.7553 H   0  0  0  0  0  0
  -30.8365  -24.0702   19.4635 H   0  0  0  0  0  0
  -27.0948  -24.2683   20.2857 H   0  0  0  0  0  0
  -28.1146  -24.4307   18.9004 H   0  0  0  0  0  0
  -28.8939  -23.2630   21.6508 H   0  0  0  0  0  0
  1 25  1  0  0  0
  1 30  2  0  0  0
  1 77  1  0  0  0
  2  3  1  0  0  0
  2 25  1  0  0  0
  2 82  1  0  0  0
  2 83  1  0  0  0
  3  4  1  0  0  0
  3 84  1  0  0  0
  3 85  1  0  0  0
  4  5  1  0  0  0
  4 86  1  0  0  0
  4 87  1  0  0  0
  5  6  1  0  0  0
  5 26  1  0  0  0
  5 88  1  0  0  0
  6 25  1  0  0  0
  6 89  1  0  0  0
  6 90  1  0  0  0
  7  8  2  0  0  0
  7 26  1  0  0  0
  7 29  1  0  0  0
  8  9  1  0  0  0
  8 22  1  0  0  0
  9 10  1  0  0  0
  9 27  2  0  0  0
 10 11  2  0  0  0
 10 15  1  0  0  0
 11 12  1  0  0  0
 11 91  1  0  0  0
 12 13  2  0  0  0
 12 92  1  0  0  0
 13 14  1  0  0  0
 13 31  1  0  0  0
 14 15  2  0  0  0
 14 93  1  0  0  0
 15 94  1  0  0  0
 16 17  2  0  0  0
 16 21  1  0  0  0
 16 31  1  0  0  0
 17 18  1  0  0  0
 17 95  1  0  0  0
 18 19  2  0  0  0
 18 96  1  0  0  0
 19 20  1  0  0  0
 19 24  1  0  0  0
 20 21  2  0  0  0
 20 97  1  0  0  0
 21 23  1  0  0  0
 22 28  1  0  0  0
 22 32  2  0  0  0
 26 27  1  0  0  0
 28 98  1  0  0  0
 28 99  1  0  0  0
 29100  1  0  0  0
 29101  1  0  0  0
 33 34  1  0  0  0
 33 66  1  0  0  0
 33 70  2  0  0  0
 34 36  1  0  0  0
 34 59  1  0  0  0
 34102  1  0  0  0
 35 44  2  0  0  0
 35 45  1  0  0  0
 35 68  1  0  0  0
 36 56  1  0  0  0
 36103  1  0  0  0
 37 39  1  0  0  0
 37 47  1  0  0  0
 37 66  1  0  0  0
 37104  1  0  0  0
 38 43  2  0  0  0
 38 46  1  0  0  0
 38 47  1  0  0  0
 39 64  1  0  0  0
 39 67  2  0  0  0
 40 52  1  0  0  0
 40 53  2  0  0  0
 40 58  1  0  0  0
 41105  1  0  0  0
 41106  1  0  0  0
 41107  1  0  0  0
 41 48  1  0  0  0
 42 43  1  0  0  0
 42 66  1  0  0  0
 42108  1  0  0  0
 42109  1  0  0  0
 43 44  1  0  0  0
 44110  1  0  0  0
 45 46  2  0  0  0
 45111  1  0  0  0
 46112  1  0  0  0
 47113  1  0  0  0
 47114  1  0  0  0
 48 56  1  0  0  0
 48 65  1  0  0  0
 48115  1  0  0  0
 49 50  1  0  0  0
 49 53  1  0  0  0
 49 64  1  0  0  0
 49116  1  0  0  0
 50 51  1  0  0  0
 50117  1  0  0  0
 50118  1  0  0  0
 51 52  1  0  0  0
 51119  1  0  0  0
 51120  1  0  0  0
 52121  1  0  0  0
 52122  1  0  0  0
 53 54  1  0  0  0
 54 55  2  0  0  0
 54123  1  0  0  0
 55 57  1  0  0  0
 55124  1  0  0  0
 56 69  2  0  0  0
 57 58  2  0  0  0
 57125  1  0  0  0
 58126  1  0  0  0
 59 60  1  0  0  0
 59 61  1  0  0  0
 59 62  1  0  0  0
 60127  1  0  0  0
 60128  1  0  0  0
 60129  1  0  0  0
 61130  1  0  0  0
 61131  1  0  0  0
 61132  1  0  0  0
 62133  1  0  0  0
 62134  1  0  0  0
 62135  1  0  0  0
 63 65  1  0  0  0
 63136  1  0  0  0
 63137  1  0  0  0
 63138  1  0  0  0
 64139  1  0  0  0
 65140  1  0  0  0
 68 79  1  0  0  0
 71 73  1  0  0  0
 71 74  2  0  0  0
 71141  1  0  0  0
 72 73  2  0  0  0
 72 81  1  0  0  0
 72142  1  0  0  0
 73 80  1  0  0  0
 74 76  1  0  0  0
 74 81  1  0  0  0
 75 78  2  0  0  0
 75143  1  0  0  0
 75144  1  0  0  0
 76 77  2  0  0  0
 76145  1  0  0  0
 77146  1  0  0  0
 78 80  1  0  0  0
 78147  1  0  0  0
 79148  1  0  0  0
 79149  1  0  0  0
 79 80  1  0  0  0
 80150  1  0  0  0
M  ISO  4   1 100  68 101  77 100  79 101
M  END
> <chiral flag>
0

> <version>
0

> <s_m_source_file>
/data/baiqing/PycharmProjects/Reinvent-master-3.2/result/LINK_invent/BTK/process_docking_weight1_custom_product_contain_oxygen_bond_distance_aromatic_linkinvent_7_9_3/rearranged_h_0128.sdf

> <i_m_source_file_index>
11

> <r_mmod_Potential_Energy-OPLS-2005>
787.420043945312

> <r_mmod_Stretch_Energy-OPLS-2005>
311.052398681641

> <r_mmod_Bend_Energy-OPLS-2005>
431.993225097656

> <r_mmod_Torsional_Energy-OPLS-2005>
197.470199584961

> <r_mmod_Improper_Torsional_Energy-OPLS-2005>
4.23644685745239

> <r_mmod_Van_der_Waal_Energy-OPLS-2005>
114.341682434082

> <r_mmod_Electrostatic_Energy-OPLS-2005>
-311.454559326172

> <r_mmod_Solvation_Energy-OPLS-2005>
-204.79460144043

> <b_mmod_Minimization_Converged-OPLS-2005>
0

> <r_mmod_RMS_Derivative-OPLS-2005>
0.5419762134552

$$$$
11
                    3D
 Structure written by MMmdl.
160168  0  0  1  0            999 V2000
  -30.6111  -14.6293   20.5090 C   0  0  0  0  0  0
  -30.4442  -12.3872   19.4475 C   0  0  0  0  0  0
  -29.5124  -12.5122   18.2207 C   0  0  0  0  0  0
  -28.0323  -12.3516   18.6261 C   0  0  0  0  0  0
  -27.6535  -13.2123   19.8615 C   0  0  2  0  0  0
  -28.6984  -13.0514   20.9897 C   0  0  0  0  0  0
  -25.2556  -13.8165   20.5668 C   0  0  0  0  0  0
  -24.1817  -13.0435   20.9176 C   0  0  0  0  0  0
  -24.6377  -11.6903   20.8718 C   0  0  0  0  0  0
  -23.9037  -10.4292   21.0383 C   0  0  0  0  0  0
  -24.3592   -9.4212   21.9166 C   0  0  0  0  0  0
  -23.6274   -8.2245   22.0750 C   0  0  0  0  0  0
  -22.4256   -8.0277   21.3544 C   0  0  0  0  0  0
  -21.9885   -9.0250   20.4648 C   0  0  0  0  0  0
  -22.7206  -10.2130   20.3039 C   0  0  0  0  0  0
  -21.6854   -6.0712   22.5269 C   0  0  0  0  0  0
  -21.4018   -6.5613   23.8200 C   0  0  0  0  0  0
  -21.3661   -5.6776   24.9170 C   0  0  0  0  0  0
  -21.6046   -4.3041   24.7223 C   0  0  0  0  0  0
  -21.8819   -3.8129   23.4345 C   0  0  0  0  0  0
  -21.9196   -4.6941   22.3398 C   0  0  0  0  0  0
  -22.7837  -13.5230   21.1838 C   0  0  0  0  0  0
  -22.1661   -4.2132   21.0969 F   0  0  0  0  0  0
  -21.5631   -3.4520   25.7737 F   0  0  0  0  0  0
  -30.0144  -13.3989   20.4298 N   0  0  0  0  0  0
  -26.2980  -12.9332   20.3294 N   0  0  0  0  0  0
  -25.9307  -11.6492   20.5713 N   0  0  0  0  0  0
  -22.0466  -12.8251   22.0410 N   0  0  0  0  0  0
  -25.4284  -15.1880   20.4074 N   0  0  0  0  0  0
  -31.7793  -14.8118   20.1519 O   0  0  0  0  0  0
  -21.6637   -6.8861   21.4233 O   0  0  0  0  0  0
  -22.3528  -14.5531   20.6668 O   0  0  0  0  0  0
  -24.6264  -31.8618   23.2048 C   0  0  0  0  0  0
  -25.9124  -32.4782   23.8373 C   0  0  1  0  0  0
  -27.2199  -27.3293   20.1113 C   0  0  0  0  0  0
  -25.5937  -33.8577   24.2303 N   0  0  0  0  0  0
  -23.4181  -30.4862   21.5492 C   0  0  2  0  0  0
  -24.8633  -28.9487   20.1098 C   0  0  0  0  0  0
  -22.7475  -29.4626   22.4971 C   0  0  0  0  0  0
  -18.0272  -28.1379   22.8485 C   0  0  0  0  0  0
  -24.1481  -36.7282   23.2631 C   0  0  0  0  0  0
  -25.9597  -30.7945   21.3773 C   0  0  0  0  0  0
  -26.0328  -29.4245   20.7168 C   0  0  0  0  0  0
  -27.2132  -28.6250   20.7118 C   0  0  0  0  0  0
  -26.0274  -26.9104   19.4738 C   0  0  0  0  0  0
  -24.8629  -27.6969   19.4804 C   0  0  0  0  0  0
  -23.6302  -29.8248   20.1626 C   0  0  0  0  0  0
  -25.4099  -36.3081   24.0336 C   0  0  1  0  0  0
  -20.5876  -28.3682   23.1290 C   0  0  2  0  0  0
  -20.6773  -26.9409   22.5414 C   0  0  0  0  0  0
  -19.5752  -26.6380   21.5212 C   0  0  0  0  0  0
  -18.1921  -26.7924   22.1613 C   0  0  0  0  0  0
  -19.1527  -28.8852   23.2875 C   0  0  0  0  0  0
  -18.9454  -30.1456   23.8890 C   0  0  0  0  0  0
  -17.6455  -30.6593   24.0555 C   0  0  0  0  0  0
  -25.9045  -34.9457   23.5120 C   0  0  0  0  0  0
  -16.5341  -29.9085   23.6329 C   0  0  0  0  0  0
  -16.7254  -28.6491   23.0361 C   0  0  0  0  0  0
  -26.4496  -31.6584   25.0745 C   0  0  0  0  0  0
  -25.3727  -31.3760   26.1483 C   0  0  0  0  0  0
  -27.0316  -30.2990   24.6219 C   0  0  0  0  0  0
  -27.6082  -32.4303   25.7495 C   0  0  0  0  0  0
  -27.5588  -37.1764   24.8435 C   0  0  0  0  0  0
  -21.4197  -29.3035   22.3697 N   0  0  0  0  0  0
  -26.4263  -37.3792   23.9437 N   0  0  0  0  0  0
  -24.6863  -31.0643   22.0995 N   0  0  0  0  0  0
  -23.4199  -28.8164   23.3045 O   0  0  0  0  0  0
  -28.3322  -26.4763   20.1706 O   0  0  0  0  0  0
  -26.5611  -34.8924   22.4682 O   0  0  0  0  0  0
  -23.5430  -32.1416   23.7375 O   0  0  0  0  0  0
  -30.7697  -17.8647   21.4672 C   0  0  0  0  0  0
  -28.9712  -17.8364   19.8773 C   0  0  0  0  0  0
  -29.8382  -20.0394   20.6409 C   0  0  0  0  0  0
  -30.7357  -19.2908   21.4708 C   0  0  0  0  0  0
  -29.8822  -17.1019   20.6802 C   0  0  0  0  0  0
  -28.9531  -19.2720   19.8238 C   0  0  0  0  0  0
  -29.8552  -21.5715   20.6851 C   0  0  0  0  0  0
  -28.9376  -22.5243   20.3179 C   0  0  0  0  0  0
  -29.1673  -24.0238   20.4450 C   0  0  0  0  0  0
  -31.6816  -20.0010   22.4270 C   0  0  0  0  0  0
  -26.7432  -20.2628   17.0286 C   0  0  0  0  0  0
  -28.0762  -25.0360   19.9413 C   0  0  0  0  0  0
  -27.3786  -19.2561   17.9913 C   0  0  0  0  0  0
  -29.7582  -15.6561   20.8072 N   0  0  0  0  0  0
  -30.2012  -24.4793   20.9472 O   0  0  0  0  0  0
  -28.1055  -19.9696   18.9861 O   0  0  0  0  0  0
  -31.4860  -12.5216   19.1491 H   0  0  0  0  0  0
  -30.3819  -11.3881   19.8819 H   0  0  0  0  0  0
  -29.7778  -11.7707   17.4665 H   0  0  0  0  0  0
  -29.6603  -13.4882   17.7532 H   0  0  0  0  0  0
  -27.8600  -11.2969   18.8451 H   0  0  0  0  0  0
  -27.3851  -12.5995   17.7833 H   0  0  0  0  0  0
  -27.6735  -14.2487   19.5251 H   0  0  0  0  0  0
  -28.7083  -12.0246   21.3578 H   0  0  0  0  0  0
  -28.4451  -13.6712   21.8513 H   0  0  0  0  0  0
  -25.2735   -9.5695   22.4740 H   0  0  0  0  0  0
  -23.9991   -7.4631   22.7464 H   0  0  0  0  0  0
  -21.0814   -8.8756   19.8956 H   0  0  0  0  0  0
  -22.3654  -10.9658   19.6140 H   0  0  0  0  0  0
  -21.2008   -7.6124   23.9692 H   0  0  0  0  0  0
  -21.1478   -6.0509   25.9070 H   0  0  0  0  0  0
  -22.0600   -2.7598   23.2846 H   0  0  0  0  0  0
  -22.4045  -11.9917   22.4836 H   0  0  0  0  0  0
  -21.1079  -13.1310   22.2566 H   0  0  0  0  0  0
  -24.6627  -15.8445   20.5107 H   0  0  0  0  0  0
  -26.2735  -15.6240   20.0657 H   0  0  0  0  0  0
  -26.7204  -32.5453   23.1128 H   0  0  0  0  0  0
  -25.0096  -33.9720   25.0461 H   0  0  0  0  0  0
  -22.7107  -31.3060   21.4093 H   0  0  0  0  0  0
  -23.3781  -35.9569   23.3219 H   0  0  0  0  0  0
  -24.3607  -36.8979   22.2064 H   0  0  0  0  0  0
  -23.7185  -37.6441   23.6702 H   0  0  0  0  0  0
  -26.0976  -31.5619   20.6140 H   0  0  0  0  0  0
  -26.8373  -30.8364   22.0107 H   0  0  0  0  0  0
  -28.1078  -28.9826   21.2024 H   0  0  0  0  0  0
  -25.9587  -25.9580   18.9689 H   0  0  0  0  0  0
  -23.9673  -27.3279   18.9987 H   0  0  0  0  0  0
  -23.7441  -30.6009   19.4049 H   0  0  0  0  0  0
  -22.7515  -29.2504   19.8639 H   0  0  0  0  0  0
  -25.1265  -36.1920   25.0828 H   0  0  0  0  0  0
  -20.9949  -28.3256   24.1420 H   0  0  0  0  0  0
  -20.5682  -26.2286   23.3610 H   0  0  0  0  0  0
  -21.6646  -26.7455   22.1206 H   0  0  0  0  0  0
  -19.6914  -25.6290   21.1246 H   0  0  0  0  0  0
  -19.6693  -27.3183   20.6736 H   0  0  0  0  0  0
  -17.4204  -26.6688   21.3996 H   0  0  0  0  0  0
  -18.0298  -26.0055   22.8997 H   0  0  0  0  0  0
  -19.7938  -30.7262   24.2265 H   0  0  0  0  0  0
  -17.5015  -31.6273   24.5159 H   0  0  0  0  0  0
  -15.5342  -30.2984   23.7656 H   0  0  0  0  0  0
  -15.8654  -28.0793   22.7110 H   0  0  0  0  0  0
  -24.5831  -30.7194   25.7808 H   0  0  0  0  0  0
  -24.9007  -32.2955   26.4957 H   0  0  0  0  0  0
  -25.8026  -30.8869   27.0232 H   0  0  0  0  0  0
  -26.2883  -29.6754   24.1237 H   0  0  0  0  0  0
  -27.3978  -29.7244   25.4737 H   0  0  0  0  0  0
  -27.8782  -30.4245   23.9465 H   0  0  0  0  0  0
  -27.2722  -33.3613   26.2071 H   0  0  0  0  0  0
  -28.3876  -32.6836   25.0298 H   0  0  0  0  0  0
  -28.0764  -31.8425   26.5401 H   0  0  0  0  0  0
  -28.2524  -38.0142   24.7624 H   0  0  0  0  0  0
  -28.1167  -36.2691   24.6060 H   0  0  0  0  0  0
  -27.2346  -37.1182   25.8840 H   0  0  0  0  0  0
  -20.9382  -29.8738   21.6892 H   0  0  0  0  0  0
  -26.0142  -38.2848   24.1518 H   0  0  0  0  0  0
  -31.4550  -17.3463   22.1251 H   0  0  0  0  0  0
  -28.2665  -17.2636   19.2943 H   0  0  0  0  0  0
  -30.7812  -21.9777   21.0622 H   0  0  0  0  0  0
  -27.9804  -22.2240   19.9202 H   0  0  0  0  0  0
  -32.1502  -19.3029   23.1213 H   0  0  0  0  0  0
  -31.1468  -20.7364   23.0289 H   0  0  0  0  0  0
  -32.4754  -20.5096   21.8801 H   0  0  0  0  0  0
  -26.1816  -19.7481   16.2485 H   0  0  0  0  0  0
  -27.5035  -20.8732   16.5400 H   0  0  0  0  0  0
  -26.0533  -20.9314   17.5445 H   0  0  0  0  0  0
  -27.1440  -24.7529   20.4321 H   0  0  0  0  0  0
  -27.9378  -24.8710   18.8725 H   0  0  0  0  0  0
  -28.0365  -18.5932   17.4264 H   0  0  0  0  0  0
  -26.6012  -18.6496   18.4582 H   0  0  0  0  0  0
  -28.8223  -15.3276   20.9828 H   0  0  0  0  0  0
  1 25  1  0  0  0
  1 30  2  0  0  0
  1 84  1  0  0  0
  2  3  1  0  0  0
  2 25  1  0  0  0
  2 87  1  0  0  0
  2 88  1  0  0  0
  3  4  1  0  0  0
  3 89  1  0  0  0
  3 90  1  0  0  0
  4  5  1  0  0  0
  4 91  1  0  0  0
  4 92  1  0  0  0
  5  6  1  0  0  0
  5 26  1  0  0  0
  5 93  1  0  0  0
  6 25  1  0  0  0
  6 94  1  0  0  0
  6 95  1  0  0  0
  7  8  2  0  0  0
  7 26  1  0  0  0
  7 29  1  0  0  0
  8  9  1  0  0  0
  8 22  1  0  0  0
  9 10  1  0  0  0
  9 27  2  0  0  0
 10 11  2  0  0  0
 10 15  1  0  0  0
 11 12  1  0  0  0
 11 96  1  0  0  0
 12 13  2  0  0  0
 12 97  1  0  0  0
 13 14  1  0  0  0
 13 31  1  0  0  0
 14 15  2  0  0  0
 14 98  1  0  0  0
 15 99  1  0  0  0
 16 17  2  0  0  0
 16 21  1  0  0  0
 16 31  1  0  0  0
 17 18  1  0  0  0
 17100  1  0  0  0
 18 19  2  0  0  0
 18101  1  0  0  0
 19 20  1  0  0  0
 19 24  1  0  0  0
 20 21  2  0  0  0
 20102  1  0  0  0
 21 23  1  0  0  0
 22 28  1  0  0  0
 22 32  2  0  0  0
 26 27  1  0  0  0
 28103  1  0  0  0
 28104  1  0  0  0
 29105  1  0  0  0
 29106  1  0  0  0
 33 34  1  0  0  0
 33 66  1  0  0  0
 33 70  2  0  0  0
 34 36  1  0  0  0
 34 59  1  0  0  0
 34107  1  0  0  0
 35 44  2  0  0  0
 35 45  1  0  0  0
 35 68  1  0  0  0
 36 56  1  0  0  0
 36108  1  0  0  0
 37 39  1  0  0  0
 37 47  1  0  0  0
 37 66  1  0  0  0
 37109  1  0  0  0
 38 43  2  0  0  0
 38 46  1  0  0  0
 38 47  1  0  0  0
 39 64  1  0  0  0
 39 67  2  0  0  0
 40 52  1  0  0  0
 40 53  2  0  0  0
 40 58  1  0  0  0
 41110  1  0  0  0
 41111  1  0  0  0
 41112  1  0  0  0
 41 48  1  0  0  0
 42 43  1  0  0  0
 42 66  1  0  0  0
 42113  1  0  0  0
 42114  1  0  0  0
 43 44  1  0  0  0
 44115  1  0  0  0
 45 46  2  0  0  0
 45116  1  0  0  0
 46117  1  0  0  0
 47118  1  0  0  0
 47119  1  0  0  0
 48 56  1  0  0  0
 48 65  1  0  0  0
 48120  1  0  0  0
 49 50  1  0  0  0
 49 53  1  0  0  0
 49 64  1  0  0  0
 49121  1  0  0  0
 50 51  1  0  0  0
 50122  1  0  0  0
 50123  1  0  0  0
 51 52  1  0  0  0
 51124  1  0  0  0
 51125  1  0  0  0
 52126  1  0  0  0
 52127  1  0  0  0
 53 54  1  0  0  0
 54 55  2  0  0  0
 54128  1  0  0  0
 55 57  1  0  0  0
 55129  1  0  0  0
 56 69  2  0  0  0
 57 58  2  0  0  0
 57130  1  0  0  0
 58131  1  0  0  0
 59 60  1  0  0  0
 59 61  1  0  0  0
 59 62  1  0  0  0
 60132  1  0  0  0
 60133  1  0  0  0
 60134  1  0  0  0
 61135  1  0  0  0
 61136  1  0  0  0
 61137  1  0  0  0
 62138  1  0  0  0
 62139  1  0  0  0
 62140  1  0  0  0
 63 65  1  0  0  0
 63141  1  0  0  0
 63142  1  0  0  0
 63143  1  0  0  0
 64144  1  0  0  0
 65145  1  0  0  0
 68 82  1  0  0  0
 71 74  2  0  0  0
 71 75  1  0  0  0
 71146  1  0  0  0
 72 75  2  0  0  0
 72 76  1  0  0  0
 72147  1  0  0  0
 73 74  1  0  0  0
 73 76  2  0  0  0
 73 77  1  0  0  0
 74 80  1  0  0  0
 75 84  1  0  0  0
 76 86  1  0  0  0
 77 78  2  0  0  0
 77148  1  0  0  0
 78 79  1  0  0  0
 78149  1  0  0  0
 79 82  1  0  0  0
 79 85  2  0  0  0
 80150  1  0  0  0
 80151  1  0  0  0
 80152  1  0  0  0
 81 83  1  0  0  0
 81153  1  0  0  0
 81154  1  0  0  0
 81155  1  0  0  0
 82156  1  0  0  0
 82157  1  0  0  0
 83 86  1  0  0  0
 83158  1  0  0  0
 83159  1  0  0  0
 84160  1  0  0  0
M  ISO  4   1 100  68 101  82 101  84 100
M  END
> <chiral flag>
0

> <version>
0

> <s_m_source_file>
/data/baiqing/PycharmProjects/Reinvent-master-3.2/result/LINK_invent/BTK/process_docking_weight1_custom_product_contain_oxygen_bond_distance_aromatic_linkinvent_7_9_3/rearranged_h_0128.sdf

> <i_m_source_file_index>
12

> <r_mmod_Potential_Energy-OPLS-2005>
66.9254989624023

> <r_mmod_Stretch_Energy-OPLS-2005>
77.2464981079102

> <r_mmod_Bend_Energy-OPLS-2005>
130.787628173828

> <r_mmod_Torsional_Energy-OPLS-2005>
234.283279418945

> <r_mmod_Improper_Torsional_Energy-OPLS-2005>
6.07483100891113

> <r_mmod_Van_der_Waal_Energy-OPLS-2005>
155.002243041992

> <r_mmod_Electrostatic_Energy-OPLS-2005>
-348.3115234375

> <r_mmod_Solvation_Energy-OPLS-2005>
-235.139083862305

> <b_mmod_Minimization_Converged-OPLS-2005>
0

> <r_mmod_RMS_Derivative-OPLS-2005>
2.11394619941711

$$$$
12
                    3D
 Structure written by MMmdl.
156164  0  0  1  0            999 V2000
  -30.6958  -14.5680   20.4384 C   0  0  0  0  0  0
  -30.4202  -12.3345   19.4547 C   0  0  0  0  0  0
  -29.4983  -12.4783   18.2247 C   0  0  0  0  0  0
  -28.0182  -12.3376   18.6336 C   0  0  0  0  0  0
  -27.6506  -13.2113   19.8621 C   0  0  2  0  0  0
  -28.6993  -13.0626   20.9837 C   0  0  0  0  0  0
  -25.2570  -13.8149   20.5715 C   0  0  0  0  0  0
  -24.1817  -13.0416   20.9199 C   0  0  0  0  0  0
  -24.6380  -11.6894   20.8787 C   0  0  0  0  0  0
  -23.9043  -10.4281   21.0455 C   0  0  0  0  0  0
  -24.3596   -9.4198   21.9232 C   0  0  0  0  0  0
  -23.6279   -8.2227   22.0763 C   0  0  0  0  0  0
  -22.4268   -8.0268   21.3542 C   0  0  0  0  0  0
  -21.9899   -9.0239   20.4644 C   0  0  0  0  0  0
  -22.7222  -10.2129   20.3096 C   0  0  0  0  0  0
  -21.6849   -6.0726   22.5289 C   0  0  0  0  0  0
  -21.3998   -6.5638   23.8222 C   0  0  0  0  0  0
  -21.3677   -5.6800   24.9191 C   0  0  0  0  0  0
  -21.6057   -4.3060   24.7246 C   0  0  0  0  0  0
  -21.8817   -3.8149   23.4363 C   0  0  0  0  0  0
  -21.9192   -4.6955   22.3413 C   0  0  0  0  0  0
  -22.7852  -13.5232   21.1893 C   0  0  0  0  0  0
  -22.1671   -4.2143   21.0994 F   0  0  0  0  0  0
  -21.5624   -3.4547   25.7767 F   0  0  0  0  0  0
  -30.0195  -13.3767   20.4191 N   0  0  0  0  0  0
  -26.2993  -12.9315   20.3385 N   0  0  0  0  0  0
  -25.9318  -11.6476   20.5845 N   0  0  0  0  0  0
  -22.0479  -12.8209   22.0424 N   0  0  0  0  0  0
  -25.4315  -15.1857   20.4127 N   0  0  0  0  0  0
  -31.9064  -14.6141   20.1997 O   0  0  0  0  0  0
  -21.6626   -6.8867   21.4248 O   0  0  0  0  0  0
  -22.3570  -14.5569   20.6782 O   0  0  0  0  0  0
  -24.6185  -31.8654   23.2073 C   0  0  0  0  0  0
  -25.9066  -32.4811   23.8381 C   0  0  1  0  0  0
  -27.2343  -27.3909   20.0817 C   0  0  0  0  0  0
  -25.5914  -33.8609   24.2313 N   0  0  0  0  0  0
  -23.4077  -30.4876   21.5502 C   0  0  2  0  0  0
  -24.8526  -28.9487   20.1148 C   0  0  0  0  0  0
  -22.7424  -29.4640   22.4981 C   0  0  0  0  0  0
  -18.0274  -28.1389   22.8487 C   0  0  0  0  0  0
  -24.1492  -36.7294   23.2636 C   0  0  0  0  0  0
  -25.9424  -30.8137   21.3703 C   0  0  0  0  0  0
  -26.0171  -29.4453   20.7126 C   0  0  0  0  0  0
  -27.2055  -28.6713   20.6976 C   0  0  0  0  0  0
  -26.0385  -26.9127   19.4978 C   0  0  0  0  0  0
  -24.8597  -27.6818   19.5097 C   0  0  0  0  0  0
  -23.6172  -29.8207   20.1655 C   0  0  0  0  0  0
  -25.4118  -36.3094   24.0327 C   0  0  1  0  0  0
  -20.5866  -28.3676   23.1312 C   0  0  2  0  0  0
  -20.6761  -26.9401   22.5435 C   0  0  0  0  0  0
  -19.5748  -26.6387   21.5223 C   0  0  0  0  0  0
  -18.1922  -26.7943   22.1613 C   0  0  0  0  0  0
  -19.1525  -28.8846   23.2895 C   0  0  0  0  0  0
  -18.9449  -30.1452   23.8904 C   0  0  0  0  0  0
  -17.6454  -30.6589   24.0567 C   0  0  0  0  0  0
  -25.9052  -34.9463   23.5119 C   0  0  0  0  0  0
  -16.5346  -29.9090   23.6337 C   0  0  0  0  0  0
  -16.7263  -28.6512   23.0346 C   0  0  0  0  0  0
  -26.4478  -31.6605   25.0729 C   0  0  0  0  0  0
  -25.3723  -31.3713   26.1461 C   0  0  0  0  0  0
  -27.0326  -30.3044   24.6151 C   0  0  0  0  0  0
  -27.6063  -32.4322   25.7476 C   0  0  0  0  0  0
  -27.5585  -37.1797   24.8454 C   0  0  0  0  0  0
  -21.4147  -29.3036   22.3718 N   0  0  0  0  0  0
  -26.4296  -37.3786   23.9404 N   0  0  0  0  0  0
  -24.6746  -31.0704   22.1004 N   0  0  0  0  0  0
  -23.4181  -28.8187   23.3040 O   0  0  0  0  0  0
  -28.4021  -26.6354   20.0997 O   0  0  0  0  0  0
  -26.5616  -34.8914   22.4686 O   0  0  0  0  0  0
  -23.5369  -32.1431   23.7441 O   0  0  0  0  0  0
  -30.0070  -18.3956   19.6490 C   0  0  0  0  0  0
  -31.1453  -18.9613   17.5728 C   0  0  0  0  0  0
  -31.0207  -16.6486   18.2844 C   0  0  0  0  0  0
  -30.4148  -19.3904   18.7040 C   0  0  0  0  0  0
  -30.3223  -17.0015   19.4703 C   0  0  0  0  0  0
  -31.4535  -17.6107   17.3590 C   0  0  0  0  0  0
  -30.1462  -20.8671   18.7252 C   0  0  0  0  0  0
  -29.3864  -21.6997   19.4820 C   0  0  0  0  0  0
  -29.3575  -23.1395   19.1549 C   0  0  0  0  0  0
  -28.5626  -24.1229   19.6519 C   0  0  0  0  0  0
  -29.8858  -15.9111   20.4497 C   0  0  0  0  0  0
  -32.2496  -17.1950   16.1350 C   0  0  0  0  0  0
  -28.6073  -25.5772   19.1289 C   0  0  0  0  0  0
  -28.9092  -16.1308   21.2288 N   0  0  0  0  0  0
  -31.4657  -12.4113   19.1510 H   0  0  0  0  0  0
  -30.3184  -11.3440   19.8991 H   0  0  0  0  0  0
  -29.7462  -11.7261   17.4736 H   0  0  0  0  0  0
  -29.6589  -13.4474   17.7524 H   0  0  0  0  0  0
  -27.8378  -11.2863   18.8619 H   0  0  0  0  0  0
  -27.3705  -12.5796   17.7904 H   0  0  0  0  0  0
  -27.6648  -14.2447   19.5188 H   0  0  0  0  0  0
  -28.7020  -12.0429   21.3690 H   0  0  0  0  0  0
  -28.4639  -13.6932   21.8414 H   0  0  0  0  0  0
  -25.2731   -9.5670   22.4823 H   0  0  0  0  0  0
  -23.9987   -7.4610   22.7475 H   0  0  0  0  0  0
  -21.0827   -8.8765   19.8941 H   0  0  0  0  0  0
  -22.3693  -10.9675   19.6213 H   0  0  0  0  0  0
  -21.1985   -7.6138   23.9725 H   0  0  0  0  0  0
  -21.1512   -6.0524   25.9090 H   0  0  0  0  0  0
  -22.0582   -2.7608   23.2875 H   0  0  0  0  0  0
  -22.4054  -11.9823   22.4764 H   0  0  0  0  0  0
  -21.1134  -13.1303   22.2698 H   0  0  0  0  0  0
  -24.6813  -15.8550   20.5431 H   0  0  0  0  0  0
  -26.3238  -15.6175   20.2007 H   0  0  0  0  0  0
  -26.7132  -32.5496   23.1134 H   0  0  0  0  0  0
  -25.0060  -33.9777   25.0454 H   0  0  0  0  0  0
  -22.6993  -31.3056   21.4105 H   0  0  0  0  0  0
  -23.3764  -35.9617   23.3293 H   0  0  0  0  0  0
  -24.3582  -36.8922   22.2052 H   0  0  0  0  0  0
  -23.7237  -37.6488   23.6669 H   0  0  0  0  0  0
  -26.0680  -31.5803   20.6056 H   0  0  0  0  0  0
  -26.8253  -30.8612   21.9957 H   0  0  0  0  0  0
  -28.1043  -29.0535   21.1620 H   0  0  0  0  0  0
  -25.9834  -25.9318   19.0511 H   0  0  0  0  0  0
  -23.9585  -27.2866   19.0621 H   0  0  0  0  0  0
  -23.7295  -30.5977   19.4084 H   0  0  0  0  0  0
  -22.7402  -29.2427   19.8672 H   0  0  0  0  0  0
  -25.1306  -36.1950   25.0821 H   0  0  0  0  0  0
  -20.9948  -28.3256   24.1430 H   0  0  0  0  0  0
  -20.5659  -26.2285   23.3628 H   0  0  0  0  0  0
  -21.6635  -26.7442   22.1230 H   0  0  0  0  0  0
  -19.6912  -25.6296   21.1249 H   0  0  0  0  0  0
  -19.6711  -27.3201   20.6755 H   0  0  0  0  0  0
  -17.4203  -26.6703   21.3995 H   0  0  0  0  0  0
  -18.0300  -26.0078   22.8997 H   0  0  0  0  0  0
  -19.7920  -30.7274   24.2274 H   0  0  0  0  0  0
  -17.5002  -31.6261   24.5180 H   0  0  0  0  0  0
  -15.5346  -30.2992   23.7663 H   0  0  0  0  0  0
  -15.8659  -28.0838   22.7057 H   0  0  0  0  0  0
  -24.5902  -30.7073   25.7760 H   0  0  0  0  0  0
  -24.8908  -32.2867   26.4905 H   0  0  0  0  0  0
  -25.8046  -30.8860   27.0218 H   0  0  0  0  0  0
  -26.2893  -29.6784   24.1206 H   0  0  0  0  0  0
  -27.4076  -29.7311   25.4635 H   0  0  0  0  0  0
  -27.8731  -30.4349   23.9335 H   0  0  0  0  0  0
  -27.2714  -33.3620   26.2076 H   0  0  0  0  0  0
  -28.3851  -32.6881   25.0283 H   0  0  0  0  0  0
  -28.0761  -31.8432   26.5359 H   0  0  0  0  0  0
  -28.2595  -38.0101   24.7530 H   0  0  0  0  0  0
  -28.1096  -36.2639   24.6261 H   0  0  0  0  0  0
  -27.2301  -37.1417   25.8853 H   0  0  0  0  0  0
  -20.9326  -29.8747   21.6919 H   0  0  0  0  0  0
  -26.0178  -38.2858   24.1430 H   0  0  0  0  0  0
  -29.4513  -18.7101   20.5201 H   0  0  0  0  0  0
  -31.4749  -19.6798   16.8339 H   0  0  0  0  0  0
  -31.2512  -15.6190   18.0586 H   0  0  0  0  0  0
  -30.6825  -21.3807   17.9388 H   0  0  0  0  0  0
  -28.8031  -21.3116   20.3061 H   0  0  0  0  0  0
  -30.0590  -23.4631   18.3961 H   0  0  0  0  0  0
  -27.8276  -23.8979   20.4108 H   0  0  0  0  0  0
  -33.1147  -17.8456   15.9999 H   0  0  0  0  0  0
  -31.6368  -17.2554   15.2354 H   0  0  0  0  0  0
  -32.6213  -16.1727   16.2224 H   0  0  0  0  0  0
  -27.9465  -25.6622   18.2658 H   0  0  0  0  0  0
  -29.6012  -25.7424   18.7119 H   0  0  0  0  0  0
  -28.5357  -17.0581   21.0695 H   0  0  0  0  0  0
  1 25  1  0  0  0
  1 30  2  0  0  0
  1 81  1  0  0  0
  2  3  1  0  0  0
  2 25  1  0  0  0
  2 85  1  0  0  0
  2 86  1  0  0  0
  3  4  1  0  0  0
  3 87  1  0  0  0
  3 88  1  0  0  0
  4  5  1  0  0  0
  4 89  1  0  0  0
  4 90  1  0  0  0
  5  6  1  0  0  0
  5 26  1  0  0  0
  5 91  1  0  0  0
  6 25  1  0  0  0
  6 92  1  0  0  0
  6 93  1  0  0  0
  7  8  2  0  0  0
  7 26  1  0  0  0
  7 29  1  0  0  0
  8  9  1  0  0  0
  8 22  1  0  0  0
  9 10  1  0  0  0
  9 27  2  0  0  0
 10 11  2  0  0  0
 10 15  1  0  0  0
 11 12  1  0  0  0
 11 94  1  0  0  0
 12 13  2  0  0  0
 12 95  1  0  0  0
 13 14  1  0  0  0
 13 31  1  0  0  0
 14 15  2  0  0  0
 14 96  1  0  0  0
 15 97  1  0  0  0
 16 17  2  0  0  0
 16 21  1  0  0  0
 16 31  1  0  0  0
 17 18  1  0  0  0
 17 98  1  0  0  0
 18 19  2  0  0  0
 18 99  1  0  0  0
 19 20  1  0  0  0
 19 24  1  0  0  0
 20 21  2  0  0  0
 20100  1  0  0  0
 21 23  1  0  0  0
 22 28  1  0  0  0
 22 32  2  0  0  0
 26 27  1  0  0  0
 28101  1  0  0  0
 28102  1  0  0  0
 29103  1  0  0  0
 29104  1  0  0  0
 33 34  1  0  0  0
 33 66  1  0  0  0
 33 70  2  0  0  0
 34 36  1  0  0  0
 34 59  1  0  0  0
 34105  1  0  0  0
 35 44  2  0  0  0
 35 45  1  0  0  0
 35 68  1  0  0  0
 36 56  1  0  0  0
 36106  1  0  0  0
 37 39  1  0  0  0
 37 47  1  0  0  0
 37 66  1  0  0  0
 37107  1  0  0  0
 38 43  2  0  0  0
 38 46  1  0  0  0
 38 47  1  0  0  0
 39 64  1  0  0  0
 39 67  2  0  0  0
 40 52  1  0  0  0
 40 53  2  0  0  0
 40 58  1  0  0  0
 41108  1  0  0  0
 41109  1  0  0  0
 41110  1  0  0  0
 41 48  1  0  0  0
 42 43  1  0  0  0
 42 66  1  0  0  0
 42111  1  0  0  0
 42112  1  0  0  0
 43 44  1  0  0  0
 44113  1  0  0  0
 45 46  2  0  0  0
 45114  1  0  0  0
 46115  1  0  0  0
 47116  1  0  0  0
 47117  1  0  0  0
 48 56  1  0  0  0
 48 65  1  0  0  0
 48118  1  0  0  0
 49 50  1  0  0  0
 49 53  1  0  0  0
 49 64  1  0  0  0
 49119  1  0  0  0
 50 51  1  0  0  0
 50120  1  0  0  0
 50121  1  0  0  0
 51 52  1  0  0  0
 51122  1  0  0  0
 51123  1  0  0  0
 52124  1  0  0  0
 52125  1  0  0  0
 53 54  1  0  0  0
 54 55  2  0  0  0
 54126  1  0  0  0
 55 57  1  0  0  0
 55127  1  0  0  0
 56 69  2  0  0  0
 57 58  2  0  0  0
 57128  1  0  0  0
 58129  1  0  0  0
 59 60  1  0  0  0
 59 61  1  0  0  0
 59 62  1  0  0  0
 60130  1  0  0  0
 60131  1  0  0  0
 60132  1  0  0  0
 61133  1  0  0  0
 61134  1  0  0  0
 61135  1  0  0  0
 62136  1  0  0  0
 62137  1  0  0  0
 62138  1  0  0  0
 63 65  1  0  0  0
 63139  1  0  0  0
 63140  1  0  0  0
 63141  1  0  0  0
 64142  1  0  0  0
 65143  1  0  0  0
 68 83  1  0  0  0
 71 74  2  0  0  0
 71 75  1  0  0  0
 71144  1  0  0  0
 72 74  1  0  0  0
 72 76  2  0  0  0
 72145  1  0  0  0
 73 75  2  0  0  0
 73 76  1  0  0  0
 73146  1  0  0  0
 74 77  1  0  0  0
 75 81  1  0  0  0
 76 82  1  0  0  0
 77 78  2  0  0  0
 77147  1  0  0  0
 78 79  1  0  0  0
 78148  1  0  0  0
 79 80  2  0  0  0
 79149  1  0  0  0
 80 83  1  0  0  0
 80150  1  0  0  0
 81 84  2  0  0  0
 82151  1  0  0  0
 82152  1  0  0  0
 82153  1  0  0  0
 83154  1  0  0  0
 83155  1  0  0  0
 84156  1  0  0  0
M  ISO  4   1 100  68 101  81 100  83 101
M  END
> <chiral flag>
0

> <version>
0

> <s_m_source_file>
/data/baiqing/PycharmProjects/Reinvent-master-3.2/result/LINK_invent/BTK/process_docking_weight1_custom_product_contain_oxygen_bond_distance_aromatic_linkinvent_7_9_3/rearranged_h_0128.sdf

> <i_m_source_file_index>
13

> <r_mmod_Potential_Energy-OPLS-2005>
202.565490722656

> <r_mmod_Stretch_Energy-OPLS-2005>
61.5914001464844

> <r_mmod_Bend_Energy-OPLS-2005>
141.45182800293

> <r_mmod_Torsional_Energy-OPLS-2005>
204.816848754883

> <r_mmod_Improper_Torsional_Energy-OPLS-2005>
6.92784118652344

> <r_mmod_Van_der_Waal_Energy-OPLS-2005>
161.622451782227

> <r_mmod_Electrostatic_Energy-OPLS-2005>
-215.950668334961

> <r_mmod_Solvation_Energy-OPLS-2005>
-189.826293945312

> <b_mmod_Minimization_Converged-OPLS-2005>
0

> <r_mmod_RMS_Derivative-OPLS-2005>
2.48823213577271

$$$$
13
                    3D
 Structure written by MMmdl.
153161  0  0  1  0            999 V2000
  -30.5678  -14.9665   20.4160 C   0  0  0  0  0  0
  -30.4384  -12.6022   19.5141 C   0  0  0  0  0  0
  -29.5319  -12.5583   18.2629 C   0  0  0  0  0  0
  -28.0625  -12.3357   18.6695 C   0  0  0  0  0  0
  -27.6312  -13.2619   19.8362 C   0  0  2  0  0  0
  -28.6699  -13.3069   20.9789 C   0  0  0  0  0  0
  -25.2438  -13.8248   20.5695 C   0  0  0  0  0  0
  -24.1781  -13.0455   20.9248 C   0  0  0  0  0  0
  -24.6445  -11.6939   20.8775 C   0  0  0  0  0  0
  -23.9135  -10.4301   21.0412 C   0  0  0  0  0  0
  -24.3670   -9.4211   21.9185 C   0  0  0  0  0  0
  -23.6349   -8.2235   22.0727 C   0  0  0  0  0  0
  -22.4319   -8.0294   21.3526 C   0  0  0  0  0  0
  -21.9978   -9.0276   20.4613 C   0  0  0  0  0  0
  -22.7312  -10.2160   20.3040 C   0  0  0  0  0  0
  -21.6864   -6.0770   22.5291 C   0  0  0  0  0  0
  -21.4018   -6.5658   23.8235 C   0  0  0  0  0  0
  -21.3668   -5.6798   24.9189 C   0  0  0  0  0  0
  -21.6052   -4.3061   24.7221 C   0  0  0  0  0  0
  -21.8804   -3.8167   23.4325 C   0  0  0  0  0  0
  -21.9181   -4.6998   22.3392 C   0  0  0  0  0  0
  -22.7787  -13.5207   21.1888 C   0  0  0  0  0  0
  -22.1644   -4.2186   21.0963 F   0  0  0  0  0  0
  -21.5646   -3.4526   25.7725 F   0  0  0  0  0  0
  -29.9529  -13.7110   20.3866 N   0  0  0  0  0  0
  -26.2907  -12.9506   20.3225 N   0  0  0  0  0  0
  -25.9382  -11.6625   20.5730 N   0  0  0  0  0  0
  -22.0422  -12.8201   22.0447 N   0  0  0  0  0  0
  -25.4100  -15.1962   20.4060 N   0  0  0  0  0  0
  -31.7716  -14.9860   20.1446 O   0  0  0  0  0  0
  -21.6640   -6.8919   21.4255 O   0  0  0  0  0  0
  -22.3454  -14.5513   20.6743 O   0  0  0  0  0  0
  -24.6488  -31.8415   23.1822 C   0  0  0  0  0  0
  -25.9248  -32.4684   23.8227 C   0  0  1  0  0  0
  -27.2084  -27.1128   20.1499 C   0  0  0  0  0  0
  -25.5965  -33.8482   24.2126 N   0  0  0  0  0  0
  -23.4491  -30.4605   21.5305 C   0  0  2  0  0  0
  -24.8909  -28.8787   20.1112 C   0  0  0  0  0  0
  -22.7594  -29.4544   22.4835 C   0  0  0  0  0  0
  -18.0310  -28.1409   22.8457 C   0  0  0  0  0  0
  -24.1486  -36.7257   23.2633 C   0  0  0  0  0  0
  -26.0057  -30.7100   21.3769 C   0  0  0  0  0  0
  -26.0748  -29.3186   20.7215 C   0  0  0  0  0  0
  -27.2350  -28.4541   20.7168 C   0  0  0  0  0  0
  -25.9943  -26.7765   19.5093 C   0  0  0  0  0  0
  -24.8656  -27.6228   19.4890 C   0  0  0  0  0  0
  -23.6716  -29.7860   20.1521 C   0  0  0  0  0  0
  -25.4136  -36.3022   24.0284 C   0  0  1  0  0  0
  -20.5916  -28.3745   23.1201 C   0  0  2  0  0  0
  -20.6789  -26.9446   22.5388 C   0  0  0  0  0  0
  -19.5768  -26.6385   21.5197 C   0  0  0  0  0  0
  -18.1952  -26.7938   22.1616 C   0  0  0  0  0  0
  -19.1563  -28.8888   23.2817 C   0  0  0  0  0  0
  -18.9490  -30.1478   23.8860 C   0  0  0  0  0  0
  -17.6481  -30.6590   24.0560 C   0  0  0  0  0  0
  -25.9106  -34.9405   23.5028 C   0  0  0  0  0  0
  -16.5379  -29.9094   23.6317 C   0  0  0  0  0  0
  -16.7290  -28.6510   23.0347 C   0  0  0  0  0  0
  -26.4540  -31.6569   25.0680 C   0  0  0  0  0  0
  -25.3708  -31.3773   26.1348 C   0  0  0  0  0  0
  -27.0361  -30.2948   24.6276 C   0  0  0  0  0  0
  -27.6037  -32.4365   25.7494 C   0  0  0  0  0  0
  -27.5573  -37.1787   24.8459 C   0  0  0  0  0  0
  -21.4272  -29.3070   22.3591 N   0  0  0  0  0  0
  -26.4278  -37.3757   23.9418 N   0  0  0  0  0  0
  -24.7227  -31.0259   22.0856 N   0  0  0  0  0  0
  -23.4212  -28.8081   23.2989 O   0  0  0  0  0  0
  -28.2568  -26.1182   20.2110 O   0  0  0  0  0  0
  -26.5714  -34.8915   22.4611 O   0  0  0  0  0  0
  -23.5622  -32.1283   23.7066 O   0  0  0  0  0  0
  -31.6382  -19.3714   19.3406 C   0  0  0  0  0  0
  -30.7659  -20.4559   19.5834 C   0  0  0  0  0  0
  -31.3250  -18.0342   19.6815 C   0  0  0  0  0  0
  -29.2091  -18.8513   20.5269 C   0  0  0  0  0  0
  -29.5080  -20.2797   20.1933 C   0  0  0  0  0  0
  -30.0985  -17.6707   20.2879 C   0  0  0  0  0  0
  -29.7644  -23.5141   21.6803 C   0  0  0  0  0  0
  -28.5431  -21.6215   20.3468 C   0  0  0  0  0  0
  -27.9612  -24.5785   20.1302 C   0  0  0  0  0  0
  -29.0104  -23.2625   20.3690 C   0  0  1  0  0  0
  -29.8194  -16.1757   20.5759 N   0  0  0  0  0  0
  -31.4777  -12.7436   19.2153 H   0  0  0  0  0  0
  -30.4132  -11.6536   20.0525 H   0  0  0  0  0  0
  -29.8652  -11.7769   17.5788 H   0  0  0  0  0  0
  -29.6205  -13.5020   17.7199 H   0  0  0  0  0  0
  -27.9563  -11.2954   18.9729 H   0  0  0  0  0  0
  -27.4070  -12.4698   17.8075 H   0  0  0  0  0  0
  -27.5928  -14.2652   19.4109 H   0  0  0  0  0  0
  -28.7524  -12.3395   21.4769 H   0  0  0  0  0  0
  -28.3625  -14.0267   21.7402 H   0  0  0  0  0  0
  -25.2809   -9.5700   22.4776 H   0  0  0  0  0  0
  -24.0063   -7.4622   22.7438 H   0  0  0  0  0  0
  -21.0913   -8.8822   19.8914 H   0  0  0  0  0  0
  -22.3789  -10.9714   19.6144 H   0  0  0  0  0  0
  -21.2010   -7.6172   23.9773 H   0  0  0  0  0  0
  -21.1515   -6.0502   25.9099 H   0  0  0  0  0  0
  -22.0577   -2.7638   23.2801 H   0  0  0  0  0  0
  -22.4028  -11.9919   22.4953 H   0  0  0  0  0  0
  -21.1008  -13.1194   22.2556 H   0  0  0  0  0  0
  -24.6418  -15.8522   20.4989 H   0  0  0  0  0  0
  -26.2587  -15.6294   20.0657 H   0  0  0  0  0  0
  -26.7294  -32.5264   23.0949 H   0  0  0  0  0  0
  -25.0070  -33.9555   25.0245 H   0  0  0  0  0  0
  -22.7569  -31.2890   21.3755 H   0  0  0  0  0  0
  -23.3756  -35.9573   23.3299 H   0  0  0  0  0  0
  -24.3578  -36.8925   22.2048 H   0  0  0  0  0  0
  -23.7226  -37.6438   23.6701 H   0  0  0  0  0  0
  -26.1607  -31.4624   20.6019 H   0  0  0  0  0  0
  -26.8789  -30.7614   22.0170 H   0  0  0  0  0  0
  -28.1404  -28.7904   21.2026 H   0  0  0  0  0  0
  -25.8781  -25.8156   19.0320 H   0  0  0  0  0  0
  -23.9609  -27.2819   19.0021 H   0  0  0  0  0  0
  -23.8077  -30.5558   19.3927 H   0  0  0  0  0  0
  -22.7852  -29.2293   19.8423 H   0  0  0  0  0  0
  -25.1340  -36.1835   25.0774 H   0  0  0  0  0  0
  -21.0013  -28.3354   24.1319 H   0  0  0  0  0  0
  -20.5660  -26.2397   23.3641 H   0  0  0  0  0  0
  -21.6664  -26.7436   22.1220 H   0  0  0  0  0  0
  -19.6956  -25.6283   21.1269 H   0  0  0  0  0  0
  -19.6694  -27.3152   20.6695 H   0  0  0  0  0  0
  -17.4227  -26.6646   21.4022 H   0  0  0  0  0  0
  -18.0376  -26.0074   22.9012 H   0  0  0  0  0  0
  -19.7970  -30.7284   24.2230 H   0  0  0  0  0  0
  -17.5049  -31.6254   24.5205 H   0  0  0  0  0  0
  -15.5386  -30.3013   23.7621 H   0  0  0  0  0  0
  -15.8702  -28.0824   22.7098 H   0  0  0  0  0  0
  -24.5868  -30.7163   25.7652 H   0  0  0  0  0  0
  -24.8896  -32.2937   26.4744 H   0  0  0  0  0  0
  -25.7930  -30.8944   27.0158 H   0  0  0  0  0  0
  -26.2914  -29.6712   24.1293 H   0  0  0  0  0  0
  -27.3943  -29.7244   25.4862 H   0  0  0  0  0  0
  -27.8870  -30.4168   23.9574 H   0  0  0  0  0  0
  -27.2566  -33.3666   26.2023 H   0  0  0  0  0  0
  -28.3849  -32.6955   25.0333 H   0  0  0  0  0  0
  -28.0696  -31.8545   26.5459 H   0  0  0  0  0  0
  -28.2590  -38.0091   24.7538 H   0  0  0  0  0  0
  -28.1067  -36.2624   24.6249 H   0  0  0  0  0  0
  -27.2294  -37.1396   25.8860 H   0  0  0  0  0  0
  -20.9530  -29.8800   21.6763 H   0  0  0  0  0  0
  -26.0144  -38.2820   24.1436 H   0  0  0  0  0  0
  -32.5823  -19.5716   18.8543 H   0  0  0  0  0  0
  -31.0795  -21.4432   19.2681 H   0  0  0  0  0  0
  -32.0608  -17.2865   19.4302 H   0  0  0  0  0  0
  -28.2483  -18.6513   20.9764 H   0  0  0  0  0  0
  -29.9933  -24.5721   21.8240 H   0  0  0  0  0  0
  -30.7095  -22.9725   21.7040 H   0  0  0  0  0  0
  -29.1651  -23.1907   22.5309 H   0  0  0  0  0  0
  -27.9414  -21.4486   21.2407 H   0  0  0  0  0  0
  -27.8271  -21.5268   19.5289 H   0  0  0  0  0  0
  -27.1202  -24.4123   20.8041 H   0  0  0  0  0  0
  -27.5473  -24.4130   19.1351 H   0  0  0  0  0  0
  -29.7408  -23.3633   19.5672 H   0  0  0  0  0  0
  -28.8782  -15.9921   20.8874 H   0  0  0  0  0  0
  1 25  1  0  0  0
  1 30  2  0  0  0
  1 81  1  0  0  0
  2  3  1  0  0  0
  2 25  1  0  0  0
  2 82  1  0  0  0
  2 83  1  0  0  0
  3  4  1  0  0  0
  3 84  1  0  0  0
  3 85  1  0  0  0
  4  5  1  0  0  0
  4 86  1  0  0  0
  4 87  1  0  0  0
  5  6  1  0  0  0
  5 26  1  0  0  0
  5 88  1  0  0  0
  6 25  1  0  0  0
  6 89  1  0  0  0
  6 90  1  0  0  0
  7  8  2  0  0  0
  7 26  1  0  0  0
  7 29  1  0  0  0
  8  9  1  0  0  0
  8 22  1  0  0  0
  9 10  1  0  0  0
  9 27  2  0  0  0
 10 11  2  0  0  0
 10 15  1  0  0  0
 11 12  1  0  0  0
 11 91  1  0  0  0
 12 13  2  0  0  0
 12 92  1  0  0  0
 13 14  1  0  0  0
 13 31  1  0  0  0
 14 15  2  0  0  0
 14 93  1  0  0  0
 15 94  1  0  0  0
 16 17  2  0  0  0
 16 21  1  0  0  0
 16 31  1  0  0  0
 17 18  1  0  0  0
 17 95  1  0  0  0
 18 19  2  0  0  0
 18 96  1  0  0  0
 19 20  1  0  0  0
 19 24  1  0  0  0
 20 21  2  0  0  0
 20 97  1  0  0  0
 21 23  1  0  0  0
 22 28  1  0  0  0
 22 32  2  0  0  0
 26 27  1  0  0  0
 28 98  1  0  0  0
 28 99  1  0  0  0
 29100  1  0  0  0
 29101  1  0  0  0
 33 34  1  0  0  0
 33 66  1  0  0  0
 33 70  2  0  0  0
 34 36  1  0  0  0
 34 59  1  0  0  0
 34102  1  0  0  0
 35 44  2  0  0  0
 35 45  1  0  0  0
 35 68  1  0  0  0
 36 56  1  0  0  0
 36103  1  0  0  0
 37 39  1  0  0  0
 37 47  1  0  0  0
 37 66  1  0  0  0
 37104  1  0  0  0
 38 43  2  0  0  0
 38 46  1  0  0  0
 38 47  1  0  0  0
 39 64  1  0  0  0
 39 67  2  0  0  0
 40 52  1  0  0  0
 40 53  2  0  0  0
 40 58  1  0  0  0
 41105  1  0  0  0
 41106  1  0  0  0
 41107  1  0  0  0
 41 48  1  0  0  0
 42 43  1  0  0  0
 42 66  1  0  0  0
 42108  1  0  0  0
 42109  1  0  0  0
 43 44  1  0  0  0
 44110  1  0  0  0
 45 46  2  0  0  0
 45111  1  0  0  0
 46112  1  0  0  0
 47113  1  0  0  0
 47114  1  0  0  0
 48 56  1  0  0  0
 48 65  1  0  0  0
 48115  1  0  0  0
 49 50  1  0  0  0
 49 53  1  0  0  0
 49 64  1  0  0  0
 49116  1  0  0  0
 50 51  1  0  0  0
 50117  1  0  0  0
 50118  1  0  0  0
 51 52  1  0  0  0
 51119  1  0  0  0
 51120  1  0  0  0
 52121  1  0  0  0
 52122  1  0  0  0
 53 54  1  0  0  0
 54 55  2  0  0  0
 54123  1  0  0  0
 55 57  1  0  0  0
 55124  1  0  0  0
 56 69  2  0  0  0
 57 58  2  0  0  0
 57125  1  0  0  0
 58126  1  0  0  0
 59 60  1  0  0  0
 59 61  1  0  0  0
 59 62  1  0  0  0
 60127  1  0  0  0
 60128  1  0  0  0
 60129  1  0  0  0
 61130  1  0  0  0
 61131  1  0  0  0
 61132  1  0  0  0
 62133  1  0  0  0
 62134  1  0  0  0
 62135  1  0  0  0
 63 65  1  0  0  0
 63136  1  0  0  0
 63137  1  0  0  0
 63138  1  0  0  0
 64139  1  0  0  0
 65140  1  0  0  0
 68 79  1  0  0  0
 71 72  2  0  0  0
 71 73  1  0  0  0
 71141  1  0  0  0
 72 75  1  0  0  0
 72142  1  0  0  0
 73 76  2  0  0  0
 73143  1  0  0  0
 74 75  2  0  0  0
 74 76  1  0  0  0
 74144  1  0  0  0
 75 78  1  0  0  0
 76 81  1  0  0  0
 77145  1  0  0  0
 77146  1  0  0  0
 77147  1  0  0  0
 77 80  1  0  0  0
 78 80  1  0  0  0
 78148  1  0  0  0
 78149  1  0  0  0
 79 80  1  0  0  0
 79150  1  0  0  0
 79151  1  0  0  0
 80152  1  0  0  0
 81153  1  0  0  0
M  ISO  4   1 100  68 101  79 101  81 100
M  END
> <chiral flag>
0

> <version>
0

> <s_m_source_file>
/data/baiqing/PycharmProjects/Reinvent-master-3.2/result/LINK_invent/BTK/process_docking_weight1_custom_product_contain_oxygen_bond_distance_aromatic_linkinvent_7_9_3/rearranged_h_0128.sdf

> <i_m_source_file_index>
14

> <r_mmod_Potential_Energy-OPLS-2005>
536.932556152344

> <r_mmod_Stretch_Energy-OPLS-2005>
285.572021484375

> <r_mmod_Bend_Energy-OPLS-2005>
249.577865600586

> <r_mmod_Torsional_Energy-OPLS-2005>
220.045822143555

> <r_mmod_Improper_Torsional_Energy-OPLS-2005>
3.9338002204895

> <r_mmod_Van_der_Waal_Energy-OPLS-2005>
130.412399291992

> <r_mmod_Electrostatic_Energy-OPLS-2005>
-355.803253173828

> <r_mmod_Solvation_Energy-OPLS-2005>
-203.63493347168

> <b_mmod_Minimization_Converged-OPLS-2005>
0

> <r_mmod_RMS_Derivative-OPLS-2005>
4.23213005065918

$$$$
14
                    3D
 Structure written by MMmdl.
151159  0  0  1  0            999 V2000
  -30.6194  -14.7088   20.4393 C   0  0  0  0  0  0
  -30.4346  -12.4297   19.4677 C   0  0  0  0  0  0
  -29.5175  -12.5252   18.2296 C   0  0  0  0  0  0
  -28.0404  -12.3563   18.6332 C   0  0  0  0  0  0
  -27.6503  -13.2349   19.8522 C   0  0  2  0  0  0
  -28.6940  -13.1399   20.9886 C   0  0  0  0  0  0
  -25.2556  -13.8212   20.5677 C   0  0  0  0  0  0
  -24.1841  -13.0462   20.9190 C   0  0  0  0  0  0
  -24.6439  -11.6936   20.8713 C   0  0  0  0  0  0
  -23.9091  -10.4319   21.0400 C   0  0  0  0  0  0
  -24.3632   -9.4228   21.9176 C   0  0  0  0  0  0
  -23.6305   -8.2265   22.0758 C   0  0  0  0  0  0
  -22.4283   -8.0308   21.3549 C   0  0  0  0  0  0
  -21.9907   -9.0283   20.4647 C   0  0  0  0  0  0
  -22.7260  -10.2155   20.3053 C   0  0  0  0  0  0
  -21.6858   -6.0748   22.5257 C   0  0  0  0  0  0
  -21.4023   -6.5643   23.8198 C   0  0  0  0  0  0
  -21.3667   -5.6786   24.9149 C   0  0  0  0  0  0
  -21.6053   -4.3045   24.7189 C   0  0  0  0  0  0
  -21.8829   -3.8152   23.4300 C   0  0  0  0  0  0
  -21.9209   -4.6978   22.3365 C   0  0  0  0  0  0
  -22.7866  -13.5253   21.1840 C   0  0  0  0  0  0
  -22.1683   -4.2182   21.0932 F   0  0  0  0  0  0
  -21.5622   -3.4518   25.7686 F   0  0  0  0  0  0
  -30.0062  -13.4782   20.4214 N   0  0  0  0  0  0
  -26.2994  -12.9431   20.3264 N   0  0  0  0  0  0
  -25.9362  -11.6567   20.5707 N   0  0  0  0  0  0
  -22.0481  -12.8249   22.0367 N   0  0  0  0  0  0
  -25.4243  -15.1932   20.4060 N   0  0  0  0  0  0
  -31.7884  -14.8242   20.0606 O   0  0  0  0  0  0
  -21.6655   -6.8895   21.4229 O   0  0  0  0  0  0
  -22.3568  -14.5566   20.6685 O   0  0  0  0  0  0
  -24.6304  -31.8602   23.2037 C   0  0  0  0  0  0
  -25.9136  -32.4792   23.8372 C   0  0  1  0  0  0
  -27.2139  -27.2724   20.1146 C   0  0  0  0  0  0
  -25.5939  -33.8586   24.2310 N   0  0  0  0  0  0
  -23.4270  -30.4858   21.5472 C   0  0  2  0  0  0
  -24.8745  -28.9469   20.1029 C   0  0  0  0  0  0
  -22.7519  -29.4617   22.4919 C   0  0  0  0  0  0
  -18.0312  -28.1409   22.8498 C   0  0  0  0  0  0
  -24.1492  -36.7284   23.2642 C   0  0  0  0  0  0
  -25.9746  -30.7744   21.3860 C   0  0  0  0  0  0
  -26.0457  -29.4001   20.7233 C   0  0  0  0  0  0
  -27.2156  -28.5725   20.7274 C   0  0  0  0  0  0
  -26.0259  -26.9122   19.4323 C   0  0  0  0  0  0
  -24.8719  -27.7131   19.4419 C   0  0  0  0  0  0
  -23.6445  -29.8314   20.1581 C   0  0  0  0  0  0
  -25.4112  -36.3091   24.0340 C   0  0  1  0  0  0
  -20.5911  -28.3714   23.1287 C   0  0  2  0  0  0
  -20.6801  -26.9431   22.5422 C   0  0  0  0  0  0
  -19.5754  -26.6398   21.5236 C   0  0  0  0  0  0
  -18.1939  -26.7959   22.1646 C   0  0  0  0  0  0
  -19.1565  -28.8883   23.2885 C   0  0  0  0  0  0
  -18.9468  -30.1488   23.8903 C   0  0  0  0  0  0
  -17.6455  -30.6598   24.0576 C   0  0  0  0  0  0
  -25.9052  -34.9460   23.5129 C   0  0  0  0  0  0
  -16.5358  -29.9095   23.6321 C   0  0  0  0  0  0
  -16.7293  -28.6523   23.0335 C   0  0  0  0  0  0
  -26.4505  -31.6580   25.0733 C   0  0  0  0  0  0
  -25.3723  -31.3707   26.1445 C   0  0  0  0  0  0
  -27.0335  -30.3002   24.6194 C   0  0  0  0  0  0
  -27.6093  -32.4303   25.7476 C   0  0  0  0  0  0
  -27.5587  -37.1803   24.8469 C   0  0  0  0  0  0
  -21.4227  -29.3045   22.3670 N   0  0  0  0  0  0
  -26.4297  -37.3777   23.9420 N   0  0  0  0  0  0
  -24.6966  -31.0580   22.1017 N   0  0  0  0  0  0
  -23.4238  -28.8141   23.2987 O   0  0  0  0  0  0
  -28.2861  -26.3468   20.2042 O   0  0  0  0  0  0
  -26.5612  -34.8922   22.4689 O   0  0  0  0  0  0
  -23.5455  -32.1423   23.7332 O   0  0  0  0  0  0
  -29.6099  -18.4258   20.7684 C   0  0  0  0  0  0
  -29.7136  -19.6741   18.6836 C   0  0  0  0  0  0
  -30.0519  -17.2381   18.6961 C   0  0  0  0  0  0
  -29.5418  -19.7138   20.0845 C   0  0  0  0  0  0
  -29.8747  -17.1642   20.0952 C   0  0  0  0  0  0
  -29.9703  -18.4652   18.0048 C   0  0  0  0  0  0
  -28.7713  -22.3797   20.0804 C   0  0  0  0  0  0
  -28.7552  -23.6906   20.5405 C   0  0  0  0  0  0
  -29.3002  -21.0956   20.7579 C   0  0  0  0  0  0
  -28.0065  -24.9088   19.8640 C   0  0  0  0  0  0
  -29.5453  -21.1950   21.9944 N   0  0  0  0  0  0
  -29.8624  -15.8277   20.7385 N   0  0  0  0  0  0
  -30.1354  -18.4820   16.6606 F   0  0  0  0  0  0
  -31.4793  -12.5387   19.1710 H   0  0  0  0  0  0
  -30.3592  -11.4452   19.9310 H   0  0  0  0  0  0
  -29.7903  -11.7682   17.4932 H   0  0  0  0  0  0
  -29.6552  -13.4928   17.7433 H   0  0  0  0  0  0
  -27.8761  -11.3034   18.8635 H   0  0  0  0  0  0
  -27.3991  -12.5856   17.7826 H   0  0  0  0  0  0
  -27.6518  -14.2641   19.4900 H   0  0  0  0  0  0
  -28.7158  -12.1327   21.4066 H   0  0  0  0  0  0
  -28.4345  -13.8078   21.8104 H   0  0  0  0  0  0
  -25.2782   -9.5705   22.4744 H   0  0  0  0  0  0
  -24.0018   -7.4655   22.7483 H   0  0  0  0  0  0
  -21.0835   -8.8835   19.8931 H   0  0  0  0  0  0
  -22.3751  -10.9700   19.6161 H   0  0  0  0  0  0
  -21.2012   -7.6149   23.9709 H   0  0  0  0  0  0
  -21.1486   -6.0499   25.9058 H   0  0  0  0  0  0
  -22.0599   -2.7618   23.2785 H   0  0  0  0  0  0
  -22.4061  -11.9933   22.4801 H   0  0  0  0  0  0
  -21.1115  -13.1338   22.2541 H   0  0  0  0  0  0
  -24.6546  -15.8464   20.5009 H   0  0  0  0  0  0
  -26.2628  -15.6203   20.0322 H   0  0  0  0  0  0
  -26.7211  -32.5465   23.1123 H   0  0  0  0  0  0
  -25.0080  -33.9731   25.0458 H   0  0  0  0  0  0
  -22.7223  -31.3087   21.4085 H   0  0  0  0  0  0
  -23.3770  -35.9599   23.3301 H   0  0  0  0  0  0
  -24.3587  -36.8904   22.2057 H   0  0  0  0  0  0
  -23.7232  -37.6482   23.6663 H   0  0  0  0  0  0
  -26.1156  -31.5380   20.6198 H   0  0  0  0  0  0
  -26.8524  -30.8227   22.0181 H   0  0  0  0  0  0
  -28.1050  -28.9095   21.2422 H   0  0  0  0  0  0
  -25.9462  -25.9870   18.8827 H   0  0  0  0  0  0
  -23.9847  -27.3762   18.9249 H   0  0  0  0  0  0
  -23.7660  -30.6141   19.4072 H   0  0  0  0  0  0
  -22.7627  -29.2656   19.8515 H   0  0  0  0  0  0
  -25.1276  -36.1955   25.0827 H   0  0  0  0  0  0
  -21.0001  -28.3302   24.1406 H   0  0  0  0  0  0
  -20.5730  -26.2311   23.3624 H   0  0  0  0  0  0
  -21.6671  -26.7482   22.1196 H   0  0  0  0  0  0
  -19.6903  -25.6307   21.1261 H   0  0  0  0  0  0
  -19.6665  -27.3209   20.6761 H   0  0  0  0  0  0
  -17.4201  -26.6731   21.4053 H   0  0  0  0  0  0
  -18.0303  -26.0113   22.9045 H   0  0  0  0  0  0
  -19.7925  -30.7332   24.2268 H   0  0  0  0  0  0
  -17.4990  -31.6269   24.5197 H   0  0  0  0  0  0
  -15.5355  -30.2987   23.7637 H   0  0  0  0  0  0
  -15.8701  -28.0845   22.7013 H   0  0  0  0  0  0
  -24.5904  -30.7060   25.7752 H   0  0  0  0  0  0
  -24.8889  -32.2847   26.4900 H   0  0  0  0  0  0
  -25.8021  -30.8853   27.0213 H   0  0  0  0  0  0
  -26.2893  -29.6761   24.1236 H   0  0  0  0  0  0
  -27.4040  -29.7262   25.4698 H   0  0  0  0  0  0
  -27.8766  -30.4288   23.9407 H   0  0  0  0  0  0
  -27.2760  -33.3639   26.2023 H   0  0  0  0  0  0
  -28.3890  -32.6807   25.0265 H   0  0  0  0  0  0
  -28.0765  -31.8430   26.5397 H   0  0  0  0  0  0
  -28.2612  -38.0100   24.7531 H   0  0  0  0  0  0
  -28.1086  -36.2638   24.6270 H   0  0  0  0  0  0
  -27.2319  -37.1425   25.8878 H   0  0  0  0  0  0
  -20.9427  -29.8765   21.6868 H   0  0  0  0  0  0
  -26.0186  -38.2861   24.1398 H   0  0  0  0  0  0
  -29.4487  -18.4074   21.8357 H   0  0  0  0  0  0
  -29.6812  -20.5850   18.1033 H   0  0  0  0  0  0
  -30.2274  -16.3426   18.1162 H   0  0  0  0  0  0
  -28.3070  -22.1834   19.1252 H   0  0  0  0  0  0
  -29.2263  -23.9086   21.4891 H   0  0  0  0  0  0
  -26.9849  -24.6845   20.1698 H   0  0  0  0  0  0
  -28.0389  -24.7869   18.7809 H   0  0  0  0  0  0
  -29.8953  -20.3214   22.3699 H   0  0  0  0  0  0
  -29.0358  -15.6245   21.2838 H   0  0  0  0  0  0
  1 25  1  0  0  0
  1 30  2  0  0  0
  1 82  1  0  0  0
  2  3  1  0  0  0
  2 25  1  0  0  0
  2 84  1  0  0  0
  2 85  1  0  0  0
  3  4  1  0  0  0
  3 86  1  0  0  0
  3 87  1  0  0  0
  4  5  1  0  0  0
  4 88  1  0  0  0
  4 89  1  0  0  0
  5  6  1  0  0  0
  5 26  1  0  0  0
  5 90  1  0  0  0
  6 25  1  0  0  0
  6 91  1  0  0  0
  6 92  1  0  0  0
  7  8  2  0  0  0
  7 26  1  0  0  0
  7 29  1  0  0  0
  8  9  1  0  0  0
  8 22  1  0  0  0
  9 10  1  0  0  0
  9 27  2  0  0  0
 10 11  2  0  0  0
 10 15  1  0  0  0
 11 12  1  0  0  0
 11 93  1  0  0  0
 12 13  2  0  0  0
 12 94  1  0  0  0
 13 14  1  0  0  0
 13 31  1  0  0  0
 14 15  2  0  0  0
 14 95  1  0  0  0
 15 96  1  0  0  0
 16 17  2  0  0  0
 16 21  1  0  0  0
 16 31  1  0  0  0
 17 18  1  0  0  0
 17 97  1  0  0  0
 18 19  2  0  0  0
 18 98  1  0  0  0
 19 20  1  0  0  0
 19 24  1  0  0  0
 20 21  2  0  0  0
 20 99  1  0  0  0
 21 23  1  0  0  0
 22 28  1  0  0  0
 22 32  2  0  0  0
 26 27  1  0  0  0
 28100  1  0  0  0
 28101  1  0  0  0
 29102  1  0  0  0
 29103  1  0  0  0
 33 34  1  0  0  0
 33 66  1  0  0  0
 33 70  2  0  0  0
 34 36  1  0  0  0
 34 59  1  0  0  0
 34104  1  0  0  0
 35 44  2  0  0  0
 35 45  1  0  0  0
 35 68  1  0  0  0
 36 56  1  0  0  0
 36105  1  0  0  0
 37 39  1  0  0  0
 37 47  1  0  0  0
 37 66  1  0  0  0
 37106  1  0  0  0
 38 43  2  0  0  0
 38 46  1  0  0  0
 38 47  1  0  0  0
 39 64  1  0  0  0
 39 67  2  0  0  0
 40 52  1  0  0  0
 40 53  2  0  0  0
 40 58  1  0  0  0
 41107  1  0  0  0
 41108  1  0  0  0
 41109  1  0  0  0
 41 48  1  0  0  0
 42 43  1  0  0  0
 42 66  1  0  0  0
 42110  1  0  0  0
 42111  1  0  0  0
 43 44  1  0  0  0
 44112  1  0  0  0
 45 46  2  0  0  0
 45113  1  0  0  0
 46114  1  0  0  0
 47115  1  0  0  0
 47116  1  0  0  0
 48 56  1  0  0  0
 48 65  1  0  0  0
 48117  1  0  0  0
 49 50  1  0  0  0
 49 53  1  0  0  0
 49 64  1  0  0  0
 49118  1  0  0  0
 50 51  1  0  0  0
 50119  1  0  0  0
 50120  1  0  0  0
 51 52  1  0  0  0
 51121  1  0  0  0
 51122  1  0  0  0
 52123  1  0  0  0
 52124  1  0  0  0
 53 54  1  0  0  0
 54 55  2  0  0  0
 54125  1  0  0  0
 55 57  1  0  0  0
 55126  1  0  0  0
 56 69  2  0  0  0
 57 58  2  0  0  0
 57127  1  0  0  0
 58128  1  0  0  0
 59 60  1  0  0  0
 59 61  1  0  0  0
 59 62  1  0  0  0
 60129  1  0  0  0
 60130  1  0  0  0
 60131  1  0  0  0
 61132  1  0  0  0
 61133  1  0  0  0
 61134  1  0  0  0
 62135  1  0  0  0
 62136  1  0  0  0
 62137  1  0  0  0
 63 65  1  0  0  0
 63138  1  0  0  0
 63139  1  0  0  0
 63140  1  0  0  0
 64141  1  0  0  0
 65142  1  0  0  0
 68 80  1  0  0  0
 71 74  2  0  0  0
 71 75  1  0  0  0
 71143  1  0  0  0
 72 74  1  0  0  0
 72 76  2  0  0  0
 72144  1  0  0  0
 73 75  2  0  0  0
 73 76  1  0  0  0
 73145  1  0  0  0
 74 79  1  0  0  0
 75 82  1  0  0  0
 76 83  1  0  0  0
 77 78  2  0  0  0
 77 79  1  0  0  0
 77146  1  0  0  0
 78 80  1  0  0  0
 78147  1  0  0  0
 79 81  2  0  0  0
 80148  1  0  0  0
 80149  1  0  0  0
 81150  1  0  0  0
 82151  1  0  0  0
M  ISO  4   1 100  68 101  80 101  82 100
M  END
> <chiral flag>
0

> <version>
0

> <s_m_source_file>
/data/baiqing/PycharmProjects/Reinvent-master-3.2/result/LINK_invent/BTK/process_docking_weight1_custom_product_contain_oxygen_bond_distance_aromatic_linkinvent_7_9_3/rearranged_h_0128.sdf

> <i_m_source_file_index>
15

> <r_mmod_Potential_Energy-OPLS-2005>
125.934143066406

> <r_mmod_Stretch_Energy-OPLS-2005>
115.055778503418

> <r_mmod_Bend_Energy-OPLS-2005>
148.956848144531

> <r_mmod_Torsional_Energy-OPLS-2005>
255.436553955078

> <r_mmod_Improper_Torsional_Energy-OPLS-2005>
6.0673189163208

> <r_mmod_Van_der_Waal_Energy-OPLS-2005>
148.252029418945

> <r_mmod_Electrostatic_Energy-OPLS-2005>
-401.988555908203

> <r_mmod_Solvation_Energy-OPLS-2005>
-224.715972900391

> <b_mmod_Minimization_Converged-OPLS-2005>
0

> <r_mmod_RMS_Derivative-OPLS-2005>
3.30055999755859

$$$$
15
                    3D
 Structure written by MMmdl.
146154  0  0  1  0            999 V2000
  -30.5141  -14.9322   20.4273 C   0  0  0  0  0  0
  -30.4482  -12.5704   19.5015 C   0  0  0  0  0  0
  -29.5290  -12.5289   18.2569 C   0  0  0  0  0  0
  -28.0598  -12.3142   18.6696 C   0  0  0  0  0  0
  -27.6342  -13.2398   19.8386 C   0  0  2  0  0  0
  -28.6736  -13.2418   20.9808 C   0  0  0  0  0  0
  -25.2495  -13.8196   20.5688 C   0  0  0  0  0  0
  -24.1801  -13.0438   20.9231 C   0  0  0  0  0  0
  -24.6402  -11.6920   20.8742 C   0  0  0  0  0  0
  -23.9084  -10.4292   21.0410 C   0  0  0  0  0  0
  -24.3632   -9.4206   21.9191 C   0  0  0  0  0  0
  -23.6299   -8.2243   22.0759 C   0  0  0  0  0  0
  -22.4279   -8.0285   21.3550 C   0  0  0  0  0  0
  -21.9925   -9.0259   20.4650 C   0  0  0  0  0  0
  -22.7259  -10.2134   20.3057 C   0  0  0  0  0  0
  -21.6856   -6.0740   22.5290 C   0  0  0  0  0  0
  -21.4012   -6.5643   23.8224 C   0  0  0  0  0  0
  -21.3658   -5.6796   24.9185 C   0  0  0  0  0  0
  -21.6046   -4.3059   24.7235 C   0  0  0  0  0  0
  -21.8814   -3.8152   23.4356 C   0  0  0  0  0  0
  -21.9191   -4.6967   22.3412 C   0  0  0  0  0  0
  -22.7821  -13.5217   21.1880 C   0  0  0  0  0  0
  -22.1661   -4.2152   21.0990 F   0  0  0  0  0  0
  -21.5626   -3.4544   25.7749 F   0  0  0  0  0  0
  -29.9577  -13.6543   20.3982 N   0  0  0  0  0  0
  -26.2903  -12.9407   20.3203 N   0  0  0  0  0  0
  -25.9326  -11.6552   20.5714 N   0  0  0  0  0  0
  -22.0463  -12.8205   22.0427 N   0  0  0  0  0  0
  -25.4172  -15.1925   20.4085 N   0  0  0  0  0  0
  -31.7082  -15.0383   20.1213 O   0  0  0  0  0  0
  -21.6639   -6.8883   21.4250 O   0  0  0  0  0  0
  -22.3518  -14.5531   20.6735 O   0  0  0  0  0  0
  -24.6439  -31.8453   23.1893 C   0  0  0  0  0  0
  -25.9209  -32.4711   23.8286 C   0  0  1  0  0  0
  -27.2125  -27.1368   20.1474 C   0  0  0  0  0  0
  -25.5968  -33.8511   24.2219 N   0  0  0  0  0  0
  -23.4467  -30.4660   21.5337 C   0  0  2  0  0  0
  -24.8960  -28.8950   20.1093 C   0  0  0  0  0  0
  -22.7578  -29.4544   22.4844 C   0  0  0  0  0  0
  -18.0310  -28.1406   22.8490 C   0  0  0  0  0  0
  -24.1485  -36.7255   23.2630 C   0  0  0  0  0  0
  -26.0028  -30.7197   21.3865 C   0  0  0  0  0  0
  -26.0739  -29.3310   20.7287 C   0  0  0  0  0  0
  -27.2349  -28.4691   20.7276 C   0  0  0  0  0  0
  -26.0066  -26.8035   19.4916 C   0  0  0  0  0  0
  -24.8763  -27.6475   19.4712 C   0  0  0  0  0  0
  -23.6743  -29.7989   20.1514 C   0  0  0  0  0  0
  -25.4122  -36.3037   24.0308 C   0  0  1  0  0  0
  -20.5921  -28.3726   23.1251 C   0  0  2  0  0  0
  -20.6784  -26.9435   22.5401 C   0  0  0  0  0  0
  -19.5756  -26.6405   21.5204 C   0  0  0  0  0  0
  -18.1945  -26.7947   22.1631 C   0  0  0  0  0  0
  -19.1563  -28.8888   23.2864 C   0  0  0  0  0  0
  -18.9470  -30.1489   23.8890 C   0  0  0  0  0  0
  -17.6465  -30.6594   24.0578 C   0  0  0  0  0  0
  -25.9074  -34.9412   23.5069 C   0  0  0  0  0  0
  -16.5360  -29.9097   23.6333 C   0  0  0  0  0  0
  -16.7293  -28.6516   23.0363 C   0  0  0  0  0  0
  -26.4524  -31.6559   25.0711 C   0  0  0  0  0  0
  -25.3711  -31.3737   26.1409 C   0  0  0  0  0  0
  -27.0367  -30.2958   24.6263 C   0  0  0  0  0  0
  -27.6071  -32.4301   25.7497 C   0  0  0  0  0  0
  -27.5579  -37.1785   24.8464 C   0  0  0  0  0  0
  -21.4256  -29.3054   22.3625 N   0  0  0  0  0  0
  -26.4286  -37.3762   23.9408 N   0  0  0  0  0  0
  -24.7174  -31.0324   22.0920 N   0  0  0  0  0  0
  -23.4230  -28.8089   23.2983 O   0  0  0  0  0  0
  -28.2610  -26.1463   20.2149 O   0  0  0  0  0  0
  -26.5645  -34.8907   22.4640 O   0  0  0  0  0  0
  -23.5557  -32.1321   23.7120 O   0  0  0  0  0  0
  -30.4244  -19.7963   20.0444 C   0  0  0  0  0  0
  -29.1341  -20.2388   20.3398 C   0  0  0  0  0  0
  -29.6818  -17.5708   20.5013 C   0  0  0  0  0  0
  -28.3723  -21.6949   20.2303 C   0  0  0  0  0  0
  -28.9396  -23.2773   20.3252 C   0  0  0  0  0  0
  -27.9490  -24.6246   20.0848 C   0  0  0  0  0  0
  -30.7091  -18.3737   20.1355 N   0  0  0  0  0  0
  -29.6607  -16.0453   20.6397 N   0  0  0  0  0  0
  -28.2656  -18.7008   20.7808 S   0  0  0  0  0  0
  -31.4833  -12.7326   19.1975 H   0  0  0  0  0  0
  -30.4386  -11.6112   20.0212 H   0  0  0  0  0  0
  -29.8478  -11.7371   17.5774 H   0  0  0  0  0  0
  -29.6214  -13.4636   17.7024 H   0  0  0  0  0  0
  -27.9560  -11.2718   18.9719 H   0  0  0  0  0  0
  -27.3992  -12.4498   17.8126 H   0  0  0  0  0  0
  -27.6041  -14.2449   19.4183 H   0  0  0  0  0  0
  -28.7515  -12.2561   21.4424 H   0  0  0  0  0  0
  -28.3711  -13.9264   21.7755 H   0  0  0  0  0  0
  -25.2775   -9.5679   22.4772 H   0  0  0  0  0  0
  -24.0009   -7.4631   22.7475 H   0  0  0  0  0  0
  -21.0861   -8.8781   19.8950 H   0  0  0  0  0  0
  -22.3728  -10.9672   19.6163 H   0  0  0  0  0  0
  -21.2004   -7.6153   23.9732 H   0  0  0  0  0  0
  -21.1485   -6.0526   25.9090 H   0  0  0  0  0  0
  -22.0591   -2.7614   23.2863 H   0  0  0  0  0  0
  -22.4071  -11.9857   22.4806 H   0  0  0  0  0  0
  -21.1077  -13.1219   22.2612 H   0  0  0  0  0  0
  -24.6401  -15.8374   20.5062 H   0  0  0  0  0  0
  -26.2395  -15.6264   20.0109 H   0  0  0  0  0  0
  -26.7262  -32.5309   23.1001 H   0  0  0  0  0  0
  -25.0098  -33.9624   25.0353 H   0  0  0  0  0  0
  -22.7456  -31.2891   21.3808 H   0  0  0  0  0  0
  -23.3750  -35.9583   23.3287 H   0  0  0  0  0  0
  -24.3566  -36.8897   22.2045 H   0  0  0  0  0  0
  -23.7247  -37.6451   23.6678 H   0  0  0  0  0  0
  -26.1541  -31.4721   20.6113 H   0  0  0  0  0  0
  -26.8752  -30.7742   22.0264 H   0  0  0  0  0  0
  -28.1324  -28.7981   21.2314 H   0  0  0  0  0  0
  -25.8954  -25.8504   18.9979 H   0  0  0  0  0  0
  -23.9791  -27.3124   18.9686 H   0  0  0  0  0  0
  -23.8136  -30.5749   19.3978 H   0  0  0  0  0  0
  -22.7893  -29.2438   19.8387 H   0  0  0  0  0  0
  -25.1315  -36.1855   25.0802 H   0  0  0  0  0  0
  -21.0013  -28.3299   24.1373 H   0  0  0  0  0  0
  -20.5669  -26.2335   23.3616 H   0  0  0  0  0  0
  -21.6651  -26.7433   22.1198 H   0  0  0  0  0  0
  -19.6904  -25.6313   21.1244 H   0  0  0  0  0  0
  -19.6689  -27.3196   20.6719 H   0  0  0  0  0  0
  -17.4211  -26.6697   21.4040 H   0  0  0  0  0  0
  -18.0353  -26.0093   22.9027 H   0  0  0  0  0  0
  -19.7940  -30.7320   24.2245 H   0  0  0  0  0  0
  -17.5009  -31.6268   24.5194 H   0  0  0  0  0  0
  -15.5363  -30.3002   23.7649 H   0  0  0  0  0  0
  -15.8690  -28.0832   22.7083 H   0  0  0  0  0  0
  -24.5931  -30.7032   25.7746 H   0  0  0  0  0  0
  -24.8828  -32.2899   26.4743 H   0  0  0  0  0  0
  -25.8008  -30.9001   27.0242 H   0  0  0  0  0  0
  -26.2960  -29.6710   24.1261 H   0  0  0  0  0  0
  -27.3963  -29.7245   25.4827 H   0  0  0  0  0  0
  -27.8893  -30.4194   23.9580 H   0  0  0  0  0  0
  -27.2695  -33.3631   26.2027 H   0  0  0  0  0  0
  -28.3934  -32.6804   25.0360 H   0  0  0  0  0  0
  -28.0680  -31.8432   26.5456 H   0  0  0  0  0  0
  -28.2589  -38.0086   24.7536 H   0  0  0  0  0  0
  -28.1090  -36.2629   24.6275 H   0  0  0  0  0  0
  -27.2296  -37.1409   25.8864 H   0  0  0  0  0  0
  -20.9457  -29.8796   21.6826 H   0  0  0  0  0  0
  -26.0144  -38.2822   24.1441 H   0  0  0  0  0  0
  -31.2301  -20.4349   19.7113 H   0  0  0  0  0  0
  -27.5748  -21.6579   20.9732 H   0  0  0  0  0  0
  -27.8289  -21.6580   19.2859 H   0  0  0  0  0  0
  -29.7552  -23.3628   19.6077 H   0  0  0  0  0  0
  -29.4097  -23.3939   21.3013 H   0  0  0  0  0  0
  -27.5762  -24.4970   19.0685 H   0  0  0  0  0  0
  -27.0834  -24.4612   20.7268 H   0  0  0  0  0  0
  -28.7457  -15.7170   20.9036 H   0  0  0  0  0  0
  1 25  1  0  0  0
  1 30  2  0  0  0
  1 78  1  0  0  0
  2  3  1  0  0  0
  2 25  1  0  0  0
  2 80  1  0  0  0
  2 81  1  0  0  0
  3  4  1  0  0  0
  3 82  1  0  0  0
  3 83  1  0  0  0
  4  5  1  0  0  0
  4 84  1  0  0  0
  4 85  1  0  0  0
  5  6  1  0  0  0
  5 26  1  0  0  0
  5 86  1  0  0  0
  6 25  1  0  0  0
  6 87  1  0  0  0
  6 88  1  0  0  0
  7  8  2  0  0  0
  7 26  1  0  0  0
  7 29  1  0  0  0
  8  9  1  0  0  0
  8 22  1  0  0  0
  9 10  1  0  0  0
  9 27  2  0  0  0
 10 11  2  0  0  0
 10 15  1  0  0  0
 11 12  1  0  0  0
 11 89  1  0  0  0
 12 13  2  0  0  0
 12 90  1  0  0  0
 13 14  1  0  0  0
 13 31  1  0  0  0
 14 15  2  0  0  0
 14 91  1  0  0  0
 15 92  1  0  0  0
 16 17  2  0  0  0
 16 21  1  0  0  0
 16 31  1  0  0  0
 17 18  1  0  0  0
 17 93  1  0  0  0
 18 19  2  0  0  0
 18 94  1  0  0  0
 19 20  1  0  0  0
 19 24  1  0  0  0
 20 21  2  0  0  0
 20 95  1  0  0  0
 21 23  1  0  0  0
 22 28  1  0  0  0
 22 32  2  0  0  0
 26 27  1  0  0  0
 28 96  1  0  0  0
 28 97  1  0  0  0
 29 98  1  0  0  0
 29 99  1  0  0  0
 33 34  1  0  0  0
 33 66  1  0  0  0
 33 70  2  0  0  0
 34 36  1  0  0  0
 34 59  1  0  0  0
 34100  1  0  0  0
 35 44  2  0  0  0
 35 45  1  0  0  0
 35 68  1  0  0  0
 36 56  1  0  0  0
 36101  1  0  0  0
 37 39  1  0  0  0
 37 47  1  0  0  0
 37 66  1  0  0  0
 37102  1  0  0  0
 38 43  2  0  0  0
 38 46  1  0  0  0
 38 47  1  0  0  0
 39 64  1  0  0  0
 39 67  2  0  0  0
 40 52  1  0  0  0
 40 53  2  0  0  0
 40 58  1  0  0  0
 41103  1  0  0  0
 41104  1  0  0  0
 41105  1  0  0  0
 41 48  1  0  0  0
 42 43  1  0  0  0
 42 66  1  0  0  0
 42106  1  0  0  0
 42107  1  0  0  0
 43 44  1  0  0  0
 44108  1  0  0  0
 45 46  2  0  0  0
 45109  1  0  0  0
 46110  1  0  0  0
 47111  1  0  0  0
 47112  1  0  0  0
 48 56  1  0  0  0
 48 65  1  0  0  0
 48113  1  0  0  0
 49 50  1  0  0  0
 49 53  1  0  0  0
 49 64  1  0  0  0
 49114  1  0  0  0
 50 51  1  0  0  0
 50115  1  0  0  0
 50116  1  0  0  0
 51 52  1  0  0  0
 51117  1  0  0  0
 51118  1  0  0  0
 52119  1  0  0  0
 52120  1  0  0  0
 53 54  1  0  0  0
 54 55  2  0  0  0
 54121  1  0  0  0
 55 57  1  0  0  0
 55122  1  0  0  0
 56 69  2  0  0  0
 57 58  2  0  0  0
 57123  1  0  0  0
 58124  1  0  0  0
 59 60  1  0  0  0
 59 61  1  0  0  0
 59 62  1  0  0  0
 60125  1  0  0  0
 60126  1  0  0  0
 60127  1  0  0  0
 61128  1  0  0  0
 61129  1  0  0  0
 61130  1  0  0  0
 62131  1  0  0  0
 62132  1  0  0  0
 62133  1  0  0  0
 63 65  1  0  0  0
 63134  1  0  0  0
 63135  1  0  0  0
 63136  1  0  0  0
 64137  1  0  0  0
 65138  1  0  0  0
 68 76  1  0  0  0
 71 72  2  0  0  0
 71 77  1  0  0  0
 71139  1  0  0  0
 72 74  1  0  0  0
 72 79  1  0  0  0
 73 77  2  0  0  0
 73 78  1  0  0  0
 73 79  1  0  0  0
 74 75  1  0  0  0
 74140  1  0  0  0
 74141  1  0  0  0
 75 76  1  0  0  0
 75142  1  0  0  0
 75143  1  0  0  0
 76144  1  0  0  0
 76145  1  0  0  0
 78146  1  0  0  0
M  ISO  4   1 100  68 101  76 101  78 100
M  END
> <chiral flag>
0

> <version>
0

> <s_m_source_file>
/data/baiqing/PycharmProjects/Reinvent-master-3.2/result/LINK_invent/BTK/process_docking_weight1_custom_product_contain_oxygen_bond_distance_aromatic_linkinvent_7_9_3/rearranged_h_0128.sdf

> <i_m_source_file_index>
16

> <r_mmod_Potential_Energy-OPLS-2005>
409.980529785156

> <r_mmod_Stretch_Energy-OPLS-2005>
236.525390625

> <r_mmod_Bend_Energy-OPLS-2005>
268.309722900391

> <r_mmod_Torsional_Energy-OPLS-2005>
200.646224975586

> <r_mmod_Improper_Torsional_Energy-OPLS-2005>
4.25243043899536

> <r_mmod_Van_der_Waal_Energy-OPLS-2005>
111.693878173828

> <r_mmod_Electrostatic_Energy-OPLS-2005>
-369.490631103516

> <r_mmod_Solvation_Energy-OPLS-2005>
-228.774230957031

> <b_mmod_Minimization_Converged-OPLS-2005>
0

> <r_mmod_RMS_Derivative-OPLS-2005>
1.97140729427338

$$$$
16
                    3D
 Structure written by MMmdl.
157165  0  0  1  0            999 V2000
  -30.7387  -14.4139   20.6246 C   0  0  0  0  0  0
  -30.4149  -12.2914   19.4092 C   0  0  0  0  0  0
  -29.4867  -12.5105   18.1988 C   0  0  0  0  0  0
  -28.0095  -12.3719   18.6140 C   0  0  0  0  0  0
  -27.6625  -13.2044   19.8771 C   0  0  2  0  0  0
  -28.7022  -12.9671   20.9952 C   0  0  0  0  0  0
  -25.2590  -13.8163   20.5676 C   0  0  0  0  0  0
  -24.1838  -13.0442   20.9172 C   0  0  0  0  0  0
  -24.6389  -11.6907   20.8735 C   0  0  0  0  0  0
  -23.9057  -10.4294   21.0406 C   0  0  0  0  0  0
  -24.3611   -9.4210   21.9184 C   0  0  0  0  0  0
  -23.6289   -8.2244   22.0755 C   0  0  0  0  0  0
  -22.4271   -8.0281   21.3545 C   0  0  0  0  0  0
  -21.9905   -9.0254   20.4646 C   0  0  0  0  0  0
  -22.7231  -10.2134   20.3055 C   0  0  0  0  0  0
  -21.6852   -6.0735   22.5280 C   0  0  0  0  0  0
  -21.4012   -6.5639   23.8212 C   0  0  0  0  0  0
  -21.3659   -5.6794   24.9174 C   0  0  0  0  0  0
  -21.6045   -4.3056   24.7226 C   0  0  0  0  0  0
  -21.8820   -3.8148   23.4347 C   0  0  0  0  0  0
  -21.9191   -4.6963   22.3403 C   0  0  0  0  0  0
  -22.7862  -13.5242   21.1840 C   0  0  0  0  0  0
  -22.1661   -4.2150   21.0981 F   0  0  0  0  0  0
  -21.5630   -3.4541   25.7738 F   0  0  0  0  0  0
  -30.0375  -13.2631   20.4468 N   0  0  0  0  0  0
  -26.3025  -12.9328   20.3372 N   0  0  0  0  0  0
  -25.9314  -11.6489   20.5765 N   0  0  0  0  0  0
  -22.0501  -12.8233   22.0396 N   0  0  0  0  0  0
  -25.4327  -15.1879   20.4083 N   0  0  0  0  0  0
  -31.8281  -14.6185   20.0791 O   0  0  0  0  0  0
  -21.6638   -6.8877   21.4240 O   0  0  0  0  0  0
  -22.3549  -14.5550   20.6693 O   0  0  0  0  0  0
  -24.6100  -31.8701   23.2119 C   0  0  0  0  0  0
  -25.9013  -32.4831   23.8405 C   0  0  1  0  0  0
  -27.2444  -27.4650   20.1034 C   0  0  0  0  0  0
  -25.5891  -33.8628   24.2346 N   0  0  0  0  0  0
  -23.3966  -30.4916   21.5507 C   0  0  2  0  0  0
  -24.8469  -28.9581   20.1172 C   0  0  0  0  0  0
  -22.7386  -29.4663   22.5008 C   0  0  0  0  0  0
  -18.0267  -28.1368   22.8499 C   0  0  0  0  0  0
  -24.1487  -36.7317   23.2639 C   0  0  0  0  0  0
  -25.9195  -30.8466   21.3590 C   0  0  0  0  0  0
  -26.0003  -29.4799   20.7154 C   0  0  0  0  0  0
  -27.2011  -28.7412   20.7101 C   0  0  0  0  0  0
  -26.0817  -26.9565   19.4915 C   0  0  0  0  0  0
  -24.8800  -27.6925   19.5036 C   0  0  0  0  0  0
  -23.6046  -29.8189   20.1661 C   0  0  0  0  0  0
  -25.4106  -36.3116   24.0343 C   0  0  1  0  0  0
  -20.5853  -28.3648   23.1336 C   0  0  2  0  0  0
  -20.6759  -26.9390   22.5423 C   0  0  0  0  0  0
  -19.5739  -26.6382   21.5215 C   0  0  0  0  0  0
  -18.1915  -26.7917   22.1625 C   0  0  0  0  0  0
  -19.1515  -28.8825   23.2914 C   0  0  0  0  0  0
  -18.9446  -30.1433   23.8919 C   0  0  0  0  0  0
  -17.6450  -30.6579   24.0564 C   0  0  0  0  0  0
  -25.9029  -34.9480   23.5142 C   0  0  0  0  0  0
  -16.5341  -29.9083   23.6324 C   0  0  0  0  0  0
  -16.7258  -28.6498   23.0351 C   0  0  0  0  0  0
  -26.4465  -31.6593   25.0710 C   0  0  0  0  0  0
  -25.3749  -31.3679   26.1470 C   0  0  0  0  0  0
  -27.0297  -30.3048   24.6039 C   0  0  0  0  0  0
  -27.6047  -32.4305   25.7470 C   0  0  0  0  0  0
  -27.5581  -37.1812   24.8467 C   0  0  0  0  0  0
  -21.4120  -29.3018   22.3745 N   0  0  0  0  0  0
  -26.4297  -37.3794   23.9408 N   0  0  0  0  0  0
  -24.6599  -31.0835   22.0998 N   0  0  0  0  0  0
  -23.4173  -28.8216   23.3047 O   0  0  0  0  0  0
  -28.3911  -26.7068   20.0496 O   0  0  0  0  0  0
  -26.5584  -34.8926   22.4696 O   0  0  0  0  0  0
  -23.5306  -32.1436   23.7540 O   0  0  0  0  0  0
  -32.4332  -18.1401   22.3736 C   0  0  0  0  0  0
  -31.5623  -19.2424   22.3103 C   0  0  0  0  0  0
  -31.9671  -16.8521   22.0609 C   0  0  0  0  0  0
  -29.7471  -17.7686   21.6355 C   0  0  0  0  0  0
  -30.2070  -19.0735   21.9412 C   0  0  0  0  0  0
  -30.6225  -16.6566   21.6720 C   0  0  0  0  0  0
  -29.2655  -20.2156   21.8916 C   0  0  0  0  0  0
  -29.5420  -21.4870   22.2474 C   0  0  0  0  0  0
  -28.5606  -22.6465   22.2240 C   0  0  0  0  0  0
  -29.1122  -23.8868   21.4891 C   0  0  0  0  0  0
  -28.4815  -25.2049   21.9815 C   0  0  0  0  0  0
  -29.0464  -26.4653   21.2953 C   0  0  0  0  0  0
  -30.1245  -15.3591   21.3597 N   0  0  0  0  0  0
  -31.4595  -12.3814   19.1062 H   0  0  0  0  0  0
  -30.3073  -11.2762   19.7945 H   0  0  0  0  0  0
  -29.7207  -11.7944   17.4097 H   0  0  0  0  0  0
  -29.6591  -13.5009   17.7747 H   0  0  0  0  0  0
  -27.8162  -11.3153   18.8028 H   0  0  0  0  0  0
  -27.3579  -12.6552   17.7866 H   0  0  0  0  0  0
  -27.7138  -14.2551   19.5905 H   0  0  0  0  0  0
  -28.6709  -11.9276   21.3251 H   0  0  0  0  0  0
  -28.4599  -13.5551   21.8811 H   0  0  0  0  0  0
  -25.2756   -9.5687   22.4757 H   0  0  0  0  0  0
  -23.9999   -7.4636   22.7475 H   0  0  0  0  0  0
  -21.0837   -8.8771   19.8952 H   0  0  0  0  0  0
  -22.3691  -10.9672   19.6163 H   0  0  0  0  0  0
  -21.2004   -7.6147   23.9714 H   0  0  0  0  0  0
  -21.1481   -6.0524   25.9076 H   0  0  0  0  0  0
  -22.0599   -2.7610   23.2848 H   0  0  0  0  0  0
  -22.4112  -11.9887   22.4775 H   0  0  0  0  0  0
  -21.1123  -13.1265   22.2609 H   0  0  0  0  0  0
  -24.6682  -15.8460   20.5137 H   0  0  0  0  0  0
  -26.2880  -15.6241   20.0874 H   0  0  0  0  0  0
  -26.7087  -32.5570   23.1180 H   0  0  0  0  0  0
  -25.0063  -33.9794   25.0506 H   0  0  0  0  0  0
  -22.6829  -31.3064   21.4106 H   0  0  0  0  0  0
  -23.3743  -35.9655   23.3318 H   0  0  0  0  0  0
  -24.3584  -36.8910   22.2050 H   0  0  0  0  0  0
  -23.7246  -37.6532   23.6639 H   0  0  0  0  0  0
  -26.0214  -31.6099   20.5863 H   0  0  0  0  0  0
  -26.8110  -30.9083   21.9710 H   0  0  0  0  0  0
  -28.0902  -29.1630   21.1561 H   0  0  0  0  0  0
  -26.1081  -25.9868   19.0144 H   0  0  0  0  0  0
  -23.9942  -27.2845   19.0366 H   0  0  0  0  0  0
  -23.7063  -30.5910   19.4026 H   0  0  0  0  0  0
  -22.7315  -29.2319   19.8756 H   0  0  0  0  0  0
  -25.1281  -36.1988   25.0836 H   0  0  0  0  0  0
  -20.9943  -28.3210   24.1458 H   0  0  0  0  0  0
  -20.5671  -26.2251   23.3602 H   0  0  0  0  0  0
  -21.6631  -26.7444   22.1209 H   0  0  0  0  0  0
  -19.6902  -25.6301   21.1226 H   0  0  0  0  0  0
  -19.6683  -27.3210   20.6760 H   0  0  0  0  0  0
  -17.4189  -26.6677   21.4019 H   0  0  0  0  0  0
  -18.0307  -26.0048   22.9008 H   0  0  0  0  0  0
  -19.7924  -30.7239   24.2300 H   0  0  0  0  0  0
  -17.5008  -31.6264   24.5157 H   0  0  0  0  0  0
  -15.5344  -30.2992   23.7635 H   0  0  0  0  0  0
  -15.8657  -28.0824   22.7059 H   0  0  0  0  0  0
  -24.5914  -30.7035   25.7807 H   0  0  0  0  0  0
  -24.8950  -32.2829   26.4952 H   0  0  0  0  0  0
  -25.8116  -30.8823   27.0205 H   0  0  0  0  0  0
  -26.2823  -29.6807   24.1122 H   0  0  0  0  0  0
  -27.4132  -29.7276   25.4462 H   0  0  0  0  0  0
  -27.8626  -30.4394   23.9132 H   0  0  0  0  0  0
  -27.2669  -33.3588   26.2089 H   0  0  0  0  0  0
  -28.3835  -32.6891   25.0284 H   0  0  0  0  0  0
  -28.0738  -31.8402   26.5351 H   0  0  0  0  0  0
  -28.2607  -38.0101   24.7508 H   0  0  0  0  0  0
  -28.1069  -36.2633   24.6300 H   0  0  0  0  0  0
  -27.2298  -37.1474   25.8870 H   0  0  0  0  0  0
  -20.9275  -29.8732   21.6967 H   0  0  0  0  0  0
  -26.0191  -38.2876   24.1401 H   0  0  0  0  0  0
  -33.4645  -18.2837   22.6646 H   0  0  0  0  0  0
  -31.9626  -20.2145   22.5550 H   0  0  0  0  0  0
  -32.6536  -16.0193   22.1242 H   0  0  0  0  0  0
  -28.7128  -17.6242   21.3556 H   0  0  0  0  0  0
  -28.2679  -19.9912   21.5391 H   0  0  0  0  0  0
  -30.5253  -21.7497   22.6064 H   0  0  0  0  0  0
  -28.3574  -22.8975   23.2660 H   0  0  0  0  0  0
  -27.6079  -22.3379   21.7909 H   0  0  0  0  0  0
  -28.9658  -23.7751   20.4139 H   0  0  0  0  0  0
  -30.1906  -23.9516   21.6424 H   0  0  0  0  0  0
  -28.6767  -25.2918   23.0512 H   0  0  0  0  0  0
  -27.3960  -25.1751   21.8801 H   0  0  0  0  0  0
  -30.1143  -26.3462   21.1099 H   0  0  0  0  0  0
  -28.9656  -27.3115   21.9771 H   0  0  0  0  0  0
  -29.1766  -15.1510   21.6349 H   0  0  0  0  0  0
  1 25  1  0  0  0
  1 30  2  0  0  0
  1 83  1  0  0  0
  2  3  1  0  0  0
  2 25  1  0  0  0
  2 84  1  0  0  0
  2 85  1  0  0  0
  3  4  1  0  0  0
  3 86  1  0  0  0
  3 87  1  0  0  0
  4  5  1  0  0  0
  4 88  1  0  0  0
  4 89  1  0  0  0
  5  6  1  0  0  0
  5 26  1  0  0  0
  5 90  1  0  0  0
  6 25  1  0  0  0
  6 91  1  0  0  0
  6 92  1  0  0  0
  7  8  2  0  0  0
  7 26  1  0  0  0
  7 29  1  0  0  0
  8  9  1  0  0  0
  8 22  1  0  0  0
  9 10  1  0  0  0
  9 27  2  0  0  0
 10 11  2  0  0  0
 10 15  1  0  0  0
 11 12  1  0  0  0
 11 93  1  0  0  0
 12 13  2  0  0  0
 12 94  1  0  0  0
 13 14  1  0  0  0
 13 31  1  0  0  0
 14 15  2  0  0  0
 14 95  1  0  0  0
 15 96  1  0  0  0
 16 17  2  0  0  0
 16 21  1  0  0  0
 16 31  1  0  0  0
 17 18  1  0  0  0
 17 97  1  0  0  0
 18 19  2  0  0  0
 18 98  1  0  0  0
 19 20  1  0  0  0
 19 24  1  0  0  0
 20 21  2  0  0  0
 20 99  1  0  0  0
 21 23  1  0  0  0
 22 28  1  0  0  0
 22 32  2  0  0  0
 26 27  1  0  0  0
 28100  1  0  0  0
 28101  1  0  0  0
 29102  1  0  0  0
 29103  1  0  0  0
 33 34  1  0  0  0
 33 66  1  0  0  0
 33 70  2  0  0  0
 34 36  1  0  0  0
 34 59  1  0  0  0
 34104  1  0  0  0
 35 44  2  0  0  0
 35 45  1  0  0  0
 35 68  1  0  0  0
 36 56  1  0  0  0
 36105  1  0  0  0
 37 39  1  0  0  0
 37 47  1  0  0  0
 37 66  1  0  0  0
 37106  1  0  0  0
 38 43  2  0  0  0
 38 46  1  0  0  0
 38 47  1  0  0  0
 39 64  1  0  0  0
 39 67  2  0  0  0
 40 52  1  0  0  0
 40 53  2  0  0  0
 40 58  1  0  0  0
 41107  1  0  0  0
 41108  1  0  0  0
 41109  1  0  0  0
 41 48  1  0  0  0
 42 43  1  0  0  0
 42 66  1  0  0  0
 42110  1  0  0  0
 42111  1  0  0  0
 43 44  1  0  0  0
 44112  1  0  0  0
 45 46  2  0  0  0
 45113  1  0  0  0
 46114  1  0  0  0
 47115  1  0  0  0
 47116  1  0  0  0
 48 56  1  0  0  0
 48 65  1  0  0  0
 48117  1  0  0  0
 49 50  1  0  0  0
 49 53  1  0  0  0
 49 64  1  0  0  0
 49118  1  0  0  0
 50 51  1  0  0  0
 50119  1  0  0  0
 50120  1  0  0  0
 51 52  1  0  0  0
 51121  1  0  0  0
 51122  1  0  0  0
 52123  1  0  0  0
 52124  1  0  0  0
 53 54  1  0  0  0
 54 55  2  0  0  0
 54125  1  0  0  0
 55 57  1  0  0  0
 55126  1  0  0  0
 56 69  2  0  0  0
 57 58  2  0  0  0
 57127  1  0  0  0
 58128  1  0  0  0
 59 60  1  0  0  0
 59 61  1  0  0  0
 59 62  1  0  0  0
 60129  1  0  0  0
 60130  1  0  0  0
 60131  1  0  0  0
 61132  1  0  0  0
 61133  1  0  0  0
 61134  1  0  0  0
 62135  1  0  0  0
 62136  1  0  0  0
 62137  1  0  0  0
 63 65  1  0  0  0
 63138  1  0  0  0
 63139  1  0  0  0
 63140  1  0  0  0
 64141  1  0  0  0
 65142  1  0  0  0
 68 82  1  0  0  0
 71 72  2  0  0  0
 71 73  1  0  0  0
 71143  1  0  0  0
 72 75  1  0  0  0
 72144  1  0  0  0
 73 76  2  0  0  0
 73145  1  0  0  0
 74 75  2  0  0  0
 74 76  1  0  0  0
 74146  1  0  0  0
 75 77  1  0  0  0
 76 83  1  0  0  0
 77 78  2  0  0  0
 77147  1  0  0  0
 78 79  1  0  0  0
 78148  1  0  0  0
 79 80  1  0  0  0
 79149  1  0  0  0
 79150  1  0  0  0
 80 81  1  0  0  0
 80151  1  0  0  0
 80152  1  0  0  0
 81 82  1  0  0  0
 81153  1  0  0  0
 81154  1  0  0  0
 82155  1  0  0  0
 82156  1  0  0  0
 83157  1  0  0  0
M  ISO  4   1 100  68 101  82 101  83 100
M  END
> <chiral flag>
0

> <version>
0

> <s_m_source_file>
/data/baiqing/PycharmProjects/Reinvent-master-3.2/result/LINK_invent/BTK/process_docking_weight1_custom_product_contain_oxygen_bond_distance_aromatic_linkinvent_7_9_3/rearranged_h_0128.sdf

> <i_m_source_file_index>
17

> <r_mmod_Potential_Energy-OPLS-2005>
-30.7627391815186

> <r_mmod_Stretch_Energy-OPLS-2005>
33.3955230712891

> <r_mmod_Bend_Energy-OPLS-2005>
88.5920791625977

> <r_mmod_Torsional_Energy-OPLS-2005>
229.357955932617

> <r_mmod_Improper_Torsional_Energy-OPLS-2005>
2.5358190536499

> <r_mmod_Van_der_Waal_Energy-OPLS-2005>
158.241256713867

> <r_mmod_Electrostatic_Energy-OPLS-2005>
-349.136016845703

> <r_mmod_Solvation_Energy-OPLS-2005>
-201.187606811523

> <b_mmod_Minimization_Converged-OPLS-2005>
0

> <r_mmod_RMS_Derivative-OPLS-2005>
0.393860191106796

$$$$
17
                    3D
 Structure written by MMmdl.
152160  0  0  1  0            999 V2000
  -30.4838  -14.9764   20.3683 C   0  0  0  0  0  0
  -30.4259  -12.5970   19.5226 C   0  0  0  0  0  0
  -29.5242  -12.5791   18.2632 C   0  0  0  0  0  0
  -28.0620  -12.3141   18.6716 C   0  0  0  0  0  0
  -27.6193  -13.2470   19.8376 C   0  0  2  0  0  0
  -28.6469  -13.2516   20.9860 C   0  0  0  0  0  0
  -25.2388  -13.8188   20.5670 C   0  0  0  0  0  0
  -24.1720  -13.0428   20.9169 C   0  0  0  0  0  0
  -24.6360  -11.6912   20.8723 C   0  0  0  0  0  0
  -23.9060  -10.4297   21.0382 C   0  0  0  0  0  0
  -24.3632   -9.4214   21.9139 C   0  0  0  0  0  0
  -23.6309   -8.2248   22.0734 C   0  0  0  0  0  0
  -22.4264   -8.0303   21.3561 C   0  0  0  0  0  0
  -21.9908   -9.0256   20.4624 C   0  0  0  0  0  0
  -22.7254  -10.2116   20.3025 C   0  0  0  0  0  0
  -21.6837   -6.0751   22.5292 C   0  0  0  0  0  0
  -21.4024   -6.5663   23.8219 C   0  0  0  0  0  0
  -21.3663   -5.6798   24.9169 C   0  0  0  0  0  0
  -21.6032   -4.3062   24.7219 C   0  0  0  0  0  0
  -21.8798   -3.8168   23.4350 C   0  0  0  0  0  0
  -21.9179   -4.6985   22.3409 C   0  0  0  0  0  0
  -22.7739  -13.5160   21.1886 C   0  0  0  0  0  0
  -22.1620   -4.2181   21.0958 F   0  0  0  0  0  0
  -21.5635   -3.4530   25.7713 F   0  0  0  0  0  0
  -29.9277  -13.6901   20.4133 N   0  0  0  0  0  0
  -26.2804  -12.9453   20.3152 N   0  0  0  0  0  0
  -25.9297  -11.6574   20.5664 N   0  0  0  0  0  0
  -22.0418  -12.8161   22.0447 N   0  0  0  0  0  0
  -25.4047  -15.1933   20.4223 N   0  0  0  0  0  0
  -31.6788  -15.0391   20.0419 O   0  0  0  0  0  0
  -21.6627   -6.8901   21.4269 O   0  0  0  0  0  0
  -22.3422  -14.5471   20.6696 O   0  0  0  0  0  0
  -24.6536  -31.8397   23.1816 C   0  0  0  0  0  0
  -25.9274  -32.4654   23.8265 C   0  0  1  0  0  0
  -27.1965  -27.0916   20.1630 C   0  0  0  0  0  0
  -25.5975  -33.8477   24.2168 N   0  0  0  0  0  0
  -23.4554  -30.4593   21.5314 C   0  0  2  0  0  0
  -24.8973  -28.8759   20.1090 C   0  0  0  0  0  0
  -22.7572  -29.4585   22.4858 C   0  0  0  0  0  0
  -18.0333  -28.1468   22.8448 C   0  0  0  0  0  0
  -24.1538  -36.7295   23.2627 C   0  0  0  0  0  0
  -26.0133  -30.6977   21.3851 C   0  0  0  0  0  0
  -26.0785  -29.3058   20.7281 C   0  0  0  0  0  0
  -27.2324  -28.4301   20.7349 C   0  0  0  0  0  0
  -25.9999  -26.7787   19.4855 C   0  0  0  0  0  0
  -24.8744  -27.6318   19.4606 C   0  0  0  0  0  0
  -23.6794  -29.7859   20.1553 C   0  0  0  0  0  0
  -25.4148  -36.3024   24.0304 C   0  0  1  0  0  0
  -20.5919  -28.3805   23.1185 C   0  0  2  0  0  0
  -20.6831  -26.9514   22.5371 C   0  0  0  0  0  0
  -19.5825  -26.6449   21.5183 C   0  0  0  0  0  0
  -18.1993  -26.7995   22.1604 C   0  0  0  0  0  0
  -19.1577  -28.8953   23.2813 C   0  0  0  0  0  0
  -18.9499  -30.1524   23.8866 C   0  0  0  0  0  0
  -17.6492  -30.6610   24.0588 C   0  0  0  0  0  0
  -25.9092  -34.9391   23.5047 C   0  0  0  0  0  0
  -16.5378  -29.9116   23.6342 C   0  0  0  0  0  0
  -16.7306  -28.6571   23.0282 C   0  0  0  0  0  0
  -26.4562  -31.6504   25.0706 C   0  0  0  0  0  0
  -25.3683  -31.3702   26.1342 C   0  0  0  0  0  0
  -27.0389  -30.2869   24.6319 C   0  0  0  0  0  0
  -27.6101  -32.4241   25.7476 C   0  0  0  0  0  0
  -27.5615  -37.1786   24.8441 C   0  0  0  0  0  0
  -21.4271  -29.3102   22.3553 N   0  0  0  0  0  0
  -26.4329  -37.3722   23.9375 N   0  0  0  0  0  0
  -24.7288  -31.0171   22.0911 N   0  0  0  0  0  0
  -23.4143  -28.8190   23.3104 O   0  0  0  0  0  0
  -28.2270  -26.0772   20.1894 O   0  0  0  0  0  0
  -26.5690  -34.8884   22.4637 O   0  0  0  0  0  0
  -23.5621  -32.1354   23.6945 O   0  0  0  0  0  0
  -30.1041  -17.2728   18.3177 C   0  0  0  0  0  0
  -30.2952  -18.0990   17.1992 C   0  0  0  0  0  0
  -29.7111  -20.0084   18.5448 C   0  0  0  0  0  0
  -29.7162  -17.7231   19.6144 C   0  0  0  0  0  0
  -29.4190  -19.2336   19.6953 C   0  0  0  0  0  0
  -30.1381  -19.4754   17.3272 C   0  0  0  0  0  0
  -28.7947  -20.2603   20.7368 C   0  0  0  0  0  0
  -28.5111  -21.6656   20.8714 C   0  0  0  0  0  0
  -29.5888  -16.4108   20.5746 C   0  0  0  0  0  0
  -28.6780  -23.1155   20.0882 C   0  0  0  0  0  0
  -27.9267  -24.5757   20.5635 C   0  0  0  0  0  0
  -28.7492  -16.4708   21.5172 N   0  0  0  0  0  0
  -30.3690  -20.2954   16.2786 F   0  0  0  0  0  0
  -31.4702  -12.7424   19.2460 H   0  0  0  0  0  0
  -30.3904  -11.6279   20.0265 H   0  0  0  0  0  0
  -29.8721  -11.8279   17.5529 H   0  0  0  0  0  0
  -29.5865  -13.5397   17.7506 H   0  0  0  0  0  0
  -27.9915  -11.2693   18.9804 H   0  0  0  0  0  0
  -27.4025  -12.4168   17.8099 H   0  0  0  0  0  0
  -27.5763  -14.2521   19.4160 H   0  0  0  0  0  0
  -28.7320  -12.2599   21.4336 H   0  0  0  0  0  0
  -28.3206  -13.9086   21.7944 H   0  0  0  0  0  0
  -25.2803   -9.5657   22.4661 H   0  0  0  0  0  0
  -24.0012   -7.4633   22.7463 H   0  0  0  0  0  0
  -21.0855   -8.8826   19.8912 H   0  0  0  0  0  0
  -22.3794  -10.9659   19.6089 H   0  0  0  0  0  0
  -21.2024   -7.6160   23.9748 H   0  0  0  0  0  0
  -21.1492   -6.0512   25.9079 H   0  0  0  0  0  0
  -22.0564   -2.7641   23.2810 H   0  0  0  0  0  0
  -22.4146  -11.9921   22.4934 H   0  0  0  0  0  0
  -21.0993  -13.1117   22.2581 H   0  0  0  0  0  0
  -24.6386  -15.8401   20.5677 H   0  0  0  0  0  0
  -26.2899  -15.6585   20.2625 H   0  0  0  0  0  0
  -26.7324  -32.5238   23.0985 H   0  0  0  0  0  0
  -25.0050  -33.9621   25.0272 H   0  0  0  0  0  0
  -22.7707  -31.2942   21.3721 H   0  0  0  0  0  0
  -23.3765  -35.9670   23.3254 H   0  0  0  0  0  0
  -24.3637  -36.8967   22.2047 H   0  0  0  0  0  0
  -23.7333  -37.6500   23.6691 H   0  0  0  0  0  0
  -26.1721  -31.4508   20.6132 H   0  0  0  0  0  0
  -26.8826  -30.7503   22.0290 H   0  0  0  0  0  0
  -28.1345  -28.7541   21.2302 H   0  0  0  0  0  0
  -25.9307  -25.8320   18.9635 H   0  0  0  0  0  0
  -23.9812  -27.3133   18.9399 H   0  0  0  0  0  0
  -23.8217  -30.5560   19.3995 H   0  0  0  0  0  0
  -22.7984  -29.2316   19.8361 H   0  0  0  0  0  0
  -25.1335  -36.1882   25.0795 H   0  0  0  0  0  0
  -21.0020  -28.3449   24.1303 H   0  0  0  0  0  0
  -20.5750  -26.2466   23.3604 H   0  0  0  0  0  0
  -21.6708  -26.7574   22.1166 H   0  0  0  0  0  0
  -19.7014  -25.6360   21.1245 H   0  0  0  0  0  0
  -19.6725  -27.3240   20.6676 H   0  0  0  0  0  0
  -17.4240  -26.6669   21.4007 H   0  0  0  0  0  0
  -18.0449  -26.0157   22.9037 H   0  0  0  0  0  0
  -19.7952  -30.7355   24.2206 H   0  0  0  0  0  0
  -17.5023  -31.6257   24.5274 H   0  0  0  0  0  0
  -15.5370  -30.2995   23.7677 H   0  0  0  0  0  0
  -15.8713  -28.0887   22.6933 H   0  0  0  0  0  0
  -24.5955  -30.6971   25.7625 H   0  0  0  0  0  0
  -24.8768  -32.2858   26.4611 H   0  0  0  0  0  0
  -25.7921  -30.8979   27.0209 H   0  0  0  0  0  0
  -26.3006  -29.6570   24.1340 H   0  0  0  0  0  0
  -27.3957  -29.7195   25.4922 H   0  0  0  0  0  0
  -27.8949  -30.4044   23.9679 H   0  0  0  0  0  0
  -27.2738  -33.3569   26.2013 H   0  0  0  0  0  0
  -28.3921  -32.6717   25.0287 H   0  0  0  0  0  0
  -28.0753  -31.8361   26.5398 H   0  0  0  0  0  0
  -28.2562  -38.0143   24.7509 H   0  0  0  0  0  0
  -28.1178  -36.2661   24.6236 H   0  0  0  0  0  0
  -27.2330  -37.1375   25.8840 H   0  0  0  0  0  0
  -20.9547  -29.8709   21.6608 H   0  0  0  0  0  0
  -26.0206  -38.2831   24.1259 H   0  0  0  0  0  0
  -30.2470  -16.2239   18.1179 H   0  0  0  0  0  0
  -30.5629  -17.6789   16.2387 H   0  0  0  0  0  0
  -29.5743  -21.0747   18.5492 H   0  0  0  0  0  0
  -28.4665  -19.7180   21.6140 H   0  0  0  0  0  0
  -28.0528  -21.8729   21.8316 H   0  0  0  0  0  0
  -28.4451  -22.9437   19.0386 H   0  0  0  0  0  0
  -29.7514  -23.2945   20.1046 H   0  0  0  0  0  0
  -28.0291  -24.5817   21.6470 H   0  0  0  0  0  0
  -26.8573  -24.4129   20.4242 H   0  0  0  0  0  0
  -28.2698  -17.3597   21.5226 H   0  0  0  0  0  0
  1 25  1  0  0  0
  1 30  2  0  0  0
  1 79  1  0  0  0
  2  3  1  0  0  0
  2 25  1  0  0  0
  2 84  1  0  0  0
  2 85  1  0  0  0
  3  4  1  0  0  0
  3 86  1  0  0  0
  3 87  1  0  0  0
  4  5  1  0  0  0
  4 88  1  0  0  0
  4 89  1  0  0  0
  5  6  1  0  0  0
  5 26  1  0  0  0
  5 90  1  0  0  0
  6 25  1  0  0  0
  6 91  1  0  0  0
  6 92  1  0  0  0
  7  8  2  0  0  0
  7 26  1  0  0  0
  7 29  1  0  0  0
  8  9  1  0  0  0
  8 22  1  0  0  0
  9 10  1  0  0  0
  9 27  2  0  0  0
 10 11  2  0  0  0
 10 15  1  0  0  0
 11 12  1  0  0  0
 11 93  1  0  0  0
 12 13  2  0  0  0
 12 94  1  0  0  0
 13 14  1  0  0  0
 13 31  1  0  0  0
 14 15  2  0  0  0
 14 95  1  0  0  0
 15 96  1  0  0  0
 16 17  2  0  0  0
 16 21  1  0  0  0
 16 31  1  0  0  0
 17 18  1  0  0  0
 17 97  1  0  0  0
 18 19  2  0  0  0
 18 98  1  0  0  0
 19 20  1  0  0  0
 19 24  1  0  0  0
 20 21  2  0  0  0
 20 99  1  0  0  0
 21 23  1  0  0  0
 22 28  1  0  0  0
 22 32  2  0  0  0
 26 27  1  0  0  0
 28100  1  0  0  0
 28101  1  0  0  0
 29102  1  0  0  0
 29103  1  0  0  0
 33 34  1  0  0  0
 33 66  1  0  0  0
 33 70  2  0  0  0
 34 36  1  0  0  0
 34 59  1  0  0  0
 34104  1  0  0  0
 35 44  2  0  0  0
 35 45  1  0  0  0
 35 68  1  0  0  0
 36 56  1  0  0  0
 36105  1  0  0  0
 37 39  1  0  0  0
 37 47  1  0  0  0
 37 66  1  0  0  0
 37106  1  0  0  0
 38 43  2  0  0  0
 38 46  1  0  0  0
 38 47  1  0  0  0
 39 64  1  0  0  0
 39 67  2  0  0  0
 40 52  1  0  0  0
 40 53  2  0  0  0
 40 58  1  0  0  0
 41107  1  0  0  0
 41108  1  0  0  0
 41109  1  0  0  0
 41 48  1  0  0  0
 42 43  1  0  0  0
 42 66  1  0  0  0
 42110  1  0  0  0
 42111  1  0  0  0
 43 44  1  0  0  0
 44112  1  0  0  0
 45 46  2  0  0  0
 45113  1  0  0  0
 46114  1  0  0  0
 47115  1  0  0  0
 47116  1  0  0  0
 48 56  1  0  0  0
 48 65  1  0  0  0
 48117  1  0  0  0
 49 50  1  0  0  0
 49 53  1  0  0  0
 49 64  1  0  0  0
 49118  1  0  0  0
 50 51  1  0  0  0
 50119  1  0  0  0
 50120  1  0  0  0
 51 52  1  0  0  0
 51121  1  0  0  0
 51122  1  0  0  0
 52123  1  0  0  0
 52124  1  0  0  0
 53 54  1  0  0  0
 54 55  2  0  0  0
 54125  1  0  0  0
 55 57  1  0  0  0
 55126  1  0  0  0
 56 69  2  0  0  0
 57 58  2  0  0  0
 57127  1  0  0  0
 58128  1  0  0  0
 59 60  1  0  0  0
 59 61  1  0  0  0
 59 62  1  0  0  0
 60129  1  0  0  0
 60130  1  0  0  0
 60131  1  0  0  0
 61132  1  0  0  0
 61133  1  0  0  0
 61134  1  0  0  0
 62135  1  0  0  0
 62136  1  0  0  0
 62137  1  0  0  0
 63 65  1  0  0  0
 63138  1  0  0  0
 63139  1  0  0  0
 63140  1  0  0  0
 64141  1  0  0  0
 65142  1  0  0  0
 68 81  1  0  0  0
 71 72  2  0  0  0
 71 74  1  0  0  0
 71143  1  0  0  0
 72 76  1  0  0  0
 72144  1  0  0  0
 73 75  1  0  0  0
 73 76  2  0  0  0
 73145  1  0  0  0
 74 75  2  0  0  0
 74 79  1  0  0  0
 75 77  1  0  0  0
 76 83  1  0  0  0
 77 78  2  0  0  0
 77146  1  0  0  0
 78 80  1  0  0  0
 78147  1  0  0  0
 79 82  2  0  0  0
 80 81  1  0  0  0
 80148  1  0  0  0
 80149  1  0  0  0
 81150  1  0  0  0
 81151  1  0  0  0
 82152  1  0  0  0
M  ISO  4   1 100  68 101  79 100  81 101
M  END
> <chiral flag>
0

> <version>
0

> <s_m_source_file>
/data/baiqing/PycharmProjects/Reinvent-master-3.2/result/LINK_invent/BTK/process_docking_weight1_custom_product_contain_oxygen_bond_distance_aromatic_linkinvent_7_9_3/rearranged_h_0128.sdf

> <i_m_source_file_index>
18

> <r_mmod_Potential_Energy-OPLS-2005>
890.291259765625

> <r_mmod_Stretch_Energy-OPLS-2005>
343.997253417969

> <r_mmod_Bend_Energy-OPLS-2005>
360.395904541016

> <r_mmod_Torsional_Energy-OPLS-2005>
225.045684814453

> <r_mmod_Improper_Torsional_Energy-OPLS-2005>
3.88358902931213

> <r_mmod_Van_der_Waal_Energy-OPLS-2005>
138.232955932617

> <r_mmod_Electrostatic_Energy-OPLS-2005>
-211.23225402832

> <r_mmod_Solvation_Energy-OPLS-2005>
-194.426574707031

> <b_mmod_Minimization_Converged-OPLS-2005>
0

> <r_mmod_RMS_Derivative-OPLS-2005>
6.85938739776611

$$$$
18
                    3D
 Structure written by MMmdl.
151159  0  0  1  0            999 V2000
  -30.9338  -14.0843   21.0432 C   0  0  0  0  0  0
  -31.2057  -12.7473   18.8607 C   0  0  0  0  0  0
  -30.1721  -13.0269   17.6998 C   0  0  0  0  0  0
  -28.6936  -13.1841   18.0925 C   0  0  0  0  0  0
  -28.4102  -13.8248   19.5938 C   0  0  2  0  0  0
  -29.5258  -12.5821   20.0527 C   0  0  0  0  0  0
  -24.6574  -14.3642   20.7883 C   0  0  0  0  0  0
  -23.7576  -13.3322   20.8957 C   0  0  0  0  0  0
  -24.3731  -12.0849   21.0493 C   0  0  0  0  0  0
  -23.8532  -10.6430   21.1233 C   0  0  0  0  0  0
  -24.3479   -9.6042   21.9644 C   0  0  0  0  0  0
  -23.6772   -8.3492   22.0846 C   0  0  0  0  0  0
  -22.4879   -8.0897   21.3553 C   0  0  0  0  0  0
  -22.0498   -9.0733   20.4508 C   0  0  0  0  0  0
  -22.7281  -10.3058   20.3275 C   0  0  0  0  0  0
  -21.7301   -6.1015   22.5210 C   0  0  0  0  0  0
  -21.4359   -6.5853   23.8153 C   0  0  0  0  0  0
  -21.3774   -5.6949   24.9084 C   0  0  0  0  0  0
  -21.6021   -4.3182   24.7138 C   0  0  0  0  0  0
  -21.8749   -3.8300   23.4248 C   0  0  0  0  0  0
  -21.9311   -4.7168   22.3333 C   0  0  0  0  0  0
  -22.3507  -13.5862   21.1001 C   0  0  0  0  0  0
  -22.1718   -4.2299   21.0922 F   0  0  0  0  0  0
  -21.5528   -3.4636   25.7632 F   0  0  0  0  0  0
  -30.7027  -13.1189   20.1591 N   0  0  0  0  0  0
  -25.8940  -13.8759   20.9625 N   0  0  0  0  0  0
  -25.3316  -12.6857   21.7226 N   0  0  0  0  0  0
  -21.7436  -12.8274   22.0025 N   0  0  0  0  0  0
  -24.5197  -15.7132   20.6177 N   0  0  0  0  0  0
  -31.7467  -14.9270   20.6635 O   0  0  0  0  0  0
  -21.7445   -6.9243   21.4166 O   0  0  0  0  0  0
  -21.8458  -14.5673   20.5780 O   0  0  0  0  0  0
  -24.7035  -31.7778   23.1391 C   0  0  0  0  0  0
  -25.9544  -32.4337   23.7968 C   0  0  1  0  0  0
  -26.9361  -26.3872   20.2036 C   0  0  0  0  0  0
  -25.6042  -33.8187   24.1806 N   0  0  0  0  0  0
  -23.5205  -30.3954   21.5048 C   0  0  2  0  0  0
  -24.9189  -28.7003   20.0942 C   0  0  0  0  0  0
  -22.7784  -29.4236   22.4638 C   0  0  0  0  0  0
  -18.0336  -28.1414   22.8447 C   0  0  0  0  0  0
  -24.1497  -36.7115   23.2625 C   0  0  0  0  0  0
  -26.1093  -30.3961   21.4427 C   0  0  0  0  0  0
  -26.1134  -28.9392   20.7788 C   0  0  0  0  0  0
  -27.1205  -27.8051   20.8046 C   0  0  0  0  0  0
  -25.7684  -26.4529   19.4241 C   0  0  0  0  0  0
  -24.8049  -27.4972   19.3884 C   0  0  0  0  0  0
  -23.7656  -29.7150   20.1297 C   0  0  0  0  0  0
  -25.4139  -36.2822   24.0253 C   0  0  1  0  0  0
  -20.5978  -28.3791   23.1110 C   0  0  2  0  0  0
  -20.6798  -26.9439   22.5399 C   0  0  0  0  0  0
  -19.5774  -26.6353   21.5216 C   0  0  0  0  0  0
  -18.1958  -26.7940   22.1617 C   0  0  0  0  0  0
  -19.1605  -28.8926   23.2762 C   0  0  0  0  0  0
  -18.9509  -30.1510   23.8815 C   0  0  0  0  0  0
  -17.6498  -30.6602   24.0548 C   0  0  0  0  0  0
  -25.9171  -34.9230   23.4882 C   0  0  0  0  0  0
  -16.5389  -29.9081   23.6352 C   0  0  0  0  0  0
  -16.7317  -28.6498   23.0376 C   0  0  0  0  0  0
  -26.4623  -31.6488   25.0702 C   0  0  0  0  0  0
  -25.3605  -31.3917   26.1262 C   0  0  0  0  0  0
  -27.0562  -30.2783   24.6809 C   0  0  0  0  0  0
  -27.6033  -32.4406   25.7512 C   0  0  0  0  0  0
  -27.5613  -37.1630   24.8386 C   0  0  0  0  0  0
  -21.4422  -29.3023   22.3412 N   0  0  0  0  0  0
  -26.4205  -37.3657   23.9498 N   0  0  0  0  0  0
  -24.8085  -30.8982   22.0784 N   0  0  0  0  0  0
  -23.4173  -28.7812   23.3005 O   0  0  0  0  0  0
  -27.6127  -24.9326   20.2615 O   0  0  0  0  0  0
  -26.5847  -34.8858   22.4526 O   0  0  0  0  0  0
  -23.6033  -32.1005   23.6230 O   0  0  0  0  0  0
  -26.3836  -12.9509   18.9763 C   0  0  0  0  0  0
  -26.4456  -14.8132   18.8750 C   0  0  0  0  0  0
  -27.2180  -12.1186   20.4412 C   0  0  0  0  0  0
  -27.8081  -15.1279   21.4688 C   0  0  0  0  0  0
  -27.1440  -15.9498   20.0969 C   0  0  0  0  0  0
  -27.9439  -13.3726   21.7776 C   0  0  0  0  0  0
  -27.3881  -17.8837   20.1666 C   0  0  0  0  0  0
  -29.1804  -13.3806   22.6945 C   0  0  0  0  0  0
  -26.9798  -19.4309   19.9711 C   0  0  0  0  0  0
  -27.5681  -21.2632   20.1823 C   0  0  0  0  0  0
  -27.0000  -23.1663   20.0247 C   0  0  0  0  0  0
  -30.3752  -13.8826   22.3720 N   0  0  0  0  0  0
  -28.7472  -21.2696   20.5494 O   0  0  0  0  0  0
  -32.1375  -13.2810   18.6595 H   0  0  0  0  0  0
  -31.5018  -11.6944   18.8686 H   0  0  0  0  0  0
  -30.2824  -12.2752   16.9167 H   0  0  0  0  0  0
  -30.4763  -13.9633   17.2317 H   0  0  0  0  0  0
  -28.2922  -12.1873   17.8885 H   0  0  0  0  0  0
  -28.2518  -13.8183   17.3220 H   0  0  0  0  0  0
  -28.9751  -14.7587   19.4722 H   0  0  0  0  0  0
  -29.4373  -11.6278   19.5020 H   0  0  0  0  0  0
  -29.5105  -11.8924   20.8989 H   0  0  0  0  0  0
  -25.2215   -9.7996   22.5719 H   0  0  0  0  0  0
  -24.0711   -7.6055   22.7631 H   0  0  0  0  0  0
  -21.1699   -8.8909   19.8498 H   0  0  0  0  0  0
  -22.3286  -11.0394   19.6407 H   0  0  0  0  0  0
  -21.2563   -7.6386   23.9717 H   0  0  0  0  0  0
  -21.1600   -6.0683   25.8989 H   0  0  0  0  0  0
  -22.0355   -2.7745   23.2705 H   0  0  0  0  0  0
  -22.2351  -12.0734   22.4605 H   0  0  0  0  0  0
  -20.7828  -13.0143   22.2524 H   0  0  0  0  0  0
  -23.6283  -16.1578   20.4360 H   0  0  0  0  0  0
  -25.3171  -16.3332   20.5562 H   0  0  0  0  0  0
  -26.7613  -32.4683   23.0646 H   0  0  0  0  0  0
  -25.0033  -33.9187   24.9856 H   0  0  0  0  0  0
  -22.8589  -31.2466   21.3259 H   0  0  0  0  0  0
  -23.3874  -35.9314   23.2942 H   0  0  0  0  0  0
  -24.3642  -36.9159   22.2123 H   0  0  0  0  0  0
  -23.7084  -37.6100   23.6953 H   0  0  0  0  0  0
  -26.3560  -31.1049   20.6509 H   0  0  0  0  0  0
  -26.9517  -30.4460   22.1193 H   0  0  0  0  0  0
  -28.0077  -27.9651   21.3994 H   0  0  0  0  0  0
  -25.5081  -25.5591   18.8762 H   0  0  0  0  0  0
  -23.9044  -27.3211   18.8162 H   0  0  0  0  0  0
  -23.9851  -30.4829   19.3873 H   0  0  0  0  0  0
  -22.8494  -29.2324   19.7858 H   0  0  0  0  0  0
  -25.1316  -36.1501   25.0726 H   0  0  0  0  0  0
  -21.0065  -28.3433   24.1238 H   0  0  0  0  0  0
  -20.5637  -26.2427   23.3674 H   0  0  0  0  0  0
  -21.6659  -26.7350   22.1239 H   0  0  0  0  0  0
  -19.6926  -25.6233   21.1318 H   0  0  0  0  0  0
  -19.6725  -27.3102   20.6697 H   0  0  0  0  0  0
  -17.4230  -26.6684   21.4026 H   0  0  0  0  0  0
  -18.0348  -26.0107   22.9033 H   0  0  0  0  0  0
  -19.7987  -30.7346   24.2156 H   0  0  0  0  0  0
  -17.5048  -31.6277   24.5156 H   0  0  0  0  0  0
  -15.5384  -30.2953   23.7719 H   0  0  0  0  0  0
  -15.8720  -28.0781   22.7148 H   0  0  0  0  0  0
  -24.5839  -30.7208   25.7569 H   0  0  0  0  0  0
  -24.8735  -32.3172   26.4344 H   0  0  0  0  0  0
  -25.7695  -30.9314   27.0262 H   0  0  0  0  0  0
  -26.3288  -29.6314   24.1894 H   0  0  0  0  0  0
  -27.3937  -29.7357   25.5650 H   0  0  0  0  0  0
  -27.9311  -30.3818   24.0389 H   0  0  0  0  0  0
  -27.2559  -33.3822   26.1775 H   0  0  0  0  0  0
  -28.3986  -32.6785   25.0436 H   0  0  0  0  0  0
  -28.0538  -31.8756   26.5678 H   0  0  0  0  0  0
  -28.2284  -38.0249   24.7899 H   0  0  0  0  0  0
  -28.1447  -36.2840   24.5603 H   0  0  0  0  0  0
  -27.2440  -37.0502   25.8768 H   0  0  0  0  0  0
  -20.9721  -29.8736   21.6528 H   0  0  0  0  0  0
  -25.9986  -38.2617   24.1803 H   0  0  0  0  0  0
  -25.9382  -12.3732   18.1797 H   0  0  0  0  0  0
  -26.0201  -15.2651   17.9895 H   0  0  0  0  0  0
  -27.3420  -11.0455   20.5011 H   0  0  0  0  0  0
  -28.2925  -15.7790   22.1820 H   0  0  0  0  0  0
  -28.3991  -17.9613   20.5422 H   0  0  0  0  0  0
  -29.0088  -13.0232   23.7143 H   0  0  0  0  0  0
  -25.9728  -19.4691   19.5789 H   0  0  0  0  0  0
  -26.0821  -23.1658   20.6147 H   0  0  0  0  0  0
  -26.6339  -23.1978   18.9975 H   0  0  0  0  0  0
  1 25  1  0  0  0
  1 30  2  0  0  0
  1 82  1  0  0  0
  2  3  1  0  0  0
  2 25  1  0  0  0
  2 84  1  0  0  0
  2 85  1  0  0  0
  3  4  1  0  0  0
  3 86  1  0  0  0
  3 87  1  0  0  0
  4  5  1  0  0  0
  4 88  1  0  0  0
  4 89  1  0  0  0
  5  6  1  0  0  0
  5 26  1  0  0  0
  5 90  1  0  0  0
  6 25  1  0  0  0
  6 91  1  0  0  0
  6 92  1  0  0  0
  7  8  2  0  0  0
  7 26  1  0  0  0
  7 29  1  0  0  0
  8  9  1  0  0  0
  8 22  1  0  0  0
  9 10  1  0  0  0
  9 27  2  0  0  0
 10 11  2  0  0  0
 10 15  1  0  0  0
 11 12  1  0  0  0
 11 93  1  0  0  0
 12 13  2  0  0  0
 12 94  1  0  0  0
 13 14  1  0  0  0
 13 31  1  0  0  0
 14 15  2  0  0  0
 14 95  1  0  0  0
 15 96  1  0  0  0
 16 17  2  0  0  0
 16 21  1  0  0  0
 16 31  1  0  0  0
 17 18  1  0  0  0
 17 97  1  0  0  0
 18 19  2  0  0  0
 18 98  1  0  0  0
 19 20  1  0  0  0
 19 24  1  0  0  0
 20 21  2  0  0  0
 20 99  1  0  0  0
 21 23  1  0  0  0
 22 28  1  0  0  0
 22 32  2  0  0  0
 26 27  1  0  0  0
 28100  1  0  0  0
 28101  1  0  0  0
 29102  1  0  0  0
 29103  1  0  0  0
 33 34  1  0  0  0
 33 66  1  0  0  0
 33 70  2  0  0  0
 34 36  1  0  0  0
 34 59  1  0  0  0
 34104  1  0  0  0
 35 44  2  0  0  0
 35 45  1  0  0  0
 35 68  1  0  0  0
 36 56  1  0  0  0
 36105  1  0  0  0
 37 39  1  0  0  0
 37 47  1  0  0  0
 37 66  1  0  0  0
 37106  1  0  0  0
 38 43  2  0  0  0
 38 46  1  0  0  0
 38 47  1  0  0  0
 39 64  1  0  0  0
 39 67  2  0  0  0
 40 52  1  0  0  0
 40 53  2  0  0  0
 40 58  1  0  0  0
 41107  1  0  0  0
 41108  1  0  0  0
 41109  1  0  0  0
 41 48  1  0  0  0
 42 43  1  0  0  0
 42 66  1  0  0  0
 42110  1  0  0  0
 42111  1  0  0  0
 43 44  1  0  0  0
 44112  1  0  0  0
 45 46  2  0  0  0
 45113  1  0  0  0
 46114  1  0  0  0
 47115  1  0  0  0
 47116  1  0  0  0
 48 56  1  0  0  0
 48 65  1  0  0  0
 48117  1  0  0  0
 49 50  1  0  0  0
 49 53  1  0  0  0
 49 64  1  0  0  0
 49118  1  0  0  0
 50 51  1  0  0  0
 50119  1  0  0  0
 50120  1  0  0  0
 51 52  1  0  0  0
 51121  1  0  0  0
 51122  1  0  0  0
 52123  1  0  0  0
 52124  1  0  0  0
 53 54  1  0  0  0
 54 55  2  0  0  0
 54125  1  0  0  0
 55 57  1  0  0  0
 55126  1  0  0  0
 56 69  2  0  0  0
 57 58  2  0  0  0
 57127  1  0  0  0
 58128  1  0  0  0
 59 60  1  0  0  0
 59 61  1  0  0  0
 59 62  1  0  0  0
 60129  1  0  0  0
 60130  1  0  0  0
 60131  1  0  0  0
 61132  1  0  0  0
 61133  1  0  0  0
 61134  1  0  0  0
 62135  1  0  0  0
 62136  1  0  0  0
 62137  1  0  0  0
 63 65  1  0  0  0
 63138  1  0  0  0
 63139  1  0  0  0
 63140  1  0  0  0
 64141  1  0  0  0
 65142  1  0  0  0
 68 81  1  0  0  0
 71 72  2  0  0  0
 71 73  1  0  0  0
 71143  1  0  0  0
 72 75  1  0  0  0
 72144  1  0  0  0
 73 76  2  0  0  0
 73145  1  0  0  0
 74 75  2  0  0  0
 74 76  1  0  0  0
 74146  1  0  0  0
 75 77  1  0  0  0
 76 78  1  0  0  0
 77 79  2  0  0  0
 77147  1  0  0  0
 78 82  2  0  0  0
 78148  1  0  0  0
 79 80  1  0  0  0
 79149  1  0  0  0
 80 81  1  0  0  0
 80 83  2  0  0  0
 81150  1  0  0  0
 81151  1  0  0  0
M  ISO  4   1 100  68 101  81 101  82 100
M  END
> <chiral flag>
0

> <version>
0

> <s_m_source_file>
/data/baiqing/PycharmProjects/Reinvent-master-3.2/result/LINK_invent/BTK/process_docking_weight1_custom_product_contain_oxygen_bond_distance_aromatic_linkinvent_7_9_3/rearranged_h_0128.sdf

> <i_m_source_file_index>
19

> <r_mmod_Potential_Energy-OPLS-2005>
12896.0546875

> <r_mmod_Stretch_Energy-OPLS-2005>
6884.064453125

> <r_mmod_Bend_Energy-OPLS-2005>
1103.62121582031

> <r_mmod_Torsional_Energy-OPLS-2005>
393.62939453125

> <r_mmod_Improper_Torsional_Energy-OPLS-2005>
34.9482421875

> <r_mmod_Van_der_Waal_Energy-OPLS-2005>
2778.22900390625

> <r_mmod_Electrostatic_Energy-OPLS-2005>
-321.062438964844

> <r_mmod_Solvation_Energy-OPLS-2005>
-211.255035400391

> <b_mmod_Minimization_Converged-OPLS-2005>
0

> <r_mmod_RMS_Derivative-OPLS-2005>
4.41375684738159

$$$$
19
                    3D
 Structure written by MMmdl.
161169  0  0  1  0            999 V2000
  -30.5941  -14.7415   20.4684 C   0  0  0  0  0  0
  -30.4392  -12.4562   19.4576 C   0  0  0  0  0  0
  -29.5068  -12.4978   18.2283 C   0  0  0  0  0  0
  -28.0370  -12.3123   18.6527 C   0  0  0  0  0  0
  -27.6413  -13.2192   19.8465 C   0  0  2  0  0  0
  -28.6881  -13.1540   20.9788 C   0  0  0  0  0  0
  -25.2535  -13.8169   20.5685 C   0  0  0  0  0  0
  -24.1803  -13.0427   20.9187 C   0  0  0  0  0  0
  -24.6374  -11.6907   20.8745 C   0  0  0  0  0  0
  -23.9039  -10.4292   21.0422 C   0  0  0  0  0  0
  -24.3598   -9.4205   21.9197 C   0  0  0  0  0  0
  -23.6279   -8.2237   22.0767 C   0  0  0  0  0  0
  -22.4267   -8.0274   21.3548 C   0  0  0  0  0  0
  -21.9896   -9.0237   20.4644 C   0  0  0  0  0  0
  -22.7217  -10.2122   20.3061 C   0  0  0  0  0  0
  -21.6856   -6.0723   22.5274 C   0  0  0  0  0  0
  -21.4018   -6.5633   23.8202 C   0  0  0  0  0  0
  -21.3656   -5.6790   24.9165 C   0  0  0  0  0  0
  -21.6049   -4.3055   24.7225 C   0  0  0  0  0  0
  -21.8827   -3.8141   23.4352 C   0  0  0  0  0  0
  -21.9198   -4.6950   22.3404 C   0  0  0  0  0  0
  -22.7832  -13.5224   21.1843 C   0  0  0  0  0  0
  -22.1667   -4.2126   21.0985 F   0  0  0  0  0  0
  -21.5624   -3.4548   25.7744 F   0  0  0  0  0  0
  -29.9830  -13.5123   20.3868 N   0  0  0  0  0  0
  -26.2933  -12.9340   20.3265 N   0  0  0  0  0  0
  -25.9294  -11.6503   20.5739 N   0  0  0  0  0  0
  -22.0483  -12.8209   22.0407 N   0  0  0  0  0  0
  -25.4251  -15.1884   20.4107 N   0  0  0  0  0  0
  -31.8000  -14.8495   20.2268 O   0  0  0  0  0  0
  -21.6641   -6.8868   21.4238 O   0  0  0  0  0  0
  -22.3518  -14.5524   20.6688 O   0  0  0  0  0  0
  -24.6268  -31.8552   23.1985 C   0  0  0  0  0  0
  -25.9100  -32.4743   23.8329 C   0  0  1  0  0  0
  -27.2245  -27.2659   20.1417 C   0  0  0  0  0  0
  -25.5885  -33.8550   24.2233 N   0  0  0  0  0  0
  -23.4258  -30.4740   21.5420 C   0  0  2  0  0  0
  -24.8767  -28.9172   20.1165 C   0  0  0  0  0  0
  -22.7481  -29.4592   22.4933 C   0  0  0  0  0  0
  -18.0286  -28.1389   22.8489 C   0  0  0  0  0  0
  -24.1485  -36.7288   23.2645 C   0  0  0  0  0  0
  -25.9710  -30.7660   21.3840 C   0  0  0  0  0  0
  -26.0465  -29.3895   20.7262 C   0  0  0  0  0  0
  -27.2268  -28.5783   20.7217 C   0  0  0  0  0  0
  -26.0348  -26.8572   19.5047 C   0  0  0  0  0  0
  -24.8760  -27.6587   19.4924 C   0  0  0  0  0  0
  -23.6444  -29.8001   20.1622 C   0  0  0  0  0  0
  -25.4117  -36.3063   24.0319 C   0  0  1  0  0  0
  -20.5889  -28.3686   23.1273 C   0  0  2  0  0  0
  -20.6770  -26.9409   22.5412 C   0  0  0  0  0  0
  -19.5752  -26.6390   21.5209 C   0  0  0  0  0  0
  -18.1934  -26.7939   22.1622 C   0  0  0  0  0  0
  -19.1544  -28.8856   23.2867 C   0  0  0  0  0  0
  -18.9467  -30.1458   23.8881 C   0  0  0  0  0  0
  -17.6466  -30.6591   24.0559 C   0  0  0  0  0  0
  -25.9047  -34.9429   23.5087 C   0  0  0  0  0  0
  -16.5354  -29.9088   23.6337 C   0  0  0  0  0  0
  -16.7274  -28.6504   23.0364 C   0  0  0  0  0  0
  -26.4493  -31.6581   25.0722 C   0  0  0  0  0  0
  -25.3705  -31.3735   26.1427 C   0  0  0  0  0  0
  -27.0380  -30.2990   24.6255 C   0  0  0  0  0  0
  -27.6023  -32.4376   25.7494 C   0  0  0  0  0  0
  -27.5592  -37.1777   24.8454 C   0  0  0  0  0  0
  -21.4197  -29.3022   22.3654 N   0  0  0  0  0  0
  -26.4301  -37.3755   23.9402 N   0  0  0  0  0  0
  -24.6930  -31.0506   22.0969 N   0  0  0  0  0  0
  -23.4177  -28.8148   23.3044 O   0  0  0  0  0  0
  -28.3243  -26.3806   20.1544 O   0  0  0  0  0  0
  -26.5654  -34.8908   22.4675 O   0  0  0  0  0  0
  -23.5413  -32.1391   23.7258 O   0  0  0  0  0  0
  -30.8193  -17.5323   22.0115 C   0  0  0  0  0  0
  -30.3826  -19.9491   21.8770 C   0  0  0  0  0  0
  -29.4091  -18.4349   20.2505 C   0  0  0  0  0  0
  -30.9910  -18.8408   22.5200 C   0  0  0  0  0  0
  -30.0246  -17.2721   20.8763 C   0  0  0  0  0  0
  -29.5762  -19.8028   20.7253 C   0  0  0  0  0  0
  -31.7696  -19.0001   23.7617 C   0  0  0  0  0  0
  -31.8088  -20.0957   24.5426 C   0  0  0  0  0  0
  -32.6378  -20.2130   25.8026 C   0  0  0  0  0  0
  -30.3558  -23.9407   19.8619 C   0  0  0  0  0  0
  -28.1305  -24.9783   20.6683 C   0  0  0  0  0  0
  -28.6617  -22.2345   20.7513 C   0  0  0  0  0  0
  -28.8512  -23.6730   20.0162 C   0  0  2  0  0  0
  -29.7695  -15.8583   20.5066 N   0  0  0  0  0  0
  -29.0322  -20.9497   20.0666 O   0  0  0  0  0  0
  -31.4747  -12.6036   19.1465 H   0  0  0  0  0  0
  -30.4058  -11.4782   19.9402 H   0  0  0  0  0  0
  -29.7905  -11.7235   17.5143 H   0  0  0  0  0  0
  -29.6244  -13.4515   17.7110 H   0  0  0  0  0  0
  -27.9104  -11.2657   18.9335 H   0  0  0  0  0  0
  -27.3691  -12.4829   17.8071 H   0  0  0  0  0  0
  -27.6332  -14.2368   19.4570 H   0  0  0  0  0  0
  -28.7292  -12.1581   21.4220 H   0  0  0  0  0  0
  -28.4245  -13.8386   21.7872 H   0  0  0  0  0  0
  -25.2751   -9.5675   22.4761 H   0  0  0  0  0  0
  -23.9987   -7.4641   22.7500 H   0  0  0  0  0  0
  -21.0827   -8.8747   19.8954 H   0  0  0  0  0  0
  -22.3682  -10.9651   19.6160 H   0  0  0  0  0  0
  -21.2017   -7.6143   23.9684 H   0  0  0  0  0  0
  -21.1468   -6.0532   25.9056 H   0  0  0  0  0  0
  -22.0613   -2.7605   23.2857 H   0  0  0  0  0  0
  -22.4097  -11.9855   22.4769 H   0  0  0  0  0  0
  -21.1093  -13.1219   22.2610 H   0  0  0  0  0  0
  -24.6588  -15.8435   20.5202 H   0  0  0  0  0  0
  -26.2718  -15.6311   20.0799 H   0  0  0  0  0  0
  -26.7152  -32.5397   23.1059 H   0  0  0  0  0  0
  -24.9919  -33.9675   25.0302 H   0  0  0  0  0  0
  -22.7195  -31.2935   21.3914 H   0  0  0  0  0  0
  -23.3751  -35.9617   23.3298 H   0  0  0  0  0  0
  -24.3541  -36.8942   22.2059 H   0  0  0  0  0  0
  -23.7248  -37.6476   23.6703 H   0  0  0  0  0  0
  -26.1151  -31.5267   20.6157 H   0  0  0  0  0  0
  -26.8446  -30.8078   22.0230 H   0  0  0  0  0  0
  -28.1266  -28.9384   21.2014 H   0  0  0  0  0  0
  -25.9967  -25.8927   19.0199 H   0  0  0  0  0  0
  -23.9826  -27.2913   19.0063 H   0  0  0  0  0  0
  -23.7572  -30.5700   19.3989 H   0  0  0  0  0  0
  -22.7647  -29.2242   19.8690 H   0  0  0  0  0  0
  -25.1300  -36.1904   25.0817 H   0  0  0  0  0  0
  -20.9959  -28.3281   24.1397 H   0  0  0  0  0  0
  -20.5657  -26.2301   23.3616 H   0  0  0  0  0  0
  -21.6640  -26.7430   22.1214 H   0  0  0  0  0  0
  -19.6904  -25.6301   21.1241 H   0  0  0  0  0  0
  -19.6696  -27.3192   20.6740 H   0  0  0  0  0  0
  -17.4198  -26.6686   21.4029 H   0  0  0  0  0  0
  -18.0326  -26.0085   22.9019 H   0  0  0  0  0  0
  -19.7943  -30.7281   24.2248 H   0  0  0  0  0  0
  -17.5022  -31.6271   24.5169 H   0  0  0  0  0  0
  -15.5353  -30.2978   23.7676 H   0  0  0  0  0  0
  -15.8683  -28.0807   22.7097 H   0  0  0  0  0  0
  -24.5842  -30.7149   25.7724 H   0  0  0  0  0  0
  -24.8936  -32.2909   26.4882 H   0  0  0  0  0  0
  -25.7978  -30.8850   27.0190 H   0  0  0  0  0  0
  -26.2988  -29.6680   24.1297 H   0  0  0  0  0  0
  -27.4064  -29.7302   25.4805 H   0  0  0  0  0  0
  -27.8862  -30.4256   23.9524 H   0  0  0  0  0  0
  -27.2590  -33.3666   26.2067 H   0  0  0  0  0  0
  -28.3817  -32.6978   25.0320 H   0  0  0  0  0  0
  -28.0730  -31.8536   26.5407 H   0  0  0  0  0  0
  -28.2580  -38.0103   24.7524 H   0  0  0  0  0  0
  -28.1128  -36.2626   24.6273 H   0  0  0  0  0  0
  -27.2289  -37.1405   25.8850 H   0  0  0  0  0  0
  -20.9386  -29.8695   21.6814 H   0  0  0  0  0  0
  -26.0183  -38.2826   24.1425 H   0  0  0  0  0  0
  -31.2733  -16.7044   22.5380 H   0  0  0  0  0  0
  -30.5747  -20.9354   22.2652 H   0  0  0  0  0  0
  -28.7851  -18.2740   19.3835 H   0  0  0  0  0  0
  -32.3673  -18.1469   24.0552 H   0  0  0  0  0  0
  -31.2317  -20.9735   24.2960 H   0  0  0  0  0  0
  -33.4149  -20.9652   25.6666 H   0  0  0  0  0  0
  -33.1152  -19.2668   26.0573 H   0  0  0  0  0  0
  -32.0108  -20.5168   26.6417 H   0  0  0  0  0  0
  -30.5440  -24.8521   19.2946 H   0  0  0  0  0  0
  -30.8478  -23.1186   19.3406 H   0  0  0  0  0  0
  -30.8393  -24.0510   20.8334 H   0  0  0  0  0  0
  -28.4595  -25.0239   21.7066 H   0  0  0  0  0  0
  -27.0658  -24.7593   20.7441 H   0  0  0  0  0  0
  -27.5967  -22.1290   20.9574 H   0  0  0  0  0  0
  -29.1111  -22.3082   21.7387 H   0  0  0  0  0  0
  -28.4352  -23.5670   19.0133 H   0  0  0  0  0  0
  -28.7982  -15.6367   20.3572 H   0  0  0  0  0  0
  1 25  1  0  0  0
  1 30  2  0  0  0
  1 84  1  0  0  0
  2  3  1  0  0  0
  2 25  1  0  0  0
  2 86  1  0  0  0
  2 87  1  0  0  0
  3  4  1  0  0  0
  3 88  1  0  0  0
  3 89  1  0  0  0
  4  5  1  0  0  0
  4 90  1  0  0  0
  4 91  1  0  0  0
  5  6  1  0  0  0
  5 26  1  0  0  0
  5 92  1  0  0  0
  6 25  1  0  0  0
  6 93  1  0  0  0
  6 94  1  0  0  0
  7  8  2  0  0  0
  7 26  1  0  0  0
  7 29  1  0  0  0
  8  9  1  0  0  0
  8 22  1  0  0  0
  9 10  1  0  0  0
  9 27  2  0  0  0
 10 11  2  0  0  0
 10 15  1  0  0  0
 11 12  1  0  0  0
 11 95  1  0  0  0
 12 13  2  0  0  0
 12 96  1  0  0  0
 13 14  1  0  0  0
 13 31  1  0  0  0
 14 15  2  0  0  0
 14 97  1  0  0  0
 15 98  1  0  0  0
 16 17  2  0  0  0
 16 21  1  0  0  0
 16 31  1  0  0  0
 17 18  1  0  0  0
 17 99  1  0  0  0
 18 19  2  0  0  0
 18100  1  0  0  0
 19 20  1  0  0  0
 19 24  1  0  0  0
 20 21  2  0  0  0
 20101  1  0  0  0
 21 23  1  0  0  0
 22 28  1  0  0  0
 22 32  2  0  0  0
 26 27  1  0  0  0
 28102  1  0  0  0
 28103  1  0  0  0
 29104  1  0  0  0
 29105  1  0  0  0
 33 34  1  0  0  0
 33 66  1  0  0  0
 33 70  2  0  0  0
 34 36  1  0  0  0
 34 59  1  0  0  0
 34106  1  0  0  0
 35 44  2  0  0  0
 35 45  1  0  0  0
 35 68  1  0  0  0
 36 56  1  0  0  0
 36107  1  0  0  0
 37 39  1  0  0  0
 37 47  1  0  0  0
 37 66  1  0  0  0
 37108  1  0  0  0
 38 43  2  0  0  0
 38 46  1  0  0  0
 38 47  1  0  0  0
 39 64  1  0  0  0
 39 67  2  0  0  0
 40 52  1  0  0  0
 40 53  2  0  0  0
 40 58  1  0  0  0
 41109  1  0  0  0
 41110  1  0  0  0
 41111  1  0  0  0
 41 48  1  0  0  0
 42 43  1  0  0  0
 42 66  1  0  0  0
 42112  1  0  0  0
 42113  1  0  0  0
 43 44  1  0  0  0
 44114  1  0  0  0
 45 46  2  0  0  0
 45115  1  0  0  0
 46116  1  0  0  0
 47117  1  0  0  0
 47118  1  0  0  0
 48 56  1  0  0  0
 48 65  1  0  0  0
 48119  1  0  0  0
 49 50  1  0  0  0
 49 53  1  0  0  0
 49 64  1  0  0  0
 49120  1  0  0  0
 50 51  1  0  0  0
 50121  1  0  0  0
 50122  1  0  0  0
 51 52  1  0  0  0
 51123  1  0  0  0
 51124  1  0  0  0
 52125  1  0  0  0
 52126  1  0  0  0
 53 54  1  0  0  0
 54 55  2  0  0  0
 54127  1  0  0  0
 55 57  1  0  0  0
 55128  1  0  0  0
 56 69  2  0  0  0
 57 58  2  0  0  0
 57129  1  0  0  0
 58130  1  0  0  0
 59 60  1  0  0  0
 59 61  1  0  0  0
 59 62  1  0  0  0
 60131  1  0  0  0
 60132  1  0  0  0
 60133  1  0  0  0
 61134  1  0  0  0
 61135  1  0  0  0
 61136  1  0  0  0
 62137  1  0  0  0
 62138  1  0  0  0
 62139  1  0  0  0
 63 65  1  0  0  0
 63140  1  0  0  0
 63141  1  0  0  0
 63142  1  0  0  0
 64143  1  0  0  0
 65144  1  0  0  0
 68 81  1  0  0  0
 71 74  2  0  0  0
 71 75  1  0  0  0
 71145  1  0  0  0
 72 74  1  0  0  0
 72 76  2  0  0  0
 72146  1  0  0  0
 73 75  2  0  0  0
 73 76  1  0  0  0
 73147  1  0  0  0
 74 77  1  0  0  0
 75 84  1  0  0  0
 76 85  1  0  0  0
 77 78  2  0  0  0
 77148  1  0  0  0
 78 79  1  0  0  0
 78149  1  0  0  0
 79150  1  0  0  0
 79151  1  0  0  0
 79152  1  0  0  0
 80153  1  0  0  0
 80154  1  0  0  0
 80155  1  0  0  0
 80 83  1  0  0  0
 81 83  1  0  0  0
 81156  1  0  0  0
 81157  1  0  0  0
 82 83  1  0  0  0
 82 85  1  0  0  0
 82158  1  0  0  0
 82159  1  0  0  0
 83160  1  0  0  0
 84161  1  0  0  0
M  ISO  4   1 100  68 101  81 101  84 100
M  END
> <chiral flag>
0

> <version>
0

> <s_m_source_file>
/data/baiqing/PycharmProjects/Reinvent-master-3.2/result/LINK_invent/BTK/process_docking_weight1_custom_product_contain_oxygen_bond_distance_aromatic_linkinvent_7_9_3/rearranged_h_0128.sdf

> <i_m_source_file_index>
20

> <r_mmod_Potential_Energy-OPLS-2005>
237.888488769531

> <r_mmod_Stretch_Energy-OPLS-2005>
124.537200927734

> <r_mmod_Bend_Energy-OPLS-2005>
168.666870117188

> <r_mmod_Torsional_Energy-OPLS-2005>
263.923431396484

> <r_mmod_Improper_Torsional_Energy-OPLS-2005>
8.58044910430908

> <r_mmod_Van_der_Waal_Energy-OPLS-2005>
137.651153564453

> <r_mmod_Electrostatic_Energy-OPLS-2005>
-340.706298828125

> <r_mmod_Solvation_Energy-OPLS-2005>
-209.600463867188

> <b_mmod_Minimization_Converged-OPLS-2005>
0

> <r_mmod_RMS_Derivative-OPLS-2005>
2.04234743118286

$$$$
20
                    3D
 Structure written by MMmdl.
168176  0  0  1  0            999 V2000
  -30.6926  -14.5243   20.6047 C   0  0  0  0  0  0
  -30.4404  -12.3465   19.4414 C   0  0  0  0  0  0
  -29.5093  -12.5092   18.2205 C   0  0  0  0  0  0
  -28.0301  -12.3508   18.6250 C   0  0  0  0  0  0
  -27.6621  -13.1993   19.8694 C   0  0  2  0  0  0
  -28.7034  -13.0025   20.9978 C   0  0  0  0  0  0
  -25.2523  -13.8002   20.5607 C   0  0  0  0  0  0
  -24.1813  -13.0326   20.9223 C   0  0  0  0  0  0
  -24.6385  -11.6817   20.8753 C   0  0  0  0  0  0
  -23.9043  -10.4242   21.0421 C   0  0  0  0  0  0
  -24.3602   -9.4167   21.9190 C   0  0  0  0  0  0
  -23.6289   -8.2200   22.0745 C   0  0  0  0  0  0
  -22.4264   -8.0253   21.3546 C   0  0  0  0  0  0
  -21.9898   -9.0217   20.4635 C   0  0  0  0  0  0
  -22.7222  -10.2099   20.3057 C   0  0  0  0  0  0
  -21.6832   -6.0719   22.5276 C   0  0  0  0  0  0
  -21.3989   -6.5623   23.8207 C   0  0  0  0  0  0
  -21.3673   -5.6780   24.9173 C   0  0  0  0  0  0
  -21.6058   -4.3044   24.7219 C   0  0  0  0  0  0
  -21.8827   -3.8134   23.4339 C   0  0  0  0  0  0
  -21.9183   -4.6949   22.3399 C   0  0  0  0  0  0
  -22.7846  -13.5178   21.1871 C   0  0  0  0  0  0
  -22.1658   -4.2132   21.0976 F   0  0  0  0  0  0
  -21.5653   -3.4531   25.7735 F   0  0  0  0  0  0
  -30.0406  -13.3296   20.4653 N   0  0  0  0  0  0
  -26.3010  -12.9235   20.3305 N   0  0  0  0  0  0
  -25.9312  -11.6411   20.5753 N   0  0  0  0  0  0
  -22.0446  -12.8213   22.0432 N   0  0  0  0  0  0
  -25.4013  -15.1657   20.3809 N   0  0  0  0  0  0
  -31.7758  -14.7564   20.0619 O   0  0  0  0  0  0
  -21.6625   -6.8857   21.4238 O   0  0  0  0  0  0
  -22.3563  -14.5494   20.6702 O   0  0  0  0  0  0
  -24.6147  -31.8677   23.2133 C   0  0  0  0  0  0
  -25.9036  -32.4803   23.8417 C   0  0  1  0  0  0
  -27.2544  -27.4308   20.1232 C   0  0  0  0  0  0
  -25.5878  -33.8591   24.2356 N   0  0  0  0  0  0
  -23.4057  -30.4907   21.5511 C   0  0  2  0  0  0
  -24.8609  -28.9539   20.1220 C   0  0  0  0  0  0
  -22.7419  -29.4658   22.4976 C   0  0  0  0  0  0
  -18.0277  -28.1381   22.8505 C   0  0  0  0  0  0
  -24.1481  -36.7309   23.2651 C   0  0  0  0  0  0
  -25.9340  -30.8323   21.3683 C   0  0  0  0  0  0
  -26.0177  -29.4604   20.7308 C   0  0  0  0  0  0
  -27.2146  -28.7061   20.7429 C   0  0  0  0  0  0
  -26.0846  -26.9472   19.5016 C   0  0  0  0  0  0
  -24.8876  -27.6900   19.5076 C   0  0  0  0  0  0
  -23.6201  -29.8209   20.1669 C   0  0  0  0  0  0
  -25.4092  -36.3089   24.0364 C   0  0  1  0  0  0
  -20.5869  -28.3664   23.1311 C   0  0  2  0  0  0
  -20.6756  -26.9394   22.5406 C   0  0  0  0  0  0
  -19.5731  -26.6395   21.5198 C   0  0  0  0  0  0
  -18.1921  -26.7936   22.1620 C   0  0  0  0  0  0
  -19.1528  -28.8844   23.2920 C   0  0  0  0  0  0
  -18.9453  -30.1445   23.8922 C   0  0  0  0  0  0
  -17.6458  -30.6594   24.0558 C   0  0  0  0  0  0
  -25.9028  -34.9459   23.5163 C   0  0  0  0  0  0
  -16.5348  -29.9096   23.6321 C   0  0  0  0  0  0
  -16.7266  -28.6506   23.0365 C   0  0  0  0  0  0
  -26.4468  -31.6572   25.0730 C   0  0  0  0  0  0
  -25.3747  -31.3678   26.1496 C   0  0  0  0  0  0
  -27.0312  -30.3019   24.6091 C   0  0  0  0  0  0
  -27.6065  -32.4283   25.7464 C   0  0  0  0  0  0
  -27.5578  -37.1804   24.8463 C   0  0  0  0  0  0
  -21.4143  -29.3031   22.3705 N   0  0  0  0  0  0
  -26.4270  -37.3776   23.9440 N   0  0  0  0  0  0
  -24.6690  -31.0782   22.1020 N   0  0  0  0  0  0
  -23.4186  -28.8196   23.3024 O   0  0  0  0  0  0
  -28.3682  -26.6159   20.0555 O   0  0  0  0  0  0
  -26.5589  -34.8913   22.4725 O   0  0  0  0  0  0
  -23.5339  -32.1425   23.7517 O   0  0  0  0  0  0
  -28.4408  -17.0322   20.5375 C   0  0  0  0  0  0
  -30.6120  -17.9126   21.1277 C   0  0  0  0  0  0
  -28.0049  -18.3134   20.1488 C   0  0  0  0  0  0
  -30.1805  -19.2391   20.8063 C   0  0  0  0  0  0
  -28.8643  -19.4372   20.2729 C   0  0  0  0  0  0
  -29.7493  -16.7947   20.9839 C   0  0  0  0  0  0
  -30.7573  -22.9227   21.0757 C   0  0  0  0  0  0
  -30.6662  -21.6943   21.6432 C   0  0  0  0  0  0
  -30.1574  -24.1488   21.6677 C   0  0  0  0  0  0
  -26.5917  -18.4449   19.5989 C   0  0  0  0  0  0
  -28.5648  -22.7410   18.1322 C   0  0  0  0  0  0
  -31.1838  -20.3979   21.0093 C   0  0  0  0  0  0
  -28.3452  -20.8169   19.8218 C   0  0  0  0  0  0
  -30.3829  -25.4943   20.9393 C   0  0  0  0  0  0
  -28.9435  -21.2935   18.4858 C   0  0  0  0  0  0
  -29.3194  -26.6228   21.1245 C   0  0  0  0  0  0
  -30.0679  -15.4479   21.3701 N   0  0  0  0  0  0
  -29.5162  -24.1283   22.7226 O   0  0  0  0  0  0
  -31.4806  -12.4688   19.1365 H   0  0  0  0  0  0
  -30.3707  -11.3372   19.8487 H   0  0  0  0  0  0
  -29.7686  -11.7756   17.4552 H   0  0  0  0  0  0
  -29.6644  -13.4900   17.7701 H   0  0  0  0  0  0
  -27.8553  -11.2950   18.8353 H   0  0  0  0  0  0
  -27.3792  -12.6047   17.7854 H   0  0  0  0  0  0
  -27.6995  -14.2382   19.5510 H   0  0  0  0  0  0
  -28.6941  -11.9660   21.3396 H   0  0  0  0  0  0
  -28.4344  -13.5976   21.8717 H   0  0  0  0  0  0
  -25.2736   -9.5647   22.4772 H   0  0  0  0  0  0
  -23.9993   -7.4590   22.7477 H   0  0  0  0  0  0
  -21.0817   -8.8734   19.8956 H   0  0  0  0  0  0
  -22.3676  -10.9638   19.6176 H   0  0  0  0  0  0
  -21.1960   -7.6125   23.9700 H   0  0  0  0  0  0
  -21.1499   -6.0508   25.9075 H   0  0  0  0  0  0
  -22.0596   -2.7590   23.2835 H   0  0  0  0  0  0
  -22.4015  -11.9890   22.4888 H   0  0  0  0  0  0
  -21.1055  -13.1269   22.2583 H   0  0  0  0  0  0
  -24.5826  -15.7642   20.3986 H   0  0  0  0  0  0
  -26.1578  -15.5454   19.8287 H   0  0  0  0  0  0
  -26.7116  -32.5506   23.1194 H   0  0  0  0  0  0
  -24.9998  -33.9709   25.0483 H   0  0  0  0  0  0
  -22.6951  -31.3071   21.4105 H   0  0  0  0  0  0
  -23.3703  -35.9671   23.3268 H   0  0  0  0  0  0
  -24.3621  -36.8942   22.2078 H   0  0  0  0  0  0
  -23.7263  -37.6527   23.6663 H   0  0  0  0  0  0
  -26.0444  -31.5891   20.5901 H   0  0  0  0  0  0
  -26.8219  -30.8953   21.9838 H   0  0  0  0  0  0
  -28.0964  -29.1137   21.2135 H   0  0  0  0  0  0
  -26.0983  -25.9780   19.0215 H   0  0  0  0  0  0
  -24.0001  -27.2857   19.0392 H   0  0  0  0  0  0
  -23.7313  -30.5947   19.4063 H   0  0  0  0  0  0
  -22.7428  -29.2422   19.8706 H   0  0  0  0  0  0
  -25.1270  -36.1938   25.0853 H   0  0  0  0  0  0
  -20.9968  -28.3212   24.1428 H   0  0  0  0  0  0
  -20.5621  -26.2270   23.3596 H   0  0  0  0  0  0
  -21.6639  -26.7422   22.1210 H   0  0  0  0  0  0
  -19.6871  -25.6308   21.1226 H   0  0  0  0  0  0
  -19.6674  -27.3203   20.6722 H   0  0  0  0  0  0
  -17.4189  -26.6677   21.4026 H   0  0  0  0  0  0
  -18.0324  -26.0079   22.9012 H   0  0  0  0  0  0
  -19.7932  -30.7257   24.2300 H   0  0  0  0  0  0
  -17.5022  -31.6266   24.5163 H   0  0  0  0  0  0
  -15.5354  -30.3015   23.7654 H   0  0  0  0  0  0
  -15.8650  -28.0829   22.7096 H   0  0  0  0  0  0
  -24.5903  -30.7037   25.7847 H   0  0  0  0  0  0
  -24.8943  -32.2833   26.4967 H   0  0  0  0  0  0
  -25.8114  -30.8838   27.0246 H   0  0  0  0  0  0
  -26.2852  -29.6748   24.1193 H   0  0  0  0  0  0
  -27.4166  -29.7287   25.4538 H   0  0  0  0  0  0
  -27.8647  -30.4349   23.9189 H   0  0  0  0  0  0
  -27.2709  -33.3590   26.2056 H   0  0  0  0  0  0
  -28.3852  -32.6839   25.0260 H   0  0  0  0  0  0
  -28.0751  -31.8392   26.5361 H   0  0  0  0  0  0
  -28.2570  -38.0122   24.7541 H   0  0  0  0  0  0
  -28.1112  -36.2674   24.6228 H   0  0  0  0  0  0
  -27.2337  -37.1376   25.8873 H   0  0  0  0  0  0
  -20.9307  -29.8734   21.6908 H   0  0  0  0  0  0
  -26.0141  -38.2842   24.1439 H   0  0  0  0  0  0
  -27.7554  -16.2060   20.4807 H   0  0  0  0  0  0
  -31.6115  -17.7564   21.5076 H   0  0  0  0  0  0
  -31.2639  -23.0329   20.1284 H   0  0  0  0  0  0
  -30.1784  -21.5816   22.6017 H   0  0  0  0  0  0
  -26.1468  -17.4758   19.3905 H   0  0  0  0  0  0
  -26.5863  -18.9901   18.6558 H   0  0  0  0  0  0
  -25.9480  -18.9619   20.3115 H   0  0  0  0  0  0
  -29.0207  -23.0421   17.1873 H   0  0  0  0  0  0
  -28.9103  -23.4395   18.8941 H   0  0  0  0  0  0
  -27.4854  -22.8620   18.0294 H   0  0  0  0  0  0
  -31.6480  -20.6202   20.0476 H   0  0  0  0  0  0
  -31.9948  -20.0477   21.6492 H   0  0  0  0  0  0
  -28.4729  -21.5533   20.6067 H   0  0  0  0  0  0
  -27.2639  -20.8280   19.7216 H   0  0  0  0  0  0
  -30.5470  -25.3104   19.8776 H   0  0  0  0  0  0
  -31.3314  -25.8683   21.3220 H   0  0  0  0  0  0
  -30.0285  -21.2187   18.5148 H   0  0  0  0  0  0
  -28.6118  -20.6282   17.6883 H   0  0  0  0  0  0
  -29.8388  -27.5801   21.1256 H   0  0  0  0  0  0
  -28.8100  -26.5411   22.0842 H   0  0  0  0  0  0
  -29.3205  -15.0068   21.8836 H   0  0  0  0  0  0
  1 25  1  0  0  0
  1 30  2  0  0  0
  1 87  1  0  0  0
  2  3  1  0  0  0
  2 25  1  0  0  0
  2 89  1  0  0  0
  2 90  1  0  0  0
  3  4  1  0  0  0
  3 91  1  0  0  0
  3 92  1  0  0  0
  4  5  1  0  0  0
  4 93  1  0  0  0
  4 94  1  0  0  0
  5  6  1  0  0  0
  5 26  1  0  0  0
  5 95  1  0  0  0
  6 25  1  0  0  0
  6 96  1  0  0  0
  6 97  1  0  0  0
  7  8  2  0  0  0
  7 26  1  0  0  0
  7 29  1  0  0  0
  8  9  1  0  0  0
  8 22  1  0  0  0
  9 10  1  0  0  0
  9 27  2  0  0  0
 10 11  2  0  0  0
 10 15  1  0  0  0
 11 12  1  0  0  0
 11 98  1  0  0  0
 12 13  2  0  0  0
 12 99  1  0  0  0
 13 14  1  0  0  0
 13 31  1  0  0  0
 14 15  2  0  0  0
 14100  1  0  0  0
 15101  1  0  0  0
 16 17  2  0  0  0
 16 21  1  0  0  0
 16 31  1  0  0  0
 17 18  1  0  0  0
 17102  1  0  0  0
 18 19  2  0  0  0
 18103  1  0  0  0
 19 20  1  0  0  0
 19 24  1  0  0  0
 20 21  2  0  0  0
 20104  1  0  0  0
 21 23  1  0  0  0
 22 28  1  0  0  0
 22 32  2  0  0  0
 26 27  1  0  0  0
 28105  1  0  0  0
 28106  1  0  0  0
 29107  1  0  0  0
 29108  1  0  0  0
 33 34  1  0  0  0
 33 66  1  0  0  0
 33 70  2  0  0  0
 34 36  1  0  0  0
 34 59  1  0  0  0
 34109  1  0  0  0
 35 44  2  0  0  0
 35 45  1  0  0  0
 35 68  1  0  0  0
 36 56  1  0  0  0
 36110  1  0  0  0
 37 39  1  0  0  0
 37 47  1  0  0  0
 37 66  1  0  0  0
 37111  1  0  0  0
 38 43  2  0  0  0
 38 46  1  0  0  0
 38 47  1  0  0  0
 39 64  1  0  0  0
 39 67  2  0  0  0
 40 52  1  0  0  0
 40 53  2  0  0  0
 40 58  1  0  0  0
 41112  1  0  0  0
 41113  1  0  0  0
 41114  1  0  0  0
 41 48  1  0  0  0
 42 43  1  0  0  0
 42 66  1  0  0  0
 42115  1  0  0  0
 42116  1  0  0  0
 43 44  1  0  0  0
 44117  1  0  0  0
 45 46  2  0  0  0
 45118  1  0  0  0
 46119  1  0  0  0
 47120  1  0  0  0
 47121  1  0  0  0
 48 56  1  0  0  0
 48 65  1  0  0  0
 48122  1  0  0  0
 49 50  1  0  0  0
 49 53  1  0  0  0
 49 64  1  0  0  0
 49123  1  0  0  0
 50 51  1  0  0  0
 50124  1  0  0  0
 50125  1  0  0  0
 51 52  1  0  0  0
 51126  1  0  0  0
 51127  1  0  0  0
 52128  1  0  0  0
 52129  1  0  0  0
 53 54  1  0  0  0
 54 55  2  0  0  0
 54130  1  0  0  0
 55 57  1  0  0  0
 55131  1  0  0  0
 56 69  2  0  0  0
 57 58  2  0  0  0
 57132  1  0  0  0
 58133  1  0  0  0
 59 60  1  0  0  0
 59 61  1  0  0  0
 59 62  1  0  0  0
 60134  1  0  0  0
 60135  1  0  0  0
 60136  1  0  0  0
 61137  1  0  0  0
 61138  1  0  0  0
 61139  1  0  0  0
 62140  1  0  0  0
 62141  1  0  0  0
 62142  1  0  0  0
 63 65  1  0  0  0
 63143  1  0  0  0
 63144  1  0  0  0
 63145  1  0  0  0
 64146  1  0  0  0
 65147  1  0  0  0
 68 86  1  0  0  0
 71 73  2  0  0  0
 71 76  1  0  0  0
 71148  1  0  0  0
 72 74  1  0  0  0
 72 76  2  0  0  0
 72149  1  0  0  0
 73 75  1  0  0  0
 73 80  1  0  0  0
 74 75  2  0  0  0
 74 82  1  0  0  0
 75 83  1  0  0  0
 76 87  1  0  0  0
 77 78  2  0  0  0
 77 79  1  0  0  0
 77150  1  0  0  0
 78 82  1  0  0  0
 78151  1  0  0  0
 79 84  1  0  0  0
 79 88  2  0  0  0
 80152  1  0  0  0
 80153  1  0  0  0
 80154  1  0  0  0
 81 85  1  0  0  0
 81155  1  0  0  0
 81156  1  0  0  0
 81157  1  0  0  0
 82158  1  0  0  0
 82159  1  0  0  0
 83 85  1  0  0  0
 83160  1  0  0  0
 83161  1  0  0  0
 84 86  1  0  0  0
 84162  1  0  0  0
 84163  1  0  0  0
 85164  1  0  0  0
 85165  1  0  0  0
 86166  1  0  0  0
 86167  1  0  0  0
 87168  1  0  0  0
M  ISO  4   1 100  68 101  86 101  87 100
M  END
> <chiral flag>
0

> <version>
0

> <s_m_source_file>
/data/baiqing/PycharmProjects/Reinvent-master-3.2/result/LINK_invent/BTK/process_docking_weight1_custom_product_contain_oxygen_bond_distance_aromatic_linkinvent_7_9_3/rearranged_h_0128.sdf

> <i_m_source_file_index>
21

> <r_mmod_Potential_Energy-OPLS-2005>
-27.308895111084

> <r_mmod_Stretch_Energy-OPLS-2005>
47.5998039245605

> <r_mmod_Bend_Energy-OPLS-2005>
117.291381835938

> <r_mmod_Torsional_Energy-OPLS-2005>
247.247940063477

> <r_mmod_Improper_Torsional_Energy-OPLS-2005>
8.13002872467041

> <r_mmod_Van_der_Waal_Energy-OPLS-2005>
147.958129882812

> <r_mmod_Electrostatic_Energy-OPLS-2005>
-397.191772460938

> <r_mmod_Solvation_Energy-OPLS-2005>
-214.98779296875

> <b_mmod_Minimization_Converged-OPLS-2005>
0

> <r_mmod_RMS_Derivative-OPLS-2005>
3.0020604133606

$$$$
21
                    3D
 Structure written by MMmdl.
160168  0  0  1  0            999 V2000
  -30.4999  -14.8557   20.4805 C   0  0  0  0  0  0
  -30.4638  -12.5361   19.4738 C   0  0  0  0  0  0
  -29.5200  -12.5344   18.2436 C   0  0  0  0  0  0
  -28.0525  -12.3002   18.6615 C   0  0  0  0  0  0
  -27.6463  -13.1880   19.8621 C   0  0  2  0  0  0
  -28.7003  -13.0731   20.9886 C   0  0  0  0  0  0
  -25.2550  -13.8043   20.5659 C   0  0  0  0  0  0
  -24.1773  -13.0372   20.9111 C   0  0  0  0  0  0
  -24.6319  -11.6830   20.8701 C   0  0  0  0  0  0
  -23.8989  -10.4250   21.0399 C   0  0  0  0  0  0
  -24.3562   -9.4180   21.9175 C   0  0  0  0  0  0
  -23.6266   -8.2205   22.0747 C   0  0  0  0  0  0
  -22.4241   -8.0231   21.3542 C   0  0  0  0  0  0
  -21.9857   -9.0194   20.4636 C   0  0  0  0  0  0
  -22.7168  -10.2085   20.3052 C   0  0  0  0  0  0
  -21.6839   -6.0693   22.5264 C   0  0  0  0  0  0
  -21.4012   -6.5620   23.8190 C   0  0  0  0  0  0
  -21.3674   -5.6788   24.9160 C   0  0  0  0  0  0
  -21.6048   -4.3049   24.7223 C   0  0  0  0  0  0
  -21.8831   -3.8123   23.4351 C   0  0  0  0  0  0
  -21.9205   -4.6927   22.3397 C   0  0  0  0  0  0
  -22.7814  -13.5194   21.1826 C   0  0  0  0  0  0
  -22.1671   -4.2107   21.0977 F   0  0  0  0  0  0
  -21.5642   -3.4545   25.7748 F   0  0  0  0  0  0
  -29.9703  -13.5649   20.4298 N   0  0  0  0  0  0
  -26.2945  -12.9159   20.3337 N   0  0  0  0  0  0
  -25.9253  -11.6344   20.5780 N   0  0  0  0  0  0
  -22.0502  -12.8172   22.0415 N   0  0  0  0  0  0
  -25.4399  -15.1726   20.4123 N   0  0  0  0  0  0
  -31.6835  -15.0056   20.1497 O   0  0  0  0  0  0
  -21.6629   -6.8815   21.4221 O   0  0  0  0  0  0
  -22.3501  -14.5523   20.6718 O   0  0  0  0  0  0
  -24.6306  -31.8496   23.1970 C   0  0  0  0  0  0
  -25.9116  -32.4752   23.8343 C   0  0  1  0  0  0
  -27.2401  -27.2423   20.1452 C   0  0  0  0  0  0
  -25.5874  -33.8554   24.2274 N   0  0  0  0  0  0
  -23.4334  -30.4688   21.5378 C   0  0  2  0  0  0
  -24.8875  -28.9053   20.1207 C   0  0  0  0  0  0
  -22.7542  -29.4519   22.4870 C   0  0  0  0  0  0
  -18.0293  -28.1355   22.8474 C   0  0  0  0  0  0
  -24.1463  -36.7285   23.2649 C   0  0  0  0  0  0
  -25.9798  -30.7612   21.3756 C   0  0  0  0  0  0
  -26.0604  -29.3787   20.7225 C   0  0  0  0  0  0
  -27.2412  -28.5643   20.7157 C   0  0  0  0  0  0
  -26.0422  -26.8318   19.5269 C   0  0  0  0  0  0
  -24.8847  -27.6390   19.5134 C   0  0  0  0  0  0
  -23.6613  -29.7983   20.1576 C   0  0  0  0  0  0
  -25.4086  -36.3092   24.0351 C   0  0  1  0  0  0
  -20.5908  -28.3644   23.1276 C   0  0  2  0  0  0
  -20.6781  -26.9349   22.5429 C   0  0  0  0  0  0
  -19.5750  -26.6340   21.5239 C   0  0  0  0  0  0
  -18.1922  -26.7889   22.1637 C   0  0  0  0  0  0
  -19.1559  -28.8814   23.2864 C   0  0  0  0  0  0
  -18.9467  -30.1420   23.8859 C   0  0  0  0  0  0
  -17.6477  -30.6555   24.0536 C   0  0  0  0  0  0
  -25.9032  -34.9459   23.5128 C   0  0  0  0  0  0
  -16.5359  -29.9058   23.6333 C   0  0  0  0  0  0
  -16.7284  -28.6492   23.0331 C   0  0  0  0  0  0
  -26.4470  -31.6584   25.0732 C   0  0  0  0  0  0
  -25.3682  -31.3760   26.1457 C   0  0  0  0  0  0
  -27.0333  -30.3004   24.6227 C   0  0  0  0  0  0
  -27.5999  -32.4359   25.7497 C   0  0  0  0  0  0
  -27.5580  -37.1797   24.8482 C   0  0  0  0  0  0
  -21.4246  -29.2993   22.3671 N   0  0  0  0  0  0
  -26.4281  -37.3795   23.9424 N   0  0  0  0  0  0
  -24.7005  -31.0462   22.0925 N   0  0  0  0  0  0
  -23.4239  -28.8039   23.2963 O   0  0  0  0  0  0
  -28.3484  -26.3567   20.1044 O   0  0  0  0  0  0
  -26.5646  -34.8924   22.4724 O   0  0  0  0  0  0
  -23.5460  -32.1267   23.7290 O   0  0  0  0  0  0
  -29.4044  -18.4729   21.9015 C   0  0  0  0  0  0
  -29.8721  -20.0160   19.6529 C   0  0  0  0  0  0
  -29.7686  -17.7081   20.7512 C   0  0  0  0  0  0
  -30.0179  -18.5599   19.6123 C   0  0  0  0  0  0
  -29.4522  -20.7497   20.8154 C   0  0  0  0  0  0
  -29.2526  -19.8934   21.9393 C   0  0  0  0  0  0
  -29.5083  -16.1401   20.8134 C   0  0  0  0  0  0
  -31.9682  -17.7664   18.2300 C   0  0  0  0  0  0
  -29.0855  -25.2819   22.0926 C   0  0  0  0  0  0
  -30.4421  -17.9145   18.3000 C   0  0  0  0  0  0
  -29.3528  -22.3601   21.0480 C   0  0  0  0  0  0
  -28.7790  -23.5776   20.1002 C   0  0  0  0  0  0
  -28.3029  -25.0094   20.7902 C   0  0  2  0  0  0
  -28.3174  -15.9399   21.1956 N   0  0  0  0  0  0
  -28.8955  -20.4402   23.1273 F   0  0  0  0  0  0
  -31.4912  -12.7290   19.1598 H   0  0  0  0  0  0
  -30.4837  -11.5510   19.9440 H   0  0  0  0  0  0
  -29.8320  -11.7647   17.5366 H   0  0  0  0  0  0
  -29.6057  -13.4859   17.7187 H   0  0  0  0  0  0
  -27.9476  -11.2502   18.9388 H   0  0  0  0  0  0
  -27.3821  -12.4628   17.8173 H   0  0  0  0  0  0
  -27.6432  -14.2029   19.4733 H   0  0  0  0  0  0
  -28.7964  -12.0390   21.3195 H   0  0  0  0  0  0
  -28.4127  -13.6066   21.8927 H   0  0  0  0  0  0
  -25.2699   -9.5680   22.4746 H   0  0  0  0  0  0
  -23.9993   -7.4602   22.7452 H   0  0  0  0  0  0
  -21.0803   -8.8697   19.8924 H   0  0  0  0  0  0
  -22.3615  -10.9632   19.6172 H   0  0  0  0  0  0
  -21.1990   -7.6125   23.9683 H   0  0  0  0  0  0
  -21.1497   -6.0513   25.9063 H   0  0  0  0  0  0
  -22.0604   -2.7581   23.2862 H   0  0  0  0  0  0
  -22.4150  -11.9821   22.4764 H   0  0  0  0  0  0
  -21.1143  -13.1198   22.2713 H   0  0  0  0  0  0
  -24.7224  -15.8557   20.6238 H   0  0  0  0  0  0
  -26.3817  -15.5578   20.4159 H   0  0  0  0  0  0
  -26.7143  -32.5407   23.1054 H   0  0  0  0  0  0
  -24.9997  -33.9677   25.0404 H   0  0  0  0  0  0
  -22.7292  -31.2921   21.3857 H   0  0  0  0  0  0
  -23.3774  -35.9582   23.3326 H   0  0  0  0  0  0
  -24.3558  -36.8899   22.2070 H   0  0  0  0  0  0
  -23.7169  -37.6468   23.6662 H   0  0  0  0  0  0
  -26.1250  -31.5196   20.6043 H   0  0  0  0  0  0
  -26.8564  -30.8136   22.0107 H   0  0  0  0  0  0
  -28.1466  -28.9370   21.1751 H   0  0  0  0  0  0
  -25.9981  -25.8580   19.0561 H   0  0  0  0  0  0
  -23.9876  -27.2688   19.0394 H   0  0  0  0  0  0
  -23.8028  -30.5755   19.4033 H   0  0  0  0  0  0
  -22.7792  -29.2382   19.8433 H   0  0  0  0  0  0
  -25.1260  -36.1958   25.0852 H   0  0  0  0  0  0
  -20.9989  -28.3180   24.1405 H   0  0  0  0  0  0
  -20.5662  -26.2223   23.3610 H   0  0  0  0  0  0
  -21.6634  -26.7326   22.1214 H   0  0  0  0  0  0
  -19.6897  -25.6258   21.1256 H   0  0  0  0  0  0
  -19.6702  -27.3170   20.6778 H   0  0  0  0  0  0
  -17.4206  -26.6659   21.4025 H   0  0  0  0  0  0
  -18.0264  -26.0021   22.9010 H   0  0  0  0  0  0
  -19.7941  -30.7260   24.2184 H   0  0  0  0  0  0
  -17.5041  -31.6228   24.5150 H   0  0  0  0  0  0
  -15.5371  -30.2967   23.7666 H   0  0  0  0  0  0
  -15.8676  -28.0825   22.7009 H   0  0  0  0  0  0
  -24.5890  -30.7045   25.7815 H   0  0  0  0  0  0
  -24.8804  -32.2935   26.4791 H   0  0  0  0  0  0
  -25.7992  -30.9040   27.0288 H   0  0  0  0  0  0
  -26.2906  -29.6766   24.1221 H   0  0  0  0  0  0
  -27.4014  -29.7264   25.4741 H   0  0  0  0  0  0
  -27.8793  -30.4306   23.9463 H   0  0  0  0  0  0
  -27.2569  -33.3717   26.1930 H   0  0  0  0  0  0
  -28.3842  -32.6825   25.0331 H   0  0  0  0  0  0
  -28.0603  -31.8579   26.5529 H   0  0  0  0  0  0
  -28.2578  -38.0109   24.7550 H   0  0  0  0  0  0
  -28.1089  -36.2646   24.6265 H   0  0  0  0  0  0
  -27.2320  -37.1388   25.8893 H   0  0  0  0  0  0
  -20.9435  -29.8788   21.6922 H   0  0  0  0  0  0
  -26.0213  -38.2878   24.1494 H   0  0  0  0  0  0
  -29.1669  -17.9382   22.8114 H   0  0  0  0  0  0
  -30.0928  -20.5798   18.7580 H   0  0  0  0  0  0
  -32.2771  -17.2126   17.3435 H   0  0  0  0  0  0
  -32.3492  -17.2280   19.0975 H   0  0  0  0  0  0
  -32.4536  -18.7416   18.2074 H   0  0  0  0  0  0
  -28.9175  -24.5085   22.8402 H   0  0  0  0  0  0
  -28.7793  -26.2258   22.5485 H   0  0  0  0  0  0
  -30.1604  -25.3416   21.9134 H   0  0  0  0  0  0
  -30.0870  -18.5157   17.4608 H   0  0  0  0  0  0
  -29.9646  -16.9410   18.1804 H   0  0  0  0  0  0
  -30.3598  -22.6595   21.3529 H   0  0  0  0  0  0
  -28.7597  -22.4543   21.9569 H   0  0  0  0  0  0
  -27.9189  -23.1965   19.5475 H   0  0  0  0  0  0
  -29.5271  -23.7901   19.3380 H   0  0  0  0  0  0
  -27.2646  -24.8515   21.0916 H   0  0  0  0  0  0
  -27.8492  -16.8197   21.3680 H   0  0  0  0  0  0
  1 25  1  0  0  0
  1 30  2  0  0  0
  1 77  1  0  0  0
  2  3  1  0  0  0
  2 25  1  0  0  0
  2 86  1  0  0  0
  2 87  1  0  0  0
  3  4  1  0  0  0
  3 88  1  0  0  0
  3 89  1  0  0  0
  4  5  1  0  0  0
  4 90  1  0  0  0
  4 91  1  0  0  0
  5  6  1  0  0  0
  5 26  1  0  0  0
  5 92  1  0  0  0
  6 25  1  0  0  0
  6 93  1  0  0  0
  6 94  1  0  0  0
  7  8  2  0  0  0
  7 26  1  0  0  0
  7 29  1  0  0  0
  8  9  1  0  0  0
  8 22  1  0  0  0
  9 10  1  0  0  0
  9 27  2  0  0  0
 10 11  2  0  0  0
 10 15  1  0  0  0
 11 12  1  0  0  0
 11 95  1  0  0  0
 12 13  2  0  0  0
 12 96  1  0  0  0
 13 14  1  0  0  0
 13 31  1  0  0  0
 14 15  2  0  0  0
 14 97  1  0  0  0
 15 98  1  0  0  0
 16 17  2  0  0  0
 16 21  1  0  0  0
 16 31  1  0  0  0
 17 18  1  0  0  0
 17 99  1  0  0  0
 18 19  2  0  0  0
 18100  1  0  0  0
 19 20  1  0  0  0
 19 24  1  0  0  0
 20 21  2  0  0  0
 20101  1  0  0  0
 21 23  1  0  0  0
 22 28  1  0  0  0
 22 32  2  0  0  0
 26 27  1  0  0  0
 28102  1  0  0  0
 28103  1  0  0  0
 29104  1  0  0  0
 29105  1  0  0  0
 33 34  1  0  0  0
 33 66  1  0  0  0
 33 70  2  0  0  0
 34 36  1  0  0  0
 34 59  1  0  0  0
 34106  1  0  0  0
 35 44  2  0  0  0
 35 45  1  0  0  0
 35 68  1  0  0  0
 36 56  1  0  0  0
 36107  1  0  0  0
 37 39  1  0  0  0
 37 47  1  0  0  0
 37 66  1  0  0  0
 37108  1  0  0  0
 38 43  2  0  0  0
 38 46  1  0  0  0
 38 47  1  0  0  0
 39 64  1  0  0  0
 39 67  2  0  0  0
 40 52  1  0  0  0
 40 53  2  0  0  0
 40 58  1  0  0  0
 41109  1  0  0  0
 41110  1  0  0  0
 41111  1  0  0  0
 41 48  1  0  0  0
 42 43  1  0  0  0
 42 66  1  0  0  0
 42112  1  0  0  0
 42113  1  0  0  0
 43 44  1  0  0  0
 44114  1  0  0  0
 45 46  2  0  0  0
 45115  1  0  0  0
 46116  1  0  0  0
 47117  1  0  0  0
 47118  1  0  0  0
 48 56  1  0  0  0
 48 65  1  0  0  0
 48119  1  0  0  0
 49 50  1  0  0  0
 49 53  1  0  0  0
 49 64  1  0  0  0
 49120  1  0  0  0
 50 51  1  0  0  0
 50121  1  0  0  0
 50122  1  0  0  0
 51 52  1  0  0  0
 51123  1  0  0  0
 51124  1  0  0  0
 52125  1  0  0  0
 52126  1  0  0  0
 53 54  1  0  0  0
 54 55  2  0  0  0
 54127  1  0  0  0
 55 57  1  0  0  0
 55128  1  0  0  0
 56 69  2  0  0  0
 57 58  2  0  0  0
 57129  1  0  0  0
 58130  1  0  0  0
 59 60  1  0  0  0
 59 61  1  0  0  0
 59 62  1  0  0  0
 60131  1  0  0  0
 60132  1  0  0  0
 60133  1  0  0  0
 61134  1  0  0  0
 61135  1  0  0  0
 61136  1  0  0  0
 62137  1  0  0  0
 62138  1  0  0  0
 62139  1  0  0  0
 63 65  1  0  0  0
 63140  1  0  0  0
 63141  1  0  0  0
 63142  1  0  0  0
 64143  1  0  0  0
 65144  1  0  0  0
 68 83  1  0  0  0
 71 73  2  0  0  0
 71 76  1  0  0  0
 71145  1  0  0  0
 72 74  2  0  0  0
 72 75  1  0  0  0
 72146  1  0  0  0
 73 74  1  0  0  0
 73 77  1  0  0  0
 74 80  1  0  0  0
 75 76  2  0  0  0
 75 81  1  0  0  0
 76 85  1  0  0  0
 77 84  2  0  0  0
 78 80  1  0  0  0
 78147  1  0  0  0
 78148  1  0  0  0
 78149  1  0  0  0
 79150  1  0  0  0
 79151  1  0  0  0
 79152  1  0  0  0
 79 83  1  0  0  0
 80153  1  0  0  0
 80154  1  0  0  0
 81 82  1  0  0  0
 81155  1  0  0  0
 81156  1  0  0  0
 82 83  1  0  0  0
 82157  1  0  0  0
 82158  1  0  0  0
 83159  1  0  0  0
 84160  1  0  0  0
M  ISO  4   1 100  68 101  77 100  83 101
M  END
> <chiral flag>
0

> <version>
0

> <s_m_source_file>
/data/baiqing/PycharmProjects/Reinvent-master-3.2/result/LINK_invent/BTK/process_docking_weight1_custom_product_contain_oxygen_bond_distance_aromatic_linkinvent_7_9_3/rearranged_h_0128.sdf

> <i_m_source_file_index>
22

> <r_mmod_Potential_Energy-OPLS-2005>
520.735290527344

> <r_mmod_Stretch_Energy-OPLS-2005>
190.526382446289

> <r_mmod_Bend_Energy-OPLS-2005>
264.864288330078

> <r_mmod_Torsional_Energy-OPLS-2005>
238.424270629883

> <r_mmod_Improper_Torsional_Energy-OPLS-2005>
7.77143669128418

> <r_mmod_Van_der_Waal_Energy-OPLS-2005>
151.565414428711

> <r_mmod_Electrostatic_Energy-OPLS-2005>
-271.591125488281

> <r_mmod_Solvation_Energy-OPLS-2005>
-176.249237060547

> <b_mmod_Minimization_Converged-OPLS-2005>
0

> <r_mmod_RMS_Derivative-OPLS-2005>
4.18707323074341

$$$$
22
                    3D
 Structure written by MMmdl.
155163  0  0  1  0            999 V2000
  -30.6899  -14.5801   20.4820 C   0  0  0  0  0  0
  -30.4201  -12.3477   19.4590 C   0  0  0  0  0  0
  -29.5032  -12.4894   18.2246 C   0  0  0  0  0  0
  -28.0239  -12.3418   18.6308 C   0  0  0  0  0  0
  -27.6503  -13.2192   19.8552 C   0  0  2  0  0  0
  -28.6933  -13.0896   20.9873 C   0  0  0  0  0  0
  -25.2559  -13.8184   20.5682 C   0  0  0  0  0  0
  -24.1829  -13.0447   20.9192 C   0  0  0  0  0  0
  -24.6399  -11.6919   20.8735 C   0  0  0  0  0  0
  -23.9065  -10.4304   21.0401 C   0  0  0  0  0  0
  -24.3621   -9.4223   21.9180 C   0  0  0  0  0  0
  -23.6302   -8.2256   22.0753 C   0  0  0  0  0  0
  -22.4280   -8.0292   21.3547 C   0  0  0  0  0  0
  -21.9911   -9.0262   20.4644 C   0  0  0  0  0  0
  -22.7235  -10.2146   20.3052 C   0  0  0  0  0  0
  -21.6858   -6.0747   22.5282 C   0  0  0  0  0  0
  -21.4016   -6.5648   23.8216 C   0  0  0  0  0  0
  -21.3657   -5.6798   24.9176 C   0  0  0  0  0  0
  -21.6042   -4.3060   24.7223 C   0  0  0  0  0  0
  -21.8820   -3.8156   23.4342 C   0  0  0  0  0  0
  -21.9196   -4.6976   22.3402 C   0  0  0  0  0  0
  -22.7852  -13.5243   21.1860 C   0  0  0  0  0  0
  -22.1666   -4.2163   21.0978 F   0  0  0  0  0  0
  -21.5627   -3.4539   25.7733 F   0  0  0  0  0  0
  -30.0182  -13.3881   20.4263 N   0  0  0  0  0  0
  -26.2979  -12.9369   20.3289 N   0  0  0  0  0  0
  -25.9325  -11.6522   20.5743 N   0  0  0  0  0  0
  -22.0496  -12.8228   22.0415 N   0  0  0  0  0  0
  -25.4275  -15.1902   20.4100 N   0  0  0  0  0  0
  -31.8762  -14.6390   20.1499 O   0  0  0  0  0  0
  -21.6644   -6.8888   21.4243 O   0  0  0  0  0  0
  -22.3532  -14.5551   20.6716 O   0  0  0  0  0  0
  -24.6235  -31.8653   23.2095 C   0  0  0  0  0  0
  -25.9100  -32.4807   23.8404 C   0  0  1  0  0  0
  -27.2102  -27.3546   20.0984 C   0  0  0  0  0  0
  -25.5937  -33.8610   24.2322 N   0  0  0  0  0  0
  -23.4135  -30.4959   21.5522 C   0  0  2  0  0  0
  -24.8551  -28.9671   20.1094 C   0  0  0  0  0  0
  -22.7465  -29.4672   22.4953 C   0  0  0  0  0  0
  -18.0309  -28.1369   22.8484 C   0  0  0  0  0  0
  -24.1488  -36.7307   23.2638 C   0  0  0  0  0  0
  -25.9554  -30.8053   21.3792 C   0  0  0  0  0  0
  -26.0261  -29.4394   20.7156 C   0  0  0  0  0  0
  -27.2074  -28.6432   20.7073 C   0  0  0  0  0  0
  -26.0160  -26.9457   19.4515 C   0  0  0  0  0  0
  -24.8499  -27.7225   19.4710 C   0  0  0  0  0  0
  -23.6237  -29.8430   20.1634 C   0  0  0  0  0  0
  -25.4110  -36.3100   24.0333 C   0  0  1  0  0  0
  -20.5901  -28.3691   23.1288 C   0  0  2  0  0  0
  -20.6806  -26.9426   22.5397 C   0  0  0  0  0  0
  -19.5784  -26.6403   21.5199 C   0  0  0  0  0  0
  -18.1969  -26.7913   22.1622 C   0  0  0  0  0  0
  -19.1552  -28.8845   23.2882 C   0  0  0  0  0  0
  -18.9467  -30.1446   23.8898 C   0  0  0  0  0  0
  -17.6465  -30.6571   24.0559 C   0  0  0  0  0  0
  -25.9046  -34.9468   23.5120 C   0  0  0  0  0  0
  -16.5367  -29.9063   23.6317 C   0  0  0  0  0  0
  -16.7295  -28.6480   23.0344 C   0  0  0  0  0  0
  -26.4494  -31.6597   25.0756 C   0  0  0  0  0  0
  -25.3738  -31.3721   26.1487 C   0  0  0  0  0  0
  -27.0330  -30.3024   24.6188 C   0  0  0  0  0  0
  -27.6060  -32.4326   25.7523 C   0  0  0  0  0  0
  -27.5578  -37.1813   24.8467 C   0  0  0  0  0  0
  -21.4181  -29.3067   22.3699 N   0  0  0  0  0  0
  -26.4294  -37.3786   23.9403 N   0  0  0  0  0  0
  -24.6828  -31.0705   22.1037 N   0  0  0  0  0  0
  -23.4211  -28.8193   23.2999 O   0  0  0  0  0  0
  -28.3142  -26.4920   20.1630 O   0  0  0  0  0  0
  -26.5607  -34.8926   22.4684 O   0  0  0  0  0  0
  -23.5405  -32.1443   23.7438 O   0  0  0  0  0  0
  -30.6936  -19.5778   20.6673 C   0  0  0  0  0  0
  -30.1642  -20.8961   20.5989 C   0  0  0  0  0  0
  -28.4764  -18.6487   20.5256 C   0  0  0  0  0  0
  -29.8675  -18.4241   20.6114 C   0  0  0  0  0  0
  -28.7737  -21.1155   20.4670 C   0  0  0  0  0  0
  -27.9361  -19.9604   20.4409 C   0  0  0  0  0  0
  -30.4793  -17.0502   20.5919 C   0  0  0  0  0  0
  -29.8957  -15.8167   20.6901 C   0  0  0  0  0  0
  -26.4280  -20.0976   20.2921 C   0  0  0  0  0  0
  -28.1345  -22.5278   20.3116 C   0  0  0  0  0  0
  -28.9407  -23.8804   20.3945 C   0  0  0  0  0  0
  -27.9946  -25.0690   19.9832 C   0  0  0  0  0  0
  -31.4672  -12.4266   19.1628 H   0  0  0  0  0  0
  -30.3143  -11.3575   19.9053 H   0  0  0  0  0  0
  -29.7601  -11.7389   17.4756 H   0  0  0  0  0  0
  -29.6628  -13.4607   17.7534 H   0  0  0  0  0  0
  -27.8517  -11.2898   18.8630 H   0  0  0  0  0  0
  -27.3741  -12.5750   17.7863 H   0  0  0  0  0  0
  -27.6644  -14.2505   19.5036 H   0  0  0  0  0  0
  -28.6851  -12.0795   21.3992 H   0  0  0  0  0  0
  -28.4533  -13.7509   21.8207 H   0  0  0  0  0  0
  -25.2768   -9.5708   22.4747 H   0  0  0  0  0  0
  -24.0022   -7.4647   22.7466 H   0  0  0  0  0  0
  -21.0847   -8.8774   19.8944 H   0  0  0  0  0  0
  -22.3690  -10.9685   19.6160 H   0  0  0  0  0  0
  -21.2006   -7.6153   23.9725 H   0  0  0  0  0  0
  -21.1473   -6.0523   25.9079 H   0  0  0  0  0  0
  -22.0598   -2.7618   23.2835 H   0  0  0  0  0  0
  -22.4117  -11.9890   22.4798 H   0  0  0  0  0  0
  -21.1110  -13.1244   22.2621 H   0  0  0  0  0  0
  -24.6616  -15.8460   20.5193 H   0  0  0  0  0  0
  -26.2798  -15.6263   20.0839 H   0  0  0  0  0  0
  -26.7172  -32.5479   23.1158 H   0  0  0  0  0  0
  -25.0086  -33.9769   25.0466 H   0  0  0  0  0  0
  -22.7047  -31.3155   21.4172 H   0  0  0  0  0  0
  -23.3745  -35.9647   23.3314 H   0  0  0  0  0  0
  -24.3579  -36.8910   22.2050 H   0  0  0  0  0  0
  -23.7246  -37.6520   23.6644 H   0  0  0  0  0  0
  -26.0873  -31.5722   20.6148 H   0  0  0  0  0  0
  -26.8368  -30.8464   22.0076 H   0  0  0  0  0  0
  -28.1019  -28.9966   21.2002 H   0  0  0  0  0  0
  -25.9332  -26.0064   18.9271 H   0  0  0  0  0  0
  -23.9550  -27.3570   18.9865 H   0  0  0  0  0  0
  -23.7413  -30.6251   19.4125 H   0  0  0  0  0  0
  -22.7429  -29.2743   19.8590 H   0  0  0  0  0  0
  -25.1285  -36.1966   25.0825 H   0  0  0  0  0  0
  -20.9994  -28.3254   24.1411 H   0  0  0  0  0  0
  -20.5724  -26.2303   23.3589 H   0  0  0  0  0  0
  -21.6676  -26.7475   22.1189 H   0  0  0  0  0  0
  -19.6970  -25.6327   21.1204 H   0  0  0  0  0  0
  -19.6705  -27.3240   20.6749 H   0  0  0  0  0  0
  -17.4234  -26.6640   21.4030 H   0  0  0  0  0  0
  -18.0405  -26.0047   22.9018 H   0  0  0  0  0  0
  -19.7937  -30.7266   24.2274 H   0  0  0  0  0  0
  -17.5012  -31.6249   24.5161 H   0  0  0  0  0  0
  -15.5366  -30.2964   23.7629 H   0  0  0  0  0  0
  -15.8700  -28.0801   22.7057 H   0  0  0  0  0  0
  -24.5913  -30.7068   25.7821 H   0  0  0  0  0  0
  -24.8934  -32.2883   26.4929 H   0  0  0  0  0  0
  -25.8077  -30.8891   27.0251 H   0  0  0  0  0  0
  -26.2900  -29.6787   24.1205 H   0  0  0  0  0  0
  -27.4029  -29.7260   25.4678 H   0  0  0  0  0  0
  -27.8772  -30.4319   23.9410 H   0  0  0  0  0  0
  -27.2671  -33.3617   26.2119 H   0  0  0  0  0  0
  -28.3863  -32.6901   25.0350 H   0  0  0  0  0  0
  -28.0740  -31.8443   26.5427 H   0  0  0  0  0  0
  -28.2607  -38.0100   24.7500 H   0  0  0  0  0  0
  -28.1063  -36.2631   24.6307 H   0  0  0  0  0  0
  -27.2300  -37.1485   25.8873 H   0  0  0  0  0  0
  -20.9340  -29.8813   21.6943 H   0  0  0  0  0  0
  -26.0181  -38.2866   24.1389 H   0  0  0  0  0  0
  -31.7653  -19.4566   20.7415 H   0  0  0  0  0  0
  -30.8427  -21.7374   20.6255 H   0  0  0  0  0  0
  -27.8100  -17.7989   20.4800 H   0  0  0  0  0  0
  -31.5482  -17.0720   20.4280 H   0  0  0  0  0  0
  -28.8363  -15.7575   20.8768 H   0  0  0  0  0  0
  -25.9405  -19.1239   20.2333 H   0  0  0  0  0  0
  -26.1749  -20.6406   19.3815 H   0  0  0  0  0  0
  -26.0005  -20.6266   21.1435 H   0  0  0  0  0  0
  -27.3384  -22.5897   21.0544 H   0  0  0  0  0  0
  -27.6300  -22.5149   19.3446 H   0  0  0  0  0  0
  -29.8031  -23.8523   19.7283 H   0  0  0  0  0  0
  -29.3198  -24.0253   21.4063 H   0  0  0  0  0  0
  -27.0693  -24.8787   20.5310 H   0  0  0  0  0  0
  -27.7740  -24.9214   18.9248 H   0  0  0  0  0  0
  1 25  1  0  0  0
  1 30  2  0  0  0
  1 78  1  0  0  0
  2  3  1  0  0  0
  2 25  1  0  0  0
  2 83  1  0  0  0
  2 84  1  0  0  0
  3  4  1  0  0  0
  3 85  1  0  0  0
  3 86  1  0  0  0
  4  5  1  0  0  0
  4 87  1  0  0  0
  4 88  1  0  0  0
  5  6  1  0  0  0
  5 26  1  0  0  0
  5 89  1  0  0  0
  6 25  1  0  0  0
  6 90  1  0  0  0
  6 91  1  0  0  0
  7  8  2  0  0  0
  7 26  1  0  0  0
  7 29  1  0  0  0
  8  9  1  0  0  0
  8 22  1  0  0  0
  9 10  1  0  0  0
  9 27  2  0  0  0
 10 11  2  0  0  0
 10 15  1  0  0  0
 11 12  1  0  0  0
 11 92  1  0  0  0
 12 13  2  0  0  0
 12 93  1  0  0  0
 13 14  1  0  0  0
 13 31  1  0  0  0
 14 15  2  0  0  0
 14 94  1  0  0  0
 15 95  1  0  0  0
 16 17  2  0  0  0
 16 21  1  0  0  0
 16 31  1  0  0  0
 17 18  1  0  0  0
 17 96  1  0  0  0
 18 19  2  0  0  0
 18 97  1  0  0  0
 19 20  1  0  0  0
 19 24  1  0  0  0
 20 21  2  0  0  0
 20 98  1  0  0  0
 21 23  1  0  0  0
 22 28  1  0  0  0
 22 32  2  0  0  0
 26 27  1  0  0  0
 28 99  1  0  0  0
 28100  1  0  0  0
 29101  1  0  0  0
 29102  1  0  0  0
 33 34  1  0  0  0
 33 66  1  0  0  0
 33 70  2  0  0  0
 34 36  1  0  0  0
 34 59  1  0  0  0
 34103  1  0  0  0
 35 44  2  0  0  0
 35 45  1  0  0  0
 35 68  1  0  0  0
 36 56  1  0  0  0
 36104  1  0  0  0
 37 39  1  0  0  0
 37 47  1  0  0  0
 37 66  1  0  0  0
 37105  1  0  0  0
 38 43  2  0  0  0
 38 46  1  0  0  0
 38 47  1  0  0  0
 39 64  1  0  0  0
 39 67  2  0  0  0
 40 52  1  0  0  0
 40 53  2  0  0  0
 40 58  1  0  0  0
 41106  1  0  0  0
 41107  1  0  0  0
 41108  1  0  0  0
 41 48  1  0  0  0
 42 43  1  0  0  0
 42 66  1  0  0  0
 42109  1  0  0  0
 42110  1  0  0  0
 43 44  1  0  0  0
 44111  1  0  0  0
 45 46  2  0  0  0
 45112  1  0  0  0
 46113  1  0  0  0
 47114  1  0  0  0
 47115  1  0  0  0
 48 56  1  0  0  0
 48 65  1  0  0  0
 48116  1  0  0  0
 49 50  1  0  0  0
 49 53  1  0  0  0
 49 64  1  0  0  0
 49117  1  0  0  0
 50 51  1  0  0  0
 50118  1  0  0  0
 50119  1  0  0  0
 51 52  1  0  0  0
 51120  1  0  0  0
 51121  1  0  0  0
 52122  1  0  0  0
 52123  1  0  0  0
 53 54  1  0  0  0
 54 55  2  0  0  0
 54124  1  0  0  0
 55 57  1  0  0  0
 55125  1  0  0  0
 56 69  2  0  0  0
 57 58  2  0  0  0
 57126  1  0  0  0
 58127  1  0  0  0
 59 60  1  0  0  0
 59 61  1  0  0  0
 59 62  1  0  0  0
 60128  1  0  0  0
 60129  1  0  0  0
 60130  1  0  0  0
 61131  1  0  0  0
 61132  1  0  0  0
 61133  1  0  0  0
 62134  1  0  0  0
 62135  1  0  0  0
 62136  1  0  0  0
 63 65  1  0  0  0
 63137  1  0  0  0
 63138  1  0  0  0
 63139  1  0  0  0
 64140  1  0  0  0
 65141  1  0  0  0
 68 82  1  0  0  0
 71 72  2  0  0  0
 71 74  1  0  0  0
 71142  1  0  0  0
 72 75  1  0  0  0
 72143  1  0  0  0
 73 74  2  0  0  0
 73 76  1  0  0  0
 73144  1  0  0  0
 74 77  1  0  0  0
 75 76  2  0  0  0
 75 80  1  0  0  0
 76 79  1  0  0  0
 77 78  2  0  0  0
 77145  1  0  0  0
 78146  1  0  0  0
 79147  1  0  0  0
 79148  1  0  0  0
 79149  1  0  0  0
 80 81  1  0  0  0
 80150  1  0  0  0
 80151  1  0  0  0
 81 82  1  0  0  0
 81152  1  0  0  0
 81153  1  0  0  0
 82154  1  0  0  0
 82155  1  0  0  0
M  ISO  4   1 100  68 101  78 100  82 101
M  END
> <chiral flag>
0

> <version>
0

> <s_m_source_file>
/data/baiqing/PycharmProjects/Reinvent-master-3.2/result/LINK_invent/BTK/process_docking_weight1_custom_product_contain_oxygen_bond_distance_aromatic_linkinvent_7_9_3/rearranged_h_0128.sdf

> <i_m_source_file_index>
23

> <r_mmod_Potential_Energy-OPLS-2005>
49.376838684082

> <r_mmod_Stretch_Energy-OPLS-2005>
60.0876159667969

> <r_mmod_Bend_Energy-OPLS-2005>
133.052154541016

> <r_mmod_Torsional_Energy-OPLS-2005>
182.946060180664

> <r_mmod_Improper_Torsional_Energy-OPLS-2005>
6.33643960952759

> <r_mmod_Van_der_Waal_Energy-OPLS-2005>
163.196655273438

> <r_mmod_Electrostatic_Energy-OPLS-2005>
-343.220031738281

> <r_mmod_Solvation_Energy-OPLS-2005>
-193.130340576172

> <b_mmod_Minimization_Converged-OPLS-2005>
0

> <r_mmod_RMS_Derivative-OPLS-2005>
0.869730591773987

$$$$
23
                    3D
 Structure written by MMmdl.
164172  0  0  1  0            999 V2000
  -30.5675  -14.7077   20.4698 C   0  0  0  0  0  0
  -30.4332  -12.4334   19.4635 C   0  0  0  0  0  0
  -29.5146  -12.5328   18.2226 C   0  0  0  0  0  0
  -28.0379  -12.3465   18.6262 C   0  0  0  0  0  0
  -27.6484  -13.2196   19.8496 C   0  0  2  0  0  0
  -28.6785  -13.0939   20.9886 C   0  0  0  0  0  0
  -25.2517  -13.8178   20.5627 C   0  0  0  0  0  0
  -24.1771  -13.0476   20.9122 C   0  0  0  0  0  0
  -24.6332  -11.6936   20.8647 C   0  0  0  0  0  0
  -23.9014  -10.4309   21.0362 C   0  0  0  0  0  0
  -24.3605   -9.4226   21.9147 C   0  0  0  0  0  0
  -23.6286   -8.2254   22.0730 C   0  0  0  0  0  0
  -22.4253   -8.0283   21.3544 C   0  0  0  0  0  0
  -21.9858   -9.0235   20.4635 C   0  0  0  0  0  0
  -22.7181  -10.2117   20.3015 C   0  0  0  0  0  0
  -21.6857   -6.0732   22.5277 C   0  0  0  0  0  0
  -21.4038   -6.5650   23.8219 C   0  0  0  0  0  0
  -21.3649   -5.6776   24.9173 C   0  0  0  0  0  0
  -21.6018   -4.3042   24.7210 C   0  0  0  0  0  0
  -21.8838   -3.8155   23.4332 C   0  0  0  0  0  0
  -21.9199   -4.6969   22.3385 C   0  0  0  0  0  0
  -22.7813  -13.5283   21.1818 C   0  0  0  0  0  0
  -22.1689   -4.2168   21.0964 F   0  0  0  0  0  0
  -21.5595   -3.4509   25.7720 F   0  0  0  0  0  0
  -29.9880  -13.4605   20.4350 N   0  0  0  0  0  0
  -26.2921  -12.9360   20.3177 N   0  0  0  0  0  0
  -25.9244  -11.6524   20.5589 N   0  0  0  0  0  0
  -22.0458  -12.8279   22.0382 N   0  0  0  0  0  0
  -25.4247  -15.1882   20.4105 N   0  0  0  0  0  0
  -31.7221  -14.8630   20.0579 O   0  0  0  0  0  0
  -21.6641   -6.8860   21.4243 O   0  0  0  0  0  0
  -22.3490  -14.5600   20.6685 O   0  0  0  0  0  0
  -24.6288  -31.8534   23.1978 C   0  0  0  0  0  0
  -25.9128  -32.4724   23.8322 C   0  0  1  0  0  0
  -27.2051  -27.2859   20.0777 C   0  0  0  0  0  0
  -25.5930  -33.8521   24.2226 N   0  0  0  0  0  0
  -23.4211  -30.4759   21.5487 C   0  0  2  0  0  0
  -24.8568  -28.9284   20.1107 C   0  0  0  0  0  0
  -22.7491  -29.4539   22.4972 C   0  0  0  0  0  0
  -18.0276  -28.1380   22.8508 C   0  0  0  0  0  0
  -24.1474  -36.7273   23.2644 C   0  0  0  0  0  0
  -25.9679  -30.7682   21.3750 C   0  0  0  0  0  0
  -26.0322  -29.3961   20.7100 C   0  0  0  0  0  0
  -27.2073  -28.5864   20.6814 C   0  0  0  0  0  0
  -25.9909  -26.8672   19.4829 C   0  0  0  0  0  0
  -24.8384  -27.6704   19.4948 C   0  0  0  0  0  0
  -23.6339  -29.8188   20.1610 C   0  0  0  0  0  0
  -25.4089  -36.3022   24.0321 C   0  0  1  0  0  0
  -20.5893  -28.3640   23.1364 C   0  0  2  0  0  0
  -20.6784  -26.9380   22.5466 C   0  0  0  0  0  0
  -19.5742  -26.6377   21.5276 C   0  0  0  0  0  0
  -18.1910  -26.7922   22.1657 C   0  0  0  0  0  0
  -19.1538  -28.8833   23.2916 C   0  0  0  0  0  0
  -18.9443  -30.1461   23.8897 C   0  0  0  0  0  0
  -17.6434  -30.6585   24.0563 C   0  0  0  0  0  0
  -25.9059  -34.9410   23.5070 C   0  0  0  0  0  0
  -16.5330  -29.9077   23.6338 C   0  0  0  0  0  0
  -16.7261  -28.6505   23.0348 C   0  0  0  0  0  0
  -26.4503  -31.6552   25.0717 C   0  0  0  0  0  0
  -25.3768  -31.3756   26.1485 C   0  0  0  0  0  0
  -27.0405  -30.2974   24.6236 C   0  0  0  0  0  0
  -27.6009  -32.4334   25.7526 C   0  0  0  0  0  0
  -27.5552  -37.1790   24.8458 C   0  0  0  0  0  0
  -21.4196  -29.2985   22.3762 N   0  0  0  0  0  0
  -26.4242  -37.3728   23.9431 N   0  0  0  0  0  0
  -24.6928  -31.0513   22.0956 N   0  0  0  0  0  0
  -23.4234  -28.8093   23.3047 O   0  0  0  0  0  0
  -28.3396  -26.4540   20.1050 O   0  0  0  0  0  0
  -26.5621  -34.8889   22.4647 O   0  0  0  0  0  0
  -23.5444  -32.1384   23.7279 O   0  0  0  0  0  0
  -29.7875  -18.3180   15.7009 C   0  0  0  0  0  0
  -28.8284  -19.4324   18.6574 C   0  0  0  0  0  0
  -29.4251  -17.0480   18.7506 C   0  0  0  0  0  0
  -29.3116  -18.3643   20.7889 C   0  0  0  0  0  0
  -29.0478  -18.1916   18.0148 C   0  0  0  0  0  0
  -28.9706  -19.5751   20.0550 C   0  0  0  0  0  0
  -29.5572  -17.0761   20.1518 C   0  0  0  0  0  0
  -30.6897  -18.6038   14.7965 C   0  0  0  0  0  0
  -28.8339  -18.0604   16.5702 C   0  0  0  0  0  0
  -27.4626  -17.6126   16.1049 C   0  0  0  0  0  0
  -27.1103  -23.8504   21.3673 C   0  0  0  0  0  0
  -28.7218  -21.0030   20.7154 C   0  0  0  0  0  0
  -28.5375  -22.3302   19.8090 C   0  0  0  0  0  0
  -28.3620  -25.0770   19.5269 C   0  0  0  0  0  0
  -28.3659  -23.7907   20.4875 C   0  0  1  0  0  0
  -29.7821  -15.7887   20.8521 N   0  0  0  0  0  0
  -31.4761  -12.5518   19.1680 H   0  0  0  0  0  0
  -30.3641  -11.4402   19.9065 H   0  0  0  0  0  0
  -29.8020  -11.7959   17.4747 H   0  0  0  0  0  0
  -29.6439  -13.5057   17.7481 H   0  0  0  0  0  0
  -27.8821  -11.2932   18.8557 H   0  0  0  0  0  0
  -27.3892  -12.5688   17.7769 H   0  0  0  0  0  0
  -27.6665  -14.2532   19.5029 H   0  0  0  0  0  0
  -28.6965  -12.0730   21.3752 H   0  0  0  0  0  0
  -28.4014  -13.7264   21.8310 H   0  0  0  0  0  0
  -25.2777   -9.5749   22.4660 H   0  0  0  0  0  0
  -24.0037   -7.4662   22.7451 H   0  0  0  0  0  0
  -21.0771   -8.8745   19.8938 H   0  0  0  0  0  0
  -22.3654  -10.9633   19.6086 H   0  0  0  0  0  0
  -21.2095   -7.6159   23.9749 H   0  0  0  0  0  0
  -21.1420   -6.0484   25.9063 H   0  0  0  0  0  0
  -22.0622   -2.7609   23.2816 H   0  0  0  0  0  0
  -22.4126  -12.0042   22.4863 H   0  0  0  0  0  0
  -21.1033  -13.1261   22.2542 H   0  0  0  0  0  0
  -24.6565  -15.8395   20.5229 H   0  0  0  0  0  0
  -26.2722  -15.6249   20.0764 H   0  0  0  0  0  0
  -26.7169  -32.5345   23.1041 H   0  0  0  0  0  0
  -25.0064  -33.9653   25.0363 H   0  0  0  0  0  0
  -22.7110  -31.2934   21.4096 H   0  0  0  0  0  0
  -23.3702  -35.9639   23.3275 H   0  0  0  0  0  0
  -24.3571  -36.8938   22.2067 H   0  0  0  0  0  0
  -23.7274  -37.6479   23.6709 H   0  0  0  0  0  0
  -26.1123  -31.5286   20.6077 H   0  0  0  0  0  0
  -26.8451  -30.8073   22.0083 H   0  0  0  0  0  0
  -28.1178  -28.9440   21.1415 H   0  0  0  0  0  0
  -25.8747  -25.9053   19.0120 H   0  0  0  0  0  0
  -23.9331  -27.2990   19.0328 H   0  0  0  0  0  0
  -23.7740  -30.6043   19.4178 H   0  0  0  0  0  0
  -22.7493  -29.2651   19.8422 H   0  0  0  0  0  0
  -25.1264  -36.1827   25.0799 H   0  0  0  0  0  0
  -20.9940  -28.3184   24.1507 H   0  0  0  0  0  0
  -20.5775  -26.2207   23.3635 H   0  0  0  0  0  0
  -21.6636  -26.7484   22.1203 H   0  0  0  0  0  0
  -19.6905  -25.6306   21.1262 H   0  0  0  0  0  0
  -19.6680  -27.3237   20.6848 H   0  0  0  0  0  0
  -17.4215  -26.6711   21.4029 H   0  0  0  0  0  0
  -18.0237  -26.0091   22.9055 H   0  0  0  0  0  0
  -19.7917  -30.7298   24.2250 H   0  0  0  0  0  0
  -17.4983  -31.6275   24.5149 H   0  0  0  0  0  0
  -15.5330  -30.2958   23.7679 H   0  0  0  0  0  0
  -15.8667  -28.0832   22.7032 H   0  0  0  0  0  0
  -24.5824  -30.7214   25.7874 H   0  0  0  0  0  0
  -24.9125  -32.2979   26.4977 H   0  0  0  0  0  0
  -25.8112  -30.8884   27.0222 H   0  0  0  0  0  0
  -26.3061  -29.6682   24.1198 H   0  0  0  0  0  0
  -27.4042  -29.7233   25.4764 H   0  0  0  0  0  0
  -27.8911  -30.4241   23.9541 H   0  0  0  0  0  0
  -27.2513  -33.3563   26.2151 H   0  0  0  0  0  0
  -28.3813  -32.7016   25.0404 H   0  0  0  0  0  0
  -28.0693  -31.8474   26.5439 H   0  0  0  0  0  0
  -28.2530  -38.0113   24.7484 H   0  0  0  0  0  0
  -28.1076  -36.2647   24.6260 H   0  0  0  0  0  0
  -27.2314  -37.1424   25.8870 H   0  0  0  0  0  0
  -20.9357  -29.8687   21.6973 H   0  0  0  0  0  0
  -26.0086  -38.2778   24.1454 H   0  0  0  0  0  0
  -28.5250  -20.2746   18.0555 H   0  0  0  0  0  0
  -29.5583  -16.1188   18.2172 H   0  0  0  0  0  0
  -29.3744  -18.4299   21.8655 H   0  0  0  0  0  0
  -30.7697  -19.6027   14.3880 H   0  0  0  0  0  0
  -31.3822  -17.8593   14.4292 H   0  0  0  0  0  0
  -27.4186  -17.5335   15.0163 H   0  0  0  0  0  0
  -26.6992  -18.3222   16.4207 H   0  0  0  0  0  0
  -27.2083  -16.6394   16.5253 H   0  0  0  0  0  0
  -27.0964  -23.0615   22.1168 H   0  0  0  0  0  0
  -26.2009  -23.7728   20.7713 H   0  0  0  0  0  0
  -27.0693  -24.8027   21.8969 H   0  0  0  0  0  0
  -29.5549  -21.1928   21.3940 H   0  0  0  0  0  0
  -27.8394  -20.8937   21.3497 H   0  0  0  0  0  0
  -27.6923  -22.1736   19.1365 H   0  0  0  0  0  0
  -29.4092  -22.3855   19.1581 H   0  0  0  0  0  0
  -27.6221  -24.9357   18.7440 H   0  0  0  0  0  0
  -29.2914  -25.0429   18.9602 H   0  0  0  0  0  0
  -29.2227  -23.9179   21.1489 H   0  0  0  0  0  0
  -29.0381  -15.5367   21.4872 H   0  0  0  0  0  0
  1 25  1  0  0  0
  1 30  2  0  0  0
  1 86  1  0  0  0
  2  3  1  0  0  0
  2 25  1  0  0  0
  2 87  1  0  0  0
  2 88  1  0  0  0
  3  4  1  0  0  0
  3 89  1  0  0  0
  3 90  1  0  0  0
  4  5  1  0  0  0
  4 91  1  0  0  0
  4 92  1  0  0  0
  5  6  1  0  0  0
  5 26  1  0  0  0
  5 93  1  0  0  0
  6 25  1  0  0  0
  6 94  1  0  0  0
  6 95  1  0  0  0
  7  8  2  0  0  0
  7 26  1  0  0  0
  7 29  1  0  0  0
  8  9  1  0  0  0
  8 22  1  0  0  0
  9 10  1  0  0  0
  9 27  2  0  0  0
 10 11  2  0  0  0
 10 15  1  0  0  0
 11 12  1  0  0  0
 11 96  1  0  0  0
 12 13  2  0  0  0
 12 97  1  0  0  0
 13 14  1  0  0  0
 13 31  1  0  0  0
 14 15  2  0  0  0
 14 98  1  0  0  0
 15 99  1  0  0  0
 16 17  2  0  0  0
 16 21  1  0  0  0
 16 31  1  0  0  0
 17 18  1  0  0  0
 17100  1  0  0  0
 18 19  2  0  0  0
 18101  1  0  0  0
 19 20  1  0  0  0
 19 24  1  0  0  0
 20 21  2  0  0  0
 20102  1  0  0  0
 21 23  1  0  0  0
 22 28  1  0  0  0
 22 32  2  0  0  0
 26 27  1  0  0  0
 28103  1  0  0  0
 28104  1  0  0  0
 29105  1  0  0  0
 29106  1  0  0  0
 33 34  1  0  0  0
 33 66  1  0  0  0
 33 70  2  0  0  0
 34 36  1  0  0  0
 34 59  1  0  0  0
 34107  1  0  0  0
 35 44  2  0  0  0
 35 45  1  0  0  0
 35 68  1  0  0  0
 36 56  1  0  0  0
 36108  1  0  0  0
 37 39  1  0  0  0
 37 47  1  0  0  0
 37 66  1  0  0  0
 37109  1  0  0  0
 38 43  2  0  0  0
 38 46  1  0  0  0
 38 47  1  0  0  0
 39 64  1  0  0  0
 39 67  2  0  0  0
 40 52  1  0  0  0
 40 53  2  0  0  0
 40 58  1  0  0  0
 41110  1  0  0  0
 41111  1  0  0  0
 41112  1  0  0  0
 41 48  1  0  0  0
 42 43  1  0  0  0
 42 66  1  0  0  0
 42113  1  0  0  0
 42114  1  0  0  0
 43 44  1  0  0  0
 44115  1  0  0  0
 45 46  2  0  0  0
 45116  1  0  0  0
 46117  1  0  0  0
 47118  1  0  0  0
 47119  1  0  0  0
 48 56  1  0  0  0
 48 65  1  0  0  0
 48120  1  0  0  0
 49 50  1  0  0  0
 49 53  1  0  0  0
 49 64  1  0  0  0
 49121  1  0  0  0
 50 51  1  0  0  0
 50122  1  0  0  0
 50123  1  0  0  0
 51 52  1  0  0  0
 51124  1  0  0  0
 51125  1  0  0  0
 52126  1  0  0  0
 52127  1  0  0  0
 53 54  1  0  0  0
 54 55  2  0  0  0
 54128  1  0  0  0
 55 57  1  0  0  0
 55129  1  0  0  0
 56 69  2  0  0  0
 57 58  2  0  0  0
 57130  1  0  0  0
 58131  1  0  0  0
 59 60  1  0  0  0
 59 61  1  0  0  0
 59 62  1  0  0  0
 60132  1  0  0  0
 60133  1  0  0  0
 60134  1  0  0  0
 61135  1  0  0  0
 61136  1  0  0  0
 61137  1  0  0  0
 62138  1  0  0  0
 62139  1  0  0  0
 62140  1  0  0  0
 63 65  1  0  0  0
 63141  1  0  0  0
 63142  1  0  0  0
 63143  1  0  0  0
 64144  1  0  0  0
 65145  1  0  0  0
 68 84  1  0  0  0
 71 78  2  0  0  0
 71 79  2  0  0  0
 72 75  2  0  0  0
 72 76  1  0  0  0
 72146  1  0  0  0
 73 75  1  0  0  0
 73 77  2  0  0  0
 73147  1  0  0  0
 74 76  2  0  0  0
 74 77  1  0  0  0
 74148  1  0  0  0
 75 79  1  0  0  0
 76 82  1  0  0  0
 77 86  1  0  0  0
 78149  1  0  0  0
 78150  1  0  0  0
 79 80  1  0  0  0
 80151  1  0  0  0
 80152  1  0  0  0
 80153  1  0  0  0
 81154  1  0  0  0
 81155  1  0  0  0
 81156  1  0  0  0
 81 85  1  0  0  0
 82 83  1  0  0  0
 82157  1  0  0  0
 82158  1  0  0  0
 83 85  1  0  0  0
 83159  1  0  0  0
 83160  1  0  0  0
 84 85  1  0  0  0
 84161  1  0  0  0
 84162  1  0  0  0
 85163  1  0  0  0
 86164  1  0  0  0
M  ISO  4   1 100  68 101  84 101  86 100
M  END
> <chiral flag>
0

> <version>
0

> <s_m_source_file>
/data/baiqing/PycharmProjects/Reinvent-master-3.2/result/LINK_invent/BTK/process_docking_weight1_custom_product_contain_oxygen_bond_distance_aromatic_linkinvent_7_9_3/rearranged_h_0128.sdf

> <i_m_source_file_index>
24

> <r_mmod_Potential_Energy-OPLS-2005>
52.7693023681641

> <r_mmod_Stretch_Energy-OPLS-2005>
112.94189453125

> <r_mmod_Bend_Energy-OPLS-2005>
157.375839233398

> <r_mmod_Torsional_Energy-OPLS-2005>
144.948257446289

> <r_mmod_Improper_Torsional_Energy-OPLS-2005>
5.20744037628174

> <r_mmod_Van_der_Waal_Energy-OPLS-2005>
127.441741943359

> <r_mmod_Electrostatic_Energy-OPLS-2005>
-367.33837890625

> <r_mmod_Solvation_Energy-OPLS-2005>
-195.693557739258

> <b_mmod_Minimization_Converged-OPLS-2005>
0

> <r_mmod_RMS_Derivative-OPLS-2005>
6.15678024291992

$$$$
24
                    3D
 Structure written by MMmdl.
157165  0  0  1  0            999 V2000
  -30.5808  -14.7872   20.4476 C   0  0  0  0  0  0
  -30.4467  -12.4704   19.4543 C   0  0  0  0  0  0
  -29.5042  -12.4993   18.2278 C   0  0  0  0  0  0
  -28.0301  -12.3112   18.6557 C   0  0  0  0  0  0
  -27.6415  -13.2244   19.8508 C   0  0  2  0  0  0
  -28.7013  -13.1730   20.9752 C   0  0  0  0  0  0
  -25.2549  -13.8224   20.5674 C   0  0  0  0  0  0
  -24.1841  -13.0476   20.9172 C   0  0  0  0  0  0
  -24.6430  -11.6945   20.8766 C   0  0  0  0  0  0
  -23.9084  -10.4338   21.0438 C   0  0  0  0  0  0
  -24.3636   -9.4260   21.9215 C   0  0  0  0  0  0
  -23.6319   -8.2290   22.0803 C   0  0  0  0  0  0
  -22.4275   -8.0340   21.3599 C   0  0  0  0  0  0
  -21.9901   -9.0310   20.4673 C   0  0  0  0  0  0
  -22.7246  -10.2203   20.3091 C   0  0  0  0  0  0
  -21.6871   -6.0778   22.5266 C   0  0  0  0  0  0
  -21.4034   -6.5661   23.8213 C   0  0  0  0  0  0
  -21.3654   -5.6803   24.9147 C   0  0  0  0  0  0
  -21.6030   -4.3064   24.7192 C   0  0  0  0  0  0
  -21.8823   -3.8175   23.4299 C   0  0  0  0  0  0
  -21.9213   -4.7001   22.3369 C   0  0  0  0  0  0
  -22.7863  -13.5309   21.1780 C   0  0  0  0  0  0
  -22.1664   -4.2188   21.0947 F   0  0  0  0  0  0
  -21.5604   -3.4536   25.7697 F   0  0  0  0  0  0
  -29.9943  -13.5378   20.3791 N   0  0  0  0  0  0
  -26.2978  -12.9397   20.3376 N   0  0  0  0  0  0
  -25.9390  -11.6559   20.5893 N   0  0  0  0  0  0
  -22.0457  -12.8330   22.0305 N   0  0  0  0  0  0
  -25.4150  -15.1973   20.4030 N   0  0  0  0  0  0
  -31.7866  -14.9223   20.2319 O   0  0  0  0  0  0
  -21.6666   -6.8917   21.4244 O   0  0  0  0  0  0
  -22.3574  -14.5613   20.6600 O   0  0  0  0  0  0
  -24.6353  -31.8555   23.1963 C   0  0  0  0  0  0
  -25.9163  -32.4749   23.8317 C   0  0  1  0  0  0
  -27.2199  -27.2266   20.1292 C   0  0  0  0  0  0
  -25.5947  -33.8554   24.2237 N   0  0  0  0  0  0
  -23.4315  -30.4815   21.5400 C   0  0  2  0  0  0
  -24.8756  -28.9180   20.1036 C   0  0  0  0  0  0
  -22.7523  -29.4635   22.4896 C   0  0  0  0  0  0
  -18.0310  -28.1455   22.8503 C   0  0  0  0  0  0
  -24.1456  -36.7272   23.2635 C   0  0  0  0  0  0
  -25.9795  -30.7464   21.3842 C   0  0  0  0  0  0
  -26.0435  -29.3653   20.7299 C   0  0  0  0  0  0
  -27.2121  -28.5320   20.7333 C   0  0  0  0  0  0
  -26.0313  -26.8613   19.4515 C   0  0  0  0  0  0
  -24.8778  -27.6753   19.4480 C   0  0  0  0  0  0
  -23.6451  -29.8103   20.1579 C   0  0  0  0  0  0
  -25.4091  -36.3074   24.0329 C   0  0  1  0  0  0
  -20.5910  -28.3770   23.1271 C   0  0  2  0  0  0
  -20.6815  -26.9466   22.5458 C   0  0  0  0  0  0
  -19.5800  -26.6400   21.5260 C   0  0  0  0  0  0
  -18.1965  -26.7983   22.1623 C   0  0  0  0  0  0
  -19.1561  -28.8910   23.2879 C   0  0  0  0  0  0
  -18.9515  -30.1488   23.8927 C   0  0  0  0  0  0
  -17.6526  -30.6637   24.0598 C   0  0  0  0  0  0
  -25.9066  -34.9449   23.5107 C   0  0  0  0  0  0
  -16.5407  -29.9156   23.6351 C   0  0  0  0  0  0
  -16.7293  -28.6561   23.0377 C   0  0  0  0  0  0
  -26.4504  -31.6618   25.0760 C   0  0  0  0  0  0
  -25.3702  -31.3790   26.1479 C   0  0  0  0  0  0
  -27.0371  -30.3029   24.6292 C   0  0  0  0  0  0
  -27.6070  -32.4366   25.7528 C   0  0  0  0  0  0
  -27.5548  -37.1785   24.8472 C   0  0  0  0  0  0
  -21.4244  -29.3105   22.3692 N   0  0  0  0  0  0
  -26.4268  -37.3772   23.9434 N   0  0  0  0  0  0
  -24.7018  -31.0503   22.0946 N   0  0  0  0  0  0
  -23.4210  -28.8167   23.2993 O   0  0  0  0  0  0
  -28.3289  -26.3348   20.2239 O   0  0  0  0  0  0
  -26.5635  -34.8950   22.4659 O   0  0  0  0  0  0
  -23.5504  -32.1395   23.7234 O   0  0  0  0  0  0
  -28.7162  -18.9180   22.4001 C   0  0  0  0  0  0
  -28.9718  -20.0144   21.5572 C   0  0  0  0  0  0
  -29.0698  -17.6033   22.0338 C   0  0  0  0  0  0
  -29.6164  -19.8440   20.3187 C   0  0  0  0  0  0
  -29.9670  -18.4580   19.9391 C   0  0  0  0  0  0
  -29.6952  -17.3047   20.8032 C   0  0  0  0  0  0
  -29.8546  -21.1241   19.4836 C   0  0  0  0  0  0
  -29.6385  -22.5089   19.5261 C   0  0  0  0  0  0
  -32.0717  -18.4446   18.4895 C   0  0  0  0  0  0
  -30.5640  -18.1764   18.5603 C   0  0  0  0  0  0
  -29.0229  -23.6355   20.4690 C   0  0  0  0  0  0
  -28.3060  -24.9030   19.7273 C   0  0  0  0  0  0
  -29.6902  -15.8539   20.4568 N   0  0  0  0  0  0
  -31.4879  -12.5920   19.1434 H   0  0  0  0  0  0
  -30.3950  -11.4997   19.9454 H   0  0  0  0  0  0
  -29.7748  -11.7241   17.5063 H   0  0  0  0  0  0
  -29.6093  -13.4545   17.7086 H   0  0  0  0  0  0
  -27.8856  -11.2646   18.9323 H   0  0  0  0  0  0
  -27.3584  -12.4816   17.8114 H   0  0  0  0  0  0
  -27.6287  -14.2344   19.4500 H   0  0  0  0  0  0
  -28.7477  -12.1834   21.4293 H   0  0  0  0  0  0
  -28.4520  -13.8609   21.7843 H   0  0  0  0  0  0
  -25.2799   -9.5722   22.4766 H   0  0  0  0  0  0
  -24.0013   -7.4695   22.7552 H   0  0  0  0  0  0
  -21.0823   -8.8857   19.8996 H   0  0  0  0  0  0
  -22.3722  -10.9745   19.6183 H   0  0  0  0  0  0
  -21.2036   -7.6176   23.9710 H   0  0  0  0  0  0
  -21.1449   -6.0532   25.9060 H   0  0  0  0  0  0
  -22.0598   -2.7642   23.2780 H   0  0  0  0  0  0
  -22.4057  -12.0033   22.4764 H   0  0  0  0  0  0
  -21.1154  -13.1519   22.2615 H   0  0  0  0  0  0
  -24.6344  -15.8351   20.5023 H   0  0  0  0  0  0
  -26.2521  -15.6583   20.0743 H   0  0  0  0  0  0
  -26.7233  -32.5405   23.1056 H   0  0  0  0  0  0
  -25.0140  -33.9669   25.0415 H   0  0  0  0  0  0
  -22.7269  -31.3062   21.3991 H   0  0  0  0  0  0
  -23.3745  -35.9576   23.3315 H   0  0  0  0  0  0
  -24.3527  -36.8883   22.2045 H   0  0  0  0  0  0
  -23.7206  -37.6471   23.6656 H   0  0  0  0  0  0
  -26.1304  -31.4972   20.6073 H   0  0  0  0  0  0
  -26.8566  -30.7954   22.0201 H   0  0  0  0  0  0
  -28.1027  -28.8607   21.2490 H   0  0  0  0  0  0
  -25.9508  -25.9298   18.9121 H   0  0  0  0  0  0
  -23.9850  -27.3400   18.9343 H   0  0  0  0  0  0
  -23.7566  -30.5894   19.4023 H   0  0  0  0  0  0
  -22.7578  -29.2489   19.8597 H   0  0  0  0  0  0
  -25.1237  -36.1894   25.0814 H   0  0  0  0  0  0
  -21.0012  -28.3339   24.1388 H   0  0  0  0  0  0
  -20.5805  -26.2377   23.3696 H   0  0  0  0  0  0
  -21.6673  -26.7532   22.1198 H   0  0  0  0  0  0
  -19.6939  -25.6329   21.1254 H   0  0  0  0  0  0
  -19.6773  -27.3223   20.6806 H   0  0  0  0  0  0
  -17.4213  -26.6761   21.4028 H   0  0  0  0  0  0
  -18.0348  -26.0159   22.9055 H   0  0  0  0  0  0
  -19.7996  -30.7267   24.2295 H   0  0  0  0  0  0
  -17.5103  -31.6320   24.5185 H   0  0  0  0  0  0
  -15.5430  -30.3058   23.7669 H   0  0  0  0  0  0
  -15.8688  -28.0862   22.7109 H   0  0  0  0  0  0
  -24.5865  -30.7137   25.7820 H   0  0  0  0  0  0
  -24.8901  -32.2964   26.4877 H   0  0  0  0  0  0
  -25.7984  -30.8990   27.0286 H   0  0  0  0  0  0
  -26.2978  -29.6802   24.1250 H   0  0  0  0  0  0
  -27.3959  -29.7260   25.4828 H   0  0  0  0  0  0
  -27.8887  -30.4299   23.9624 H   0  0  0  0  0  0
  -27.2676  -33.3664   26.2081 H   0  0  0  0  0  0
  -28.3878  -32.6930   25.0366 H   0  0  0  0  0  0
  -28.0759  -31.8541   26.5453 H   0  0  0  0  0  0
  -28.2578  -38.0065   24.7487 H   0  0  0  0  0  0
  -28.1020  -36.2596   24.6302 H   0  0  0  0  0  0
  -27.2286  -37.1456   25.8884 H   0  0  0  0  0  0
  -20.9445  -29.8938   21.7001 H   0  0  0  0  0  0
  -26.0144  -38.2844   24.1437 H   0  0  0  0  0  0
  -28.2023  -19.0902   23.3352 H   0  0  0  0  0  0
  -28.6460  -20.9985   21.8658 H   0  0  0  0  0  0
  -28.7862  -16.8025   22.7022 H   0  0  0  0  0  0
  -30.3700  -20.8771   18.5642 H   0  0  0  0  0  0
  -30.0513  -22.9895   18.6520 H   0  0  0  0  0  0
  -32.3264  -19.4423   18.8440 H   0  0  0  0  0  0
  -32.4308  -18.3522   17.4648 H   0  0  0  0  0  0
  -32.6235  -17.7113   19.0781 H   0  0  0  0  0  0
  -30.0407  -18.7537   17.7996 H   0  0  0  0  0  0
  -30.3984  -17.1349   18.2833 H   0  0  0  0  0  0
  -29.8558  -24.0349   21.0511 H   0  0  0  0  0  0
  -28.3534  -23.1944   21.2092 H   0  0  0  0  0  0
  -27.2909  -24.5542   19.5648 H   0  0  0  0  0  0
  -28.7471  -24.9640   18.7337 H   0  0  0  0  0  0
  -28.7587  -15.4790   20.5262 H   0  0  0  0  0  0
  1 25  1  0  0  0
  1 30  2  0  0  0
  1 83  1  0  0  0
  2  3  1  0  0  0
  2 25  1  0  0  0
  2 84  1  0  0  0
  2 85  1  0  0  0
  3  4  1  0  0  0
  3 86  1  0  0  0
  3 87  1  0  0  0
  4  5  1  0  0  0
  4 88  1  0  0  0
  4 89  1  0  0  0
  5  6  1  0  0  0
  5 26  1  0  0  0
  5 90  1  0  0  0
  6 25  1  0  0  0
  6 91  1  0  0  0
  6 92  1  0  0  0
  7  8  2  0  0  0
  7 26  1  0  0  0
  7 29  1  0  0  0
  8  9  1  0  0  0
  8 22  1  0  0  0
  9 10  1  0  0  0
  9 27  2  0  0  0
 10 11  2  0  0  0
 10 15  1  0  0  0
 11 12  1  0  0  0
 11 93  1  0  0  0
 12 13  2  0  0  0
 12 94  1  0  0  0
 13 14  1  0  0  0
 13 31  1  0  0  0
 14 15  2  0  0  0
 14 95  1  0  0  0
 15 96  1  0  0  0
 16 17  2  0  0  0
 16 21  1  0  0  0
 16 31  1  0  0  0
 17 18  1  0  0  0
 17 97  1  0  0  0
 18 19  2  0  0  0
 18 98  1  0  0  0
 19 20  1  0  0  0
 19 24  1  0  0  0
 20 21  2  0  0  0
 20 99  1  0  0  0
 21 23  1  0  0  0
 22 28  1  0  0  0
 22 32  2  0  0  0
 26 27  1  0  0  0
 28100  1  0  0  0
 28101  1  0  0  0
 29102  1  0  0  0
 29103  1  0  0  0
 33 34  1  0  0  0
 33 66  1  0  0  0
 33 70  2  0  0  0
 34 36  1  0  0  0
 34 59  1  0  0  0
 34104  1  0  0  0
 35 44  2  0  0  0
 35 45  1  0  0  0
 35 68  1  0  0  0
 36 56  1  0  0  0
 36105  1  0  0  0
 37 39  1  0  0  0
 37 47  1  0  0  0
 37 66  1  0  0  0
 37106  1  0  0  0
 38 43  2  0  0  0
 38 46  1  0  0  0
 38 47  1  0  0  0
 39 64  1  0  0  0
 39 67  2  0  0  0
 40 52  1  0  0  0
 40 53  2  0  0  0
 40 58  1  0  0  0
 41107  1  0  0  0
 41108  1  0  0  0
 41109  1  0  0  0
 41 48  1  0  0  0
 42 43  1  0  0  0
 42 66  1  0  0  0
 42110  1  0  0  0
 42111  1  0  0  0
 43 44  1  0  0  0
 44112  1  0  0  0
 45 46  2  0  0  0
 45113  1  0  0  0
 46114  1  0  0  0
 47115  1  0  0  0
 47116  1  0  0  0
 48 56  1  0  0  0
 48 65  1  0  0  0
 48117  1  0  0  0
 49 50  1  0  0  0
 49 53  1  0  0  0
 49 64  1  0  0  0
 49118  1  0  0  0
 50 51  1  0  0  0
 50119  1  0  0  0
 50120  1  0  0  0
 51 52  1  0  0  0
 51121  1  0  0  0
 51122  1  0  0  0
 52123  1  0  0  0
 52124  1  0  0  0
 53 54  1  0  0  0
 54 55  2  0  0  0
 54125  1  0  0  0
 55 57  1  0  0  0
 55126  1  0  0  0
 56 69  2  0  0  0
 57 58  2  0  0  0
 57127  1  0  0  0
 58128  1  0  0  0
 59 60  1  0  0  0
 59 61  1  0  0  0
 59 62  1  0  0  0
 60129  1  0  0  0
 60130  1  0  0  0
 60131  1  0  0  0
 61132  1  0  0  0
 61133  1  0  0  0
 61134  1  0  0  0
 62135  1  0  0  0
 62136  1  0  0  0
 62137  1  0  0  0
 63 65  1  0  0  0
 63138  1  0  0  0
 63139  1  0  0  0
 63140  1  0  0  0
 64141  1  0  0  0
 65142  1  0  0  0
 68 82  1  0  0  0
 71 72  2  0  0  0
 71 73  1  0  0  0
 71143  1  0  0  0
 72 74  1  0  0  0
 72144  1  0  0  0
 73 76  2  0  0  0
 73145  1  0  0  0
 74 75  2  0  0  0
 74 77  1  0  0  0
 75 76  1  0  0  0
 75 80  1  0  0  0
 76 83  1  0  0  0
 77 78  2  0  0  0
 77146  1  0  0  0
 78 81  1  0  0  0
 78147  1  0  0  0
 79 80  1  0  0  0
 79148  1  0  0  0
 79149  1  0  0  0
 79150  1  0  0  0
 80151  1  0  0  0
 80152  1  0  0  0
 81 82  1  0  0  0
 81153  1  0  0  0
 81154  1  0  0  0
 82155  1  0  0  0
 82156  1  0  0  0
 83157  1  0  0  0
M  ISO  4   1 100  68 101  82 101  83 100
M  END
> <chiral flag>
0

> <version>
0

> <s_m_source_file>
/data/baiqing/PycharmProjects/Reinvent-master-3.2/result/LINK_invent/BTK/process_docking_weight1_custom_product_contain_oxygen_bond_distance_aromatic_linkinvent_7_9_3/rearranged_h_0128.sdf

> <i_m_source_file_index>
25

> <r_mmod_Potential_Energy-OPLS-2005>
321.162872314453

> <r_mmod_Stretch_Energy-OPLS-2005>
143.283538818359

> <r_mmod_Bend_Energy-OPLS-2005>
242.528381347656

> <r_mmod_Torsional_Energy-OPLS-2005>
250.022476196289

> <r_mmod_Improper_Torsional_Energy-OPLS-2005>
11.5440378189087

> <r_mmod_Van_der_Waal_Energy-OPLS-2005>
130.315063476562

> <r_mmod_Electrostatic_Energy-OPLS-2005>
-360.745178222656

> <r_mmod_Solvation_Energy-OPLS-2005>
-204.325592041016

> <b_mmod_Minimization_Converged-OPLS-2005>
0

> <r_mmod_RMS_Derivative-OPLS-2005>
7.90280771255493

$$$$
25
                    3D
 Structure written by MMmdl.
159167  0  0  1  0            999 V2000
  -30.6981  -14.4169   20.6634 C   0  0  0  0  0  0
  -30.4372  -12.3155   19.3827 C   0  0  0  0  0  0
  -29.4888  -12.5356   18.1852 C   0  0  0  0  0  0
  -28.0101  -12.3922   18.5991 C   0  0  0  0  0  0
  -27.6673  -13.1974   19.8804 C   0  0  2  0  0  0
  -28.7075  -12.9063   20.9825 C   0  0  0  0  0  0
  -25.2625  -13.8116   20.5703 C   0  0  0  0  0  0
  -24.1848  -13.0413   20.9138 C   0  0  0  0  0  0
  -24.6386  -11.6886   20.8682 C   0  0  0  0  0  0
  -23.9037  -10.4287   21.0355 C   0  0  0  0  0  0
  -24.3603   -9.4218   21.9146 C   0  0  0  0  0  0
  -23.6303   -8.2240   22.0726 C   0  0  0  0  0  0
  -22.4290   -8.0254   21.3516 C   0  0  0  0  0  0
  -21.9893   -9.0220   20.4622 C   0  0  0  0  0  0
  -22.7191  -10.2119   20.3023 C   0  0  0  0  0  0
  -21.6850   -6.0729   22.5281 C   0  0  0  0  0  0
  -21.4002   -6.5636   23.8221 C   0  0  0  0  0  0
  -21.3662   -5.6792   24.9179 C   0  0  0  0  0  0
  -21.6046   -4.3050   24.7231 C   0  0  0  0  0  0
  -21.8822   -3.8149   23.4343 C   0  0  0  0  0  0
  -21.9199   -4.6961   22.3408 C   0  0  0  0  0  0
  -22.7872  -13.5216   21.1832 C   0  0  0  0  0  0
  -22.1670   -4.2163   21.0979 F   0  0  0  0  0  0
  -21.5642   -3.4522   25.7732 F   0  0  0  0  0  0
  -30.0519  -13.2373   20.4604 N   0  0  0  0  0  0
  -26.3054  -12.9272   20.3373 N   0  0  0  0  0  0
  -25.9305  -11.6437   20.5711 N   0  0  0  0  0  0
  -22.0535  -12.8225   22.0412 N   0  0  0  0  0  0
  -25.4384  -15.1829   20.4255 N   0  0  0  0  0  0
  -31.7025  -14.7657   20.0350 O   0  0  0  0  0  0
  -21.6637   -6.8857   21.4239 O   0  0  0  0  0  0
  -22.3540  -14.5503   20.6661 O   0  0  0  0  0  0
  -24.6121  -31.8675   23.2098 C   0  0  0  0  0  0
  -25.9026  -32.4816   23.8382 C   0  0  1  0  0  0
  -27.2505  -27.4594   20.0804 C   0  0  0  0  0  0
  -25.5877  -33.8615   24.2328 N   0  0  0  0  0  0
  -23.4003  -30.4892   21.5476 C   0  0  2  0  0  0
  -24.8505  -28.9566   20.1111 C   0  0  0  0  0  0
  -22.7395  -29.4653   22.4974 C   0  0  0  0  0  0
  -18.0269  -28.1373   22.8483 C   0  0  0  0  0  0
  -24.1478  -36.7319   23.2642 C   0  0  0  0  0  0
  -25.9261  -30.8362   21.3621 C   0  0  0  0  0  0
  -26.0050  -29.4701   20.7145 C   0  0  0  0  0  0
  -27.2024  -28.7221   20.7100 C   0  0  0  0  0  0
  -26.0736  -26.9450   19.4915 C   0  0  0  0  0  0
  -24.8780  -27.6892   19.5016 C   0  0  0  0  0  0
  -23.6079  -29.8174   20.1621 C   0  0  0  0  0  0
  -25.4096  -36.3121   24.0345 C   0  0  1  0  0  0
  -20.5854  -28.3657   23.1311 C   0  0  2  0  0  0
  -20.6750  -26.9386   22.5424 C   0  0  0  0  0  0
  -19.5736  -26.6374   21.5212 C   0  0  0  0  0  0
  -18.1913  -26.7917   22.1622 C   0  0  0  0  0  0
  -19.1518  -28.8829   23.2892 C   0  0  0  0  0  0
  -18.9451  -30.1431   23.8905 C   0  0  0  0  0  0
  -17.6457  -30.6573   24.0568 C   0  0  0  0  0  0
  -25.9020  -34.9475   23.5139 C   0  0  0  0  0  0
  -16.5344  -29.9080   23.6327 C   0  0  0  0  0  0
  -16.7261  -28.6501   23.0337 C   0  0  0  0  0  0
  -26.4481  -31.6596   25.0702 C   0  0  0  0  0  0
  -25.3763  -31.3695   26.1462 C   0  0  0  0  0  0
  -27.0322  -30.3039   24.6083 C   0  0  0  0  0  0
  -27.6059  -32.4323   25.7463 C   0  0  0  0  0  0
  -27.5583  -37.1804   24.8466 C   0  0  0  0  0  0
  -21.4124  -29.3025   22.3720 N   0  0  0  0  0  0
  -26.4290  -37.3799   23.9416 N   0  0  0  0  0  0
  -24.6637  -31.0789   22.0986 N   0  0  0  0  0  0
  -23.4174  -28.8198   23.3016 O   0  0  0  0  0  0
  -28.4278  -26.7421   20.1105 O   0  0  0  0  0  0
  -26.5593  -34.8938   22.4708 O   0  0  0  0  0  0
  -23.5319  -32.1423   23.7503 O   0  0  0  0  0  0
  -28.0460  -18.7746   21.6523 C   0  0  0  0  0  0
  -30.0296  -17.5345   20.9623 C   0  0  0  0  0  0
  -28.2856  -16.4376   22.2724 C   0  0  0  0  0  0
  -29.3009  -18.7538   20.9982 C   0  0  0  0  0  0
  -27.5400  -17.6271   22.2889 C   0  0  0  0  0  0
  -29.5240  -16.3723   21.6016 C   0  0  0  0  0  0
  -29.8666  -19.9916   20.4043 C   0  0  0  0  0  0
  -29.2643  -21.2047   20.3711 C   0  0  0  0  0  0
  -29.9115  -22.4120   19.8217 C   0  0  0  0  0  0
  -26.2103  -17.6755   23.0190 C   0  0  0  0  0  0
  -29.0810  -23.7092   19.8123 C   0  0  0  0  0  0
  -29.7937  -24.9333   19.1891 C   0  0  0  0  0  0
  -28.8644  -26.1259   18.8982 C   0  0  0  0  0  0
  -30.2043  -15.1270   21.6858 N   0  0  0  0  0  0
  -31.0714  -22.4162   19.3941 O   0  0  0  0  0  0
  -31.4749  -12.4589   19.0716 H   0  0  0  0  0  0
  -30.3708  -11.2861   19.7372 H   0  0  0  0  0  0
  -29.7233  -11.8245   17.3920 H   0  0  0  0  0  0
  -29.6576  -13.5263   17.7601 H   0  0  0  0  0  0
  -27.8079  -11.3340   18.7619 H   0  0  0  0  0  0
  -27.3630  -12.7001   17.7763 H   0  0  0  0  0  0
  -27.7263  -14.2573   19.6293 H   0  0  0  0  0  0
  -28.6857  -11.8481   21.2450 H   0  0  0  0  0  0
  -28.4395  -13.4247   21.9027 H   0  0  0  0  0  0
  -25.2743   -9.5734   22.4722 H   0  0  0  0  0  0
  -24.0028   -7.4638   22.7439 H   0  0  0  0  0  0
  -21.0822   -8.8716   19.8942 H   0  0  0  0  0  0
  -22.3609  -10.9654   19.6151 H   0  0  0  0  0  0
  -21.1976   -7.6151   23.9719 H   0  0  0  0  0  0
  -21.1487   -6.0520   25.9083 H   0  0  0  0  0  0
  -22.0604   -2.7608   23.2833 H   0  0  0  0  0  0
  -22.4131  -11.9915   22.4873 H   0  0  0  0  0  0
  -21.1112  -13.1213   22.2511 H   0  0  0  0  0  0
  -24.6872  -15.8424   20.5918 H   0  0  0  0  0  0
  -26.3235  -15.6319   20.2251 H   0  0  0  0  0  0
  -26.7093  -32.5544   23.1142 H   0  0  0  0  0  0
  -25.0020  -33.9768   25.0469 H   0  0  0  0  0  0
  -22.6888  -31.3052   21.4058 H   0  0  0  0  0  0
  -23.3739  -35.9651   23.3312 H   0  0  0  0  0  0
  -24.3584  -36.8925   22.2057 H   0  0  0  0  0  0
  -23.7228  -37.6524   23.6649 H   0  0  0  0  0  0
  -26.0351  -31.5995   20.5908 H   0  0  0  0  0  0
  -26.8139  -30.8930   21.9789 H   0  0  0  0  0  0
  -28.0913  -29.1138   21.1835 H   0  0  0  0  0  0
  -26.0635  -25.9620   19.0418 H   0  0  0  0  0  0
  -23.9889  -27.2806   19.0412 H   0  0  0  0  0  0
  -23.7070  -30.5880   19.3968 H   0  0  0  0  0  0
  -22.7353  -29.2284   19.8731 H   0  0  0  0  0  0
  -25.1274  -36.1990   25.0837 H   0  0  0  0  0  0
  -20.9952  -28.3224   24.1429 H   0  0  0  0  0  0
  -20.5638  -26.2265   23.3608 H   0  0  0  0  0  0
  -21.6623  -26.7411   22.1230 H   0  0  0  0  0  0
  -19.6894  -25.6290   21.1228 H   0  0  0  0  0  0
  -19.6681  -27.3197   20.6748 H   0  0  0  0  0  0
  -17.4185  -26.6663   21.4022 H   0  0  0  0  0  0
  -18.0310  -26.0051   22.9013 H   0  0  0  0  0  0
  -19.7922  -30.7238   24.2282 H   0  0  0  0  0  0
  -17.5012  -31.6263   24.5158 H   0  0  0  0  0  0
  -15.5345  -30.2994   23.7632 H   0  0  0  0  0  0
  -15.8657  -28.0832   22.7039 H   0  0  0  0  0  0
  -24.5893  -30.7102   25.7801 H   0  0  0  0  0  0
  -24.9012  -32.2850   26.4990 H   0  0  0  0  0  0
  -25.8116  -30.8792   27.0176 H   0  0  0  0  0  0
  -26.2860  -29.6765   24.1194 H   0  0  0  0  0  0
  -27.4158  -29.7320   25.4548 H   0  0  0  0  0  0
  -27.8671  -30.4367   23.9193 H   0  0  0  0  0  0
  -27.2659  -33.3583   26.2111 H   0  0  0  0  0  0
  -28.3818  -32.6944   25.0261 H   0  0  0  0  0  0
  -28.0779  -31.8408   26.5313 H   0  0  0  0  0  0
  -28.2601  -38.0105   24.7529 H   0  0  0  0  0  0
  -28.1076  -36.2639   24.6263 H   0  0  0  0  0  0
  -27.2308  -37.1430   25.8870 H   0  0  0  0  0  0
  -20.9275  -29.8756   21.6956 H   0  0  0  0  0  0
  -26.0185  -38.2876   24.1429 H   0  0  0  0  0  0
  -27.4574  -19.6779   21.7029 H   0  0  0  0  0  0
  -30.9902  -17.5024   20.4677 H   0  0  0  0  0  0
  -27.8974  -15.5696   22.7844 H   0  0  0  0  0  0
  -30.8582  -19.8968   19.9809 H   0  0  0  0  0  0
  -28.2701  -21.3495   20.7612 H   0  0  0  0  0  0
  -26.3530  -18.0088   24.0473 H   0  0  0  0  0  0
  -25.7467  -16.6894   23.0471 H   0  0  0  0  0  0
  -25.5146  -18.3590   22.5323 H   0  0  0  0  0  0
  -28.7823  -23.9419   20.8351 H   0  0  0  0  0  0
  -28.1627  -23.5030   19.2618 H   0  0  0  0  0  0
  -30.2513  -24.6368   18.2443 H   0  0  0  0  0  0
  -30.6139  -25.2505   19.8343 H   0  0  0  0  0  0
  -28.0571  -25.8035   18.2439 H   0  0  0  0  0  0
  -29.4225  -26.8799   18.3397 H   0  0  0  0  0  0
  -29.7230  -14.4946   22.3066 H   0  0  0  0  0  0
  1 25  1  0  0  0
  1 30  2  0  0  0
  1 84  1  0  0  0
  2  3  1  0  0  0
  2 25  1  0  0  0
  2 86  1  0  0  0
  2 87  1  0  0  0
  3  4  1  0  0  0
  3 88  1  0  0  0
  3 89  1  0  0  0
  4  5  1  0  0  0
  4 90  1  0  0  0
  4 91  1  0  0  0
  5  6  1  0  0  0
  5 26  1  0  0  0
  5 92  1  0  0  0
  6 25  1  0  0  0
  6 93  1  0  0  0
  6 94  1  0  0  0
  7  8  2  0  0  0
  7 26  1  0  0  0
  7 29  1  0  0  0
  8  9  1  0  0  0
  8 22  1  0  0  0
  9 10  1  0  0  0
  9 27  2  0  0  0
 10 11  2  0  0  0
 10 15  1  0  0  0
 11 12  1  0  0  0
 11 95  1  0  0  0
 12 13  2  0  0  0
 12 96  1  0  0  0
 13 14  1  0  0  0
 13 31  1  0  0  0
 14 15  2  0  0  0
 14 97  1  0  0  0
 15 98  1  0  0  0
 16 17  2  0  0  0
 16 21  1  0  0  0
 16 31  1  0  0  0
 17 18  1  0  0  0
 17 99  1  0  0  0
 18 19  2  0  0  0
 18100  1  0  0  0
 19 20  1  0  0  0
 19 24  1  0  0  0
 20 21  2  0  0  0
 20101  1  0  0  0
 21 23  1  0  0  0
 22 28  1  0  0  0
 22 32  2  0  0  0
 26 27  1  0  0  0
 28102  1  0  0  0
 28103  1  0  0  0
 29104  1  0  0  0
 29105  1  0  0  0
 33 34  1  0  0  0
 33 66  1  0  0  0
 33 70  2  0  0  0
 34 36  1  0  0  0
 34 59  1  0  0  0
 34106  1  0  0  0
 35 44  2  0  0  0
 35 45  1  0  0  0
 35 68  1  0  0  0
 36 56  1  0  0  0
 36107  1  0  0  0
 37 39  1  0  0  0
 37 47  1  0  0  0
 37 66  1  0  0  0
 37108  1  0  0  0
 38 43  2  0  0  0
 38 46  1  0  0  0
 38 47  1  0  0  0
 39 64  1  0  0  0
 39 67  2  0  0  0
 40 52  1  0  0  0
 40 53  2  0  0  0
 40 58  1  0  0  0
 41109  1  0  0  0
 41110  1  0  0  0
 41111  1  0  0  0
 41 48  1  0  0  0
 42 43  1  0  0  0
 42 66  1  0  0  0
 42112  1  0  0  0
 42113  1  0  0  0
 43 44  1  0  0  0
 44114  1  0  0  0
 45 46  2  0  0  0
 45115  1  0  0  0
 46116  1  0  0  0
 47117  1  0  0  0
 47118  1  0  0  0
 48 56  1  0  0  0
 48 65  1  0  0  0
 48119  1  0  0  0
 49 50  1  0  0  0
 49 53  1  0  0  0
 49 64  1  0  0  0
 49120  1  0  0  0
 50 51  1  0  0  0
 50121  1  0  0  0
 50122  1  0  0  0
 51 52  1  0  0  0
 51123  1  0  0  0
 51124  1  0  0  0
 52125  1  0  0  0
 52126  1  0  0  0
 53 54  1  0  0  0
 54 55  2  0  0  0
 54127  1  0  0  0
 55 57  1  0  0  0
 55128  1  0  0  0
 56 69  2  0  0  0
 57 58  2  0  0  0
 57129  1  0  0  0
 58130  1  0  0  0
 59 60  1  0  0  0
 59 61  1  0  0  0
 59 62  1  0  0  0
 60131  1  0  0  0
 60132  1  0  0  0
 60133  1  0  0  0
 61134  1  0  0  0
 61135  1  0  0  0
 61136  1  0  0  0
 62137  1  0  0  0
 62138  1  0  0  0
 62139  1  0  0  0
 63 65  1  0  0  0
 63140  1  0  0  0
 63141  1  0  0  0
 63142  1  0  0  0
 64143  1  0  0  0
 65144  1  0  0  0
 68 83  1  0  0  0
 71 74  2  0  0  0
 71 75  1  0  0  0
 71145  1  0  0  0
 72 74  1  0  0  0
 72 76  2  0  0  0
 72146  1  0  0  0
 73 75  2  0  0  0
 73 76  1  0  0  0
 73147  1  0  0  0
 74 77  1  0  0  0
 75 80  1  0  0  0
 76 84  1  0  0  0
 77 78  2  0  0  0
 77148  1  0  0  0
 78 79  1  0  0  0
 78149  1  0  0  0
 79 81  1  0  0  0
 79 85  2  0  0  0
 80150  1  0  0  0
 80151  1  0  0  0
 80152  1  0  0  0
 81 82  1  0  0  0
 81153  1  0  0  0
 81154  1  0  0  0
 82 83  1  0  0  0
 82155  1  0  0  0
 82156  1  0  0  0
 83157  1  0  0  0
 83158  1  0  0  0
 84159  1  0  0  0
M  ISO  4   1 100  68 101  83 101  84 100
M  END
> <chiral flag>
0

> <version>
0

> <s_m_source_file>
/data/baiqing/PycharmProjects/Reinvent-master-3.2/result/LINK_invent/BTK/process_docking_weight1_custom_product_contain_oxygen_bond_distance_aromatic_linkinvent_7_9_3/rearranged_h_0128.sdf

> <i_m_source_file_index>
26

> <r_mmod_Potential_Energy-OPLS-2005>
-68.5340881347656

> <r_mmod_Stretch_Energy-OPLS-2005>
35.8864936828613

> <r_mmod_Bend_Energy-OPLS-2005>
102.796684265137

> <r_mmod_Torsional_Energy-OPLS-2005>
245.377655029297

> <r_mmod_Improper_Torsional_Energy-OPLS-2005>
6.99706125259399

> <r_mmod_Van_der_Waal_Energy-OPLS-2005>
147.965347290039

> <r_mmod_Electrostatic_Energy-OPLS-2005>
-401.240203857422

> <r_mmod_Solvation_Energy-OPLS-2005>
-216.997817993164

> <b_mmod_Minimization_Converged-OPLS-2005>
0

> <r_mmod_RMS_Derivative-OPLS-2005>
2.76971888542175

$$$$
26
                    3D
 Structure written by MMmdl.
156164  0  0  1  0            999 V2000
  -30.6843  -14.5347   20.4830 C   0  0  0  0  0  0
  -30.4305  -12.3421   19.4065 C   0  0  0  0  0  0
  -29.4954  -12.5443   18.1946 C   0  0  0  0  0  0
  -28.0210  -12.3752   18.6165 C   0  0  0  0  0  0
  -27.6657  -13.2148   19.8719 C   0  0  2  0  0  0
  -28.7176  -13.0278   20.9891 C   0  0  0  0  0  0
  -25.2618  -13.8186   20.5710 C   0  0  0  0  0  0
  -24.1846  -13.0468   20.9173 C   0  0  0  0  0  0
  -24.6400  -11.6927   20.8713 C   0  0  0  0  0  0
  -23.9083  -10.4302   21.0390 C   0  0  0  0  0  0
  -24.3634   -9.4222   21.9177 C   0  0  0  0  0  0
  -23.6310   -8.2257   22.0744 C   0  0  0  0  0  0
  -22.4288   -8.0273   21.3533 C   0  0  0  0  0  0
  -21.9912   -9.0272   20.4675 C   0  0  0  0  0  0
  -22.7226  -10.2145   20.3072 C   0  0  0  0  0  0
  -21.6848   -6.0739   22.5275 C   0  0  0  0  0  0
  -21.3990   -6.5632   23.8206 C   0  0  0  0  0  0
  -21.3665   -5.6784   24.9173 C   0  0  0  0  0  0
  -21.6072   -4.3058   24.7221 C   0  0  0  0  0  0
  -21.8813   -3.8157   23.4339 C   0  0  0  0  0  0
  -21.9161   -4.6974   22.3400 C   0  0  0  0  0  0
  -22.7846  -13.5295   21.1788 C   0  0  0  0  0  0
  -22.1658   -4.2155   21.0987 F   0  0  0  0  0  0
  -21.5650   -3.4530   25.7733 F   0  0  0  0  0  0
  -30.0421  -13.3350   20.4235 N   0  0  0  0  0  0
  -26.3065  -12.9370   20.3388 N   0  0  0  0  0  0
  -25.9326  -11.6536   20.5709 N   0  0  0  0  0  0
  -22.0433  -12.8346   22.0334 N   0  0  0  0  0  0
  -25.4390  -15.1887   20.4084 N   0  0  0  0  0  0
  -31.8512  -14.6737   20.1002 O   0  0  0  0  0  0
  -21.6653   -6.8882   21.4224 O   0  0  0  0  0  0
  -22.3565  -14.5591   20.6589 O   0  0  0  0  0  0
  -24.6185  -31.8709   23.2103 C   0  0  0  0  0  0
  -25.9084  -32.4822   23.8388 C   0  0  1  0  0  0
  -27.2073  -27.3772   20.0934 C   0  0  0  0  0  0
  -25.5961  -33.8628   24.2294 N   0  0  0  0  0  0
  -23.4070  -30.4962   21.5516 C   0  0  2  0  0  0
  -24.8454  -28.9606   20.1138 C   0  0  0  0  0  0
  -22.7463  -29.4675   22.4978 C   0  0  0  0  0  0
  -18.0300  -28.1370   22.8437 C   0  0  0  0  0  0
  -24.1519  -36.7295   23.2624 C   0  0  0  0  0  0
  -25.9487  -30.8039   21.3921 C   0  0  0  0  0  0
  -26.0120  -29.4444   20.7178 C   0  0  0  0  0  0
  -27.1938  -28.6620   20.6969 C   0  0  0  0  0  0
  -26.0150  -26.9292   19.4753 C   0  0  0  0  0  0
  -24.8457  -27.7056   19.4904 C   0  0  0  0  0  0
  -23.6173  -29.8368   20.1662 C   0  0  0  0  0  0
  -25.4146  -36.3110   24.0314 C   0  0  1  0  0  0
  -20.5889  -28.3680   23.1298 C   0  0  2  0  0  0
  -20.6800  -26.9407   22.5445 C   0  0  0  0  0  0
  -19.5802  -26.6365   21.5210 C   0  0  0  0  0  0
  -18.1952  -26.7937   22.1544 C   0  0  0  0  0  0
  -19.1546  -28.8830   23.2862 C   0  0  0  0  0  0
  -18.9467  -30.1435   23.8875 C   0  0  0  0  0  0
  -17.6472  -30.6578   24.0537 C   0  0  0  0  0  0
  -25.9073  -34.9483   23.5099 C   0  0  0  0  0  0
  -16.5364  -29.9065   23.6317 C   0  0  0  0  0  0
  -16.7289  -28.6483   23.0329 C   0  0  0  0  0  0
  -26.4448  -31.6637   25.0768 C   0  0  0  0  0  0
  -25.3624  -31.3881   26.1472 C   0  0  0  0  0  0
  -27.0273  -30.3009   24.6331 C   0  0  0  0  0  0
  -27.6052  -32.4370   25.7504 C   0  0  0  0  0  0
  -27.5632  -37.1799   24.8427 C   0  0  0  0  0  0
  -21.4198  -29.3036   22.3699 N   0  0  0  0  0  0
  -26.4324  -37.3798   23.9402 N   0  0  0  0  0  0
  -24.6737  -31.0770   22.1039 N   0  0  0  0  0  0
  -23.4225  -28.8215   23.3027 O   0  0  0  0  0  0
  -28.3758  -26.6259   20.1095 O   0  0  0  0  0  0
  -26.5608  -34.8940   22.4644 O   0  0  0  0  0  0
  -23.5370  -32.1517   23.7444 O   0  0  0  0  0  0
  -29.9003  -19.4844   18.9668 C   0  0  0  0  0  0
  -29.4159  -18.0522   20.8746 C   0  0  0  0  0  0
  -30.5117  -17.1246   18.9039 C   0  0  0  0  0  0
  -29.3604  -19.3408   20.2618 C   0  0  0  0  0  0
  -30.4598  -18.3884   18.2820 C   0  0  0  0  0  0
  -29.9817  -16.9264   20.2076 C   0  0  0  0  0  0
  -28.7408  -20.5192   20.9355 C   0  0  0  0  0  0
  -28.9326  -21.8307   20.6158 C   0  0  0  0  0  0
  -28.1816  -22.9338   21.2673 C   0  0  0  0  0  0
  -30.9800  -18.5748   16.8644 C   0  0  0  0  0  0
  -28.7003  -24.3937   21.1975 C   0  0  0  0  0  0
  -28.3498  -25.1822   19.9093 C   0  0  0  0  0  0
  -29.9292  -15.6109   20.8097 N   0  0  0  0  0  0
  -27.1342  -22.7259   21.8861 O   0  0  0  0  0  0
  -31.4713  -12.4522   19.0976 H   0  0  0  0  0  0
  -30.3385  -11.3266   19.7988 H   0  0  0  0  0  0
  -29.7472  -11.8490   17.3915 H   0  0  0  0  0  0
  -29.6377  -13.5449   17.7779 H   0  0  0  0  0  0
  -27.8511  -11.3156   18.8206 H   0  0  0  0  0  0
  -27.3609  -12.6388   17.7891 H   0  0  0  0  0  0
  -27.7009  -14.2602   19.5635 H   0  0  0  0  0  0
  -28.7052  -12.0030   21.3646 H   0  0  0  0  0  0
  -28.4927  -13.6584   21.8467 H   0  0  0  0  0  0
  -25.2788   -9.5740   22.4729 H   0  0  0  0  0  0
  -24.0050   -7.4661   22.7453 H   0  0  0  0  0  0
  -21.0833   -8.8790   19.9004 H   0  0  0  0  0  0
  -22.3669  -10.9685   19.6210 H   0  0  0  0  0  0
  -21.1975   -7.6144   23.9728 H   0  0  0  0  0  0
  -21.1510   -6.0510   25.9082 H   0  0  0  0  0  0
  -22.0578   -2.7621   23.2821 H   0  0  0  0  0  0
  -22.4039  -12.0121   22.4952 H   0  0  0  0  0  0
  -21.1025  -13.1427   22.2395 H   0  0  0  0  0  0
  -24.6798  -15.8511   20.5197 H   0  0  0  0  0  0
  -26.3075  -15.6237   20.1208 H   0  0  0  0  0  0
  -26.7154  -32.5444   23.1143 H   0  0  0  0  0  0
  -25.0187  -33.9791   25.0487 H   0  0  0  0  0  0
  -22.6943  -31.3138   21.4144 H   0  0  0  0  0  0
  -23.3817  -35.9595   23.3295 H   0  0  0  0  0  0
  -24.3611  -36.8909   22.2040 H   0  0  0  0  0  0
  -23.7257  -37.6484   23.6645 H   0  0  0  0  0  0
  -26.1219  -31.5839   20.6508 H   0  0  0  0  0  0
  -26.8141  -30.8083   22.0455 H   0  0  0  0  0  0
  -28.0965  -29.0312   21.1612 H   0  0  0  0  0  0
  -25.9388  -25.9901   18.9541 H   0  0  0  0  0  0
  -23.9488  -27.3309   19.0182 H   0  0  0  0  0  0
  -23.7414  -30.6138   19.4102 H   0  0  0  0  0  0
  -22.7365  -29.2676   19.8630 H   0  0  0  0  0  0
  -25.1346  -36.1958   25.0804 H   0  0  0  0  0  0
  -20.9938  -28.3272   24.1430 H   0  0  0  0  0  0
  -20.5666  -26.2312   23.3652 H   0  0  0  0  0  0
  -21.6693  -26.7450   22.1292 H   0  0  0  0  0  0
  -19.6993  -25.6262   21.1292 H   0  0  0  0  0  0
  -19.6806  -27.3144   20.6716 H   0  0  0  0  0  0
  -17.4294  -26.6758   21.3870 H   0  0  0  0  0  0
  -18.0265  -26.0058   22.8886 H   0  0  0  0  0  0
  -19.7944  -30.7238   24.2277 H   0  0  0  0  0  0
  -17.5034  -31.6251   24.5162 H   0  0  0  0  0  0
  -15.5363  -30.2943   23.7671 H   0  0  0  0  0  0
  -15.8696  -28.0794   22.7051 H   0  0  0  0  0  0
  -24.5913  -30.7056   25.7883 H   0  0  0  0  0  0
  -24.8615  -32.3048   26.4600 H   0  0  0  0  0  0
  -25.7885  -30.9355   27.0426 H   0  0  0  0  0  0
  -26.2873  -29.6815   24.1233 H   0  0  0  0  0  0
  -27.3744  -29.7266   25.4939 H   0  0  0  0  0  0
  -27.8876  -30.4246   23.9743 H   0  0  0  0  0  0
  -27.2692  -33.3657   26.2153 H   0  0  0  0  0  0
  -28.3795  -32.6969   25.0265 H   0  0  0  0  0  0
  -28.0819  -31.8449   26.5337 H   0  0  0  0  0  0
  -28.2656  -38.0093   24.7501 H   0  0  0  0  0  0
  -28.1126  -36.2633   24.6213 H   0  0  0  0  0  0
  -27.2364  -37.1427   25.8828 H   0  0  0  0  0  0
  -20.9394  -29.8695   21.6847 H   0  0  0  0  0  0
  -26.0227  -38.2889   24.1359 H   0  0  0  0  0  0
  -29.8503  -20.4349   18.4585 H   0  0  0  0  0  0
  -29.0051  -17.9295   21.8686 H   0  0  0  0  0  0
  -30.9385  -16.3050   18.3370 H   0  0  0  0  0  0
  -28.0419  -20.2807   21.7275 H   0  0  0  0  0  0
  -29.6364  -22.1215   19.8534 H   0  0  0  0  0  0
  -30.8764  -19.6094   16.5348 H   0  0  0  0  0  0
  -30.4320  -17.9488   16.1582 H   0  0  0  0  0  0
  -32.0372  -18.3169   16.8023 H   0  0  0  0  0  0
  -29.7778  -24.3923   21.3537 H   0  0  0  0  0  0
  -28.2788  -24.9248   22.0504 H   0  0  0  0  0  0
  -27.4267  -24.7766   19.4999 H   0  0  0  0  0  0
  -29.1127  -24.9590   19.1602 H   0  0  0  0  0  0
  -29.0929  -15.4046   21.3382 H   0  0  0  0  0  0
  1 25  1  0  0  0
  1 30  2  0  0  0
  1 83  1  0  0  0
  2  3  1  0  0  0
  2 25  1  0  0  0
  2 85  1  0  0  0
  2 86  1  0  0  0
  3  4  1  0  0  0
  3 87  1  0  0  0
  3 88  1  0  0  0
  4  5  1  0  0  0
  4 89  1  0  0  0
  4 90  1  0  0  0
  5  6  1  0  0  0
  5 26  1  0  0  0
  5 91  1  0  0  0
  6 25  1  0  0  0
  6 92  1  0  0  0
  6 93  1  0  0  0
  7  8  2  0  0  0
  7 26  1  0  0  0
  7 29  1  0  0  0
  8  9  1  0  0  0
  8 22  1  0  0  0
  9 10  1  0  0  0
  9 27  2  0  0  0
 10 11  2  0  0  0
 10 15  1  0  0  0
 11 12  1  0  0  0
 11 94  1  0  0  0
 12 13  2  0  0  0
 12 95  1  0  0  0
 13 14  1  0  0  0
 13 31  1  0  0  0
 14 15  2  0  0  0
 14 96  1  0  0  0
 15 97  1  0  0  0
 16 17  2  0  0  0
 16 21  1  0  0  0
 16 31  1  0  0  0
 17 18  1  0  0  0
 17 98  1  0  0  0
 18 19  2  0  0  0
 18 99  1  0  0  0
 19 20  1  0  0  0
 19 24  1  0  0  0
 20 21  2  0  0  0
 20100  1  0  0  0
 21 23  1  0  0  0
 22 28  1  0  0  0
 22 32  2  0  0  0
 26 27  1  0  0  0
 28101  1  0  0  0
 28102  1  0  0  0
 29103  1  0  0  0
 29104  1  0  0  0
 33 34  1  0  0  0
 33 66  1  0  0  0
 33 70  2  0  0  0
 34 36  1  0  0  0
 34 59  1  0  0  0
 34105  1  0  0  0
 35 44  2  0  0  0
 35 45  1  0  0  0
 35 68  1  0  0  0
 36 56  1  0  0  0
 36106  1  0  0  0
 37 39  1  0  0  0
 37 47  1  0  0  0
 37 66  1  0  0  0
 37107  1  0  0  0
 38 43  2  0  0  0
 38 46  1  0  0  0
 38 47  1  0  0  0
 39 64  1  0  0  0
 39 67  2  0  0  0
 40 52  1  0  0  0
 40 53  2  0  0  0
 40 58  1  0  0  0
 41108  1  0  0  0
 41109  1  0  0  0
 41110  1  0  0  0
 41 48  1  0  0  0
 42 43  1  0  0  0
 42 66  1  0  0  0
 42111  1  0  0  0
 42112  1  0  0  0
 43 44  1  0  0  0
 44113  1  0  0  0
 45 46  2  0  0  0
 45114  1  0  0  0
 46115  1  0  0  0
 47116  1  0  0  0
 47117  1  0  0  0
 48 56  1  0  0  0
 48 65  1  0  0  0
 48118  1  0  0  0
 49 50  1  0  0  0
 49 53  1  0  0  0
 49 64  1  0  0  0
 49119  1  0  0  0
 50 51  1  0  0  0
 50120  1  0  0  0
 50121  1  0  0  0
 51 52  1  0  0  0
 51122  1  0  0  0
 51123  1  0  0  0
 52124  1  0  0  0
 52125  1  0  0  0
 53 54  1  0  0  0
 54 55  2  0  0  0
 54126  1  0  0  0
 55 57  1  0  0  0
 55127  1  0  0  0
 56 69  2  0  0  0
 57 58  2  0  0  0
 57128  1  0  0  0
 58129  1  0  0  0
 59 60  1  0  0  0
 59 61  1  0  0  0
 59 62  1  0  0  0
 60130  1  0  0  0
 60131  1  0  0  0
 60132  1  0  0  0
 61133  1  0  0  0
 61134  1  0  0  0
 61135  1  0  0  0
 62136  1  0  0  0
 62137  1  0  0  0
 62138  1  0  0  0
 63 65  1  0  0  0
 63139  1  0  0  0
 63140  1  0  0  0
 63141  1  0  0  0
 64142  1  0  0  0
 65143  1  0  0  0
 68 82  1  0  0  0
 71 74  2  0  0  0
 71 75  1  0  0  0
 71144  1  0  0  0
 72 74  1  0  0  0
 72 76  2  0  0  0
 72145  1  0  0  0
 73 75  2  0  0  0
 73 76  1  0  0  0
 73146  1  0  0  0
 74 77  1  0  0  0
 75 80  1  0  0  0
 76 83  1  0  0  0
 77 78  2  0  0  0
 77147  1  0  0  0
 78 79  1  0  0  0
 78148  1  0  0  0
 79 81  1  0  0  0
 79 84  2  0  0  0
 80149  1  0  0  0
 80150  1  0  0  0
 80151  1  0  0  0
 81 82  1  0  0  0
 81152  1  0  0  0
 81153  1  0  0  0
 82154  1  0  0  0
 82155  1  0  0  0
 83156  1  0  0  0
M  ISO  4   1 100  68 101  82 101  83 100
M  END
> <chiral flag>
0

> <version>
0

> <s_m_source_file>
/data/baiqing/PycharmProjects/Reinvent-master-3.2/result/LINK_invent/BTK/process_docking_weight1_custom_product_contain_oxygen_bond_distance_aromatic_linkinvent_7_9_3/rearranged_h_0128.sdf

> <i_m_source_file_index>
27

> <r_mmod_Potential_Energy-OPLS-2005>
-22.4521751403809

> <r_mmod_Stretch_Energy-OPLS-2005>
47.8288040161133

> <r_mmod_Bend_Energy-OPLS-2005>
107.97486114502

> <r_mmod_Torsional_Energy-OPLS-2005>
240.246322631836

> <r_mmod_Improper_Torsional_Energy-OPLS-2005>
5.39098596572876

> <r_mmod_Van_der_Waal_Energy-OPLS-2005>
154.742279052734

> <r_mmod_Electrostatic_Energy-OPLS-2005>
-380.931304931641

> <r_mmod_Solvation_Energy-OPLS-2005>
-223.013244628906

> <b_mmod_Minimization_Converged-OPLS-2005>
0

> <r_mmod_RMS_Derivative-OPLS-2005>
5.52892541885376

$$$$
27
                    3D
 Structure written by MMmdl.
155163  0  0  1  0            999 V2000
  -30.7968  -14.4082   20.4989 C   0  0  0  0  0  0
  -30.3768  -12.2451   19.4504 C   0  0  0  0  0  0
  -29.4860  -12.4717   18.2155 C   0  0  0  0  0  0
  -28.0044  -12.3639   18.6176 C   0  0  0  0  0  0
  -27.6515  -13.2258   19.8615 C   0  0  2  0  0  0
  -28.6920  -13.0686   20.9928 C   0  0  0  0  0  0
  -25.2537  -13.8217   20.5694 C   0  0  0  0  0  0
  -24.1809  -13.0464   20.9185 C   0  0  0  0  0  0
  -24.6389  -11.6939   20.8737 C   0  0  0  0  0  0
  -23.9065  -10.4309   21.0403 C   0  0  0  0  0  0
  -24.3615   -9.4224   21.9184 C   0  0  0  0  0  0
  -23.6290   -8.2256   22.0757 C   0  0  0  0  0  0
  -22.4275   -8.0285   21.3545 C   0  0  0  0  0  0
  -21.9905   -9.0263   20.4652 C   0  0  0  0  0  0
  -22.7234  -10.2143   20.3058 C   0  0  0  0  0  0
  -21.6857   -6.0738   22.5278 C   0  0  0  0  0  0
  -21.4020   -6.5639   23.8211 C   0  0  0  0  0  0
  -21.3661   -5.6791   24.9172 C   0  0  0  0  0  0
  -21.6041   -4.3053   24.7223 C   0  0  0  0  0  0
  -21.8817   -3.8148   23.4342 C   0  0  0  0  0  0
  -21.9196   -4.6966   22.3402 C   0  0  0  0  0  0
  -22.7829  -13.5245   21.1849 C   0  0  0  0  0  0
  -22.1663   -4.2153   21.0979 F   0  0  0  0  0  0
  -21.5626   -3.4536   25.7736 F   0  0  0  0  0  0
  -30.0294  -13.2888   20.4302 N   0  0  0  0  0  0
  -26.2977  -12.9426   20.3328 N   0  0  0  0  0  0
  -25.9319  -11.6564   20.5756 N   0  0  0  0  0  0
  -22.0472  -12.8246   22.0405 N   0  0  0  0  0  0
  -25.4244  -15.1934   20.4127 N   0  0  0  0  0  0
  -31.9731  -14.3692   20.1344 O   0  0  0  0  0  0
  -21.6643   -6.8879   21.4238 O   0  0  0  0  0  0
  -22.3510  -14.5549   20.6693 O   0  0  0  0  0  0
  -24.6097  -31.8723   23.2149 C   0  0  0  0  0  0
  -25.9009  -32.4844   23.8424 C   0  0  1  0  0  0
  -27.2203  -27.4828   20.0890 C   0  0  0  0  0  0
  -25.5880  -33.8644   24.2352 N   0  0  0  0  0  0
  -23.3935  -30.4984   21.5551 C   0  0  2  0  0  0
  -24.8368  -28.9760   20.1110 C   0  0  0  0  0  0
  -22.7380  -29.4674   22.5012 C   0  0  0  0  0  0
  -18.0265  -28.1368   22.8496 C   0  0  0  0  0  0
  -24.1483  -36.7333   23.2637 C   0  0  0  0  0  0
  -25.9180  -30.8547   21.3596 C   0  0  0  0  0  0
  -25.9957  -29.4956   20.7023 C   0  0  0  0  0  0
  -27.1952  -28.7565   20.6865 C   0  0  0  0  0  0
  -26.0512  -26.9688   19.4860 C   0  0  0  0  0  0
  -24.8574  -27.7109   19.4989 C   0  0  0  0  0  0
  -23.5970  -29.8366   20.1666 C   0  0  0  0  0  0
  -25.4099  -36.3130   24.0343 C   0  0  1  0  0  0
  -20.5851  -28.3643   23.1337 C   0  0  2  0  0  0
  -20.6753  -26.9386   22.5421 C   0  0  0  0  0  0
  -19.5733  -26.6380   21.5212 C   0  0  0  0  0  0
  -18.1912  -26.7916   22.1625 C   0  0  0  0  0  0
  -19.1513  -28.8822   23.2915 C   0  0  0  0  0  0
  -18.9443  -30.1433   23.8918 C   0  0  0  0  0  0
  -17.6448  -30.6580   24.0566 C   0  0  0  0  0  0
  -25.9024  -34.9491   23.5145 C   0  0  0  0  0  0
  -16.5338  -29.9085   23.6323 C   0  0  0  0  0  0
  -16.7256  -28.6501   23.0344 C   0  0  0  0  0  0
  -26.4458  -31.6607   25.0731 C   0  0  0  0  0  0
  -25.3747  -31.3699   26.1499 C   0  0  0  0  0  0
  -27.0279  -30.3059   24.6063 C   0  0  0  0  0  0
  -27.6048  -32.4319   25.7481 C   0  0  0  0  0  0
  -27.5586  -37.1813   24.8459 C   0  0  0  0  0  0
  -21.4114  -29.3026   22.3758 N   0  0  0  0  0  0
  -26.4293  -37.3807   23.9413 N   0  0  0  0  0  0
  -24.6584  -31.0871   22.1024 N   0  0  0  0  0  0
  -23.4181  -28.8208   23.3021 O   0  0  0  0  0  0
  -28.3682  -26.7429   20.1292 O   0  0  0  0  0  0
  -26.5591  -34.8936   22.4709 O   0  0  0  0  0  0
  -23.5304  -32.1451   23.7580 O   0  0  0  0  0  0
  -31.3822  -20.4712   19.8399 C   0  0  0  0  0  0
  -29.5445  -20.2398   21.4104 C   0  0  0  0  0  0
  -30.4313  -21.0644   20.6812 C   0  0  0  0  0  0
  -30.6710  -18.2405   20.5533 C   0  0  0  0  0  0
  -31.4990  -19.0768   19.7522 C   0  0  0  0  0  0
  -29.6656  -18.8341   21.3533 C   0  0  0  0  0  0
  -30.3858  -22.5270   20.6777 C   0  0  0  0  0  0
  -30.9137  -16.7908   20.4922 C   0  0  0  0  0  0
  -29.3643  -23.2945   21.0829 C   0  0  0  0  0  0
  -30.1569  -15.6986   20.7693 C   0  0  0  0  0  0
  -29.4604  -24.7522   20.9746 C   0  0  0  0  0  0
  -32.5304  -18.5270   18.7725 C   0  0  0  0  0  0
  -28.1458  -25.4857   20.7613 C   0  0  0  0  0  0
  -30.5282  -25.3749   21.0280 O   0  0  0  0  0  0
  -28.8328  -18.0660   22.0962 F   0  0  0  0  0  0
  -31.4287  -12.2412   19.1601 H   0  0  0  0  0  0
  -30.1917  -11.2578   19.8761 H   0  0  0  0  0  0
  -29.7169  -11.7372   17.4430 H   0  0  0  0  0  0
  -29.6874  -13.4518   17.7799 H   0  0  0  0  0  0
  -27.7973  -11.3129   18.8231 H   0  0  0  0  0  0
  -27.3655  -12.6383   17.7776 H   0  0  0  0  0  0
  -27.6816  -14.2655   19.5345 H   0  0  0  0  0  0
  -28.6402  -12.0672   21.4221 H   0  0  0  0  0  0
  -28.4815  -13.7545   21.8142 H   0  0  0  0  0  0
  -25.2755   -9.5708   22.4760 H   0  0  0  0  0  0
  -24.0006   -7.4648   22.7473 H   0  0  0  0  0  0
  -21.0837   -8.8777   19.8953 H   0  0  0  0  0  0
  -22.3686  -10.9680   19.6168 H   0  0  0  0  0  0
  -21.2014   -7.6147   23.9714 H   0  0  0  0  0  0
  -21.1485   -6.0523   25.9076 H   0  0  0  0  0  0
  -22.0594   -2.7610   23.2843 H   0  0  0  0  0  0
  -22.4084  -11.9914   22.4804 H   0  0  0  0  0  0
  -21.1088  -13.1282   22.2602 H   0  0  0  0  0  0
  -24.6620  -15.8515   20.5306 H   0  0  0  0  0  0
  -26.2866  -15.6349   20.1175 H   0  0  0  0  0  0
  -26.7083  -32.5572   23.1199 H   0  0  0  0  0  0
  -25.0025  -33.9813   25.0492 H   0  0  0  0  0  0
  -22.6794  -31.3138   21.4226 H   0  0  0  0  0  0
  -23.3742  -35.9670   23.3306 H   0  0  0  0  0  0
  -24.3583  -36.8941   22.2051 H   0  0  0  0  0  0
  -23.7240  -37.6544   23.6644 H   0  0  0  0  0  0
  -26.0240  -31.6256   20.5951 H   0  0  0  0  0  0
  -26.8085  -30.9056   21.9743 H   0  0  0  0  0  0
  -28.0909  -29.1475   21.1494 H   0  0  0  0  0  0
  -26.0548  -26.0008   19.0057 H   0  0  0  0  0  0
  -23.9664  -27.3065   19.0384 H   0  0  0  0  0  0
  -23.6996  -30.6151   19.4094 H   0  0  0  0  0  0
  -22.7216  -29.2548   19.8724 H   0  0  0  0  0  0
  -25.1269  -36.2006   25.0836 H   0  0  0  0  0  0
  -20.9940  -28.3199   24.1458 H   0  0  0  0  0  0
  -20.5654  -26.2243   23.3596 H   0  0  0  0  0  0
  -21.6625  -26.7435   22.1214 H   0  0  0  0  0  0
  -19.6892  -25.6297   21.1226 H   0  0  0  0  0  0
  -19.6676  -27.3203   20.6752 H   0  0  0  0  0  0
  -17.4180  -26.6668   21.4029 H   0  0  0  0  0  0
  -18.0315  -26.0051   22.9014 H   0  0  0  0  0  0
  -19.7921  -30.7242   24.2292 H   0  0  0  0  0  0
  -17.5007  -31.6265   24.5160 H   0  0  0  0  0  0
  -15.5339  -30.2994   23.7634 H   0  0  0  0  0  0
  -15.8655  -28.0831   22.7041 H   0  0  0  0  0  0
  -24.5885  -30.7086   25.7838 H   0  0  0  0  0  0
  -24.8981  -32.2854   26.5014 H   0  0  0  0  0  0
  -25.8114  -30.8811   27.0216 H   0  0  0  0  0  0
  -26.2802  -29.6829   24.1138 H   0  0  0  0  0  0
  -27.4094  -29.7281   25.4492 H   0  0  0  0  0  0
  -27.8619  -30.4397   23.9170 H   0  0  0  0  0  0
  -27.2668  -33.3590   26.2125 H   0  0  0  0  0  0
  -28.3816  -32.6929   25.0280 H   0  0  0  0  0  0
  -28.0766  -31.8407   26.5341 H   0  0  0  0  0  0
  -28.2595  -38.0120   24.7532 H   0  0  0  0  0  0
  -28.1090  -36.2656   24.6243 H   0  0  0  0  0  0
  -27.2315  -37.1423   25.8865 H   0  0  0  0  0  0
  -20.9250  -29.8769   21.7018 H   0  0  0  0  0  0
  -26.0190  -38.2888   24.1422 H   0  0  0  0  0  0
  -32.0298  -21.0985   19.2416 H   0  0  0  0  0  0
  -28.7829  -20.6716   22.0424 H   0  0  0  0  0  0
  -31.2760  -23.0159   20.3021 H   0  0  0  0  0  0
  -31.9252  -16.6093   20.1711 H   0  0  0  0  0  0
  -28.4477  -22.8722   21.4675 H   0  0  0  0  0  0
  -29.1441  -15.7839   21.1308 H   0  0  0  0  0  0
  -32.9094  -19.3044   18.1076 H   0  0  0  0  0  0
  -32.0930  -17.7534   18.1398 H   0  0  0  0  0  0
  -33.3849  -18.1050   19.3021 H   0  0  0  0  0  0
  -27.6628  -25.6284   21.7290 H   0  0  0  0  0  0
  -27.4965  -24.8550   20.1542 H   0  0  0  0  0  0
  1 25  1  0  0  0
  1 30  2  0  0  0
  1 80  1  0  0  0
  2  3  1  0  0  0
  2 25  1  0  0  0
  2 86  1  0  0  0
  2 87  1  0  0  0
  3  4  1  0  0  0
  3 88  1  0  0  0
  3 89  1  0  0  0
  4  5  1  0  0  0
  4 90  1  0  0  0
  4 91  1  0  0  0
  5  6  1  0  0  0
  5 26  1  0  0  0
  5 92  1  0  0  0
  6 25  1  0  0  0
  6 93  1  0  0  0
  6 94  1  0  0  0
  7  8  2  0  0  0
  7 26  1  0  0  0
  7 29  1  0  0  0
  8  9  1  0  0  0
  8 22  1  0  0  0
  9 10  1  0  0  0
  9 27  2  0  0  0
 10 11  2  0  0  0
 10 15  1  0  0  0
 11 12  1  0  0  0
 11 95  1  0  0  0
 12 13  2  0  0  0
 12 96  1  0  0  0
 13 14  1  0  0  0
 13 31  1  0  0  0
 14 15  2  0  0  0
 14 97  1  0  0  0
 15 98  1  0  0  0
 16 17  2  0  0  0
 16 21  1  0  0  0
 16 31  1  0  0  0
 17 18  1  0  0  0
 17 99  1  0  0  0
 18 19  2  0  0  0
 18100  1  0  0  0
 19 20  1  0  0  0
 19 24  1  0  0  0
 20 21  2  0  0  0
 20101  1  0  0  0
 21 23  1  0  0  0
 22 28  1  0  0  0
 22 32  2  0  0  0
 26 27  1  0  0  0
 28102  1  0  0  0
 28103  1  0  0  0
 29104  1  0  0  0
 29105  1  0  0  0
 33 34  1  0  0  0
 33 66  1  0  0  0
 33 70  2  0  0  0
 34 36  1  0  0  0
 34 59  1  0  0  0
 34106  1  0  0  0
 35 44  2  0  0  0
 35 45  1  0  0  0
 35 68  1  0  0  0
 36 56  1  0  0  0
 36107  1  0  0  0
 37 39  1  0  0  0
 37 47  1  0  0  0
 37 66  1  0  0  0
 37108  1  0  0  0
 38 43  2  0  0  0
 38 46  1  0  0  0
 38 47  1  0  0  0
 39 64  1  0  0  0
 39 67  2  0  0  0
 40 52  1  0  0  0
 40 53  2  0  0  0
 40 58  1  0  0  0
 41109  1  0  0  0
 41110  1  0  0  0
 41111  1  0  0  0
 41 48  1  0  0  0
 42 43  1  0  0  0
 42 66  1  0  0  0
 42112  1  0  0  0
 42113  1  0  0  0
 43 44  1  0  0  0
 44114  1  0  0  0
 45 46  2  0  0  0
 45115  1  0  0  0
 46116  1  0  0  0
 47117  1  0  0  0
 47118  1  0  0  0
 48 56  1  0  0  0
 48 65  1  0  0  0
 48119  1  0  0  0
 49 50  1  0  0  0
 49 53  1  0  0  0
 49 64  1  0  0  0
 49120  1  0  0  0
 50 51  1  0  0  0
 50121  1  0  0  0
 50122  1  0  0  0
 51 52  1  0  0  0
 51123  1  0  0  0
 51124  1  0  0  0
 52125  1  0  0  0
 52126  1  0  0  0
 53 54  1  0  0  0
 54 55  2  0  0  0
 54127  1  0  0  0
 55 57  1  0  0  0
 55128  1  0  0  0
 56 69  2  0  0  0
 57 58  2  0  0  0
 57129  1  0  0  0
 58130  1  0  0  0
 59 60  1  0  0  0
 59 61  1  0  0  0
 59 62  1  0  0  0
 60131  1  0  0  0
 60132  1  0  0  0
 60133  1  0  0  0
 61134  1  0  0  0
 61135  1  0  0  0
 61136  1  0  0  0
 62137  1  0  0  0
 62138  1  0  0  0
 62139  1  0  0  0
 63 65  1  0  0  0
 63140  1  0  0  0
 63141  1  0  0  0
 63142  1  0  0  0
 64143  1  0  0  0
 65144  1  0  0  0
 68 83  1  0  0  0
 71 73  2  0  0  0
 71 75  1  0  0  0
 71145  1  0  0  0
 72 73  1  0  0  0
 72 76  2  0  0  0
 72146  1  0  0  0
 73 77  1  0  0  0
 74 75  2  0  0  0
 74 76  1  0  0  0
 74 78  1  0  0  0
 75 82  1  0  0  0
 76 85  1  0  0  0
 77 79  2  0  0  0
 77147  1  0  0  0
 78 80  2  0  0  0
 78148  1  0  0  0
 79 81  1  0  0  0
 79149  1  0  0  0
 80150  1  0  0  0
 81 83  1  0  0  0
 81 84  2  0  0  0
 82151  1  0  0  0
 82152  1  0  0  0
 82153  1  0  0  0
 83154  1  0  0  0
 83155  1  0  0  0
M  ISO  4   1 100  68 101  80 100  83 101
M  END
> <chiral flag>
0

> <version>
0

> <s_m_source_file>
/data/baiqing/PycharmProjects/Reinvent-master-3.2/result/LINK_invent/BTK/process_docking_weight1_custom_product_contain_oxygen_bond_distance_aromatic_linkinvent_7_9_3/rearranged_h_0128.sdf

> <i_m_source_file_index>
28

> <r_mmod_Potential_Energy-OPLS-2005>
53.7083587646484

> <r_mmod_Stretch_Energy-OPLS-2005>
32.3012809753418

> <r_mmod_Bend_Energy-OPLS-2005>
109.947662353516

> <r_mmod_Torsional_Energy-OPLS-2005>
211.708282470703

> <r_mmod_Improper_Torsional_Energy-OPLS-2005>
5.58720731735229

> <r_mmod_Van_der_Waal_Energy-OPLS-2005>
181.385848999023

> <r_mmod_Electrostatic_Energy-OPLS-2005>
-307.029174804688

> <r_mmod_Solvation_Energy-OPLS-2005>
-207.673324584961

> <b_mmod_Minimization_Converged-OPLS-2005>
0

> <r_mmod_RMS_Derivative-OPLS-2005>
0.860610961914062

$$$$
28
                    3D
 Structure written by MMmdl.
153161  0  0  1  0            999 V2000
  -30.7158  -14.5760   20.4434 C   0  0  0  0  0  0
  -30.4328  -12.3430   19.4688 C   0  0  0  0  0  0
  -29.5136  -12.4460   18.2338 C   0  0  0  0  0  0
  -28.0394  -12.3075   18.6519 C   0  0  0  0  0  0
  -27.6591  -13.2144   19.8541 C   0  0  2  0  0  0
  -28.7060  -13.1354   20.9921 C   0  0  0  0  0  0
  -25.2633  -13.8212   20.5648 C   0  0  0  0  0  0
  -24.1869  -13.0482   20.9159 C   0  0  0  0  0  0
  -24.6409  -11.6951   20.8726 C   0  0  0  0  0  0
  -23.9050  -10.4322   21.0335 C   0  0  0  0  0  0
  -24.3615   -9.4267   21.9135 C   0  0  0  0  0  0
  -23.6331   -8.2277   22.0723 C   0  0  0  0  0  0
  -22.4331   -8.0282   21.3507 C   0  0  0  0  0  0
  -21.9925   -9.0252   20.4639 C   0  0  0  0  0  0
  -22.7199  -10.2151   20.3031 C   0  0  0  0  0  0
  -21.6901   -6.0716   22.5248 C   0  0  0  0  0  0
  -21.4013   -6.5624   23.8170 C   0  0  0  0  0  0
  -21.3682   -5.6790   24.9137 C   0  0  0  0  0  0
  -21.6059   -4.3057   24.7196 C   0  0  0  0  0  0
  -21.8840   -3.8135   23.4323 C   0  0  0  0  0  0
  -21.9209   -4.6935   22.3366 C   0  0  0  0  0  0
  -22.7895  -13.5254   21.1855 C   0  0  0  0  0  0
  -22.1670   -4.2096   21.0944 F   0  0  0  0  0  0
  -21.5658   -3.4555   25.7712 F   0  0  0  0  0  0
  -30.0288  -13.3977   20.4129 N   0  0  0  0  0  0
  -26.3035  -12.9367   20.3276 N   0  0  0  0  0  0
  -25.9348  -11.6545   20.5790 N   0  0  0  0  0  0
  -22.0525  -12.8240   22.0411 N   0  0  0  0  0  0
  -25.4482  -15.1917   20.4068 N   0  0  0  0  0  0
  -31.9030  -14.6309   20.1335 O   0  0  0  0  0  0
  -21.6701   -6.8874   21.4212 O   0  0  0  0  0  0
  -22.3533  -14.5546   20.6712 O   0  0  0  0  0  0
  -24.6125  -31.8730   23.2098 C   0  0  0  0  0  0
  -25.9043  -32.4834   23.8411 C   0  0  1  0  0  0
  -27.2154  -27.4142   20.0859 C   0  0  0  0  0  0
  -25.5922  -33.8630   24.2331 N   0  0  0  0  0  0
  -23.3980  -30.4958   21.5545 C   0  0  2  0  0  0
  -24.8371  -28.9589   20.1209 C   0  0  0  0  0  0
  -22.7419  -29.4667   22.5016 C   0  0  0  0  0  0
  -18.0292  -28.1349   22.8452 C   0  0  0  0  0  0
  -24.1503  -36.7299   23.2631 C   0  0  0  0  0  0
  -25.9331  -30.8220   21.3759 C   0  0  0  0  0  0
  -26.0019  -29.4593   20.7144 C   0  0  0  0  0  0
  -27.1910  -28.6942   20.6928 C   0  0  0  0  0  0
  -26.0155  -26.9186   19.5204 C   0  0  0  0  0  0
  -24.8398  -27.6891   19.5233 C   0  0  0  0  0  0
  -23.6011  -29.8274   20.1691 C   0  0  0  0  0  0
  -25.4129  -36.3102   24.0328 C   0  0  1  0  0  0
  -20.5866  -28.3641   23.1310 C   0  0  2  0  0  0
  -20.6777  -26.9372   22.5436 C   0  0  0  0  0  0
  -19.5794  -26.6326   21.5204 C   0  0  0  0  0  0
  -18.1943  -26.7908   22.1550 C   0  0  0  0  0  0
  -19.1528  -28.8820   23.2865 C   0  0  0  0  0  0
  -18.9453  -30.1431   23.8851 C   0  0  0  0  0  0
  -17.6456  -30.6552   24.0535 C   0  0  0  0  0  0
  -25.9054  -34.9463   23.5115 C   0  0  0  0  0  0
  -16.5349  -29.9035   23.6318 C   0  0  0  0  0  0
  -16.7282  -28.6456   23.0332 C   0  0  0  0  0  0
  -26.4426  -31.6633   25.0769 C   0  0  0  0  0  0
  -25.3663  -31.3793   26.1517 C   0  0  0  0  0  0
  -27.0281  -30.3064   24.6212 C   0  0  0  0  0  0
  -27.6025  -32.4339   25.7515 C   0  0  0  0  0  0
  -27.5619  -37.1807   24.8438 C   0  0  0  0  0  0
  -21.4152  -29.3010   22.3733 N   0  0  0  0  0  0
  -26.4316  -37.3795   23.9394 N   0  0  0  0  0  0
  -24.6652  -31.0809   22.1015 N   0  0  0  0  0  0
  -23.4218  -28.8213   23.3042 O   0  0  0  0  0  0
  -28.4108  -26.7151   20.0564 O   0  0  0  0  0  0
  -26.5581  -34.8914   22.4657 O   0  0  0  0  0  0
  -23.5313  -32.1494   23.7481 O   0  0  0  0  0  0
  -29.3360  -18.1110   20.4326 C   0  0  0  0  0  0
  -30.6297  -19.6910   19.0978 C   0  0  0  0  0  0
  -31.3012  -17.3502   19.2252 C   0  0  0  0  0  0
  -29.5256  -19.4377   19.9425 C   0  0  0  0  0  0
  -30.2277  -17.0444   20.1061 C   0  0  0  0  0  0
  -31.5012  -18.6530   18.7357 C   0  0  0  0  0  0
  -28.6089  -20.5611   20.3031 C   0  0  0  0  0  0
  -28.8858  -21.8897   20.2078 C   0  0  0  0  0  0
  -27.8641  -22.9342   20.4764 C   0  0  0  0  0  0
  -28.2880  -24.3756   20.8276 C   0  0  0  0  0  0
  -28.4536  -25.3375   19.6291 C   0  0  0  0  0  0
  -29.9908  -15.7123   20.6429 N   0  0  0  0  0  0
  -26.6551  -22.6866   20.4440 O   0  0  0  0  0  0
  -32.5428  -18.9100   17.9067 F   0  0  0  0  0  0
  -31.4756  -12.4323   19.1588 H   0  0  0  0  0  0
  -30.3496  -11.3668   19.9511 H   0  0  0  0  0  0
  -29.7800  -11.6701   17.5174 H   0  0  0  0  0  0
  -29.6683  -13.3996   17.7274 H   0  0  0  0  0  0
  -27.8886  -11.2650   18.9324 H   0  0  0  0  0  0
  -27.3843  -12.4928   17.7996 H   0  0  0  0  0  0
  -27.6676  -14.2333   19.4750 H   0  0  0  0  0  0
  -28.7041  -12.1623   21.4821 H   0  0  0  0  0  0
  -28.4705  -13.8665   21.7673 H   0  0  0  0  0  0
  -25.2742   -9.5804   22.4713 H   0  0  0  0  0  0
  -24.0079   -7.4693   22.7432 H   0  0  0  0  0  0
  -21.0854   -8.8753   19.8961 H   0  0  0  0  0  0
  -22.3602  -10.9699   19.6162 H   0  0  0  0  0  0
  -21.2000   -7.6138   23.9646 H   0  0  0  0  0  0
  -21.1483   -6.0516   25.9040 H   0  0  0  0  0  0
  -22.0611   -2.7573   23.2816 H   0  0  0  0  0  0
  -22.4143  -11.9956   22.4866 H   0  0  0  0  0  0
  -21.1090  -13.1184   22.2498 H   0  0  0  0  0  0
  -24.7198  -15.8783   20.5681 H   0  0  0  0  0  0
  -26.3235  -15.6091   20.1194 H   0  0  0  0  0  0
  -26.7126  -32.5501   23.1178 H   0  0  0  0  0  0
  -25.0231  -33.9848   25.0572 H   0  0  0  0  0  0
  -22.6837  -31.3096   21.4175 H   0  0  0  0  0  0
  -23.3802  -35.9606   23.3257 H   0  0  0  0  0  0
  -24.3630  -36.8936   22.2056 H   0  0  0  0  0  0
  -23.7203  -37.6462   23.6681 H   0  0  0  0  0  0
  -26.0817  -31.5986   20.6238 H   0  0  0  0  0  0
  -26.8054  -30.8495   22.0159 H   0  0  0  0  0  0
  -28.0877  -29.0778   21.1554 H   0  0  0  0  0  0
  -25.9404  -25.9393   19.0739 H   0  0  0  0  0  0
  -23.9413  -27.2957   19.0659 H   0  0  0  0  0  0
  -23.7028  -30.5970   19.4050 H   0  0  0  0  0  0
  -22.7231  -29.2447   19.8798 H   0  0  0  0  0  0
  -25.1320  -36.1964   25.0831 H   0  0  0  0  0  0
  -20.9961  -28.3213   24.1434 H   0  0  0  0  0  0
  -20.5627  -26.2278   23.3642 H   0  0  0  0  0  0
  -21.6669  -26.7402   22.1274 H   0  0  0  0  0  0
  -19.6977  -25.6216   21.1282 H   0  0  0  0  0  0
  -19.6781  -27.3086   20.6695 H   0  0  0  0  0  0
  -17.4277  -26.6710   21.3876 H   0  0  0  0  0  0
  -18.0278  -26.0016   22.8887 H   0  0  0  0  0  0
  -19.7943  -30.7236   24.2183 H   0  0  0  0  0  0
  -17.5022  -31.6234   24.5138 H   0  0  0  0  0  0
  -15.5336  -30.2904   23.7677 H   0  0  0  0  0  0
  -15.8690  -28.0747   22.7059 H   0  0  0  0  0  0
  -24.5836  -30.7131   25.7865 H   0  0  0  0  0  0
  -24.8855  -32.2981   26.4898 H   0  0  0  0  0  0
  -25.7985  -30.9018   27.0324 H   0  0  0  0  0  0
  -26.2898  -29.6835   24.1167 H   0  0  0  0  0  0
  -27.3914  -29.7283   25.4711 H   0  0  0  0  0  0
  -27.8779  -30.4350   23.9508 H   0  0  0  0  0  0
  -27.2688  -33.3643   26.2119 H   0  0  0  0  0  0
  -28.3833  -32.6883   25.0335 H   0  0  0  0  0  0
  -28.0725  -31.8458   26.5402 H   0  0  0  0  0  0
  -28.2593  -38.0144   24.7551 H   0  0  0  0  0  0
  -28.1161  -36.2686   24.6179 H   0  0  0  0  0  0
  -27.2381  -37.1339   25.8849 H   0  0  0  0  0  0
  -20.9335  -29.8738   21.6934 H   0  0  0  0  0  0
  -26.0200  -38.2884   24.1382 H   0  0  0  0  0  0
  -28.4965  -17.9077   21.0822 H   0  0  0  0  0  0
  -30.8215  -20.6749   18.6937 H   0  0  0  0  0  0
  -32.0098  -16.6108   18.8943 H   0  0  0  0  0  0
  -27.6196  -20.2650   20.6353 H   0  0  0  0  0  0
  -29.8648  -22.2452   19.9152 H   0  0  0  0  0  0
  -29.2018  -24.3613   21.4164 H   0  0  0  0  0  0
  -27.5176  -24.7792   21.4814 H   0  0  0  0  0  0
  -27.7759  -25.1042   18.8102 H   0  0  0  0  0  0
  -29.4425  -25.1721   19.2008 H   0  0  0  0  0  0
  -29.1065  -15.5745   21.1060 H   0  0  0  0  0  0
  1 25  1  0  0  0
  1 30  2  0  0  0
  1 82  1  0  0  0
  2  3  1  0  0  0
  2 25  1  0  0  0
  2 85  1  0  0  0
  2 86  1  0  0  0
  3  4  1  0  0  0
  3 87  1  0  0  0
  3 88  1  0  0  0
  4  5  1  0  0  0
  4 89  1  0  0  0
  4 90  1  0  0  0
  5  6  1  0  0  0
  5 26  1  0  0  0
  5 91  1  0  0  0
  6 25  1  0  0  0
  6 92  1  0  0  0
  6 93  1  0  0  0
  7  8  2  0  0  0
  7 26  1  0  0  0
  7 29  1  0  0  0
  8  9  1  0  0  0
  8 22  1  0  0  0
  9 10  1  0  0  0
  9 27  2  0  0  0
 10 11  2  0  0  0
 10 15  1  0  0  0
 11 12  1  0  0  0
 11 94  1  0  0  0
 12 13  2  0  0  0
 12 95  1  0  0  0
 13 14  1  0  0  0
 13 31  1  0  0  0
 14 15  2  0  0  0
 14 96  1  0  0  0
 15 97  1  0  0  0
 16 17  2  0  0  0
 16 21  1  0  0  0
 16 31  1  0  0  0
 17 18  1  0  0  0
 17 98  1  0  0  0
 18 19  2  0  0  0
 18 99  1  0  0  0
 19 20  1  0  0  0
 19 24  1  0  0  0
 20 21  2  0  0  0
 20100  1  0  0  0
 21 23  1  0  0  0
 22 28  1  0  0  0
 22 32  2  0  0  0
 26 27  1  0  0  0
 28101  1  0  0  0
 28102  1  0  0  0
 29103  1  0  0  0
 29104  1  0  0  0
 33 34  1  0  0  0
 33 66  1  0  0  0
 33 70  2  0  0  0
 34 36  1  0  0  0
 34 59  1  0  0  0
 34105  1  0  0  0
 35 44  2  0  0  0
 35 45  1  0  0  0
 35 68  1  0  0  0
 36 56  1  0  0  0
 36106  1  0  0  0
 37 39  1  0  0  0
 37 47  1  0  0  0
 37 66  1  0  0  0
 37107  1  0  0  0
 38 43  2  0  0  0
 38 46  1  0  0  0
 38 47  1  0  0  0
 39 64  1  0  0  0
 39 67  2  0  0  0
 40 52  1  0  0  0
 40 53  2  0  0  0
 40 58  1  0  0  0
 41108  1  0  0  0
 41109  1  0  0  0
 41110  1  0  0  0
 41 48  1  0  0  0
 42 43  1  0  0  0
 42 66  1  0  0  0
 42111  1  0  0  0
 42112  1  0  0  0
 43 44  1  0  0  0
 44113  1  0  0  0
 45 46  2  0  0  0
 45114  1  0  0  0
 46115  1  0  0  0
 47116  1  0  0  0
 47117  1  0  0  0
 48 56  1  0  0  0
 48 65  1  0  0  0
 48118  1  0  0  0
 49 50  1  0  0  0
 49 53  1  0  0  0
 49 64  1  0  0  0
 49119  1  0  0  0
 50 51  1  0  0  0
 50120  1  0  0  0
 50121  1  0  0  0
 51 52  1  0  0  0
 51122  1  0  0  0
 51123  1  0  0  0
 52124  1  0  0  0
 52125  1  0  0  0
 53 54  1  0  0  0
 54 55  2  0  0  0
 54126  1  0  0  0
 55 57  1  0  0  0
 55127  1  0  0  0
 56 69  2  0  0  0
 57 58  2  0  0  0
 57128  1  0  0  0
 58129  1  0  0  0
 59 60  1  0  0  0
 59 61  1  0  0  0
 59 62  1  0  0  0
 60130  1  0  0  0
 60131  1  0  0  0
 60132  1  0  0  0
 61133  1  0  0  0
 61134  1  0  0  0
 61135  1  0  0  0
 62136  1  0  0  0
 62137  1  0  0  0
 62138  1  0  0  0
 63 65  1  0  0  0
 63139  1  0  0  0
 63140  1  0  0  0
 63141  1  0  0  0
 64142  1  0  0  0
 65143  1  0  0  0
 68 81  1  0  0  0
 71 74  2  0  0  0
 71 75  1  0  0  0
 71144  1  0  0  0
 72 74  1  0  0  0
 72 76  2  0  0  0
 72145  1  0  0  0
 73 75  2  0  0  0
 73 76  1  0  0  0
 73146  1  0  0  0
 74 77  1  0  0  0
 75 82  1  0  0  0
 76 84  1  0  0  0
 77 78  2  0  0  0
 77147  1  0  0  0
 78 79  1  0  0  0
 78148  1  0  0  0
 79 80  1  0  0  0
 79 83  2  0  0  0
 80 81  1  0  0  0
 80149  1  0  0  0
 80150  1  0  0  0
 81151  1  0  0  0
 81152  1  0  0  0
 82153  1  0  0  0
M  ISO  4   1 100  68 101  81 101  82 100
M  END
> <chiral flag>
0

> <version>
0

> <s_m_source_file>
/data/baiqing/PycharmProjects/Reinvent-master-3.2/result/LINK_invent/BTK/process_docking_weight1_custom_product_contain_oxygen_bond_distance_aromatic_linkinvent_7_9_3/rearranged_h_0128.sdf

> <i_m_source_file_index>
29

> <r_mmod_Potential_Energy-OPLS-2005>
-16.5394325256348

> <r_mmod_Stretch_Energy-OPLS-2005>
46.3178291320801

> <r_mmod_Bend_Energy-OPLS-2005>
109.821533203125

> <r_mmod_Torsional_Energy-OPLS-2005>
226.27717590332

> <r_mmod_Improper_Torsional_Energy-OPLS-2005>
4.39528703689575

> <r_mmod_Van_der_Waal_Energy-OPLS-2005>
158.35888671875

> <r_mmod_Electrostatic_Energy-OPLS-2005>
-373.139251708984

> <r_mmod_Solvation_Energy-OPLS-2005>
-221.278717041016

> <b_mmod_Minimization_Converged-OPLS-2005>
0

> <r_mmod_RMS_Derivative-OPLS-2005>
6.90943336486816

$$$$
29
                    3D
 Structure written by MMmdl.
160168  0  0  1  0            999 V2000
  -30.5547  -14.7031   20.4549 C   0  0  0  0  0  0
  -30.4510  -12.4216   19.4640 C   0  0  0  0  0  0
  -29.5318  -12.5389   18.2261 C   0  0  0  0  0  0
  -28.0470  -12.3676   18.6190 C   0  0  0  0  0  0
  -27.6590  -13.2190   19.8632 C   0  0  2  0  0  0
  -28.7008  -13.0712   20.9959 C   0  0  0  0  0  0
  -25.2660  -13.8170   20.5667 C   0  0  0  0  0  0
  -24.1915  -13.0424   20.9183 C   0  0  0  0  0  0
  -24.6486  -11.6877   20.8665 C   0  0  0  0  0  0
  -23.9111  -10.4268   21.0322 C   0  0  0  0  0  0
  -24.3641   -9.4206   21.9153 C   0  0  0  0  0  0
  -23.6321   -8.2244   22.0716 C   0  0  0  0  0  0
  -22.4306   -8.0283   21.3506 C   0  0  0  0  0  0
  -21.9938   -9.0249   20.4613 C   0  0  0  0  0  0
  -22.7253  -10.2129   20.3019 C   0  0  0  0  0  0
  -21.6902   -6.0747   22.5291 C   0  0  0  0  0  0
  -21.4033   -6.5645   23.8212 C   0  0  0  0  0  0
  -21.3658   -5.6783   24.9179 C   0  0  0  0  0  0
  -21.6057   -4.3042   24.7234 C   0  0  0  0  0  0
  -21.8844   -3.8156   23.4351 C   0  0  0  0  0  0
  -21.9221   -4.6985   22.3404 C   0  0  0  0  0  0
  -22.7935  -13.5202   21.1862 C   0  0  0  0  0  0
  -22.1687   -4.2154   21.0994 F   0  0  0  0  0  0
  -21.5630   -3.4527   25.7761 F   0  0  0  0  0  0
  -30.0050  -13.4425   20.4310 N   0  0  0  0  0  0
  -26.3057  -12.9329   20.3264 N   0  0  0  0  0  0
  -25.9413  -11.6470   20.5667 N   0  0  0  0  0  0
  -22.0603  -12.8103   22.0394 N   0  0  0  0  0  0
  -25.4413  -15.1879   20.4091 N   0  0  0  0  0  0
  -31.6978  -14.9044   20.0371 O   0  0  0  0  0  0
  -21.6676   -6.8877   21.4247 O   0  0  0  0  0  0
  -22.3569  -14.5527   20.6738 O   0  0  0  0  0  0
  -24.6234  -31.8777   23.2243 C   0  0  0  0  0  0
  -25.9092  -32.4910   23.8528 C   0  0  1  0  0  0
  -27.1661  -27.3419   20.0950 C   0  0  0  0  0  0
  -25.5940  -33.8709   24.2384 N   0  0  0  0  0  0
  -23.4109  -30.5205   21.5673 C   0  0  2  0  0  0
  -24.8352  -28.9862   20.1292 C   0  0  0  0  0  0
  -22.7455  -29.4773   22.4941 C   0  0  0  0  0  0
  -18.0311  -28.1421   22.8469 C   0  0  0  0  0  0
  -24.1459  -36.7396   23.2628 C   0  0  0  0  0  0
  -25.9562  -30.8160   21.3925 C   0  0  0  0  0  0
  -26.0163  -29.4507   20.7190 C   0  0  0  0  0  0
  -27.1891  -28.6400   20.6987 C   0  0  0  0  0  0
  -25.9695  -26.9507   19.4667 C   0  0  0  0  0  0
  -24.8061  -27.7286   19.5172 C   0  0  0  0  0  0
  -23.6254  -29.8926   20.1720 C   0  0  0  0  0  0
  -25.4104  -36.3184   24.0307 C   0  0  1  0  0  0
  -20.5910  -28.3760   23.1237 C   0  0  2  0  0  0
  -20.6814  -26.9480   22.5384 C   0  0  0  0  0  0
  -19.5788  -26.6399   21.5212 C   0  0  0  0  0  0
  -18.1962  -26.7964   22.1588 C   0  0  0  0  0  0
  -19.1559  -28.8895   23.2864 C   0  0  0  0  0  0
  -18.9465  -30.1498   23.8889 C   0  0  0  0  0  0
  -17.6466  -30.6613   24.0576 C   0  0  0  0  0  0
  -25.9076  -34.9531   23.5143 C   0  0  0  0  0  0
  -16.5376  -29.9095   23.6340 C   0  0  0  0  0  0
  -16.7300  -28.6531   23.0335 C   0  0  0  0  0  0
  -26.4409  -31.6722   25.0916 C   0  0  0  0  0  0
  -25.3604  -31.3907   26.1636 C   0  0  0  0  0  0
  -27.0228  -30.3113   24.6461 C   0  0  0  0  0  0
  -27.5951  -32.4452   25.7719 C   0  0  0  0  0  0
  -27.5595  -37.1882   24.8424 C   0  0  0  0  0  0
  -21.4180  -29.3154   22.3646 N   0  0  0  0  0  0
  -26.4285  -37.3868   23.9385 N   0  0  0  0  0  0
  -24.6834  -31.0827   22.1183 N   0  0  0  0  0  0
  -23.4204  -28.8271   23.2962 O   0  0  0  0  0  0
  -28.2372  -26.4453   20.1472 O   0  0  0  0  0  0
  -26.5619  -34.8945   22.4700 O   0  0  0  0  0  0
  -23.5404  -32.1521   23.7608 O   0  0  0  0  0  0
  -28.1959  -19.2019   21.0531 C   0  0  0  0  0  0
  -28.5497  -17.8490   21.3289 C   0  0  0  0  0  0
  -30.0720  -17.8589   19.4766 C   0  0  0  0  0  0
  -28.7560  -19.9417   19.9801 C   0  0  0  0  0  0
  -29.7062  -19.2234   19.1877 C   0  0  0  0  0  0
  -29.5018  -17.1256   20.5577 C   0  0  0  0  0  0
  -28.1964  -21.3232   19.6297 C   0  0  0  0  0  0
  -28.1867  -22.5008   20.3476 C   0  0  0  0  0  0
  -30.3340  -19.8958   17.9735 C   0  0  0  0  0  0
  -26.1253  -23.4165   19.2255 C   0  0  0  0  0  0
  -26.7877  -24.1725   21.5165 C   0  0  0  0  0  0
  -28.1539  -25.0951   19.5231 C   0  0  0  0  0  0
  -27.3448  -23.8217   20.1205 C   0  0  0  0  0  0
  -29.7084  -15.7051   20.8813 N   0  0  0  0  0  0
  -31.4979  -12.5529   19.1823 H   0  0  0  0  0  0
  -30.3753  -11.4226   19.9006 H   0  0  0  0  0  0
  -29.8109  -11.8003   17.4757 H   0  0  0  0  0  0
  -29.6812  -13.5155   17.7611 H   0  0  0  0  0  0
  -27.8693  -11.3092   18.8116 H   0  0  0  0  0  0
  -27.4115  -12.6343   17.7740 H   0  0  0  0  0  0
  -27.6715  -14.2580   19.5336 H   0  0  0  0  0  0
  -28.7358  -12.0427   21.3597 H   0  0  0  0  0  0
  -28.4328  -13.6811   21.8613 H   0  0  0  0  0  0
  -25.2838   -9.5715   22.4661 H   0  0  0  0  0  0
  -24.0110   -7.4652   22.7428 H   0  0  0  0  0  0
  -21.0890   -8.8720   19.8890 H   0  0  0  0  0  0
  -22.3719  -10.9642   19.6086 H   0  0  0  0  0  0
  -21.1978   -7.6142   23.9695 H   0  0  0  0  0  0
  -21.1471   -6.0526   25.9068 H   0  0  0  0  0  0
  -22.0614   -2.7614   23.2868 H   0  0  0  0  0  0
  -22.4331  -11.9767   22.4722 H   0  0  0  0  0  0
  -21.1171  -13.1002   22.2560 H   0  0  0  0  0  0
  -24.6747  -15.8436   20.5113 H   0  0  0  0  0  0
  -26.2901  -15.6203   20.0661 H   0  0  0  0  0  0
  -26.7181  -32.5529   23.1310 H   0  0  0  0  0  0
  -24.9999  -33.9912   25.0463 H   0  0  0  0  0  0
  -22.7041  -31.3444   21.4513 H   0  0  0  0  0  0
  -23.3740  -35.9714   23.3277 H   0  0  0  0  0  0
  -24.3538  -36.9077   22.2053 H   0  0  0  0  0  0
  -23.7188  -37.6575   23.6681 H   0  0  0  0  0  0
  -26.1000  -31.5947   20.6401 H   0  0  0  0  0  0
  -26.8322  -30.8432   22.0304 H   0  0  0  0  0  0
  -28.0966  -29.0048   21.1570 H   0  0  0  0  0  0
  -25.9069  -26.0292   18.9261 H   0  0  0  0  0  0
  -23.8845  -27.3570   19.0930 H   0  0  0  0  0  0
  -23.7962  -30.7015   19.4621 H   0  0  0  0  0  0
  -22.7258  -29.3826   19.8251 H   0  0  0  0  0  0
  -25.1284  -36.2087   25.0801 H   0  0  0  0  0  0
  -21.0002  -28.3352   24.1346 H   0  0  0  0  0  0
  -20.5726  -26.2420   23.3623 H   0  0  0  0  0  0
  -21.6688  -26.7509   22.1192 H   0  0  0  0  0  0
  -19.6976  -25.6272   21.1327 H   0  0  0  0  0  0
  -19.6731  -27.3126   20.6673 H   0  0  0  0  0  0
  -17.4247  -26.6736   21.3954 H   0  0  0  0  0  0
  -18.0322  -26.0090   22.8952 H   0  0  0  0  0  0
  -19.7947  -30.7333   24.2209 H   0  0  0  0  0  0
  -17.5029  -31.6268   24.5209 H   0  0  0  0  0  0
  -15.5373  -30.3011   23.7671 H   0  0  0  0  0  0
  -15.8706  -28.0875   22.7022 H   0  0  0  0  0  0
  -24.5777  -30.7256   25.7971 H   0  0  0  0  0  0
  -24.8797  -32.3100   26.4988 H   0  0  0  0  0  0
  -25.7883  -30.9141   27.0477 H   0  0  0  0  0  0
  -26.2853  -29.6963   24.1311 H   0  0  0  0  0  0
  -27.3627  -29.7298   25.5050 H   0  0  0  0  0  0
  -27.8841  -30.4330   23.9897 H   0  0  0  0  0  0
  -27.2522  -33.3693   26.2376 H   0  0  0  0  0  0
  -28.3747  -32.7155   25.0590 H   0  0  0  0  0  0
  -28.0661  -31.8589   26.5627 H   0  0  0  0  0  0
  -28.2583  -38.0198   24.7507 H   0  0  0  0  0  0
  -28.1109  -36.2757   24.6180 H   0  0  0  0  0  0
  -27.2333  -37.1462   25.8817 H   0  0  0  0  0  0
  -20.9343  -29.8967   21.6943 H   0  0  0  0  0  0
  -26.0208  -38.2947   24.1389 H   0  0  0  0  0  0
  -27.4230  -19.6550   21.6621 H   0  0  0  0  0  0
  -28.0416  -17.3533   22.1459 H   0  0  0  0  0  0
  -30.7727  -17.3540   18.8264 H   0  0  0  0  0  0
  -27.6584  -21.3296   18.6929 H   0  0  0  0  0  0
  -28.7580  -22.5149   21.2638 H   0  0  0  0  0  0
  -31.3964  -19.6633   17.9151 H   0  0  0  0  0  0
  -30.2525  -20.9836   17.9933 H   0  0  0  0  0  0
  -29.8635  -19.5418   17.0556 H   0  0  0  0  0  0
  -25.6711  -22.4930   19.5924 H   0  0  0  0  0  0
  -26.4232  -23.2296   18.1936 H   0  0  0  0  0  0
  -25.2887  -24.1133   19.1938 H   0  0  0  0  0  0
  -26.3368  -23.2880   21.9700 H   0  0  0  0  0  0
  -26.0187  -24.9519   21.5121 H   0  0  0  0  0  0
  -27.5812  -24.4961   22.1961 H   0  0  0  0  0  0
  -27.8806  -25.2334   18.4757 H   0  0  0  0  0  0
  -29.1937  -24.7864   19.4560 H   0  0  0  0  0  0
  -28.9541  -15.3135   21.4240 H   0  0  0  0  0  0
  1 25  1  0  0  0
  1 30  2  0  0  0
  1 84  1  0  0  0
  2  3  1  0  0  0
  2 25  1  0  0  0
  2 85  1  0  0  0
  2 86  1  0  0  0
  3  4  1  0  0  0
  3 87  1  0  0  0
  3 88  1  0  0  0
  4  5  1  0  0  0
  4 89  1  0  0  0
  4 90  1  0  0  0
  5  6  1  0  0  0
  5 26  1  0  0  0
  5 91  1  0  0  0
  6 25  1  0  0  0
  6 92  1  0  0  0
  6 93  1  0  0  0
  7  8  2  0  0  0
  7 26  1  0  0  0
  7 29  1  0  0  0
  8  9  1  0  0  0
  8 22  1  0  0  0
  9 10  1  0  0  0
  9 27  2  0  0  0
 10 11  2  0  0  0
 10 15  1  0  0  0
 11 12  1  0  0  0
 11 94  1  0  0  0
 12 13  2  0  0  0
 12 95  1  0  0  0
 13 14  1  0  0  0
 13 31  1  0  0  0
 14 15  2  0  0  0
 14 96  1  0  0  0
 15 97  1  0  0  0
 16 17  2  0  0  0
 16 21  1  0  0  0
 16 31  1  0  0  0
 17 18  1  0  0  0
 17 98  1  0  0  0
 18 19  2  0  0  0
 18 99  1  0  0  0
 19 20  1  0  0  0
 19 24  1  0  0  0
 20 21  2  0  0  0
 20100  1  0  0  0
 21 23  1  0  0  0
 22 28  1  0  0  0
 22 32  2  0  0  0
 26 27  1  0  0  0
 28101  1  0  0  0
 28102  1  0  0  0
 29103  1  0  0  0
 29104  1  0  0  0
 33 34  1  0  0  0
 33 66  1  0  0  0
 33 70  2  0  0  0
 34 36  1  0  0  0
 34 59  1  0  0  0
 34105  1  0  0  0
 35 44  2  0  0  0
 35 45  1  0  0  0
 35 68  1  0  0  0
 36 56  1  0  0  0
 36106  1  0  0  0
 37 39  1  0  0  0
 37 47  1  0  0  0
 37 66  1  0  0  0
 37107  1  0  0  0
 38 43  2  0  0  0
 38 46  1  0  0  0
 38 47  1  0  0  0
 39 64  1  0  0  0
 39 67  2  0  0  0
 40 52  1  0  0  0
 40 53  2  0  0  0
 40 58  1  0  0  0
 41108  1  0  0  0
 41109  1  0  0  0
 41110  1  0  0  0
 41 48  1  0  0  0
 42 43  1  0  0  0
 42 66  1  0  0  0
 42111  1  0  0  0
 42112  1  0  0  0
 43 44  1  0  0  0
 44113  1  0  0  0
 45 46  2  0  0  0
 45114  1  0  0  0
 46115  1  0  0  0
 47116  1  0  0  0
 47117  1  0  0  0
 48 56  1  0  0  0
 48 65  1  0  0  0
 48118  1  0  0  0
 49 50  1  0  0  0
 49 53  1  0  0  0
 49 64  1  0  0  0
 49119  1  0  0  0
 50 51  1  0  0  0
 50120  1  0  0  0
 50121  1  0  0  0
 51 52  1  0  0  0
 51122  1  0  0  0
 51123  1  0  0  0
 52124  1  0  0  0
 52125  1  0  0  0
 53 54  1  0  0  0
 54 55  2  0  0  0
 54126  1  0  0  0
 55 57  1  0  0  0
 55127  1  0  0  0
 56 69  2  0  0  0
 57 58  2  0  0  0
 57128  1  0  0  0
 58129  1  0  0  0
 59 60  1  0  0  0
 59 61  1  0  0  0
 59 62  1  0  0  0
 60130  1  0  0  0
 60131  1  0  0  0
 60132  1  0  0  0
 61133  1  0  0  0
 61134  1  0  0  0
 61135  1  0  0  0
 62136  1  0  0  0
 62137  1  0  0  0
 62138  1  0  0  0
 63 65  1  0  0  0
 63139  1  0  0  0
 63140  1  0  0  0
 63141  1  0  0  0
 64142  1  0  0  0
 65143  1  0  0  0
 68 82  1  0  0  0
 71 72  2  0  0  0
 71 74  1  0  0  0
 71144  1  0  0  0
 72 76  1  0  0  0
 72145  1  0  0  0
 73 75  1  0  0  0
 73 76  2  0  0  0
 73146  1  0  0  0
 74 75  2  0  0  0
 74 77  1  0  0  0
 75 79  1  0  0  0
 76 84  1  0  0  0
 77 78  2  0  0  0
 77147  1  0  0  0
 78 83  1  0  0  0
 78148  1  0  0  0
 79149  1  0  0  0
 79150  1  0  0  0
 79151  1  0  0  0
 80152  1  0  0  0
 80153  1  0  0  0
 80154  1  0  0  0
 80 83  1  0  0  0
 81 83  1  0  0  0
 81155  1  0  0  0
 81156  1  0  0  0
 81157  1  0  0  0
 82 83  1  0  0  0
 82158  1  0  0  0
 82159  1  0  0  0
 84160  1  0  0  0
M  ISO  4   1 100  68 101  82 101  84 100
M  END
> <chiral flag>
0

> <version>
0

> <s_m_source_file>
/data/baiqing/PycharmProjects/Reinvent-master-3.2/result/LINK_invent/BTK/process_docking_weight1_custom_product_contain_oxygen_bond_distance_aromatic_linkinvent_7_9_3/rearranged_h_0128.sdf

> <i_m_source_file_index>
30

> <r_mmod_Potential_Energy-OPLS-2005>
165.833251953125

> <r_mmod_Stretch_Energy-OPLS-2005>
94.1478576660156

> <r_mmod_Bend_Energy-OPLS-2005>
176.764251708984

> <r_mmod_Torsional_Energy-OPLS-2005>
251.886016845703

> <r_mmod_Improper_Torsional_Energy-OPLS-2005>
6.6244649887085

> <r_mmod_Van_der_Waal_Energy-OPLS-2005>
150.029495239258

> <r_mmod_Electrostatic_Energy-OPLS-2005>
-386.194213867188

> <r_mmod_Solvation_Energy-OPLS-2005>
-195.449401855469

> <b_mmod_Minimization_Converged-OPLS-2005>
0

> <r_mmod_RMS_Derivative-OPLS-2005>
8.75224304199219

$$$$
30
                    3D
 Structure written by MMmdl.
154162  0  0  1  0            999 V2000
  -30.5097  -15.0512   20.3982 C   0  0  0  0  0  0
  -30.4385  -12.6506   19.5264 C   0  0  0  0  0  0
  -29.5318  -12.5450   18.2762 C   0  0  0  0  0  0
  -28.0687  -12.3076   18.6911 C   0  0  0  0  0  0
  -27.6250  -13.2565   19.8346 C   0  0  2  0  0  0
  -28.6591  -13.3377   20.9787 C   0  0  0  0  0  0
  -25.2431  -13.8228   20.5690 C   0  0  0  0  0  0
  -24.1759  -13.0439   20.9212 C   0  0  0  0  0  0
  -24.6384  -11.6925   20.8739 C   0  0  0  0  0  0
  -23.9066  -10.4289   21.0398 C   0  0  0  0  0  0
  -24.3617   -9.4207   21.9180 C   0  0  0  0  0  0
  -23.6292   -8.2244   22.0756 C   0  0  0  0  0  0
  -22.4274   -8.0281   21.3544 C   0  0  0  0  0  0
  -21.9907   -9.0247   20.4638 C   0  0  0  0  0  0
  -22.7235  -10.2125   20.3047 C   0  0  0  0  0  0
  -21.6849   -6.0724   22.5269 C   0  0  0  0  0  0
  -21.4018   -6.5633   23.8201 C   0  0  0  0  0  0
  -21.3661   -5.6793   24.9170 C   0  0  0  0  0  0
  -21.6041   -4.3053   24.7225 C   0  0  0  0  0  0
  -21.8823   -3.8137   23.4349 C   0  0  0  0  0  0
  -21.9197   -4.6951   22.3401 C   0  0  0  0  0  0
  -22.7780  -13.5204   21.1882 C   0  0  0  0  0  0
  -22.1660   -4.2131   21.0978 F   0  0  0  0  0  0
  -21.5628   -3.4541   25.7742 F   0  0  0  0  0  0
  -29.9310  -13.7708   20.3835 N   0  0  0  0  0  0
  -26.2854  -12.9465   20.3211 N   0  0  0  0  0  0
  -25.9320  -11.6586   20.5712 N   0  0  0  0  0  0
  -22.0437  -12.8177   22.0433 N   0  0  0  0  0  0
  -25.4110  -15.1963   20.4118 N   0  0  0  0  0  0
  -31.7129  -15.0862   20.1078 O   0  0  0  0  0  0
  -21.6646   -6.8870   21.4233 O   0  0  0  0  0  0
  -22.3448  -14.5505   20.6730 O   0  0  0  0  0  0
  -24.6488  -31.8337   23.1780 C   0  0  0  0  0  0
  -25.9216  -32.4649   23.8211 C   0  0  1  0  0  0
  -27.2297  -27.0540   20.1608 C   0  0  0  0  0  0
  -25.5938  -33.8465   24.2128 N   0  0  0  0  0  0
  -23.4602  -30.4465   21.5230 C   0  0  2  0  0  0
  -24.9135  -28.8543   20.1051 C   0  0  0  0  0  0
  -22.7616  -29.4479   22.4802 C   0  0  0  0  0  0
  -18.0310  -28.1409   22.8497 C   0  0  0  0  0  0
  -24.1478  -36.7235   23.2651 C   0  0  0  0  0  0
  -26.0197  -30.6794   21.3893 C   0  0  0  0  0  0
  -26.0886  -29.2805   20.7346 C   0  0  0  0  0  0
  -27.2394  -28.3962   20.7454 C   0  0  0  0  0  0
  -26.0275  -26.7454   19.4854 C   0  0  0  0  0  0
  -24.9009  -27.6041   19.4630 C   0  0  0  0  0  0
  -23.6939  -29.7674   20.1438 C   0  0  0  0  0  0
  -25.4120  -36.3001   24.0315 C   0  0  1  0  0  0
  -20.5940  -28.3732   23.1232 C   0  0  2  0  0  0
  -20.6803  -26.9430   22.5411 C   0  0  0  0  0  0
  -19.5763  -26.6387   21.5232 C   0  0  0  0  0  0
  -18.1944  -26.7959   22.1639 C   0  0  0  0  0  0
  -19.1575  -28.8899   23.2858 C   0  0  0  0  0  0
  -18.9483  -30.1499   23.8879 C   0  0  0  0  0  0
  -17.6478  -30.6612   24.0575 C   0  0  0  0  0  0
  -25.9068  -34.9384   23.5034 C   0  0  0  0  0  0
  -16.5368  -29.9109   23.6343 C   0  0  0  0  0  0
  -16.7298  -28.6524   23.0375 C   0  0  0  0  0  0
  -26.4518  -31.6559   25.0694 C   0  0  0  0  0  0
  -25.3701  -31.3788   26.1393 C   0  0  0  0  0  0
  -27.0405  -30.2956   24.6322 C   0  0  0  0  0  0
  -27.6022  -32.4358   25.7494 C   0  0  0  0  0  0
  -27.5545  -37.1805   24.8480 C   0  0  0  0  0  0
  -21.4298  -29.3039   22.3596 N   0  0  0  0  0  0
  -26.4277  -37.3723   23.9388 N   0  0  0  0  0  0
  -24.7296  -31.0120   22.0841 N   0  0  0  0  0  0
  -23.4236  -28.8048   23.2992 O   0  0  0  0  0  0
  -28.2923  -26.0586   20.2808 O   0  0  0  0  0  0
  -26.5671  -34.8903   22.4624 O   0  0  0  0  0  0
  -23.5583  -32.1230   23.6959 O   0  0  0  0  0  0
  -31.0715  -19.4323   18.7829 C   0  0  0  0  0  0
  -30.8848  -18.1087   19.2560 C   0  0  0  0  0  0
  -29.1738  -19.0078   20.6909 C   0  0  0  0  0  0
  -29.3472  -20.4449   20.2456 C   0  0  0  0  0  0
  -30.3404  -20.5634   19.2405 C   0  0  0  0  0  0
  -29.9201  -17.7784   20.2300 C   0  0  0  0  0  0
  -28.5926  -21.7719   20.8375 C   0  0  0  0  0  0
  -28.2369  -23.1873   20.7692 C   0  0  0  0  0  0
  -30.6816  -21.9188   18.6485 C   0  0  0  0  0  0
  -27.4344  -23.6992   21.9603 C   0  0  0  0  0  0
  -28.3665  -24.5371   19.7932 C   0  0  0  0  0  0
  -29.7438  -16.2638   20.5993 N   0  0  0  0  0  0
  -31.4726  -12.8069   19.2173 H   0  0  0  0  0  0
  -30.4391  -11.7110   20.0816 H   0  0  0  0  0  0
  -29.8737  -11.7383   17.6258 H   0  0  0  0  0  0
  -29.6042  -13.4639   17.6922 H   0  0  0  0  0  0
  -27.9856  -11.2709   19.0215 H   0  0  0  0  0  0
  -27.4062  -12.4096   17.8308 H   0  0  0  0  0  0
  -27.5743  -14.2459   19.3801 H   0  0  0  0  0  0
  -28.7632  -12.3788   21.4891 H   0  0  0  0  0  0
  -28.3331  -14.0575   21.7313 H   0  0  0  0  0  0
  -25.2762   -9.5691   22.4746 H   0  0  0  0  0  0
  -23.9998   -7.4641   22.7486 H   0  0  0  0  0  0
  -21.0831   -8.8751   19.8947 H   0  0  0  0  0  0
  -22.3685  -10.9654   19.6144 H   0  0  0  0  0  0
  -21.2010   -7.6142   23.9696 H   0  0  0  0  0  0
  -21.1477   -6.0527   25.9070 H   0  0  0  0  0  0
  -22.0603   -2.7598   23.2855 H   0  0  0  0  0  0
  -22.4071  -11.9841   22.4812 H   0  0  0  0  0  0
  -21.1050  -13.1179   22.2660 H   0  0  0  0  0  0
  -24.6400  -15.8478   20.5113 H   0  0  0  0  0  0
  -26.2560  -15.6340   20.0663 H   0  0  0  0  0  0
  -26.7292  -32.5234   23.0945 H   0  0  0  0  0  0
  -25.0098  -33.9563   25.0287 H   0  0  0  0  0  0
  -22.7667  -31.2738   21.3586 H   0  0  0  0  0  0
  -23.3721  -35.9584   23.3354 H   0  0  0  0  0  0
  -24.3526  -36.8811   22.2041 H   0  0  0  0  0  0
  -23.7268  -37.6466   23.6667 H   0  0  0  0  0  0
  -26.1863  -31.4244   20.6108 H   0  0  0  0  0  0
  -26.8884  -30.7340   22.0333 H   0  0  0  0  0  0
  -28.1316  -28.7145   21.2675 H   0  0  0  0  0  0
  -25.9247  -25.7860   19.0001 H   0  0  0  0  0  0
  -24.0053  -27.2745   18.9548 H   0  0  0  0  0  0
  -23.8400  -30.5373   19.3844 H   0  0  0  0  0  0
  -22.8086  -29.2109   19.8301 H   0  0  0  0  0  0
  -25.1326  -36.1807   25.0815 H   0  0  0  0  0  0
  -21.0040  -28.3315   24.1351 H   0  0  0  0  0  0
  -20.5704  -26.2350   23.3642 H   0  0  0  0  0  0
  -21.6671  -26.7435   22.1198 H   0  0  0  0  0  0
  -19.6907  -25.6292   21.1273 H   0  0  0  0  0  0
  -19.6692  -27.3208   20.6772 H   0  0  0  0  0  0
  -17.4225  -26.6725   21.4025 H   0  0  0  0  0  0
  -18.0308  -26.0105   22.9031 H   0  0  0  0  0  0
  -19.7943  -30.7339   24.2229 H   0  0  0  0  0  0
  -17.5015  -31.6282   24.5191 H   0  0  0  0  0  0
  -15.5371  -30.3011   23.7666 H   0  0  0  0  0  0
  -15.8693  -28.0835   22.7107 H   0  0  0  0  0  0
  -24.5883  -30.7124   25.7737 H   0  0  0  0  0  0
  -24.8907  -32.2993   26.4732 H   0  0  0  0  0  0
  -25.7984  -30.9030   27.0224 H   0  0  0  0  0  0
  -26.3038  -29.6680   24.1311 H   0  0  0  0  0  0
  -27.3974  -29.7251   25.4895 H   0  0  0  0  0  0
  -27.8952  -30.4183   23.9679 H   0  0  0  0  0  0
  -27.2578  -33.3679   26.1997 H   0  0  0  0  0  0
  -28.3890  -32.6901   25.0382 H   0  0  0  0  0  0
  -28.0647  -31.8557   26.5482 H   0  0  0  0  0  0
  -28.2653  -38.0021   24.7444 H   0  0  0  0  0  0
  -28.0966  -36.2561   24.6437 H   0  0  0  0  0  0
  -27.2263  -37.1607   25.8892 H   0  0  0  0  0  0
  -20.9517  -29.8727   21.6754 H   0  0  0  0  0  0
  -26.0122  -38.2795   24.1359 H   0  0  0  0  0  0
  -31.8298  -19.5749   18.0252 H   0  0  0  0  0  0
  -31.5002  -17.3318   18.8245 H   0  0  0  0  0  0
  -28.4248  -18.8443   21.4530 H   0  0  0  0  0  0
  -28.1828  -21.3837   21.7570 H   0  0  0  0  0  0
  -31.5624  -21.8668   18.0076 H   0  0  0  0  0  0
  -30.8975  -22.6435   19.4332 H   0  0  0  0  0  0
  -29.8523  -22.2867   18.0439 H   0  0  0  0  0  0
  -27.2440  -22.9563   22.7351 H   0  0  0  0  0  0
  -26.4675  -24.0735   21.6218 H   0  0  0  0  0  0
  -27.9643  -24.5249   22.4360 H   0  0  0  0  0  0
  -27.6243  -24.4077   19.0070 H   0  0  0  0  0  0
  -29.3183  -24.4370   19.2726 H   0  0  0  0  0  0
  -28.8342  -16.0545   20.9836 H   0  0  0  0  0  0
  1 25  1  0  0  0
  1 30  2  0  0  0
  1 82  1  0  0  0
  2  3  1  0  0  0
  2 25  1  0  0  0
  2 83  1  0  0  0
  2 84  1  0  0  0
  3  4  1  0  0  0
  3 85  1  0  0  0
  3 86  1  0  0  0
  4  5  1  0  0  0
  4 87  1  0  0  0
  4 88  1  0  0  0
  5  6  1  0  0  0
  5 26  1  0  0  0
  5 89  1  0  0  0
  6 25  1  0  0  0
  6 90  1  0  0  0
  6 91  1  0  0  0
  7  8  2  0  0  0
  7 26  1  0  0  0
  7 29  1  0  0  0
  8  9  1  0  0  0
  8 22  1  0  0  0
  9 10  1  0  0  0
  9 27  2  0  0  0
 10 11  2  0  0  0
 10 15  1  0  0  0
 11 12  1  0  0  0
 11 92  1  0  0  0
 12 13  2  0  0  0
 12 93  1  0  0  0
 13 14  1  0  0  0
 13 31  1  0  0  0
 14 15  2  0  0  0
 14 94  1  0  0  0
 15 95  1  0  0  0
 16 17  2  0  0  0
 16 21  1  0  0  0
 16 31  1  0  0  0
 17 18  1  0  0  0
 17 96  1  0  0  0
 18 19  2  0  0  0
 18 97  1  0  0  0
 19 20  1  0  0  0
 19 24  1  0  0  0
 20 21  2  0  0  0
 20 98  1  0  0  0
 21 23  1  0  0  0
 22 28  1  0  0  0
 22 32  2  0  0  0
 26 27  1  0  0  0
 28 99  1  0  0  0
 28100  1  0  0  0
 29101  1  0  0  0
 29102  1  0  0  0
 33 34  1  0  0  0
 33 66  1  0  0  0
 33 70  2  0  0  0
 34 36  1  0  0  0
 34 59  1  0  0  0
 34103  1  0  0  0
 35 44  2  0  0  0
 35 45  1  0  0  0
 35 68  1  0  0  0
 36 56  1  0  0  0
 36104  1  0  0  0
 37 39  1  0  0  0
 37 47  1  0  0  0
 37 66  1  0  0  0
 37105  1  0  0  0
 38 43  2  0  0  0
 38 46  1  0  0  0
 38 47  1  0  0  0
 39 64  1  0  0  0
 39 67  2  0  0  0
 40 52  1  0  0  0
 40 53  2  0  0  0
 40 58  1  0  0  0
 41106  1  0  0  0
 41107  1  0  0  0
 41108  1  0  0  0
 41 48  1  0  0  0
 42 43  1  0  0  0
 42 66  1  0  0  0
 42109  1  0  0  0
 42110  1  0  0  0
 43 44  1  0  0  0
 44111  1  0  0  0
 45 46  2  0  0  0
 45112  1  0  0  0
 46113  1  0  0  0
 47114  1  0  0  0
 47115  1  0  0  0
 48 56  1  0  0  0
 48 65  1  0  0  0
 48116  1  0  0  0
 49 50  1  0  0  0
 49 53  1  0  0  0
 49 64  1  0  0  0
 49117  1  0  0  0
 50 51  1  0  0  0
 50118  1  0  0  0
 50119  1  0  0  0
 51 52  1  0  0  0
 51120  1  0  0  0
 51121  1  0  0  0
 52122  1  0  0  0
 52123  1  0  0  0
 53 54  1  0  0  0
 54 55  2  0  0  0
 54124  1  0  0  0
 55 57  1  0  0  0
 55125  1  0  0  0
 56 69  2  0  0  0
 57 58  2  0  0  0
 57126  1  0  0  0
 58127  1  0  0  0
 59 60  1  0  0  0
 59 61  1  0  0  0
 59 62  1  0  0  0
 60128  1  0  0  0
 60129  1  0  0  0
 60130  1  0  0  0
 61131  1  0  0  0
 61132  1  0  0  0
 61133  1  0  0  0
 62134  1  0  0  0
 62135  1  0  0  0
 62136  1  0  0  0
 63 65  1  0  0  0
 63137  1  0  0  0
 63138  1  0  0  0
 63139  1  0  0  0
 64140  1  0  0  0
 65141  1  0  0  0
 68 81  1  0  0  0
 71 72  2  0  0  0
 71 75  1  0  0  0
 71142  1  0  0  0
 72 76  1  0  0  0
 72143  1  0  0  0
 73 74  1  0  0  0
 73 76  2  0  0  0
 73144  1  0  0  0
 74 75  2  0  0  0
 74 77  1  0  0  0
 75 79  1  0  0  0
 76 82  1  0  0  0
 77 78  2  0  0  0
 77145  1  0  0  0
 78 80  1  0  0  0
 78 81  1  0  0  0
 79146  1  0  0  0
 79147  1  0  0  0
 79148  1  0  0  0
 80149  1  0  0  0
 80150  1  0  0  0
 80151  1  0  0  0
 81152  1  0  0  0
 81153  1  0  0  0
 82154  1  0  0  0
M  ISO  4   1 100  68 101  81 101  82 100
M  END
> <chiral flag>
0

> <version>
0

> <s_m_source_file>
/data/baiqing/PycharmProjects/Reinvent-master-3.2/result/LINK_invent/BTK/process_docking_weight1_custom_product_contain_oxygen_bond_distance_aromatic_linkinvent_7_9_3/rearranged_h_0128.sdf

> <i_m_source_file_index>
31

> <r_mmod_Potential_Energy-OPLS-2005>
791.654541015625

> <r_mmod_Stretch_Energy-OPLS-2005>
355.622314453125

> <r_mmod_Bend_Energy-OPLS-2005>
381.784088134766

> <r_mmod_Torsional_Energy-OPLS-2005>
215.898742675781

> <r_mmod_Improper_Torsional_Energy-OPLS-2005>
3.47162795066833

> <r_mmod_Van_der_Waal_Energy-OPLS-2005>
130.762084960938

> <r_mmod_Electrostatic_Energy-OPLS-2005>
-360.551116943359

> <r_mmod_Solvation_Energy-OPLS-2005>
-203.963180541992

> <b_mmod_Minimization_Converged-OPLS-2005>
0

> <r_mmod_RMS_Derivative-OPLS-2005>
2.44674468040466

$$$$
31
                    3D
 Structure written by MMmdl.
160168  0  0  1  0            999 V2000
  -30.7344  -14.4314   20.6770 C   0  0  0  0  0  0
  -30.4257  -12.3269   19.4070 C   0  0  0  0  0  0
  -29.4911  -12.5433   18.2004 C   0  0  0  0  0  0
  -28.0136  -12.3893   18.6108 C   0  0  0  0  0  0
  -27.6667  -13.2032   19.8850 C   0  0  2  0  0  0
  -28.7040  -12.9296   20.9951 C   0  0  0  0  0  0
  -25.2589  -13.8143   20.5631 C   0  0  0  0  0  0
  -24.1846  -13.0435   20.9163 C   0  0  0  0  0  0
  -24.6395  -11.6900   20.8733 C   0  0  0  0  0  0
  -23.9058  -10.4290   21.0406 C   0  0  0  0  0  0
  -24.3609   -9.4207   21.9186 C   0  0  0  0  0  0
  -23.6286   -8.2242   22.0755 C   0  0  0  0  0  0
  -22.4268   -8.0280   21.3545 C   0  0  0  0  0  0
  -21.9904   -9.0254   20.4647 C   0  0  0  0  0  0
  -22.7231  -10.2134   20.3056 C   0  0  0  0  0  0
  -21.6851   -6.0733   22.5279 C   0  0  0  0  0  0
  -21.4013   -6.5639   23.8212 C   0  0  0  0  0  0
  -21.3661   -5.6793   24.9175 C   0  0  0  0  0  0
  -21.6045   -4.3055   24.7227 C   0  0  0  0  0  0
  -21.8820   -3.8144   23.4348 C   0  0  0  0  0  0
  -21.9191   -4.6960   22.3403 C   0  0  0  0  0  0
  -22.7871  -13.5240   21.1834 C   0  0  0  0  0  0
  -22.1660   -4.2146   21.0980 F   0  0  0  0  0  0
  -21.5630   -3.4538   25.7740 F   0  0  0  0  0  0
  -30.0403  -13.2705   20.4715 N   0  0  0  0  0  0
  -26.3045  -12.9316   20.3392 N   0  0  0  0  0  0
  -25.9322  -11.6478   20.5769 N   0  0  0  0  0  0
  -22.0511  -12.8239   22.0395 N   0  0  0  0  0  0
  -25.4281  -15.1845   20.3933 N   0  0  0  0  0  0
  -31.7487  -14.7237   20.0318 O   0  0  0  0  0  0
  -21.6636   -6.8876   21.4240 O   0  0  0  0  0  0
  -22.3557  -14.5549   20.6684 O   0  0  0  0  0  0
  -24.6158  -31.8668   23.2099 C   0  0  0  0  0  0
  -25.9048  -32.4811   23.8396 C   0  0  1  0  0  0
  -27.2383  -27.4236   20.0763 C   0  0  0  0  0  0
  -25.5898  -33.8612   24.2324 N   0  0  0  0  0  0
  -23.4035  -30.4917   21.5507 C   0  0  2  0  0  0
  -24.8480  -28.9579   20.1126 C   0  0  0  0  0  0
  -22.7408  -29.4657   22.4983 C   0  0  0  0  0  0
  -18.0269  -28.1374   22.8493 C   0  0  0  0  0  0
  -24.1488  -36.7319   23.2639 C   0  0  0  0  0  0
  -25.9345  -30.8265   21.3654 C   0  0  0  0  0  0
  -26.0093  -29.4609   20.7101 C   0  0  0  0  0  0
  -27.2011  -28.6979   20.6951 C   0  0  0  0  0  0
  -26.0452  -26.9312   19.4946 C   0  0  0  0  0  0
  -24.8610  -27.6912   19.5073 C   0  0  0  0  0  0
  -23.6110  -29.8263   20.1646 C   0  0  0  0  0  0
  -25.4107  -36.3109   24.0337 C   0  0  1  0  0  0
  -20.5859  -28.3665   23.1316 C   0  0  2  0  0  0
  -20.6755  -26.9400   22.5420 C   0  0  0  0  0  0
  -19.5735  -26.6384   21.5213 C   0  0  0  0  0  0
  -18.1916  -26.7920   22.1624 C   0  0  0  0  0  0
  -19.1519  -28.8834   23.2901 C   0  0  0  0  0  0
  -18.9448  -30.1439   23.8912 C   0  0  0  0  0  0
  -17.6452  -30.6582   24.0564 C   0  0  0  0  0  0
  -25.9035  -34.9471   23.5130 C   0  0  0  0  0  0
  -16.5341  -29.9088   23.6322 C   0  0  0  0  0  0
  -16.7258  -28.6501   23.0349 C   0  0  0  0  0  0
  -26.4471  -31.6589   25.0727 C   0  0  0  0  0  0
  -25.3740  -31.3679   26.1474 C   0  0  0  0  0  0
  -27.0306  -30.3034   24.6107 C   0  0  0  0  0  0
  -27.6051  -32.4303   25.7486 C   0  0  0  0  0  0
  -27.5579  -37.1814   24.8463 C   0  0  0  0  0  0
  -21.4135  -29.3035   22.3722 N   0  0  0  0  0  0
  -26.4293  -37.3794   23.9406 N   0  0  0  0  0  0
  -24.6698  -31.0758   22.1005 N   0  0  0  0  0  0
  -23.4177  -28.8195   23.3024 O   0  0  0  0  0  0
  -28.4212  -26.7021   20.1159 O   0  0  0  0  0  0
  -26.5601  -34.8922   22.4694 O   0  0  0  0  0  0
  -23.5349  -32.1429   23.7487 O   0  0  0  0  0  0
  -30.2884  -18.9777   20.5635 C   0  0  0  0  0  0
  -30.6475  -17.6259   20.7915 C   0  0  0  0  0  0
  -28.2281  -18.6089   21.7601 C   0  0  0  0  0  0
  -29.0665  -19.4907   21.0508 C   0  0  0  0  0  0
  -29.8143  -16.7332   21.5177 C   0  0  0  0  0  0
  -28.5766  -17.2605   22.0038 C   0  0  0  0  0  0
  -28.6180  -20.8994   20.8972 C   0  0  0  0  0  0
  -29.2942  -21.9604   20.3965 C   0  0  0  0  0  0
  -30.2808  -15.3303   21.8372 C   0  0  0  0  0  0
  -28.6718  -23.3118   20.3203 C   0  0  0  0  0  0
  -27.6674  -16.7086   24.3179 C   0  0  0  0  0  0
  -27.5659  -16.4478   22.8091 C   0  0  0  0  0  0
  -29.5031  -24.4732   19.7420 C   0  0  0  0  0  0
  -28.6971  -25.6657   19.1529 C   0  0  0  0  0  0
  -30.3053  -14.9110   23.0350 N   0  0  0  0  0  0
  -27.5200  -23.5341   20.7081 O   0  0  0  0  0  0
  -31.4670  -12.4443   19.1025 H   0  0  0  0  0  0
  -30.3446  -11.3019   19.7718 H   0  0  0  0  0  0
  -29.7336  -11.8389   17.4036 H   0  0  0  0  0  0
  -29.6540  -13.5402   17.7875 H   0  0  0  0  0  0
  -27.8231  -11.3295   18.7849 H   0  0  0  0  0  0
  -27.3617  -12.6833   17.7876 H   0  0  0  0  0  0
  -27.7274  -14.2602   19.6245 H   0  0  0  0  0  0
  -28.6850  -11.8737   21.2697 H   0  0  0  0  0  0
  -28.4322  -13.4506   21.9082 H   0  0  0  0  0  0
  -25.2756   -9.5685   22.4758 H   0  0  0  0  0  0
  -23.9996   -7.4637   22.7476 H   0  0  0  0  0  0
  -21.0835   -8.8772   19.8954 H   0  0  0  0  0  0
  -22.3690  -10.9671   19.6163 H   0  0  0  0  0  0
  -21.2005   -7.6147   23.9714 H   0  0  0  0  0  0
  -21.1484   -6.0522   25.9077 H   0  0  0  0  0  0
  -22.0598   -2.7605   23.2849 H   0  0  0  0  0  0
  -22.4118  -11.9893   22.4775 H   0  0  0  0  0  0
  -21.1133  -13.1274   22.2603 H   0  0  0  0  0  0
  -24.6569  -15.8363   20.4835 H   0  0  0  0  0  0
  -26.2781  -15.6209   20.0599 H   0  0  0  0  0  0
  -26.7114  -32.5516   23.1154 H   0  0  0  0  0  0
  -25.0029  -33.9772   25.0456 H   0  0  0  0  0  0
  -22.6932  -31.3097   21.4128 H   0  0  0  0  0  0
  -23.3746  -35.9658   23.3308 H   0  0  0  0  0  0
  -24.3579  -36.8936   22.2052 H   0  0  0  0  0  0
  -23.7248  -37.6529   23.6654 H   0  0  0  0  0  0
  -26.0493  -31.5926   20.5973 H   0  0  0  0  0  0
  -26.8219  -30.8781   21.9846 H   0  0  0  0  0  0
  -28.0970  -29.0840   21.1613 H   0  0  0  0  0  0
  -25.9798  -25.9508   19.0512 H   0  0  0  0  0  0
  -23.9629  -27.2900   19.0582 H   0  0  0  0  0  0
  -23.7184  -30.6021   19.4055 H   0  0  0  0  0  0
  -22.7341  -29.2472   19.8695 H   0  0  0  0  0  0
  -25.1282  -36.1979   25.0831 H   0  0  0  0  0  0
  -20.9948  -28.3236   24.1439 H   0  0  0  0  0  0
  -20.5657  -26.2273   23.3607 H   0  0  0  0  0  0
  -21.6627  -26.7444   22.1218 H   0  0  0  0  0  0
  -19.6900  -25.6303   21.1227 H   0  0  0  0  0  0
  -19.6673  -27.3205   20.6753 H   0  0  0  0  0  0
  -17.4186  -26.6672   21.4024 H   0  0  0  0  0  0
  -18.0315  -26.0057   22.9016 H   0  0  0  0  0  0
  -19.7926  -30.7244   24.2294 H   0  0  0  0  0  0
  -17.5012  -31.6264   24.5165 H   0  0  0  0  0  0
  -15.5343  -30.2998   23.7636 H   0  0  0  0  0  0
  -15.8657  -28.0826   22.7058 H   0  0  0  0  0  0
  -24.5928  -30.7007   25.7810 H   0  0  0  0  0  0
  -24.8905  -32.2820   26.4929 H   0  0  0  0  0  0
  -25.8102  -30.8850   27.0227 H   0  0  0  0  0  0
  -26.2853  -29.6788   24.1165 H   0  0  0  0  0  0
  -27.4083  -29.7271   25.4564 H   0  0  0  0  0  0
  -27.8685  -30.4355   23.9257 H   0  0  0  0  0  0
  -27.2686  -33.3601   26.2082 H   0  0  0  0  0  0
  -28.3851  -32.6859   25.0302 H   0  0  0  0  0  0
  -28.0728  -31.8409   26.5385 H   0  0  0  0  0  0
  -28.2601  -38.0107   24.7509 H   0  0  0  0  0  0
  -28.1073  -36.2639   24.6296 H   0  0  0  0  0  0
  -27.2292  -37.1477   25.8865 H   0  0  0  0  0  0
  -20.9289  -29.8773   21.6963 H   0  0  0  0  0  0
  -26.0186  -38.2875   24.1405 H   0  0  0  0  0  0
  -30.9683  -19.6162   20.0177 H   0  0  0  0  0  0
  -31.6047  -17.2852   20.4229 H   0  0  0  0  0  0
  -27.2899  -18.9802   22.1502 H   0  0  0  0  0  0
  -27.6062  -21.0788   21.2359 H   0  0  0  0  0  0
  -30.3076  -21.8549   20.0395 H   0  0  0  0  0  0
  -26.9239  -16.1242   24.8604 H   0  0  0  0  0  0
  -27.4918  -17.7595   24.5495 H   0  0  0  0  0  0
  -28.6474  -16.4421   24.7110 H   0  0  0  0  0  0
  -27.6419  -15.3839   22.6015 H   0  0  0  0  0  0
  -26.5635  -16.7217   22.4774 H   0  0  0  0  0  0
  -30.1105  -24.0474   18.9434 H   0  0  0  0  0  0
  -30.2024  -24.8276   20.4990 H   0  0  0  0  0  0
  -27.8356  -25.2768   18.6185 H   0  0  0  0  0  0
  -29.3067  -26.1329   18.3790 H   0  0  0  0  0  0
  -29.9758  -15.6309   23.6658 H   0  0  0  0  0  0
  1 25  1  0  0  0
  1 30  2  0  0  0
  1 79  1  0  0  0
  2  3  1  0  0  0
  2 25  1  0  0  0
  2 87  1  0  0  0
  2 88  1  0  0  0
  3  4  1  0  0  0
  3 89  1  0  0  0
  3 90  1  0  0  0
  4  5  1  0  0  0
  4 91  1  0  0  0
  4 92  1  0  0  0
  5  6  1  0  0  0
  5 26  1  0  0  0
  5 93  1  0  0  0
  6 25  1  0  0  0
  6 94  1  0  0  0
  6 95  1  0  0  0
  7  8  2  0  0  0
  7 26  1  0  0  0
  7 29  1  0  0  0
  8  9  1  0  0  0
  8 22  1  0  0  0
  9 10  1  0  0  0
  9 27  2  0  0  0
 10 11  2  0  0  0
 10 15  1  0  0  0
 11 12  1  0  0  0
 11 96  1  0  0  0
 12 13  2  0  0  0
 12 97  1  0  0  0
 13 14  1  0  0  0
 13 31  1  0  0  0
 14 15  2  0  0  0
 14 98  1  0  0  0
 15 99  1  0  0  0
 16 17  2  0  0  0
 16 21  1  0  0  0
 16 31  1  0  0  0
 17 18  1  0  0  0
 17100  1  0  0  0
 18 19  2  0  0  0
 18101  1  0  0  0
 19 20  1  0  0  0
 19 24  1  0  0  0
 20 21  2  0  0  0
 20102  1  0  0  0
 21 23  1  0  0  0
 22 28  1  0  0  0
 22 32  2  0  0  0
 26 27  1  0  0  0
 28103  1  0  0  0
 28104  1  0  0  0
 29105  1  0  0  0
 29106  1  0  0  0
 33 34  1  0  0  0
 33 66  1  0  0  0
 33 70  2  0  0  0
 34 36  1  0  0  0
 34 59  1  0  0  0
 34107  1  0  0  0
 35 44  2  0  0  0
 35 45  1  0  0  0
 35 68  1  0  0  0
 36 56  1  0  0  0
 36108  1  0  0  0
 37 39  1  0  0  0
 37 47  1  0  0  0
 37 66  1  0  0  0
 37109  1  0  0  0
 38 43  2  0  0  0
 38 46  1  0  0  0
 38 47  1  0  0  0
 39 64  1  0  0  0
 39 67  2  0  0  0
 40 52  1  0  0  0
 40 53  2  0  0  0
 40 58  1  0  0  0
 41110  1  0  0  0
 41111  1  0  0  0
 41112  1  0  0  0
 41 48  1  0  0  0
 42 43  1  0  0  0
 42 66  1  0  0  0
 42113  1  0  0  0
 42114  1  0  0  0
 43 44  1  0  0  0
 44115  1  0  0  0
 45 46  2  0  0  0
 45116  1  0  0  0
 46117  1  0  0  0
 47118  1  0  0  0
 47119  1  0  0  0
 48 56  1  0  0  0
 48 65  1  0  0  0
 48120  1  0  0  0
 49 50  1  0  0  0
 49 53  1  0  0  0
 49 64  1  0  0  0
 49121  1  0  0  0
 50 51  1  0  0  0
 50122  1  0  0  0
 50123  1  0  0  0
 51 52  1  0  0  0
 51124  1  0  0  0
 51125  1  0  0  0
 52126  1  0  0  0
 52127  1  0  0  0
 53 54  1  0  0  0
 54 55  2  0  0  0
 54128  1  0  0  0
 55 57  1  0  0  0
 55129  1  0  0  0
 56 69  2  0  0  0
 57 58  2  0  0  0
 57130  1  0  0  0
 58131  1  0  0  0
 59 60  1  0  0  0
 59 61  1  0  0  0
 59 62  1  0  0  0
 60132  1  0  0  0
 60133  1  0  0  0
 60134  1  0  0  0
 61135  1  0  0  0
 61136  1  0  0  0
 61137  1  0  0  0
 62138  1  0  0  0
 62139  1  0  0  0
 62140  1  0  0  0
 63 65  1  0  0  0
 63141  1  0  0  0
 63142  1  0  0  0
 63143  1  0  0  0
 64144  1  0  0  0
 65145  1  0  0  0
 68 84  1  0  0  0
 71 72  2  0  0  0
 71 74  1  0  0  0
 71146  1  0  0  0
 72 75  1  0  0  0
 72147  1  0  0  0
 73 74  2  0  0  0
 73 76  1  0  0  0
 73148  1  0  0  0
 74 77  1  0  0  0
 75 76  2  0  0  0
 75 79  1  0  0  0
 76 82  1  0  0  0
 77 78  2  0  0  0
 77149  1  0  0  0
 78 80  1  0  0  0
 78150  1  0  0  0
 79 85  2  0  0  0
 80 83  1  0  0  0
 80 86  2  0  0  0
 81 82  1  0  0  0
 81151  1  0  0  0
 81152  1  0  0  0
 81153  1  0  0  0
 82154  1  0  0  0
 82155  1  0  0  0
 83 84  1  0  0  0
 83156  1  0  0  0
 83157  1  0  0  0
 84158  1  0  0  0
 84159  1  0  0  0
 85160  1  0  0  0
M  ISO  4   1 100  68 101  79 100  84 101
M  END
> <chiral flag>
0

> <version>
0

> <s_m_source_file>
/data/baiqing/PycharmProjects/Reinvent-master-3.2/result/LINK_invent/BTK/process_docking_weight1_custom_product_contain_oxygen_bond_distance_aromatic_linkinvent_7_9_3/rearranged_h_0128.sdf

> <i_m_source_file_index>
32

> <r_mmod_Potential_Energy-OPLS-2005>
103.294212341309

> <r_mmod_Stretch_Energy-OPLS-2005>
47.0900039672852

> <r_mmod_Bend_Energy-OPLS-2005>
118.072242736816

> <r_mmod_Torsional_Energy-OPLS-2005>
212.330612182617

> <r_mmod_Improper_Torsional_Energy-OPLS-2005>
2.85741853713989

> <r_mmod_Van_der_Waal_Energy-OPLS-2005>
153.116760253906

> <r_mmod_Electrostatic_Energy-OPLS-2005>
-236.468612670898

> <r_mmod_Solvation_Energy-OPLS-2005>
-205.048080444336

> <b_mmod_Minimization_Converged-OPLS-2005>
0

> <r_mmod_RMS_Derivative-OPLS-2005>
0.474289566278458

$$$$
32
                    3D
 Structure written by MMmdl.
162170  0  0  1  0            999 V2000
  -30.7387  -14.4136   20.6332 C   0  0  0  0  0  0
  -30.4197  -12.2931   19.4111 C   0  0  0  0  0  0
  -29.4907  -12.5117   18.2003 C   0  0  0  0  0  0
  -28.0131  -12.3710   18.6154 C   0  0  0  0  0  0
  -27.6652  -13.2035   19.8785 C   0  0  2  0  0  0
  -28.7050  -12.9596   20.9973 C   0  0  0  0  0  0
  -25.2567  -13.8140   20.5620 C   0  0  0  0  0  0
  -24.1834  -13.0422   20.9180 C   0  0  0  0  0  0
  -24.6393  -11.6901   20.8740 C   0  0  0  0  0  0
  -23.9058  -10.4291   21.0412 C   0  0  0  0  0  0
  -24.3613   -9.4203   21.9186 C   0  0  0  0  0  0
  -23.6288   -8.2237   22.0747 C   0  0  0  0  0  0
  -22.4269   -8.0276   21.3540 C   0  0  0  0  0  0
  -21.9909   -9.0250   20.4636 C   0  0  0  0  0  0
  -22.7234  -10.2134   20.3052 C   0  0  0  0  0  0
  -21.6847   -6.0731   22.5277 C   0  0  0  0  0  0
  -21.4013   -6.5634   23.8211 C   0  0  0  0  0  0
  -21.3657   -5.6785   24.9173 C   0  0  0  0  0  0
  -21.6048   -4.3049   24.7229 C   0  0  0  0  0  0
  -21.8817   -3.8141   23.4347 C   0  0  0  0  0  0
  -21.9193   -4.6959   22.3403 C   0  0  0  0  0  0
  -22.7858  -13.5223   21.1846 C   0  0  0  0  0  0
  -22.1660   -4.2139   21.0982 F   0  0  0  0  0  0
  -21.5634   -3.4538   25.7745 F   0  0  0  0  0  0
  -30.0431  -13.2587   20.4554 N   0  0  0  0  0  0
  -26.3033  -12.9320   20.3361 N   0  0  0  0  0  0
  -25.9321  -11.6486   20.5778 N   0  0  0  0  0  0
  -22.0499  -12.8220   22.0406 N   0  0  0  0  0  0
  -25.4210  -15.1841   20.3903 N   0  0  0  0  0  0
  -31.8078  -14.6345   20.0568 O   0  0  0  0  0  0
  -21.6629   -6.8874   21.4239 O   0  0  0  0  0  0
  -22.3551  -14.5535   20.6699 O   0  0  0  0  0  0
  -24.6127  -31.8713   23.2118 C   0  0  0  0  0  0
  -25.9049  -32.4830   23.8399 C   0  0  1  0  0  0
  -27.2320  -27.4649   20.0942 C   0  0  0  0  0  0
  -25.5942  -33.8625   24.2361 N   0  0  0  0  0  0
  -23.3982  -30.4942   21.5498 C   0  0  2  0  0  0
  -24.8467  -28.9634   20.1094 C   0  0  0  0  0  0
  -22.7401  -29.4663   22.4986 C   0  0  0  0  0  0
  -18.0275  -28.1338   22.8476 C   0  0  0  0  0  0
  -24.1506  -36.7297   23.2634 C   0  0  0  0  0  0
  -25.9234  -30.8445   21.3619 C   0  0  0  0  0  0
  -26.0012  -29.4799   20.7120 C   0  0  0  0  0  0
  -27.1992  -28.7343   20.7082 C   0  0  0  0  0  0
  -26.0724  -26.9576   19.4779 C   0  0  0  0  0  0
  -24.8743  -27.6993   19.4905 C   0  0  0  0  0  0
  -23.6059  -29.8271   20.1626 C   0  0  0  0  0  0
  -25.4120  -36.3112   24.0348 C   0  0  1  0  0  0
  -20.5869  -28.3646   23.1305 C   0  0  2  0  0  0
  -20.6796  -26.9393   22.5396 C   0  0  0  0  0  0
  -19.5777  -26.6367   21.5181 C   0  0  0  0  0  0
  -18.1946  -26.7895   22.1581 C   0  0  0  0  0  0
  -19.1522  -28.8804   23.2886 C   0  0  0  0  0  0
  -18.9458  -30.1415   23.8894 C   0  0  0  0  0  0
  -17.6466  -30.6563   24.0544 C   0  0  0  0  0  0
  -25.9038  -34.9477   23.5139 C   0  0  0  0  0  0
  -16.5357  -29.9062   23.6302 C   0  0  0  0  0  0
  -16.7262  -28.6467   23.0333 C   0  0  0  0  0  0
  -26.4484  -31.6585   25.0698 C   0  0  0  0  0  0
  -25.3758  -31.3670   26.1458 C   0  0  0  0  0  0
  -27.0327  -30.3054   24.6008 C   0  0  0  0  0  0
  -27.6076  -32.4289   25.7454 C   0  0  0  0  0  0
  -27.5601  -37.1802   24.8461 C   0  0  0  0  0  0
  -21.4138  -29.3008   22.3723 N   0  0  0  0  0  0
  -26.4307  -37.3797   23.9418 N   0  0  0  0  0  0
  -24.6620  -31.0848   22.0997 N   0  0  0  0  0  0
  -23.4192  -28.8233   23.3027 O   0  0  0  0  0  0
  -28.3792  -26.7145   20.0907 O   0  0  0  0  0  0
  -26.5575  -34.8941   22.4680 O   0  0  0  0  0  0
  -23.5329  -32.1452   23.7538 O   0  0  0  0  0  0
  -31.1084  -19.4206   22.0137 C   0  0  0  0  0  0
  -31.8263  -17.1284   21.6452 C   0  0  0  0  0  0
  -29.7524  -19.0222   22.0348 C   0  0  0  0  0  0
  -32.1402  -18.4872   21.8227 C   0  0  0  0  0  0
  -29.4382  -17.6496   21.8115 C   0  0  0  0  0  0
  -30.4797  -16.6964   21.6175 C   0  0  0  0  0  0
  -28.6958  -20.0427   22.2528 C   0  0  0  0  0  0
  -28.8463  -21.3808   22.1397 C   0  0  0  0  0  0
  -27.7454  -22.3226   22.4087 C   0  0  0  0  0  0
  -33.5851  -18.9501   21.8079 C   0  0  0  0  0  0
  -27.9796  -17.2013   21.7653 C   0  0  0  0  0  0
  -28.0973  -23.8055   22.5387 C   0  0  0  0  0  0
  -27.9772  -24.5744   21.2105 C   0  0  0  0  0  0
  -28.5828  -25.9874   21.3021 C   0  0  0  0  0  0
  -30.1526  -15.3152   21.4425 N   0  0  0  0  0  0
  -26.5684  -21.9755   22.5365 O   0  0  0  0  0  0
  -31.4648  -12.3868   19.1078 H   0  0  0  0  0  0
  -30.3148  -11.2771   19.7931 H   0  0  0  0  0  0
  -29.7261  -11.7942   17.4125 H   0  0  0  0  0  0
  -29.6630  -13.5010   17.7758 H   0  0  0  0  0  0
  -27.8221  -11.3140   18.8064 H   0  0  0  0  0  0
  -27.3613  -12.6510   17.7874 H   0  0  0  0  0  0
  -27.7178  -14.2542   19.5935 H   0  0  0  0  0  0
  -28.6736  -11.9165   21.3159 H   0  0  0  0  0  0
  -28.4554  -13.5351   21.8891 H   0  0  0  0  0  0
  -25.2761   -9.5677   22.4757 H   0  0  0  0  0  0
  -23.9993   -7.4629   22.7465 H   0  0  0  0  0  0
  -21.0840   -8.8763   19.8947 H   0  0  0  0  0  0
  -22.3688  -10.9669   19.6156 H   0  0  0  0  0  0
  -21.1998   -7.6141   23.9710 H   0  0  0  0  0  0
  -21.1484   -6.0520   25.9076 H   0  0  0  0  0  0
  -22.0599   -2.7603   23.2851 H   0  0  0  0  0  0
  -22.4110  -11.9886   22.4808 H   0  0  0  0  0  0
  -21.1113  -13.1233   22.2597 H   0  0  0  0  0  0
  -24.6406  -15.8268   20.4660 H   0  0  0  0  0  0
  -26.2480  -15.6105   19.9931 H   0  0  0  0  0  0
  -26.7127  -32.5564   23.1171 H   0  0  0  0  0  0
  -25.0224  -33.9783   25.0600 H   0  0  0  0  0  0
  -22.6845  -31.3084   21.4112 H   0  0  0  0  0  0
  -23.3781  -35.9615   23.3280 H   0  0  0  0  0  0
  -24.3622  -36.8899   22.2052 H   0  0  0  0  0  0
  -23.7239  -37.6494   23.6637 H   0  0  0  0  0  0
  -26.0332  -31.6136   20.5958 H   0  0  0  0  0  0
  -26.8131  -30.8958   21.9779 H   0  0  0  0  0  0
  -28.0913  -29.1264   21.1765 H   0  0  0  0  0  0
  -26.0965  -25.9886   18.9975 H   0  0  0  0  0  0
  -23.9882  -27.2960   19.0200 H   0  0  0  0  0  0
  -23.7113  -30.6026   19.4041 H   0  0  0  0  0  0
  -22.7304  -29.2452   19.8691 H   0  0  0  0  0  0
  -25.1282  -36.1976   25.0839 H   0  0  0  0  0  0
  -20.9942  -28.3234   24.1433 H   0  0  0  0  0  0
  -20.5720  -26.2254   23.3584 H   0  0  0  0  0  0
  -21.6667  -26.7475   22.1179 H   0  0  0  0  0  0
  -19.6971  -25.6278   21.1204 H   0  0  0  0  0  0
  -19.6728  -27.3192   20.6724 H   0  0  0  0  0  0
  -17.4223  -26.6629   21.3968 H   0  0  0  0  0  0
  -18.0337  -26.0017   22.8956 H   0  0  0  0  0  0
  -19.7956  -30.7196   24.2283 H   0  0  0  0  0  0
  -17.5037  -31.6247   24.5141 H   0  0  0  0  0  0
  -15.5359  -30.2960   23.7638 H   0  0  0  0  0  0
  -15.8662  -28.0797   22.7046 H   0  0  0  0  0  0
  -24.5938  -30.6995   25.7806 H   0  0  0  0  0  0
  -24.8933  -32.2818   26.4921 H   0  0  0  0  0  0
  -25.8134  -30.8844   27.0210 H   0  0  0  0  0  0
  -26.2851  -29.6792   24.1133 H   0  0  0  0  0  0
  -27.4224  -29.7299   25.4412 H   0  0  0  0  0  0
  -27.8615  -30.4402   23.9059 H   0  0  0  0  0  0
  -27.2708  -33.3584   26.2057 H   0  0  0  0  0  0
  -28.3880  -32.6855   25.0272 H   0  0  0  0  0  0
  -28.0753  -31.8386   26.5343 H   0  0  0  0  0  0
  -28.2583  -38.0144   24.7589 H   0  0  0  0  0  0
  -28.1137  -36.2679   24.6184 H   0  0  0  0  0  0
  -27.2329  -37.1323   25.8866 H   0  0  0  0  0  0
  -20.9299  -29.8693   21.6923 H   0  0  0  0  0  0
  -26.0195  -38.2860   24.1458 H   0  0  0  0  0  0
  -31.3846  -20.4535   22.1661 H   0  0  0  0  0  0
  -32.6366  -16.4221   21.5274 H   0  0  0  0  0  0
  -27.7258  -19.6745   22.5577 H   0  0  0  0  0  0
  -29.7868  -21.8197   21.8461 H   0  0  0  0  0  0
  -33.7347  -19.7901   22.4888 H   0  0  0  0  0  0
  -33.8639  -19.2735   20.8039 H   0  0  0  0  0  0
  -34.2626  -18.1511   22.1111 H   0  0  0  0  0  0
  -27.5906  -17.0669   22.7754 H   0  0  0  0  0  0
  -27.8466  -16.2690   21.2220 H   0  0  0  0  0  0
  -27.3556  -17.9276   21.2446 H   0  0  0  0  0  0
  -29.1155  -23.8815   22.9208 H   0  0  0  0  0  0
  -27.4497  -24.2587   23.2906 H   0  0  0  0  0  0
  -26.9246  -24.6361   20.9337 H   0  0  0  0  0  0
  -28.4750  -24.0235   20.4114 H   0  0  0  0  0  0
  -29.6563  -25.9133   21.4740 H   0  0  0  0  0  0
  -28.1739  -26.5215   22.1628 H   0  0  0  0  0  0
  -29.2624  -15.0213   21.8126 H   0  0  0  0  0  0
  1 25  1  0  0  0
  1 30  2  0  0  0
  1 85  1  0  0  0
  2  3  1  0  0  0
  2 25  1  0  0  0
  2 87  1  0  0  0
  2 88  1  0  0  0
  3  4  1  0  0  0
  3 89  1  0  0  0
  3 90  1  0  0  0
  4  5  1  0  0  0
  4 91  1  0  0  0
  4 92  1  0  0  0
  5  6  1  0  0  0
  5 26  1  0  0  0
  5 93  1  0  0  0
  6 25  1  0  0  0
  6 94  1  0  0  0
  6 95  1  0  0  0
  7  8  2  0  0  0
  7 26  1  0  0  0
  7 29  1  0  0  0
  8  9  1  0  0  0
  8 22  1  0  0  0
  9 10  1  0  0  0
  9 27  2  0  0  0
 10 11  2  0  0  0
 10 15  1  0  0  0
 11 12  1  0  0  0
 11 96  1  0  0  0
 12 13  2  0  0  0
 12 97  1  0  0  0
 13 14  1  0  0  0
 13 31  1  0  0  0
 14 15  2  0  0  0
 14 98  1  0  0  0
 15 99  1  0  0  0
 16 17  2  0  0  0
 16 21  1  0  0  0
 16 31  1  0  0  0
 17 18  1  0  0  0
 17100  1  0  0  0
 18 19  2  0  0  0
 18101  1  0  0  0
 19 20  1  0  0  0
 19 24  1  0  0  0
 20 21  2  0  0  0
 20102  1  0  0  0
 21 23  1  0  0  0
 22 28  1  0  0  0
 22 32  2  0  0  0
 26 27  1  0  0  0
 28103  1  0  0  0
 28104  1  0  0  0
 29105  1  0  0  0
 29106  1  0  0  0
 33 34  1  0  0  0
 33 66  1  0  0  0
 33 70  2  0  0  0
 34 36  1  0  0  0
 34 59  1  0  0  0
 34107  1  0  0  0
 35 44  2  0  0  0
 35 45  1  0  0  0
 35 68  1  0  0  0
 36 56  1  0  0  0
 36108  1  0  0  0
 37 39  1  0  0  0
 37 47  1  0  0  0
 37 66  1  0  0  0
 37109  1  0  0  0
 38 43  2  0  0  0
 38 46  1  0  0  0
 38 47  1  0  0  0
 39 64  1  0  0  0
 39 67  2  0  0  0
 40 52  1  0  0  0
 40 53  2  0  0  0
 40 58  1  0  0  0
 41110  1  0  0  0
 41111  1  0  0  0
 41112  1  0  0  0
 41 48  1  0  0  0
 42 43  1  0  0  0
 42 66  1  0  0  0
 42113  1  0  0  0
 42114  1  0  0  0
 43 44  1  0  0  0
 44115  1  0  0  0
 45 46  2  0  0  0
 45116  1  0  0  0
 46117  1  0  0  0
 47118  1  0  0  0
 47119  1  0  0  0
 48 56  1  0  0  0
 48 65  1  0  0  0
 48120  1  0  0  0
 49 50  1  0  0  0
 49 53  1  0  0  0
 49 64  1  0  0  0
 49121  1  0  0  0
 50 51  1  0  0  0
 50122  1  0  0  0
 50123  1  0  0  0
 51 52  1  0  0  0
 51124  1  0  0  0
 51125  1  0  0  0
 52126  1  0  0  0
 52127  1  0  0  0
 53 54  1  0  0  0
 54 55  2  0  0  0
 54128  1  0  0  0
 55 57  1  0  0  0
 55129  1  0  0  0
 56 69  2  0  0  0
 57 58  2  0  0  0
 57130  1  0  0  0
 58131  1  0  0  0
 59 60  1  0  0  0
 59 61  1  0  0  0
 59 62  1  0  0  0
 60132  1  0  0  0
 60133  1  0  0  0
 60134  1  0  0  0
 61135  1  0  0  0
 61136  1  0  0  0
 61137  1  0  0  0
 62138  1  0  0  0
 62139  1  0  0  0
 62140  1  0  0  0
 63 65  1  0  0  0
 63141  1  0  0  0
 63142  1  0  0  0
 63143  1  0  0  0
 64144  1  0  0  0
 65145  1  0  0  0
 68 84  1  0  0  0
 71 73  2  0  0  0
 71 74  1  0  0  0
 71146  1  0  0  0
 72 74  2  0  0  0
 72 76  1  0  0  0
 72147  1  0  0  0
 73 75  1  0  0  0
 73 77  1  0  0  0
 74 80  1  0  0  0
 75 76  2  0  0  0
 75 81  1  0  0  0
 76 85  1  0  0  0
 77 78  2  0  0  0
 77148  1  0  0  0
 78 79  1  0  0  0
 78149  1  0  0  0
 79 82  1  0  0  0
 79 86  2  0  0  0
 80150  1  0  0  0
 80151  1  0  0  0
 80152  1  0  0  0
 81153  1  0  0  0
 81154  1  0  0  0
 81155  1  0  0  0
 82 83  1  0  0  0
 82156  1  0  0  0
 82157  1  0  0  0
 83 84  1  0  0  0
 83158  1  0  0  0
 83159  1  0  0  0
 84160  1  0  0  0
 84161  1  0  0  0
 85162  1  0  0  0
M  ISO  4   1 100  68 101  84 101  85 100
M  END
> <chiral flag>
0

> <version>
0

> <s_m_source_file>
/data/baiqing/PycharmProjects/Reinvent-master-3.2/result/LINK_invent/BTK/process_docking_weight1_custom_product_contain_oxygen_bond_distance_aromatic_linkinvent_7_9_3/rearranged_h_0128.sdf

> <i_m_source_file_index>
33

> <r_mmod_Potential_Energy-OPLS-2005>
-97.258430480957

> <r_mmod_Stretch_Energy-OPLS-2005>
36.0194473266602

> <r_mmod_Bend_Energy-OPLS-2005>
87.4913787841797

> <r_mmod_Torsional_Energy-OPLS-2005>
242.444152832031

> <r_mmod_Improper_Torsional_Energy-OPLS-2005>
3.00115823745728

> <r_mmod_Van_der_Waal_Energy-OPLS-2005>
161.883666992188

> <r_mmod_Electrostatic_Energy-OPLS-2005>
-420.810394287109

> <r_mmod_Solvation_Energy-OPLS-2005>
-215.371673583984

> <b_mmod_Minimization_Converged-OPLS-2005>
0

> <r_mmod_RMS_Derivative-OPLS-2005>
2.06752371788025

$$$$
33
                    3D
 Structure written by MMmdl.
157165  0  0  1  0            999 V2000
  -30.6925  -14.4449   20.5764 C   0  0  0  0  0  0
  -30.4304  -12.2892   19.4188 C   0  0  0  0  0  0
  -29.5000  -12.5070   18.2073 C   0  0  0  0  0  0
  -28.0184  -12.3714   18.6151 C   0  0  0  0  0  0
  -27.6657  -13.1958   19.8820 C   0  0  2  0  0  0
  -28.7060  -12.9546   20.9998 C   0  0  0  0  0  0
  -25.2605  -13.8122   20.5682 C   0  0  0  0  0  0
  -24.1838  -13.0422   20.9171 C   0  0  0  0  0  0
  -24.6370  -11.6888   20.8703 C   0  0  0  0  0  0
  -23.9024  -10.4288   21.0388 C   0  0  0  0  0  0
  -24.3581   -9.4218   21.9178 C   0  0  0  0  0  0
  -23.6270   -8.2244   22.0755 C   0  0  0  0  0  0
  -22.4255   -8.0264   21.3541 C   0  0  0  0  0  0
  -21.9878   -9.0234   20.4645 C   0  0  0  0  0  0
  -22.7191  -10.2123   20.3054 C   0  0  0  0  0  0
  -21.6856   -6.0718   22.5276 C   0  0  0  0  0  0
  -21.4013   -6.5628   23.8204 C   0  0  0  0  0  0
  -21.3658   -5.6787   24.9172 C   0  0  0  0  0  0
  -21.6051   -4.3049   24.7234 C   0  0  0  0  0  0
  -21.8816   -3.8134   23.4355 C   0  0  0  0  0  0
  -21.9190   -4.6944   22.3407 C   0  0  0  0  0  0
  -22.7866  -13.5241   21.1834 C   0  0  0  0  0  0
  -22.1664   -4.2126   21.0985 F   0  0  0  0  0  0
  -21.5630   -3.4538   25.7748 F   0  0  0  0  0  0
  -30.0433  -13.2563   20.4564 N   0  0  0  0  0  0
  -26.3035  -12.9277   20.3376 N   0  0  0  0  0  0
  -25.9300  -11.6448   20.5750 N   0  0  0  0  0  0
  -22.0494  -12.8248   22.0391 N   0  0  0  0  0  0
  -25.4337  -15.1841   20.4117 N   0  0  0  0  0  0
  -31.8069  -14.6660   20.0921 O   0  0  0  0  0  0
  -21.6634   -6.8857   21.4237 O   0  0  0  0  0  0
  -22.3567  -14.5555   20.6689 O   0  0  0  0  0  0
  -24.6101  -31.8702   23.2142 C   0  0  0  0  0  0
  -25.9016  -32.4830   23.8410 C   0  0  1  0  0  0
  -27.2328  -27.4683   20.0940 C   0  0  0  0  0  0
  -25.5896  -33.8636   24.2334 N   0  0  0  0  0  0
  -23.3962  -30.4926   21.5527 C   0  0  2  0  0  0
  -24.8450  -28.9628   20.1142 C   0  0  0  0  0  0
  -22.7394  -29.4659   22.5022 C   0  0  0  0  0  0
  -18.0266  -28.1382   22.8487 C   0  0  0  0  0  0
  -24.1482  -36.7324   23.2635 C   0  0  0  0  0  0
  -25.9209  -30.8452   21.3624 C   0  0  0  0  0  0
  -26.0008  -29.4803   20.7133 C   0  0  0  0  0  0
  -27.1991  -28.7361   20.7079 C   0  0  0  0  0  0
  -26.0672  -26.9493   19.4984 C   0  0  0  0  0  0
  -24.8701  -27.6932   19.5059 C   0  0  0  0  0  0
  -23.6030  -29.8241   20.1661 C   0  0  0  0  0  0
  -25.4101  -36.3117   24.0334 C   0  0  1  0  0  0
  -20.5853  -28.3654   23.1340 C   0  0  2  0  0  0
  -20.6767  -26.9404   22.5421 C   0  0  0  0  0  0
  -19.5739  -26.6397   21.5214 C   0  0  0  0  0  0
  -18.1912  -26.7931   22.1622 C   0  0  0  0  0  0
  -19.1519  -28.8836   23.2906 C   0  0  0  0  0  0
  -18.9446  -30.1445   23.8915 C   0  0  0  0  0  0
  -17.6454  -30.6592   24.0570 C   0  0  0  0  0  0
  -25.9035  -34.9478   23.5130 C   0  0  0  0  0  0
  -16.5341  -29.9098   23.6328 C   0  0  0  0  0  0
  -16.7259  -28.6511   23.0344 C   0  0  0  0  0  0
  -26.4466  -31.6609   25.0723 C   0  0  0  0  0  0
  -25.3736  -31.3717   26.1474 C   0  0  0  0  0  0
  -27.0307  -30.3056   24.6088 C   0  0  0  0  0  0
  -27.6049  -32.4320   25.7482 C   0  0  0  0  0  0
  -27.5574  -37.1810   24.8462 C   0  0  0  0  0  0
  -21.4126  -29.3029   22.3753 N   0  0  0  0  0  0
  -26.4285  -37.3799   23.9411 N   0  0  0  0  0  0
  -24.6604  -31.0811   22.1026 N   0  0  0  0  0  0
  -23.4175  -28.8203   23.3056 O   0  0  0  0  0  0
  -28.3873  -26.7305   20.0600 O   0  0  0  0  0  0
  -26.5591  -34.8919   22.4684 O   0  0  0  0  0  0
  -23.5299  -32.1450   23.7551 O   0  0  0  0  0  0
  -30.6485  -17.7792   21.3253 C   0  0  0  0  0  0
  -29.6918  -19.4195   19.8031 C   0  0  0  0  0  0
  -29.0682  -17.0706   19.6113 C   0  0  0  0  0  0
  -30.5366  -19.1299   20.9002 C   0  0  0  0  0  0
  -29.9217  -16.7504   20.6889 C   0  0  0  0  0  0
  -28.9655  -18.3998   19.1645 C   0  0  0  0  0  0
  -30.8321  -21.6060   21.7957 C   0  0  0  0  0  0
  -29.5984  -22.1067   21.5818 C   0  0  0  0  0  0
  -31.2934  -20.2042   21.6075 C   0  0  0  0  0  0
  -29.2062  -23.5342   21.9270 C   0  0  0  0  0  0
  -28.9247  -24.4480   20.7219 C   0  0  0  0  0  0
  -28.5432  -25.8664   21.1812 C   0  0  0  0  0  0
  -32.4290  -19.9378   22.0966 N   0  0  0  0  0  0
  -29.9788  -15.4145   21.1691 N   0  0  0  0  0  0
  -28.1573  -18.6990   18.1197 F   0  0  0  0  0  0
  -31.4738  -12.3946   19.1158 H   0  0  0  0  0  0
  -30.3345  -11.2714   19.8007 H   0  0  0  0  0  0
  -29.7364  -11.7901   17.4204 H   0  0  0  0  0  0
  -29.6754  -13.4970   17.7822 H   0  0  0  0  0  0
  -27.8232  -11.3146   18.7989 H   0  0  0  0  0  0
  -27.3710  -12.6627   17.7877 H   0  0  0  0  0  0
  -27.7145  -14.2455   19.6008 H   0  0  0  0  0  0
  -28.6738  -11.9144   21.3258 H   0  0  0  0  0  0
  -28.4668  -13.5391   21.8887 H   0  0  0  0  0  0
  -25.2730   -9.5706   22.4759 H   0  0  0  0  0  0
  -23.9979   -7.4647   22.7485 H   0  0  0  0  0  0
  -21.0805   -8.8738   19.8968 H   0  0  0  0  0  0
  -22.3624  -10.9655   19.6164 H   0  0  0  0  0  0
  -21.2001   -7.6136   23.9698 H   0  0  0  0  0  0
  -21.1490   -6.0524   25.9069 H   0  0  0  0  0  0
  -22.0595   -2.7598   23.2866 H   0  0  0  0  0  0
  -22.4077  -11.9889   22.4786 H   0  0  0  0  0  0
  -21.1121  -13.1308   22.2598 H   0  0  0  0  0  0
  -24.6682  -15.8394   20.5267 H   0  0  0  0  0  0
  -26.2880  -15.6290   20.1056 H   0  0  0  0  0  0
  -26.7085  -32.5567   23.1179 H   0  0  0  0  0  0
  -25.0053  -33.9819   25.0482 H   0  0  0  0  0  0
  -22.6818  -31.3060   21.4163 H   0  0  0  0  0  0
  -23.3738  -35.9669   23.3306 H   0  0  0  0  0  0
  -24.3560  -36.8933   22.2046 H   0  0  0  0  0  0
  -23.7248  -37.6535   23.6649 H   0  0  0  0  0  0
  -26.0239  -31.6116   20.5935 H   0  0  0  0  0  0
  -26.8128  -30.9052   21.9736 H   0  0  0  0  0  0
  -28.0938  -29.1301   21.1697 H   0  0  0  0  0  0
  -26.0879  -25.9741   19.0333 H   0  0  0  0  0  0
  -23.9806  -27.2879   19.0449 H   0  0  0  0  0  0
  -23.7047  -30.6016   19.4080 H   0  0  0  0  0  0
  -22.7287  -29.2385   19.8744 H   0  0  0  0  0  0
  -25.1279  -36.1976   25.0829 H   0  0  0  0  0  0
  -20.9926  -28.3217   24.1468 H   0  0  0  0  0  0
  -20.5695  -26.2258   23.3592 H   0  0  0  0  0  0
  -21.6634  -26.7481   22.1194 H   0  0  0  0  0  0
  -19.6908  -25.6312   21.1222 H   0  0  0  0  0  0
  -19.6686  -27.3230   20.6750 H   0  0  0  0  0  0
  -17.4192  -26.6673   21.4020 H   0  0  0  0  0  0
  -18.0319  -26.0082   22.9021 H   0  0  0  0  0  0
  -19.7927  -30.7248   24.2295 H   0  0  0  0  0  0
  -17.5014  -31.6275   24.5166 H   0  0  0  0  0  0
  -15.5344  -30.3006   23.7651 H   0  0  0  0  0  0
  -15.8649  -28.0841   22.7053 H   0  0  0  0  0  0
  -24.5892  -30.7092   25.7787 H   0  0  0  0  0  0
  -24.8952  -32.2892   26.4925 H   0  0  0  0  0  0
  -25.8076  -30.8858   27.0228 H   0  0  0  0  0  0
  -26.2865  -29.6799   24.1146 H   0  0  0  0  0  0
  -27.4105  -29.7294   25.4540 H   0  0  0  0  0  0
  -27.8681  -30.4378   23.9225 H   0  0  0  0  0  0
  -27.2683  -33.3603   26.2111 H   0  0  0  0  0  0
  -28.3842  -32.6909   25.0299 H   0  0  0  0  0  0
  -28.0754  -31.8417   26.5357 H   0  0  0  0  0  0
  -28.2603  -38.0094   24.7506 H   0  0  0  0  0  0
  -28.1059  -36.2630   24.6297 H   0  0  0  0  0  0
  -27.2294  -37.1479   25.8864 H   0  0  0  0  0  0
  -20.9271  -29.8730   21.6971 H   0  0  0  0  0  0
  -26.0172  -38.2878   24.1416 H   0  0  0  0  0  0
  -31.2758  -17.5269   22.1696 H   0  0  0  0  0  0
  -29.6046  -20.4259   19.4220 H   0  0  0  0  0  0
  -28.4903  -16.3070   19.1129 H   0  0  0  0  0  0
  -31.5928  -22.2696   22.1853 H   0  0  0  0  0  0
  -28.8053  -21.4926   21.1855 H   0  0  0  0  0  0
  -29.9952  -23.9798   22.5364 H   0  0  0  0  0  0
  -28.3215  -23.4878   22.5639 H   0  0  0  0  0  0
  -28.1231  -24.0313   20.1097 H   0  0  0  0  0  0
  -29.8107  -24.5011   20.0868 H   0  0  0  0  0  0
  -27.6409  -25.8229   21.7971 H   0  0  0  0  0  0
  -29.3294  -26.2800   21.8167 H   0  0  0  0  0  0
  -32.6878  -18.9727   21.9224 H   0  0  0  0  0  0
  -29.1292  -15.0712   21.5922 H   0  0  0  0  0  0
  1 25  1  0  0  0
  1 30  2  0  0  0
  1 84  1  0  0  0
  2  3  1  0  0  0
  2 25  1  0  0  0
  2 86  1  0  0  0
  2 87  1  0  0  0
  3  4  1  0  0  0
  3 88  1  0  0  0
  3 89  1  0  0  0
  4  5  1  0  0  0
  4 90  1  0  0  0
  4 91  1  0  0  0
  5  6  1  0  0  0
  5 26  1  0  0  0
  5 92  1  0  0  0
  6 25  1  0  0  0
  6 93  1  0  0  0
  6 94  1  0  0  0
  7  8  2  0  0  0
  7 26  1  0  0  0
  7 29  1  0  0  0
  8  9  1  0  0  0
  8 22  1  0  0  0
  9 10  1  0  0  0
  9 27  2  0  0  0
 10 11  2  0  0  0
 10 15  1  0  0  0
 11 12  1  0  0  0
 11 95  1  0  0  0
 12 13  2  0  0  0
 12 96  1  0  0  0
 13 14  1  0  0  0
 13 31  1  0  0  0
 14 15  2  0  0  0
 14 97  1  0  0  0
 15 98  1  0  0  0
 16 17  2  0  0  0
 16 21  1  0  0  0
 16 31  1  0  0  0
 17 18  1  0  0  0
 17 99  1  0  0  0
 18 19  2  0  0  0
 18100  1  0  0  0
 19 20  1  0  0  0
 19 24  1  0  0  0
 20 21  2  0  0  0
 20101  1  0  0  0
 21 23  1  0  0  0
 22 28  1  0  0  0
 22 32  2  0  0  0
 26 27  1  0  0  0
 28102  1  0  0  0
 28103  1  0  0  0
 29104  1  0  0  0
 29105  1  0  0  0
 33 34  1  0  0  0
 33 66  1  0  0  0
 33 70  2  0  0  0
 34 36  1  0  0  0
 34 59  1  0  0  0
 34106  1  0  0  0
 35 44  2  0  0  0
 35 45  1  0  0  0
 35 68  1  0  0  0
 36 56  1  0  0  0
 36107  1  0  0  0
 37 39  1  0  0  0
 37 47  1  0  0  0
 37 66  1  0  0  0
 37108  1  0  0  0
 38 43  2  0  0  0
 38 46  1  0  0  0
 38 47  1  0  0  0
 39 64  1  0  0  0
 39 67  2  0  0  0
 40 52  1  0  0  0
 40 53  2  0  0  0
 40 58  1  0  0  0
 41109  1  0  0  0
 41110  1  0  0  0
 41111  1  0  0  0
 41 48  1  0  0  0
 42 43  1  0  0  0
 42 66  1  0  0  0
 42112  1  0  0  0
 42113  1  0  0  0
 43 44  1  0  0  0
 44114  1  0  0  0
 45 46  2  0  0  0
 45115  1  0  0  0
 46116  1  0  0  0
 47117  1  0  0  0
 47118  1  0  0  0
 48 56  1  0  0  0
 48 65  1  0  0  0
 48119  1  0  0  0
 49 50  1  0  0  0
 49 53  1  0  0  0
 49 64  1  0  0  0
 49120  1  0  0  0
 50 51  1  0  0  0
 50121  1  0  0  0
 50122  1  0  0  0
 51 52  1  0  0  0
 51123  1  0  0  0
 51124  1  0  0  0
 52125  1  0  0  0
 52126  1  0  0  0
 53 54  1  0  0  0
 54 55  2  0  0  0
 54127  1  0  0  0
 55 57  1  0  0  0
 55128  1  0  0  0
 56 69  2  0  0  0
 57 58  2  0  0  0
 57129  1  0  0  0
 58130  1  0  0  0
 59 60  1  0  0  0
 59 61  1  0  0  0
 59 62  1  0  0  0
 60131  1  0  0  0
 60132  1  0  0  0
 60133  1  0  0  0
 61134  1  0  0  0
 61135  1  0  0  0
 61136  1  0  0  0
 62137  1  0  0  0
 62138  1  0  0  0
 62139  1  0  0  0
 63 65  1  0  0  0
 63140  1  0  0  0
 63141  1  0  0  0
 63142  1  0  0  0
 64143  1  0  0  0
 65144  1  0  0  0
 68 82  1  0  0  0
 71 74  2  0  0  0
 71 75  1  0  0  0
 71145  1  0  0  0
 72 74  1  0  0  0
 72 76  2  0  0  0
 72146  1  0  0  0
 73 75  2  0  0  0
 73 76  1  0  0  0
 73147  1  0  0  0
 74 79  1  0  0  0
 75 84  1  0  0  0
 76 85  1  0  0  0
 77 78  2  0  0  0
 77 79  1  0  0  0
 77148  1  0  0  0
 78 80  1  0  0  0
 78149  1  0  0  0
 79 83  2  0  0  0
 80 81  1  0  0  0
 80150  1  0  0  0
 80151  1  0  0  0
 81 82  1  0  0  0
 81152  1  0  0  0
 81153  1  0  0  0
 82154  1  0  0  0
 82155  1  0  0  0
 83156  1  0  0  0
 84157  1  0  0  0
M  ISO  4   1 100  68 101  82 101  84 100
M  END
> <chiral flag>
0

> <version>
0

> <s_m_source_file>
/data/baiqing/PycharmProjects/Reinvent-master-3.2/result/LINK_invent/BTK/process_docking_weight1_custom_product_contain_oxygen_bond_distance_aromatic_linkinvent_7_9_3/rearranged_h_0128.sdf

> <i_m_source_file_index>
34

> <r_mmod_Potential_Energy-OPLS-2005>
-30.8051357269287

> <r_mmod_Stretch_Energy-OPLS-2005>
33.4576721191406

> <r_mmod_Bend_Energy-OPLS-2005>
93.6234817504883

> <r_mmod_Torsional_Energy-OPLS-2005>
275.873199462891

> <r_mmod_Improper_Torsional_Energy-OPLS-2005>
5.96163463592529

> <r_mmod_Van_der_Waal_Energy-OPLS-2005>
150.667984008789

> <r_mmod_Electrostatic_Energy-OPLS-2005>
-384.186431884766

> <r_mmod_Solvation_Energy-OPLS-2005>
-215.266372680664

> <b_mmod_Minimization_Converged-OPLS-2005>
0

> <r_mmod_RMS_Derivative-OPLS-2005>
2.82669639587402

$$$$
34
                    3D
 Structure written by MMmdl.
161169  0  0  1  0            999 V2000
  -30.6152  -14.6866   20.4830 C   0  0  0  0  0  0
  -30.4331  -12.4188   19.4714 C   0  0  0  0  0  0
  -29.5134  -12.5279   18.2344 C   0  0  0  0  0  0
  -28.0347  -12.3614   18.6380 C   0  0  0  0  0  0
  -27.6522  -13.2298   19.8667 C   0  0  2  0  0  0
  -28.6945  -13.1089   21.0016 C   0  0  0  0  0  0
  -25.2558  -13.8203   20.5701 C   0  0  0  0  0  0
  -24.1829  -13.0454   20.9184 C   0  0  0  0  0  0
  -24.6411  -11.6928   20.8731 C   0  0  0  0  0  0
  -23.9082  -10.4306   21.0402 C   0  0  0  0  0  0
  -24.3635   -9.4216   21.9179 C   0  0  0  0  0  0
  -23.6315   -8.2248   22.0748 C   0  0  0  0  0  0
  -22.4290   -8.0290   21.3542 C   0  0  0  0  0  0
  -21.9927   -9.0265   20.4644 C   0  0  0  0  0  0
  -22.7255  -10.2145   20.3056 C   0  0  0  0  0  0
  -21.6858   -6.0747   22.5288 C   0  0  0  0  0  0
  -21.4013   -6.5639   23.8225 C   0  0  0  0  0  0
  -21.3654   -5.6791   24.9181 C   0  0  0  0  0  0
  -21.6049   -4.3055   24.7227 C   0  0  0  0  0  0
  -21.8815   -3.8148   23.4345 C   0  0  0  0  0  0
  -21.9190   -4.6970   22.3406 C   0  0  0  0  0  0
  -22.7844  -13.5243   21.1846 C   0  0  0  0  0  0
  -22.1660   -4.2155   21.0982 F   0  0  0  0  0  0
  -21.5636   -3.4535   25.7738 F   0  0  0  0  0  0
  -30.0081  -13.4535   20.4421 N   0  0  0  0  0  0
  -26.2989  -12.9407   20.3338 N   0  0  0  0  0  0
  -25.9345  -11.6547   20.5755 N   0  0  0  0  0  0
  -22.0471  -12.8243   22.0398 N   0  0  0  0  0  0
  -25.4280  -15.1927   20.4123 N   0  0  0  0  0  0
  -31.7631  -14.8330   20.0534 O   0  0  0  0  0  0
  -21.6646   -6.8891   21.4252 O   0  0  0  0  0  0
  -22.3525  -14.5545   20.6683 O   0  0  0  0  0  0
  -24.6284  -31.8572   23.2007 C   0  0  0  0  0  0
  -25.9110  -32.4773   23.8349 C   0  0  1  0  0  0
  -27.2226  -27.2851   20.1156 C   0  0  0  0  0  0
  -25.5920  -33.8573   24.2270 N   0  0  0  0  0  0
  -23.4241  -30.4816   21.5430 C   0  0  2  0  0  0
  -24.8724  -28.9346   20.1093 C   0  0  0  0  0  0
  -22.7486  -29.4610   22.4905 C   0  0  0  0  0  0
  -18.0289  -28.1396   22.8481 C   0  0  0  0  0  0
  -24.1483  -36.7291   23.2635 C   0  0  0  0  0  0
  -25.9693  -30.7762   21.3786 C   0  0  0  0  0  0
  -26.0429  -29.4006   20.7217 C   0  0  0  0  0  0
  -27.2174  -28.5853   20.7215 C   0  0  0  0  0  0
  -26.0314  -26.8925   19.4596 C   0  0  0  0  0  0
  -24.8706  -27.6878   19.4698 C   0  0  0  0  0  0
  -23.6419  -29.8172   20.1583 C   0  0  0  0  0  0
  -25.4109  -36.3078   24.0323 C   0  0  1  0  0  0
  -20.5891  -28.3696   23.1275 C   0  0  2  0  0  0
  -20.6779  -26.9416   22.5407 C   0  0  0  0  0  0
  -19.5758  -26.6382   21.5207 C   0  0  0  0  0  0
  -18.1936  -26.7939   22.1619 C   0  0  0  0  0  0
  -19.1541  -28.8860   23.2880 C   0  0  0  0  0  0
  -18.9464  -30.1463   23.8895 C   0  0  0  0  0  0
  -17.6465  -30.6601   24.0559 C   0  0  0  0  0  0
  -25.9049  -34.9447   23.5103 C   0  0  0  0  0  0
  -16.5356  -29.9102   23.6328 C   0  0  0  0  0  0
  -16.7277  -28.6519   23.0352 C   0  0  0  0  0  0
  -26.4480  -31.6595   25.0731 C   0  0  0  0  0  0
  -25.3696  -31.3757   26.1446 C   0  0  0  0  0  0
  -27.0313  -30.3012   24.6201 C   0  0  0  0  0  0
  -27.6039  -32.4323   25.7514 C   0  0  0  0  0  0
  -27.5579  -37.1801   24.8460 C   0  0  0  0  0  0
  -21.4192  -29.3050   22.3661 N   0  0  0  0  0  0
  -26.4286  -37.3776   23.9413 N   0  0  0  0  0  0
  -24.6929  -31.0555   22.0977 N   0  0  0  0  0  0
  -23.4196  -28.8133   23.2975 O   0  0  0  0  0  0
  -28.3253  -26.4037   20.1881 O   0  0  0  0  0  0
  -26.5625  -34.8915   22.4670 O   0  0  0  0  0  0
  -23.5438  -32.1382   23.7319 O   0  0  0  0  0  0
  -28.8336  -19.4167   18.8045 C   0  0  0  0  0  0
  -29.7160  -18.3686   20.8153 C   0  0  0  0  0  0
  -29.1454  -16.9826   18.8978 C   0  0  0  0  0  0
  -29.3269  -19.5842   20.1178 C   0  0  0  0  0  0
  -28.7358  -18.1419   18.2061 C   0  0  0  0  0  0
  -29.6414  -17.0476   20.2182 C   0  0  0  0  0  0
  -29.4071  -21.0232   20.7052 C   0  0  0  0  0  0
  -26.0002  -18.0624   15.4170 C   0  0  0  0  0  0
  -28.1457  -18.0194   16.8112 C   0  0  0  0  0  0
  -28.8454  -22.2893   19.9123 C   0  0  0  0  0  0
  -26.6172  -18.1772   16.8177 C   0  0  0  0  0  0
  -29.0771  -23.7974   20.4480 C   0  0  0  0  0  0
  -28.1294  -24.9555   19.8659 C   0  0  0  0  0  0
  -29.8750  -15.7693   20.9121 N   0  0  0  0  0  0
  -29.8979  -21.2209   21.8194 O   0  0  0  0  0  0
  -31.4787  -12.5308   19.1802 H   0  0  0  0  0  0
  -30.3579  -11.4253   19.9165 H   0  0  0  0  0  0
  -29.7863  -11.7780   17.4906 H   0  0  0  0  0  0
  -29.6560  -13.4991   17.7572 H   0  0  0  0  0  0
  -27.8705  -11.3075   18.8657 H   0  0  0  0  0  0
  -27.3843  -12.5944   17.7935 H   0  0  0  0  0  0
  -27.6621  -14.2642   19.5219 H   0  0  0  0  0  0
  -28.7129  -12.0941   21.4022 H   0  0  0  0  0  0
  -28.4351  -13.7564   21.8398 H   0  0  0  0  0  0
  -25.2777   -9.5705   22.4753 H   0  0  0  0  0  0
  -24.0022   -7.4645   22.7469 H   0  0  0  0  0  0
  -21.0853   -8.8794   19.8960 H   0  0  0  0  0  0
  -22.3714  -10.9686   19.6168 H   0  0  0  0  0  0
  -21.2003   -7.6152   23.9732 H   0  0  0  0  0  0
  -21.1480   -6.0518   25.9090 H   0  0  0  0  0  0
  -22.0597   -2.7615   23.2839 H   0  0  0  0  0  0
  -22.4069  -11.9912   22.4822 H   0  0  0  0  0  0
  -21.1094  -13.1280   22.2592 H   0  0  0  0  0  0
  -24.6633  -15.8487   20.5252 H   0  0  0  0  0  0
  -26.2863  -15.6339   20.1060 H   0  0  0  0  0  0
  -26.7172  -32.5433   23.1090 H   0  0  0  0  0  0
  -25.0038  -33.9718   25.0398 H   0  0  0  0  0  0
  -22.7191  -31.3026   21.3978 H   0  0  0  0  0  0
  -23.3749  -35.9621   23.3289 H   0  0  0  0  0  0
  -24.3573  -36.8930   22.2053 H   0  0  0  0  0  0
  -23.7225  -37.6485   23.6664 H   0  0  0  0  0  0
  -26.0990  -31.5335   20.6042 H   0  0  0  0  0  0
  -26.8506  -30.8306   22.0060 H   0  0  0  0  0  0
  -28.1105  -28.9296   21.2244 H   0  0  0  0  0  0
  -25.9589  -25.9491   18.9389 H   0  0  0  0  0  0
  -23.9750  -27.3313   18.9802 H   0  0  0  0  0  0
  -23.7660  -30.5927   19.4017 H   0  0  0  0  0  0
  -22.7618  -29.2478   19.8532 H   0  0  0  0  0  0
  -25.1288  -36.1925   25.0815 H   0  0  0  0  0  0
  -20.9987  -28.3267   24.1394 H   0  0  0  0  0  0
  -20.5676  -26.2299   23.3603 H   0  0  0  0  0  0
  -21.6650  -26.7448   22.1201 H   0  0  0  0  0  0
  -19.6923  -25.6283   21.1256 H   0  0  0  0  0  0
  -19.6714  -27.3172   20.6721 H   0  0  0  0  0  0
  -17.4206  -26.6672   21.4028 H   0  0  0  0  0  0
  -18.0361  -26.0094   22.9030 H   0  0  0  0  0  0
  -19.7938  -30.7279   24.2269 H   0  0  0  0  0  0
  -17.5022  -31.6281   24.5163 H   0  0  0  0  0  0
  -15.5359  -30.3012   23.7652 H   0  0  0  0  0  0
  -15.8673  -28.0838   22.7080 H   0  0  0  0  0  0
  -24.5863  -30.7124   25.7762 H   0  0  0  0  0  0
  -24.8895  -32.2942   26.4837 H   0  0  0  0  0  0
  -25.7991  -30.8941   27.0239 H   0  0  0  0  0  0
  -26.2900  -29.6788   24.1176 H   0  0  0  0  0  0
  -27.3950  -29.7243   25.4713 H   0  0  0  0  0  0
  -27.8792  -30.4295   23.9469 H   0  0  0  0  0  0
  -27.2650  -33.3623   26.2088 H   0  0  0  0  0  0
  -28.3855  -32.6886   25.0352 H   0  0  0  0  0  0
  -28.0689  -31.8444   26.5437 H   0  0  0  0  0  0
  -28.2577  -38.0118   24.7524 H   0  0  0  0  0  0
  -28.1095  -36.2648   24.6258 H   0  0  0  0  0  0
  -27.2304  -37.1419   25.8864 H   0  0  0  0  0  0
  -20.9366  -29.8788   21.6889 H   0  0  0  0  0  0
  -26.0162  -38.2845   24.1440 H   0  0  0  0  0  0
  -28.5046  -20.2722   18.2322 H   0  0  0  0  0  0
  -30.0670  -18.4592   21.8341 H   0  0  0  0  0  0
  -29.0348  -16.0222   18.4134 H   0  0  0  0  0  0
  -24.9206  -18.2116   15.4542 H   0  0  0  0  0  0
  -26.1823  -17.0799   14.9809 H   0  0  0  0  0  0
  -26.4123  -18.8103   14.7384 H   0  0  0  0  0  0
  -28.4188  -17.0556   16.3780 H   0  0  0  0  0  0
  -28.5968  -18.7763   16.1683 H   0  0  0  0  0  0
  -27.7716  -22.1290   19.8215 H   0  0  0  0  0  0
  -29.2328  -22.2353   18.8950 H   0  0  0  0  0  0
  -26.1761  -17.4224   17.4703 H   0  0  0  0  0  0
  -26.3510  -19.1443   17.2465 H   0  0  0  0  0  0
  -30.1119  -24.0681   20.2390 H   0  0  0  0  0  0
  -28.9907  -23.8052   21.5352 H   0  0  0  0  0  0
  -27.1300  -24.6558   20.1811 H   0  0  0  0  0  0
  -28.1372  -24.8795   18.7770 H   0  0  0  0  0  0
  -29.1000  -15.4881   21.4953 H   0  0  0  0  0  0
  1 25  1  0  0  0
  1 30  2  0  0  0
  1 84  1  0  0  0
  2  3  1  0  0  0
  2 25  1  0  0  0
  2 86  1  0  0  0
  2 87  1  0  0  0
  3  4  1  0  0  0
  3 88  1  0  0  0
  3 89  1  0  0  0
  4  5  1  0  0  0
  4 90  1  0  0  0
  4 91  1  0  0  0
  5  6  1  0  0  0
  5 26  1  0  0  0
  5 92  1  0  0  0
  6 25  1  0  0  0
  6 93  1  0  0  0
  6 94  1  0  0  0
  7  8  2  0  0  0
  7 26  1  0  0  0
  7 29  1  0  0  0
  8  9  1  0  0  0
  8 22  1  0  0  0
  9 10  1  0  0  0
  9 27  2  0  0  0
 10 11  2  0  0  0
 10 15  1  0  0  0
 11 12  1  0  0  0
 11 95  1  0  0  0
 12 13  2  0  0  0
 12 96  1  0  0  0
 13 14  1  0  0  0
 13 31  1  0  0  0
 14 15  2  0  0  0
 14 97  1  0  0  0
 15 98  1  0  0  0
 16 17  2  0  0  0
 16 21  1  0  0  0
 16 31  1  0  0  0
 17 18  1  0  0  0
 17 99  1  0  0  0
 18 19  2  0  0  0
 18100  1  0  0  0
 19 20  1  0  0  0
 19 24  1  0  0  0
 20 21  2  0  0  0
 20101  1  0  0  0
 21 23  1  0  0  0
 22 28  1  0  0  0
 22 32  2  0  0  0
 26 27  1  0  0  0
 28102  1  0  0  0
 28103  1  0  0  0
 29104  1  0  0  0
 29105  1  0  0  0
 33 34  1  0  0  0
 33 66  1  0  0  0
 33 70  2  0  0  0
 34 36  1  0  0  0
 34 59  1  0  0  0
 34106  1  0  0  0
 35 44  2  0  0  0
 35 45  1  0  0  0
 35 68  1  0  0  0
 36 56  1  0  0  0
 36107  1  0  0  0
 37 39  1  0  0  0
 37 47  1  0  0  0
 37 66  1  0  0  0
 37108  1  0  0  0
 38 43  2  0  0  0
 38 46  1  0  0  0
 38 47  1  0  0  0
 39 64  1  0  0  0
 39 67  2  0  0  0
 40 52  1  0  0  0
 40 53  2  0  0  0
 40 58  1  0  0  0
 41109  1  0  0  0
 41110  1  0  0  0
 41111  1  0  0  0
 41 48  1  0  0  0
 42 43  1  0  0  0
 42 66  1  0  0  0
 42112  1  0  0  0
 42113  1  0  0  0
 43 44  1  0  0  0
 44114  1  0  0  0
 45 46  2  0  0  0
 45115  1  0  0  0
 46116  1  0  0  0
 47117  1  0  0  0
 47118  1  0  0  0
 48 56  1  0  0  0
 48 65  1  0  0  0
 48119  1  0  0  0
 49 50  1  0  0  0
 49 53  1  0  0  0
 49 64  1  0  0  0
 49120  1  0  0  0
 50 51  1  0  0  0
 50121  1  0  0  0
 50122  1  0  0  0
 51 52  1  0  0  0
 51123  1  0  0  0
 51124  1  0  0  0
 52125  1  0  0  0
 52126  1  0  0  0
 53 54  1  0  0  0
 54 55  2  0  0  0
 54127  1  0  0  0
 55 57  1  0  0  0
 55128  1  0  0  0
 56 69  2  0  0  0
 57 58  2  0  0  0
 57129  1  0  0  0
 58130  1  0  0  0
 59 60  1  0  0  0
 59 61  1  0  0  0
 59 62  1  0  0  0
 60131  1  0  0  0
 60132  1  0  0  0
 60133  1  0  0  0
 61134  1  0  0  0
 61135  1  0  0  0
 61136  1  0  0  0
 62137  1  0  0  0
 62138  1  0  0  0
 62139  1  0  0  0
 63 65  1  0  0  0
 63140  1  0  0  0
 63141  1  0  0  0
 63142  1  0  0  0
 64143  1  0  0  0
 65144  1  0  0  0
 68 83  1  0  0  0
 71 74  2  0  0  0
 71 75  1  0  0  0
 71145  1  0  0  0
 72 74  1  0  0  0
 72 76  2  0  0  0
 72146  1  0  0  0
 73 75  2  0  0  0
 73 76  1  0  0  0
 73147  1  0  0  0
 74 77  1  0  0  0
 75 79  1  0  0  0
 76 84  1  0  0  0
 77 80  1  0  0  0
 77 85  2  0  0  0
 78 81  1  0  0  0
 78148  1  0  0  0
 78149  1  0  0  0
 78150  1  0  0  0
 79 81  1  0  0  0
 79151  1  0  0  0
 79152  1  0  0  0
 80 82  1  0  0  0
 80153  1  0  0  0
 80154  1  0  0  0
 81155  1  0  0  0
 81156  1  0  0  0
 82 83  1  0  0  0
 82157  1  0  0  0
 82158  1  0  0  0
 83159  1  0  0  0
 83160  1  0  0  0
 84161  1  0  0  0
M  ISO  4   1 100  68 101  83 101  84 100
M  END
> <chiral flag>
0

> <version>
0

> <s_m_source_file>
/data/baiqing/PycharmProjects/Reinvent-master-3.2/result/LINK_invent/BTK/process_docking_weight1_custom_product_contain_oxygen_bond_distance_aromatic_linkinvent_7_9_3/rearranged_h_0128.sdf

> <i_m_source_file_index>
35

> <r_mmod_Potential_Energy-OPLS-2005>
127.460136413574

> <r_mmod_Stretch_Energy-OPLS-2005>
107.475379943848

> <r_mmod_Bend_Energy-OPLS-2005>
145.703598022461

> <r_mmod_Torsional_Energy-OPLS-2005>
265.430358886719

> <r_mmod_Improper_Torsional_Energy-OPLS-2005>
5.75783824920654

> <r_mmod_Van_der_Waal_Energy-OPLS-2005>
135.493392944336

> <r_mmod_Electrostatic_Energy-OPLS-2005>
-379.205902099609

> <r_mmod_Solvation_Energy-OPLS-2005>
-218.859558105469

> <b_mmod_Minimization_Converged-OPLS-2005>
0

> <r_mmod_RMS_Derivative-OPLS-2005>
1.76099252700806

$$$$
35
                    3D
 Structure written by MMmdl.
156164  0  0  1  0            999 V2000
  -30.6582  -14.4922   20.5227 C   0  0  0  0  0  0
  -30.4385  -12.2969   19.4219 C   0  0  0  0  0  0
  -29.5000  -12.4554   18.2050 C   0  0  0  0  0  0
  -28.0163  -12.3433   18.6191 C   0  0  0  0  0  0
  -27.6644  -13.1851   19.8764 C   0  0  2  0  0  0
  -28.7105  -12.9595   20.9904 C   0  0  0  0  0  0
  -25.2631  -13.8119   20.5669 C   0  0  0  0  0  0
  -24.1860  -13.0425   20.9167 C   0  0  0  0  0  0
  -24.6387  -11.6882   20.8751 C   0  0  0  0  0  0
  -23.9045  -10.4284   21.0424 C   0  0  0  0  0  0
  -24.3600   -9.4195   21.9198 C   0  0  0  0  0  0
  -23.6271   -8.2234   22.0764 C   0  0  0  0  0  0
  -22.4256   -8.0275   21.3545 C   0  0  0  0  0  0
  -21.9892   -9.0256   20.4655 C   0  0  0  0  0  0
  -22.7218  -10.2139   20.3065 C   0  0  0  0  0  0
  -21.6853   -6.0729   22.5279 C   0  0  0  0  0  0
  -21.4014   -6.5636   23.8216 C   0  0  0  0  0  0
  -21.3657   -5.6791   24.9178 C   0  0  0  0  0  0
  -21.6043   -4.3053   24.7233 C   0  0  0  0  0  0
  -21.8819   -3.8135   23.4360 C   0  0  0  0  0  0
  -21.9193   -4.6949   22.3413 C   0  0  0  0  0  0
  -22.7880  -13.5247   21.1805 C   0  0  0  0  0  0
  -22.1655   -4.2131   21.0992 F   0  0  0  0  0  0
  -21.5623   -3.4541   25.7750 F   0  0  0  0  0  0
  -30.0393  -13.2835   20.4364 N   0  0  0  0  0  0
  -26.3043  -12.9237   20.3385 N   0  0  0  0  0  0
  -25.9303  -11.6422   20.5804 N   0  0  0  0  0  0
  -22.0492  -12.8277   22.0367 N   0  0  0  0  0  0
  -25.4375  -15.1836   20.4060 N   0  0  0  0  0  0
  -31.7914  -14.7090   20.0800 O   0  0  0  0  0  0
  -21.6622   -6.8869   21.4245 O   0  0  0  0  0  0
  -22.3576  -14.5539   20.6617 O   0  0  0  0  0  0
  -24.6138  -31.8688   23.2106 C   0  0  0  0  0  0
  -25.9031  -32.4832   23.8401 C   0  0  1  0  0  0
  -27.2452  -27.4520   20.0742 C   0  0  0  0  0  0
  -25.5893  -33.8627   24.2325 N   0  0  0  0  0  0
  -23.4012  -30.4932   21.5497 C   0  0  2  0  0  0
  -24.8486  -28.9599   20.1139 C   0  0  0  0  0  0
  -22.7387  -29.4673   22.4977 C   0  0  0  0  0  0
  -18.0275  -28.1374   22.8493 C   0  0  0  0  0  0
  -24.1484  -36.7316   23.2639 C   0  0  0  0  0  0
  -25.9293  -30.8380   21.3629 C   0  0  0  0  0  0
  -26.0069  -29.4729   20.7093 C   0  0  0  0  0  0
  -27.2025  -28.7214   20.6946 C   0  0  0  0  0  0
  -26.0596  -26.9395   19.4974 C   0  0  0  0  0  0
  -24.8682  -27.6898   19.5115 C   0  0  0  0  0  0
  -23.6100  -29.8260   20.1639 C   0  0  0  0  0  0
  -25.4106  -36.3116   24.0332 C   0  0  1  0  0  0
  -20.5865  -28.3663   23.1322 C   0  0  2  0  0  0
  -20.6766  -26.9399   22.5421 C   0  0  0  0  0  0
  -19.5753  -26.6381   21.5212 C   0  0  0  0  0  0
  -18.1927  -26.7930   22.1614 C   0  0  0  0  0  0
  -19.1523  -28.8832   23.2917 C   0  0  0  0  0  0
  -18.9453  -30.1433   23.8939 C   0  0  0  0  0  0
  -17.6455  -30.6586   24.0571 C   0  0  0  0  0  0
  -25.9030  -34.9482   23.5126 C   0  0  0  0  0  0
  -16.5347  -29.9090   23.6328 C   0  0  0  0  0  0
  -16.7262  -28.6504   23.0357 C   0  0  0  0  0  0
  -26.4470  -31.6616   25.0724 C   0  0  0  0  0  0
  -25.3741  -31.3749   26.1481 C   0  0  0  0  0  0
  -27.0285  -30.3054   24.6105 C   0  0  0  0  0  0
  -27.6055  -32.4331   25.7479 C   0  0  0  0  0  0
  -27.5579  -37.1813   24.8456 C   0  0  0  0  0  0
  -21.4122  -29.3035   22.3712 N   0  0  0  0  0  0
  -26.4297  -37.3791   23.9398 N   0  0  0  0  0  0
  -24.6660  -31.0799   22.1000 N   0  0  0  0  0  0
  -23.4159  -28.8227   23.3029 O   0  0  0  0  0  0
  -28.4322  -26.7487   20.1070 O   0  0  0  0  0  0
  -26.5593  -34.8930   22.4687 O   0  0  0  0  0  0
  -23.5332  -32.1436   23.7501 O   0  0  0  0  0  0
  -29.7228  -19.2010   21.3524 C   0  0  0  0  0  0
  -30.0160  -17.8395   21.6063 C   0  0  0  0  0  0
  -29.0112  -18.6144   19.1143 C   0  0  0  0  0  0
  -29.1539  -19.5881   20.1201 C   0  0  0  0  0  0
  -29.3391  -17.2608   19.3381 C   0  0  0  0  0  0
  -29.8060  -16.8481   20.6184 C   0  0  0  0  0  0
  -28.6988  -20.9591   19.8131 C   0  0  0  0  0  0
  -29.1485  -22.1221   20.3266 C   0  0  0  0  0  0
  -28.5266  -23.3991   19.9181 C   0  0  0  0  0  0
  -29.1245  -16.3098   18.1757 C   0  0  0  0  0  0
  -29.4581  -24.5746   19.5880 C   0  0  0  0  0  0
  -28.7741  -25.8523   19.0434 C   0  0  0  0  0  0
  -29.8769  -15.4746   21.0116 N   0  0  0  0  0  0
  -27.3025  -23.5278   19.8117 O   0  0  0  0  0  0
  -31.4771  -12.4198   19.1109 H   0  0  0  0  0  0
  -30.3691  -11.2878   19.8336 H   0  0  0  0  0  0
  -29.7317  -11.6897   17.4620 H   0  0  0  0  0  0
  -29.6785  -13.4066   17.7078 H   0  0  0  0  0  0
  -27.8133  -11.2903   18.8164 H   0  0  0  0  0  0
  -27.3718  -12.6189   17.7832 H   0  0  0  0  0  0
  -27.7072  -14.2302   19.5883 H   0  0  0  0  0  0
  -28.6936  -11.9178   21.3147 H   0  0  0  0  0  0
  -28.4718  -13.5437   21.8793 H   0  0  0  0  0  0
  -25.2761   -9.5657   22.4758 H   0  0  0  0  0  0
  -23.9980   -7.4629   22.7482 H   0  0  0  0  0  0
  -21.0821   -8.8773   19.8973 H   0  0  0  0  0  0
  -22.3684  -10.9672   19.6160 H   0  0  0  0  0  0
  -21.2008   -7.6143   23.9720 H   0  0  0  0  0  0
  -21.1470   -6.0517   25.9081 H   0  0  0  0  0  0
  -22.0599   -2.7590   23.2874 H   0  0  0  0  0  0
  -22.4096  -11.9965   22.4818 H   0  0  0  0  0  0
  -21.1111  -13.1332   22.2539 H   0  0  0  0  0  0
  -24.6718  -15.8392   20.5134 H   0  0  0  0  0  0
  -26.2935  -15.6226   20.0892 H   0  0  0  0  0  0
  -26.7103  -32.5549   23.1169 H   0  0  0  0  0  0
  -25.0056  -33.9795   25.0482 H   0  0  0  0  0  0
  -22.6921  -31.3113   21.4102 H   0  0  0  0  0  0
  -23.3731  -35.9664   23.3320 H   0  0  0  0  0  0
  -24.3584  -36.8905   22.2051 H   0  0  0  0  0  0
  -23.7253  -37.6533   23.6640 H   0  0  0  0  0  0
  -26.0416  -31.6064   20.5964 H   0  0  0  0  0  0
  -26.8175  -30.8916   21.9809 H   0  0  0  0  0  0
  -28.0989  -29.1163   21.1532 H   0  0  0  0  0  0
  -26.0253  -25.9547   19.0562 H   0  0  0  0  0  0
  -23.9724  -27.2815   19.0648 H   0  0  0  0  0  0
  -23.7193  -30.6028   19.4066 H   0  0  0  0  0  0
  -22.7346  -29.2468   19.8654 H   0  0  0  0  0  0
  -25.1287  -36.1989   25.0827 H   0  0  0  0  0  0
  -20.9974  -28.3238   24.1437 H   0  0  0  0  0  0
  -20.5669  -26.2266   23.3599 H   0  0  0  0  0  0
  -21.6642  -26.7446   22.1224 H   0  0  0  0  0  0
  -19.6918  -25.6296   21.1232 H   0  0  0  0  0  0
  -19.6713  -27.3201   20.6752 H   0  0  0  0  0  0
  -17.4201  -26.6690   21.4010 H   0  0  0  0  0  0
  -18.0325  -26.0065   22.9001 H   0  0  0  0  0  0
  -19.7926  -30.7240   24.2337 H   0  0  0  0  0  0
  -17.5011  -31.6281   24.5145 H   0  0  0  0  0  0
  -15.5348  -30.3014   23.7631 H   0  0  0  0  0  0
  -15.8659  -28.0833   22.7067 H   0  0  0  0  0  0
  -24.5889  -30.7124   25.7823 H   0  0  0  0  0  0
  -24.8972  -32.2922   26.4943 H   0  0  0  0  0  0
  -25.8094  -30.8902   27.0227 H   0  0  0  0  0  0
  -26.2824  -29.6828   24.1153 H   0  0  0  0  0  0
  -27.4033  -29.7297   25.4577 H   0  0  0  0  0  0
  -27.8674  -30.4363   23.9266 H   0  0  0  0  0  0
  -27.2680  -33.3617   26.2096 H   0  0  0  0  0  0
  -28.3847  -32.6906   25.0292 H   0  0  0  0  0  0
  -28.0738  -31.8424   26.5361 H   0  0  0  0  0  0
  -28.2614  -38.0092   24.7479 H   0  0  0  0  0  0
  -28.1054  -36.2622   24.6310 H   0  0  0  0  0  0
  -27.2293  -37.1496   25.8859 H   0  0  0  0  0  0
  -20.9253  -29.8750   21.6947 H   0  0  0  0  0  0
  -26.0183  -38.2869   24.1394 H   0  0  0  0  0  0
  -29.8709  -19.9302   22.1368 H   0  0  0  0  0  0
  -30.3696  -17.5570   22.5886 H   0  0  0  0  0  0
  -28.6110  -18.9093   18.1542 H   0  0  0  0  0  0
  -27.8834  -21.0117   19.1019 H   0  0  0  0  0  0
  -29.9643  -22.1530   21.0334 H   0  0  0  0  0  0
  -29.1889  -16.8469   17.2290 H   0  0  0  0  0  0
  -28.1365  -15.8553   18.2164 H   0  0  0  0  0  0
  -29.8922  -15.5434   18.1390 H   0  0  0  0  0  0
  -30.1449  -24.2068   18.8252 H   0  0  0  0  0  0
  -30.0688  -24.8127   20.4585 H   0  0  0  0  0  0
  -27.9636  -25.6012   18.3617 H   0  0  0  0  0  0
  -29.4948  -26.3826   18.4202 H   0  0  0  0  0  0
  -29.0455  -15.1280   21.4651 H   0  0  0  0  0  0
  1 25  1  0  0  0
  1 30  2  0  0  0
  1 83  1  0  0  0
  2  3  1  0  0  0
  2 25  1  0  0  0
  2 85  1  0  0  0
  2 86  1  0  0  0
  3  4  1  0  0  0
  3 87  1  0  0  0
  3 88  1  0  0  0
  4  5  1  0  0  0
  4 89  1  0  0  0
  4 90  1  0  0  0
  5  6  1  0  0  0
  5 26  1  0  0  0
  5 91  1  0  0  0
  6 25  1  0  0  0
  6 92  1  0  0  0
  6 93  1  0  0  0
  7  8  2  0  0  0
  7 26  1  0  0  0
  7 29  1  0  0  0
  8  9  1  0  0  0
  8 22  1  0  0  0
  9 10  1  0  0  0
  9 27  2  0  0  0
 10 11  2  0  0  0
 10 15  1  0  0  0
 11 12  1  0  0  0
 11 94  1  0  0  0
 12 13  2  0  0  0
 12 95  1  0  0  0
 13 14  1  0  0  0
 13 31  1  0  0  0
 14 15  2  0  0  0
 14 96  1  0  0  0
 15 97  1  0  0  0
 16 17  2  0  0  0
 16 21  1  0  0  0
 16 31  1  0  0  0
 17 18  1  0  0  0
 17 98  1  0  0  0
 18 19  2  0  0  0
 18 99  1  0  0  0
 19 20  1  0  0  0
 19 24  1  0  0  0
 20 21  2  0  0  0
 20100  1  0  0  0
 21 23  1  0  0  0
 22 28  1  0  0  0
 22 32  2  0  0  0
 26 27  1  0  0  0
 28101  1  0  0  0
 28102  1  0  0  0
 29103  1  0  0  0
 29104  1  0  0  0
 33 34  1  0  0  0
 33 66  1  0  0  0
 33 70  2  0  0  0
 34 36  1  0  0  0
 34 59  1  0  0  0
 34105  1  0  0  0
 35 44  2  0  0  0
 35 45  1  0  0  0
 35 68  1  0  0  0
 36 56  1  0  0  0
 36106  1  0  0  0
 37 39  1  0  0  0
 37 47  1  0  0  0
 37 66  1  0  0  0
 37107  1  0  0  0
 38 43  2  0  0  0
 38 46  1  0  0  0
 38 47  1  0  0  0
 39 64  1  0  0  0
 39 67  2  0  0  0
 40 52  1  0  0  0
 40 53  2  0  0  0
 40 58  1  0  0  0
 41108  1  0  0  0
 41109  1  0  0  0
 41110  1  0  0  0
 41 48  1  0  0  0
 42 43  1  0  0  0
 42 66  1  0  0  0
 42111  1  0  0  0
 42112  1  0  0  0
 43 44  1  0  0  0
 44113  1  0  0  0
 45 46  2  0  0  0
 45114  1  0  0  0
 46115  1  0  0  0
 47116  1  0  0  0
 47117  1  0  0  0
 48 56  1  0  0  0
 48 65  1  0  0  0
 48118  1  0  0  0
 49 50  1  0  0  0
 49 53  1  0  0  0
 49 64  1  0  0  0
 49119  1  0  0  0
 50 51  1  0  0  0
 50120  1  0  0  0
 50121  1  0  0  0
 51 52  1  0  0  0
 51122  1  0  0  0
 51123  1  0  0  0
 52124  1  0  0  0
 52125  1  0  0  0
 53 54  1  0  0  0
 54 55  2  0  0  0
 54126  1  0  0  0
 55 57  1  0  0  0
 55127  1  0  0  0
 56 69  2  0  0  0
 57 58  2  0  0  0
 57128  1  0  0  0
 58129  1  0  0  0
 59 60  1  0  0  0
 59 61  1  0  0  0
 59 62  1  0  0  0
 60130  1  0  0  0
 60131  1  0  0  0
 60132  1  0  0  0
 61133  1  0  0  0
 61134  1  0  0  0
 61135  1  0  0  0
 62136  1  0  0  0
 62137  1  0  0  0
 62138  1  0  0  0
 63 65  1  0  0  0
 63139  1  0  0  0
 63140  1  0  0  0
 63141  1  0  0  0
 64142  1  0  0  0
 65143  1  0  0  0
 68 82  1  0  0  0
 71 72  2  0  0  0
 71 74  1  0  0  0
 71144  1  0  0  0
 72 76  1  0  0  0
 72145  1  0  0  0
 73 74  2  0  0  0
 73 75  1  0  0  0
 73146  1  0  0  0
 74 77  1  0  0  0
 75 76  2  0  0  0
 75 80  1  0  0  0
 76 83  1  0  0  0
 77 78  2  0  0  0
 77147  1  0  0  0
 78 79  1  0  0  0
 78148  1  0  0  0
 79 81  1  0  0  0
 79 84  2  0  0  0
 80149  1  0  0  0
 80150  1  0  0  0
 80151  1  0  0  0
 81 82  1  0  0  0
 81152  1  0  0  0
 81153  1  0  0  0
 82154  1  0  0  0
 82155  1  0  0  0
 83156  1  0  0  0
M  ISO  4   1 100  68 101  82 101  83 100
M  END
> <chiral flag>
0

> <version>
0

> <s_m_source_file>
/data/baiqing/PycharmProjects/Reinvent-master-3.2/result/LINK_invent/BTK/process_docking_weight1_custom_product_contain_oxygen_bond_distance_aromatic_linkinvent_7_9_3/rearranged_h_0128.sdf

> <i_m_source_file_index>
36

> <r_mmod_Potential_Energy-OPLS-2005>
-59.3652038574219

> <r_mmod_Stretch_Energy-OPLS-2005>
36.3092384338379

> <r_mmod_Bend_Energy-OPLS-2005>
108.339660644531

> <r_mmod_Torsional_Energy-OPLS-2005>
262.227203369141

> <r_mmod_Improper_Torsional_Energy-OPLS-2005>
5.78116083145142

> <r_mmod_Van_der_Waal_Energy-OPLS-2005>
149.776794433594

> <r_mmod_Electrostatic_Energy-OPLS-2005>
-414.931213378906

> <r_mmod_Solvation_Energy-OPLS-2005>
-221.922424316406

> <b_mmod_Minimization_Converged-OPLS-2005>
0

> <r_mmod_RMS_Derivative-OPLS-2005>
2.05210542678833

$$$$
36
                    3D
 Structure written by MMmdl.
154162  0  0  1  0            999 V2000
  -30.6717  -14.5198   20.5092 C   0  0  0  0  0  0
  -30.4248  -12.3206   19.4375 C   0  0  0  0  0  0
  -29.5003  -12.5091   18.2143 C   0  0  0  0  0  0
  -28.0191  -12.3763   18.6179 C   0  0  0  0  0  0
  -27.6605  -13.2157   19.8734 C   0  0  2  0  0  0
  -28.7032  -13.0170   20.9983 C   0  0  0  0  0  0
  -25.2590  -13.8188   20.5680 C   0  0  0  0  0  0
  -24.1848  -13.0457   20.9174 C   0  0  0  0  0  0
  -24.6410  -11.6927   20.8731 C   0  0  0  0  0  0
  -23.9079  -10.4311   21.0397 C   0  0  0  0  0  0
  -24.3628   -9.4228   21.9172 C   0  0  0  0  0  0
  -23.6308   -8.2260   22.0740 C   0  0  0  0  0  0
  -22.4285   -8.0289   21.3537 C   0  0  0  0  0  0
  -21.9927   -9.0264   20.4639 C   0  0  0  0  0  0
  -22.7254  -10.2145   20.3051 C   0  0  0  0  0  0
  -21.6864   -6.0743   22.5277 C   0  0  0  0  0  0
  -21.4022   -6.5644   23.8213 C   0  0  0  0  0  0
  -21.3667   -5.6790   24.9174 C   0  0  0  0  0  0
  -21.6052   -4.3053   24.7221 C   0  0  0  0  0  0
  -21.8821   -3.8145   23.4341 C   0  0  0  0  0  0
  -21.9197   -4.6969   22.3400 C   0  0  0  0  0  0
  -22.7868  -13.5247   21.1827 C   0  0  0  0  0  0
  -22.1657   -4.2151   21.0981 F   0  0  0  0  0  0
  -21.5634   -3.4537   25.7736 F   0  0  0  0  0  0
  -30.0332  -13.3180   20.4470 N   0  0  0  0  0  0
  -26.3026  -12.9368   20.3358 N   0  0  0  0  0  0
  -25.9344  -11.6525   20.5769 N   0  0  0  0  0  0
  -22.0498  -12.8259   22.0395 N   0  0  0  0  0  0
  -25.4333  -15.1905   20.4091 N   0  0  0  0  0  0
  -31.8181  -14.6858   20.0835 O   0  0  0  0  0  0
  -21.6651   -6.8880   21.4235 O   0  0  0  0  0  0
  -22.3561  -14.5541   20.6650 O   0  0  0  0  0  0
  -24.6157  -31.8648   23.2073 C   0  0  0  0  0  0
  -25.9037  -32.4798   23.8375 C   0  0  1  0  0  0
  -27.2313  -27.4034   20.0962 C   0  0  0  0  0  0
  -25.5877  -33.8599   24.2303 N   0  0  0  0  0  0
  -23.4048  -30.4887   21.5476 C   0  0  2  0  0  0
  -24.8500  -28.9500   20.1104 C   0  0  0  0  0  0
  -22.7416  -29.4643   22.4969 C   0  0  0  0  0  0
  -18.0267  -28.1371   22.8496 C   0  0  0  0  0  0
  -24.1480  -36.7322   23.2643 C   0  0  0  0  0  0
  -25.9359  -30.8187   21.3667 C   0  0  0  0  0  0
  -26.0096  -29.4518   20.7124 C   0  0  0  0  0  0
  -27.1988  -28.6837   20.7043 C   0  0  0  0  0  0
  -26.0519  -26.9259   19.4797 C   0  0  0  0  0  0
  -24.8672  -27.6876   19.4921 C   0  0  0  0  0  0
  -23.6134  -29.8205   20.1615 C   0  0  0  0  0  0
  -25.4100  -36.3105   24.0339 C   0  0  1  0  0  0
  -20.5859  -28.3653   23.1312 C   0  0  2  0  0  0
  -20.6743  -26.9385   22.5413 C   0  0  0  0  0  0
  -19.5726  -26.6371   21.5208 C   0  0  0  0  0  0
  -18.1912  -26.7915   22.1630 C   0  0  0  0  0  0
  -19.1517  -28.8829   23.2904 C   0  0  0  0  0  0
  -18.9452  -30.1439   23.8914 C   0  0  0  0  0  0
  -17.6455  -30.6584   24.0559 C   0  0  0  0  0  0
  -25.9029  -34.9468   23.5126 C   0  0  0  0  0  0
  -16.5346  -29.9091   23.6318 C   0  0  0  0  0  0
  -16.7255  -28.6501   23.0349 C   0  0  0  0  0  0
  -26.4456  -31.6594   25.0724 C   0  0  0  0  0  0
  -25.3728  -31.3701   26.1481 C   0  0  0  0  0  0
  -27.0278  -30.3026   24.6125 C   0  0  0  0  0  0
  -27.6022  -32.4325   25.7492 C   0  0  0  0  0  0
  -27.5578  -37.1812   24.8462 C   0  0  0  0  0  0
  -21.4136  -29.3023   22.3718 N   0  0  0  0  0  0
  -26.4286  -37.3793   23.9414 N   0  0  0  0  0  0
  -24.6703  -31.0730   22.0984 N   0  0  0  0  0  0
  -23.4185  -28.8196   23.3024 O   0  0  0  0  0  0
  -28.4065  -26.6698   20.1474 O   0  0  0  0  0  0
  -26.5609  -34.8927   22.4701 O   0  0  0  0  0  0
  -23.5346  -32.1413   23.7462 O   0  0  0  0  0  0
  -29.4952  -18.0304   20.9840 C   0  0  0  0  0  0
  -29.5074  -19.3619   18.9457 C   0  0  0  0  0  0
  -30.0478  -16.9815   18.8589 C   0  0  0  0  0  0
  -29.3357  -19.3001   20.3456 C   0  0  0  0  0  0
  -29.8508  -16.8608   20.2560 C   0  0  0  0  0  0
  -29.8712  -18.2195   18.2125 C   0  0  0  0  0  0
  -28.2957  -21.7206   20.4780 C   0  0  0  0  0  0
  -28.4866  -23.0214   20.8185 C   0  0  0  0  0  0
  -28.9816  -20.5472   21.1064 C   0  0  0  0  0  0
  -27.6881  -24.2189   20.2775 C   0  0  0  0  0  0
  -28.5005  -25.3465   19.5728 C   0  0  0  0  0  0
  -29.2511  -20.6283   22.3406 N   0  0  0  0  0  0
  -29.9193  -15.5740   20.9056 N   0  0  0  0  0  0
  -30.0484  -18.3129   16.8727 F   0  0  0  0  0  0
  -31.4697  -12.4209   19.1380 H   0  0  0  0  0  0
  -30.3251  -11.3133   19.8443 H   0  0  0  0  0  0
  -29.7436  -11.7794   17.4415 H   0  0  0  0  0  0
  -29.6733  -13.4919   17.7706 H   0  0  0  0  0  0
  -27.8200  -11.3213   18.8071 H   0  0  0  0  0  0
  -27.3773  -12.6614   17.7825 H   0  0  0  0  0  0
  -27.6953  -14.2618   19.5681 H   0  0  0  0  0  0
  -28.6809  -11.9876   21.3599 H   0  0  0  0  0  0
  -28.4704  -13.6416   21.8623 H   0  0  0  0  0  0
  -25.2766   -9.5713   22.4756 H   0  0  0  0  0  0
  -24.0020   -7.4658   22.7474 H   0  0  0  0  0  0
  -21.0852   -8.8795   19.8950 H   0  0  0  0  0  0
  -22.3705  -10.9688   19.6170 H   0  0  0  0  0  0
  -21.2008   -7.6152   23.9719 H   0  0  0  0  0  0
  -21.1487   -6.0519   25.9080 H   0  0  0  0  0  0
  -22.0587   -2.7606   23.2845 H   0  0  0  0  0  0
  -22.4097  -11.9939   22.4835 H   0  0  0  0  0  0
  -21.1098  -13.1284   22.2537 H   0  0  0  0  0  0
  -24.6731  -15.8519   20.5230 H   0  0  0  0  0  0
  -26.2933  -15.6237   20.0968 H   0  0  0  0  0  0
  -26.7105  -32.5491   23.1132 H   0  0  0  0  0  0
  -24.9967  -33.9742   25.0406 H   0  0  0  0  0  0
  -22.6941  -31.3064   21.4074 H   0  0  0  0  0  0
  -23.3735  -35.9662   23.3302 H   0  0  0  0  0  0
  -24.3575  -36.8945   22.2059 H   0  0  0  0  0  0
  -23.7237  -37.6528   23.6658 H   0  0  0  0  0  0
  -26.0562  -31.5843   20.5988 H   0  0  0  0  0  0
  -26.8217  -30.8673   21.9893 H   0  0  0  0  0  0
  -28.0920  -29.0655   21.1781 H   0  0  0  0  0  0
  -26.0237  -25.9631   18.9932 H   0  0  0  0  0  0
  -23.9749  -27.2971   19.0217 H   0  0  0  0  0  0
  -23.7237  -30.5956   19.4019 H   0  0  0  0  0  0
  -22.7360  -29.2439   19.8656 H   0  0  0  0  0  0
  -25.1276  -36.1968   25.0831 H   0  0  0  0  0  0
  -20.9949  -28.3205   24.1435 H   0  0  0  0  0  0
  -20.5623  -26.2263   23.3602 H   0  0  0  0  0  0
  -21.6616  -26.7410   22.1219 H   0  0  0  0  0  0
  -19.6877  -25.6288   21.1230 H   0  0  0  0  0  0
  -19.6659  -27.3187   20.6746 H   0  0  0  0  0  0
  -17.4169  -26.6663   21.4039 H   0  0  0  0  0  0
  -18.0319  -26.0055   22.9030 H   0  0  0  0  0  0
  -19.7932  -30.7241   24.2293 H   0  0  0  0  0  0
  -17.5017  -31.6266   24.5156 H   0  0  0  0  0  0
  -15.5347  -30.3007   23.7622 H   0  0  0  0  0  0
  -15.8656  -28.0826   22.7061 H   0  0  0  0  0  0
  -24.5897  -30.7042   25.7840 H   0  0  0  0  0  0
  -24.8920  -32.2849   26.4955 H   0  0  0  0  0  0
  -25.8097  -30.8866   27.0228 H   0  0  0  0  0  0
  -26.2820  -29.6805   24.1158 H   0  0  0  0  0  0
  -27.3999  -29.7250   25.4598 H   0  0  0  0  0  0
  -27.8682  -30.4327   23.9303 H   0  0  0  0  0  0
  -27.2618  -33.3607   26.2095 H   0  0  0  0  0  0
  -28.3815  -32.6919   25.0314 H   0  0  0  0  0  0
  -28.0705  -31.8438   26.5391 H   0  0  0  0  0  0
  -28.2595  -38.0112   24.7512 H   0  0  0  0  0  0
  -28.1073  -36.2643   24.6272 H   0  0  0  0  0  0
  -27.2299  -37.1448   25.8866 H   0  0  0  0  0  0
  -20.9294  -29.8765   21.6960 H   0  0  0  0  0  0
  -26.0174  -38.2871   24.1419 H   0  0  0  0  0  0
  -29.3311  -17.9499   22.0487 H   0  0  0  0  0  0
  -29.3876  -20.2976   18.4184 H   0  0  0  0  0  0
  -30.3118  -16.1261   18.2548 H   0  0  0  0  0  0
  -27.5789  -21.4602   19.7126 H   0  0  0  0  0  0
  -29.2289  -23.2620   21.5669 H   0  0  0  0  0  0
  -27.1351  -24.6414   21.1171 H   0  0  0  0  0  0
  -26.9314  -23.8441   19.5870 H   0  0  0  0  0  0
  -28.2432  -25.3946   18.5142 H   0  0  0  0  0  0
  -29.5577  -25.0786   19.5901 H   0  0  0  0  0  0
  -29.7188  -19.7912   22.6690 H   0  0  0  0  0  0
  -29.1293  -15.3423   21.4896 H   0  0  0  0  0  0
  1 25  1  0  0  0
  1 30  2  0  0  0
  1 83  1  0  0  0
  2  3  1  0  0  0
  2 25  1  0  0  0
  2 85  1  0  0  0
  2 86  1  0  0  0
  3  4  1  0  0  0
  3 87  1  0  0  0
  3 88  1  0  0  0
  4  5  1  0  0  0
  4 89  1  0  0  0
  4 90  1  0  0  0
  5  6  1  0  0  0
  5 26  1  0  0  0
  5 91  1  0  0  0
  6 25  1  0  0  0
  6 92  1  0  0  0
  6 93  1  0  0  0
  7  8  2  0  0  0
  7 26  1  0  0  0
  7 29  1  0  0  0
  8  9  1  0  0  0
  8 22  1  0  0  0
  9 10  1  0  0  0
  9 27  2  0  0  0
 10 11  2  0  0  0
 10 15  1  0  0  0
 11 12  1  0  0  0
 11 94  1  0  0  0
 12 13  2  0  0  0
 12 95  1  0  0  0
 13 14  1  0  0  0
 13 31  1  0  0  0
 14 15  2  0  0  0
 14 96  1  0  0  0
 15 97  1  0  0  0
 16 17  2  0  0  0
 16 21  1  0  0  0
 16 31  1  0  0  0
 17 18  1  0  0  0
 17 98  1  0  0  0
 18 19  2  0  0  0
 18 99  1  0  0  0
 19 20  1  0  0  0
 19 24  1  0  0  0
 20 21  2  0  0  0
 20100  1  0  0  0
 21 23  1  0  0  0
 22 28  1  0  0  0
 22 32  2  0  0  0
 26 27  1  0  0  0
 28101  1  0  0  0
 28102  1  0  0  0
 29103  1  0  0  0
 29104  1  0  0  0
 33 34  1  0  0  0
 33 66  1  0  0  0
 33 70  2  0  0  0
 34 36  1  0  0  0
 34 59  1  0  0  0
 34105  1  0  0  0
 35 44  2  0  0  0
 35 45  1  0  0  0
 35 68  1  0  0  0
 36 56  1  0  0  0
 36106  1  0  0  0
 37 39  1  0  0  0
 37 47  1  0  0  0
 37 66  1  0  0  0
 37107  1  0  0  0
 38 43  2  0  0  0
 38 46  1  0  0  0
 38 47  1  0  0  0
 39 64  1  0  0  0
 39 67  2  0  0  0
 40 52  1  0  0  0
 40 53  2  0  0  0
 40 58  1  0  0  0
 41108  1  0  0  0
 41109  1  0  0  0
 41110  1  0  0  0
 41 48  1  0  0  0
 42 43  1  0  0  0
 42 66  1  0  0  0
 42111  1  0  0  0
 42112  1  0  0  0
 43 44  1  0  0  0
 44113  1  0  0  0
 45 46  2  0  0  0
 45114  1  0  0  0
 46115  1  0  0  0
 47116  1  0  0  0
 47117  1  0  0  0
 48 56  1  0  0  0
 48 65  1  0  0  0
 48118  1  0  0  0
 49 50  1  0  0  0
 49 53  1  0  0  0
 49 64  1  0  0  0
 49119  1  0  0  0
 50 51  1  0  0  0
 50120  1  0  0  0
 50121  1  0  0  0
 51 52  1  0  0  0
 51122  1  0  0  0
 51123  1  0  0  0
 52124  1  0  0  0
 52125  1  0  0  0
 53 54  1  0  0  0
 54 55  2  0  0  0
 54126  1  0  0  0
 55 57  1  0  0  0
 55127  1  0  0  0
 56 69  2  0  0  0
 57 58  2  0  0  0
 57128  1  0  0  0
 58129  1  0  0  0
 59 60  1  0  0  0
 59 61  1  0  0  0
 59 62  1  0  0  0
 60130  1  0  0  0
 60131  1  0  0  0
 60132  1  0  0  0
 61133  1  0  0  0
 61134  1  0  0  0
 61135  1  0  0  0
 62136  1  0  0  0
 62137  1  0  0  0
 62138  1  0  0  0
 63 65  1  0  0  0
 63139  1  0  0  0
 63140  1  0  0  0
 63141  1  0  0  0
 64142  1  0  0  0
 65143  1  0  0  0
 68 81  1  0  0  0
 71 74  2  0  0  0
 71 75  1  0  0  0
 71144  1  0  0  0
 72 74  1  0  0  0
 72 76  2  0  0  0
 72145  1  0  0  0
 73 75  2  0  0  0
 73 76  1  0  0  0
 73146  1  0  0  0
 74 79  1  0  0  0
 75 83  1  0  0  0
 76 84  1  0  0  0
 77 78  2  0  0  0
 77 79  1  0  0  0
 77147  1  0  0  0
 78 80  1  0  0  0
 78148  1  0  0  0
 79 82  2  0  0  0
 80 81  1  0  0  0
 80149  1  0  0  0
 80150  1  0  0  0
 81151  1  0  0  0
 81152  1  0  0  0
 82153  1  0  0  0
 83154  1  0  0  0
M  ISO  4   1 100  68 101  81 101  83 100
M  END
> <chiral flag>
0

> <version>
0

> <s_m_source_file>
/data/baiqing/PycharmProjects/Reinvent-master-3.2/result/LINK_invent/BTK/process_docking_weight1_custom_product_contain_oxygen_bond_distance_aromatic_linkinvent_7_9_3/rearranged_h_0128.sdf

> <i_m_source_file_index>
37

> <r_mmod_Potential_Energy-OPLS-2005>
-19.9778919219971

> <r_mmod_Stretch_Energy-OPLS-2005>
45.6179161071777

> <r_mmod_Bend_Energy-OPLS-2005>
107.919372558594

> <r_mmod_Torsional_Energy-OPLS-2005>
252.736633300781

> <r_mmod_Improper_Torsional_Energy-OPLS-2005>
5.72484540939331

> <r_mmod_Van_der_Waal_Energy-OPLS-2005>
153.443786621094

> <r_mmod_Electrostatic_Energy-OPLS-2005>
-384.664245605469

> <r_mmod_Solvation_Energy-OPLS-2005>
-220.362762451172

> <b_mmod_Minimization_Converged-OPLS-2005>
0

> <r_mmod_RMS_Derivative-OPLS-2005>
1.79185390472412

$$$$
37
                    3D
 Structure written by MMmdl.
160168  0  0  1  0            999 V2000
  -30.6428  -14.5466   20.6393 C   0  0  0  0  0  0
  -30.4436  -12.3785   19.4224 C   0  0  0  0  0  0
  -29.4992  -12.5506   18.2106 C   0  0  0  0  0  0
  -28.0245  -12.3754   18.6216 C   0  0  0  0  0  0
  -27.6636  -13.2088   19.8797 C   0  0  2  0  0  0
  -28.7025  -12.9711   20.9963 C   0  0  0  0  0  0
  -25.2581  -13.8165   20.5680 C   0  0  0  0  0  0
  -24.1831  -13.0430   20.9166 C   0  0  0  0  0  0
  -24.6394  -11.6902   20.8711 C   0  0  0  0  0  0
  -23.9069  -10.4288   21.0388 C   0  0  0  0  0  0
  -24.3635   -9.4201   21.9168 C   0  0  0  0  0  0
  -23.6297   -8.2245   22.0746 C   0  0  0  0  0  0
  -22.4275   -8.0294   21.3548 C   0  0  0  0  0  0
  -21.9914   -9.0260   20.4643 C   0  0  0  0  0  0
  -22.7242  -10.2134   20.3033 C   0  0  0  0  0  0
  -21.6846   -6.0739   22.5281 C   0  0  0  0  0  0
  -21.4008   -6.5637   23.8218 C   0  0  0  0  0  0
  -21.3656   -5.6785   24.9179 C   0  0  0  0  0  0
  -21.6047   -4.3050   24.7219 C   0  0  0  0  0  0
  -21.8816   -3.8149   23.4336 C   0  0  0  0  0  0
  -21.9187   -4.6969   22.3395 C   0  0  0  0  0  0
  -22.7855  -13.5231   21.1847 C   0  0  0  0  0  0
  -22.1654   -4.2164   21.0968 F   0  0  0  0  0  0
  -21.5633   -3.4523   25.7724 F   0  0  0  0  0  0
  -30.0367  -13.3299   20.4741 N   0  0  0  0  0  0
  -26.3028  -12.9334   20.3381 N   0  0  0  0  0  0
  -25.9325  -11.6486   20.5759 N   0  0  0  0  0  0
  -22.0501  -12.8213   22.0412 N   0  0  0  0  0  0
  -25.4271  -15.1890   20.4124 N   0  0  0  0  0  0
  -31.6674  -14.8672   20.0266 O   0  0  0  0  0  0
  -21.6635   -6.8892   21.4249 O   0  0  0  0  0  0
  -22.3511  -14.5521   20.6691 O   0  0  0  0  0  0
  -24.6221  -31.8624   23.2022 C   0  0  0  0  0  0
  -25.9087  -32.4792   23.8370 C   0  0  1  0  0  0
  -27.2423  -27.3630   20.1268 C   0  0  0  0  0  0
  -25.5913  -33.8595   24.2292 N   0  0  0  0  0  0
  -23.4154  -30.4814   21.5411 C   0  0  2  0  0  0
  -24.8673  -28.9300   20.1181 C   0  0  0  0  0  0
  -22.7472  -29.4629   22.4927 C   0  0  0  0  0  0
  -18.0297  -28.1391   22.8495 C   0  0  0  0  0  0
  -24.1472  -36.7291   23.2644 C   0  0  0  0  0  0
  -25.9512  -30.8037   21.3690 C   0  0  0  0  0  0
  -26.0297  -29.4323   20.7174 C   0  0  0  0  0  0
  -27.2232  -28.6614   20.7057 C   0  0  0  0  0  0
  -26.0603  -26.8848   19.5261 C   0  0  0  0  0  0
  -24.8810  -27.6593   19.5146 C   0  0  0  0  0  0
  -23.6324  -29.8071   20.1598 C   0  0  0  0  0  0
  -25.4100  -36.3085   24.0332 C   0  0  1  0  0  0
  -20.5892  -28.3683   23.1292 C   0  0  2  0  0  0
  -20.6773  -26.9402   22.5415 C   0  0  0  0  0  0
  -19.5742  -26.6379   21.5223 C   0  0  0  0  0  0
  -18.1929  -26.7934   22.1638 C   0  0  0  0  0  0
  -19.1550  -28.8857   23.2888 C   0  0  0  0  0  0
  -18.9470  -30.1464   23.8891 C   0  0  0  0  0  0
  -17.6465  -30.6584   24.0583 C   0  0  0  0  0  0
  -25.9036  -34.9456   23.5104 C   0  0  0  0  0  0
  -16.5356  -29.9086   23.6339 C   0  0  0  0  0  0
  -16.7288  -28.6517   23.0342 C   0  0  0  0  0  0
  -26.4497  -31.6610   25.0738 C   0  0  0  0  0  0
  -25.3744  -31.3721   26.1474 C   0  0  0  0  0  0
  -27.0376  -30.3056   24.6177 C   0  0  0  0  0  0
  -27.6063  -32.4369   25.7475 C   0  0  0  0  0  0
  -27.5562  -37.1783   24.8466 C   0  0  0  0  0  0
  -21.4189  -29.3040   22.3684 N   0  0  0  0  0  0
  -26.4275  -37.3778   23.9412 N   0  0  0  0  0  0
  -24.6807  -31.0659   22.0952 N   0  0  0  0  0  0
  -23.4211  -28.8186   23.3011 O   0  0  0  0  0  0
  -28.3999  -26.5928   20.1089 O   0  0  0  0  0  0
  -26.5605  -34.8912   22.4667 O   0  0  0  0  0  0
  -23.5396  -32.1423   23.7353 O   0  0  0  0  0  0
  -29.7337  -17.8019   20.9312 C   0  0  0  0  0  0
  -28.4014  -16.6322   22.5893 C   0  0  0  0  0  0
  -28.9505  -19.0060   21.1078 C   0  0  0  0  0  0
  -27.6141  -17.7765   22.7822 C   0  0  0  0  0  0
  -27.8386  -18.9415   22.0076 C   0  0  0  0  0  0
  -29.4423  -16.5929   21.6483 C   0  0  0  0  0  0
  -29.3304  -20.2942   20.3914 C   0  0  0  0  0  0
  -29.0882  -21.6031   20.7314 C   0  0  0  0  0  0
  -26.5281  -17.7141   23.8483 C   0  0  0  0  0  0
  -26.8230  -20.0775   22.1349 C   0  0  0  0  0  0
  -29.5158  -22.8749   19.9513 C   0  0  0  0  0  0
  -28.4617  -24.0289   19.6838 C   0  0  0  0  0  0
  -28.3755  -25.2453   20.6819 C   0  0  0  0  0  0
  -30.1156  -15.3080   21.6258 N   0  0  0  0  0  0
  -31.4799  -12.5345   19.1175 H   0  0  0  0  0  0
  -30.3946  -11.3568   19.8034 H   0  0  0  0  0  0
  -29.7555  -11.8387   17.4243 H   0  0  0  0  0  0
  -29.6369  -13.5441   17.7803 H   0  0  0  0  0  0
  -27.8572  -11.3155   18.8195 H   0  0  0  0  0  0
  -27.3656  -12.6380   17.7921 H   0  0  0  0  0  0
  -27.7090  -14.2611   19.5988 H   0  0  0  0  0  0
  -28.6983  -11.9198   21.2888 H   0  0  0  0  0  0
  -28.4210  -13.5140   21.8980 H   0  0  0  0  0  0
  -25.2789   -9.5647   22.4744 H   0  0  0  0  0  0
  -23.9997   -7.4608   22.7440 H   0  0  0  0  0  0
  -21.0848   -8.8750   19.8947 H   0  0  0  0  0  0
  -22.3692  -10.9660   19.6133 H   0  0  0  0  0  0
  -21.1996   -7.6145   23.9718 H   0  0  0  0  0  0
  -21.1491   -6.0521   25.9081 H   0  0  0  0  0  0
  -22.0606   -2.7613   23.2820 H   0  0  0  0  0  0
  -22.4149  -11.9911   22.4840 H   0  0  0  0  0  0
  -21.1106  -13.1212   22.2610 H   0  0  0  0  0  0
  -24.6677  -15.8468   20.5480 H   0  0  0  0  0  0
  -26.3019  -15.6394   20.1720 H   0  0  0  0  0  0
  -26.7169  -32.5464   23.1137 H   0  0  0  0  0  0
  -25.0105  -33.9761   25.0461 H   0  0  0  0  0  0
  -22.7075  -31.2997   21.3932 H   0  0  0  0  0  0
  -23.3731  -35.9629   23.3323 H   0  0  0  0  0  0
  -24.3555  -36.8890   22.2052 H   0  0  0  0  0  0
  -23.7213  -37.6483   23.6677 H   0  0  0  0  0  0
  -26.0762  -31.5634   20.5973 H   0  0  0  0  0  0
  -26.8349  -30.8582   21.9946 H   0  0  0  0  0  0
  -28.1229  -29.0459   21.1658 H   0  0  0  0  0  0
  -26.0501  -25.9086   19.0625 H   0  0  0  0  0  0
  -23.9903  -27.2632   19.0461 H   0  0  0  0  0  0
  -23.7545  -30.5810   19.4004 H   0  0  0  0  0  0
  -22.7539  -29.2345   19.8561 H   0  0  0  0  0  0
  -25.1261  -36.1951   25.0827 H   0  0  0  0  0  0
  -21.0014  -28.3256   24.1402 H   0  0  0  0  0  0
  -20.5672  -26.2297   23.3620 H   0  0  0  0  0  0
  -21.6636  -26.7419   22.1193 H   0  0  0  0  0  0
  -19.6885  -25.6294   21.1238 H   0  0  0  0  0  0
  -19.6665  -27.3211   20.6773 H   0  0  0  0  0  0
  -17.4194  -26.6726   21.4038 H   0  0  0  0  0  0
  -18.0301  -26.0071   22.9028 H   0  0  0  0  0  0
  -19.7939  -30.7308   24.2228 H   0  0  0  0  0  0
  -17.5013  -31.6256   24.5201 H   0  0  0  0  0  0
  -15.5360  -30.2990   23.7643 H   0  0  0  0  0  0
  -15.8698  -28.0849   22.7015 H   0  0  0  0  0  0
  -24.5894  -30.7119   25.7771 H   0  0  0  0  0  0
  -24.8973  -32.2881   26.4974 H   0  0  0  0  0  0
  -25.8065  -30.8815   27.0207 H   0  0  0  0  0  0
  -26.2950  -29.6750   24.1279 H   0  0  0  0  0  0
  -27.4185  -29.7374   25.4670 H   0  0  0  0  0  0
  -27.8760  -30.4366   23.9336 H   0  0  0  0  0  0
  -27.2682  -33.3667   26.2067 H   0  0  0  0  0  0
  -28.3837  -32.6946   25.0271 H   0  0  0  0  0  0
  -28.0804  -31.8513   26.5358 H   0  0  0  0  0  0
  -28.2575  -38.0083   24.7514 H   0  0  0  0  0  0
  -28.1056  -36.2606   24.6298 H   0  0  0  0  0  0
  -27.2289  -37.1436   25.8873 H   0  0  0  0  0  0
  -20.9381  -29.8781   21.6894 H   0  0  0  0  0  0
  -26.0155  -38.2839   24.1463 H   0  0  0  0  0  0
  -30.5771  -17.8088   20.2545 H   0  0  0  0  0  0
  -28.1884  -15.7572   23.1884 H   0  0  0  0  0  0
  -29.8630  -20.1330   19.4647 H   0  0  0  0  0  0
  -28.5812  -21.8304   21.6544 H   0  0  0  0  0  0
  -26.5267  -18.6190   24.4579 H   0  0  0  0  0  0
  -26.6833  -16.8744   24.5277 H   0  0  0  0  0  0
  -25.5439  -17.5914   23.3955 H   0  0  0  0  0  0
  -26.6836  -20.6031   21.1919 H   0  0  0  0  0  0
  -27.1128  -20.7877   22.9108 H   0  0  0  0  0  0
  -25.8299  -19.7062   22.3838 H   0  0  0  0  0  0
  -29.8898  -22.5327   18.9851 H   0  0  0  0  0  0
  -30.3869  -23.3025   20.4496 H   0  0  0  0  0  0
  -27.4701  -23.6029   19.5258 H   0  0  0  0  0  0
  -28.7239  -24.4665   18.7200 H   0  0  0  0  0  0
  -29.2401  -25.2005   21.3451 H   0  0  0  0  0  0
  -27.5161  -25.1196   21.3429 H   0  0  0  0  0  0
  -29.6787  -14.6757   22.2789 H   0  0  0  0  0  0
  1 25  1  0  0  0
  1 30  2  0  0  0
  1 84  1  0  0  0
  2  3  1  0  0  0
  2 25  1  0  0  0
  2 85  1  0  0  0
  2 86  1  0  0  0
  3  4  1  0  0  0
  3 87  1  0  0  0
  3 88  1  0  0  0
  4  5  1  0  0  0
  4 89  1  0  0  0
  4 90  1  0  0  0
  5  6  1  0  0  0
  5 26  1  0  0  0
  5 91  1  0  0  0
  6 25  1  0  0  0
  6 92  1  0  0  0
  6 93  1  0  0  0
  7  8  2  0  0  0
  7 26  1  0  0  0
  7 29  1  0  0  0
  8  9  1  0  0  0
  8 22  1  0  0  0
  9 10  1  0  0  0
  9 27  2  0  0  0
 10 11  2  0  0  0
 10 15  1  0  0  0
 11 12  1  0  0  0
 11 94  1  0  0  0
 12 13  2  0  0  0
 12 95  1  0  0  0
 13 14  1  0  0  0
 13 31  1  0  0  0
 14 15  2  0  0  0
 14 96  1  0  0  0
 15 97  1  0  0  0
 16 17  2  0  0  0
 16 21  1  0  0  0
 16 31  1  0  0  0
 17 18  1  0  0  0
 17 98  1  0  0  0
 18 19  2  0  0  0
 18 99  1  0  0  0
 19 20  1  0  0  0
 19 24  1  0  0  0
 20 21  2  0  0  0
 20100  1  0  0  0
 21 23  1  0  0  0
 22 28  1  0  0  0
 22 32  2  0  0  0
 26 27  1  0  0  0
 28101  1  0  0  0
 28102  1  0  0  0
 29103  1  0  0  0
 29104  1  0  0  0
 33 34  1  0  0  0
 33 66  1  0  0  0
 33 70  2  0  0  0
 34 36  1  0  0  0
 34 59  1  0  0  0
 34105  1  0  0  0
 35 44  2  0  0  0
 35 45  1  0  0  0
 35 68  1  0  0  0
 36 56  1  0  0  0
 36106  1  0  0  0
 37 39  1  0  0  0
 37 47  1  0  0  0
 37 66  1  0  0  0
 37107  1  0  0  0
 38 43  2  0  0  0
 38 46  1  0  0  0
 38 47  1  0  0  0
 39 64  1  0  0  0
 39 67  2  0  0  0
 40 52  1  0  0  0
 40 53  2  0  0  0
 40 58  1  0  0  0
 41108  1  0  0  0
 41109  1  0  0  0
 41110  1  0  0  0
 41 48  1  0  0  0
 42 43  1  0  0  0
 42 66  1  0  0  0
 42111  1  0  0  0
 42112  1  0  0  0
 43 44  1  0  0  0
 44113  1  0  0  0
 45 46  2  0  0  0
 45114  1  0  0  0
 46115  1  0  0  0
 47116  1  0  0  0
 47117  1  0  0  0
 48 56  1  0  0  0
 48 65  1  0  0  0
 48118  1  0  0  0
 49 50  1  0  0  0
 49 53  1  0  0  0
 49 64  1  0  0  0
 49119  1  0  0  0
 50 51  1  0  0  0
 50120  1  0  0  0
 50121  1  0  0  0
 51 52  1  0  0  0
 51122  1  0  0  0
 51123  1  0  0  0
 52124  1  0  0  0
 52125  1  0  0  0
 53 54  1  0  0  0
 54 55  2  0  0  0
 54126  1  0  0  0
 55 57  1  0  0  0
 55127  1  0  0  0
 56 69  2  0  0  0
 57 58  2  0  0  0
 57128  1  0  0  0
 58129  1  0  0  0
 59 60  1  0  0  0
 59 61  1  0  0  0
 59 62  1  0  0  0
 60130  1  0  0  0
 60131  1  0  0  0
 60132  1  0  0  0
 61133  1  0  0  0
 61134  1  0  0  0
 61135  1  0  0  0
 62136  1  0  0  0
 62137  1  0  0  0
 62138  1  0  0  0
 63 65  1  0  0  0
 63139  1  0  0  0
 63140  1  0  0  0
 63141  1  0  0  0
 64142  1  0  0  0
 65143  1  0  0  0
 68 83  1  0  0  0
 71 73  2  0  0  0
 71 76  1  0  0  0
 71144  1  0  0  0
 72 74  1  0  0  0
 72 76  2  0  0  0
 72145  1  0  0  0
 73 75  1  0  0  0
 73 77  1  0  0  0
 74 75  2  0  0  0
 74 79  1  0  0  0
 75 80  1  0  0  0
 76 84  1  0  0  0
 77 78  2  0  0  0
 77146  1  0  0  0
 78 81  1  0  0  0
 78147  1  0  0  0
 79148  1  0  0  0
 79149  1  0  0  0
 79150  1  0  0  0
 80151  1  0  0  0
 80152  1  0  0  0
 80153  1  0  0  0
 81 82  1  0  0  0
 81154  1  0  0  0
 81155  1  0  0  0
 82 83  1  0  0  0
 82156  1  0  0  0
 82157  1  0  0  0
 83158  1  0  0  0
 83159  1  0  0  0
 84160  1  0  0  0
M  ISO  4   1 100  68 101  83 101  84 100
M  END
> <chiral flag>
0

> <version>
0

> <s_m_source_file>
/data/baiqing/PycharmProjects/Reinvent-master-3.2/result/LINK_invent/BTK/process_docking_weight1_custom_product_contain_oxygen_bond_distance_aromatic_linkinvent_7_9_3/rearranged_h_0128.sdf

> <i_m_source_file_index>
38

> <r_mmod_Potential_Energy-OPLS-2005>
98.3460998535156

> <r_mmod_Stretch_Energy-OPLS-2005>
68.7629089355469

> <r_mmod_Bend_Energy-OPLS-2005>
152.309005737305

> <r_mmod_Torsional_Energy-OPLS-2005>
269.175506591797

> <r_mmod_Improper_Torsional_Energy-OPLS-2005>
6.9015588760376

> <r_mmod_Van_der_Waal_Energy-OPLS-2005>
143.641693115234

> <r_mmod_Electrostatic_Energy-OPLS-2005>
-372.094909667969

> <r_mmod_Solvation_Energy-OPLS-2005>
-198.988845825195

> <b_mmod_Minimization_Converged-OPLS-2005>
0

> <r_mmod_RMS_Derivative-OPLS-2005>
2.38204121589661

$$$$
38
                    3D
 Structure written by MMmdl.
163171  0  0  1  0            999 V2000
  -30.6211  -14.5449   20.5750 C   0  0  0  0  0  0
  -30.4419  -12.3534   19.4261 C   0  0  0  0  0  0
  -29.5073  -12.5104   18.2052 C   0  0  0  0  0  0
  -28.0272  -12.3478   18.6161 C   0  0  0  0  0  0
  -27.6545  -13.1971   19.8612 C   0  0  2  0  0  0
  -28.6929  -12.9826   20.9831 C   0  0  0  0  0  0
  -25.2558  -13.8110   20.5645 C   0  0  0  0  0  0
  -24.1809  -13.0402   20.9163 C   0  0  0  0  0  0
  -24.6359  -11.6865   20.8702 C   0  0  0  0  0  0
  -23.9021  -10.4264   21.0371 C   0  0  0  0  0  0
  -24.3590   -9.4199   21.9159 C   0  0  0  0  0  0
  -23.6283   -8.2228   22.0744 C   0  0  0  0  0  0
  -22.4260   -8.0256   21.3543 C   0  0  0  0  0  0
  -21.9881   -9.0213   20.4635 C   0  0  0  0  0  0
  -22.7199  -10.2096   20.3026 C   0  0  0  0  0  0
  -21.6837   -6.0713   22.5276 C   0  0  0  0  0  0
  -21.4011   -6.5618   23.8212 C   0  0  0  0  0  0
  -21.3674   -5.6774   24.9176 C   0  0  0  0  0  0
  -21.6044   -4.3037   24.7221 C   0  0  0  0  0  0
  -21.8830   -3.8126   23.4345 C   0  0  0  0  0  0
  -21.9199   -4.6943   22.3405 C   0  0  0  0  0  0
  -22.7848  -13.5217   21.1860 C   0  0  0  0  0  0
  -22.1661   -4.2127   21.0977 F   0  0  0  0  0  0
  -21.5638   -3.4529   25.7741 F   0  0  0  0  0  0
  -30.0150  -13.3321   20.4376 N   0  0  0  0  0  0
  -26.2966  -12.9257   20.3249 N   0  0  0  0  0  0
  -25.9267  -11.6435   20.5664 N   0  0  0  0  0  0
  -22.0481  -12.8210   22.0413 N   0  0  0  0  0  0
  -25.4250  -15.1848   20.4091 N   0  0  0  0  0  0
  -31.7772  -14.7616   20.1974 O   0  0  0  0  0  0
  -21.6634   -6.8848   21.4236 O   0  0  0  0  0  0
  -22.3540  -14.5532   20.6722 O   0  0  0  0  0  0
  -24.6216  -31.8659   23.2050 C   0  0  0  0  0  0
  -25.9086  -32.4831   23.8371 C   0  0  1  0  0  0
  -27.2193  -27.3798   20.1144 C   0  0  0  0  0  0
  -25.5960  -33.8644   24.2310 N   0  0  0  0  0  0
  -23.4125  -30.4888   21.5470 C   0  0  2  0  0  0
  -24.8549  -28.9524   20.1102 C   0  0  0  0  0  0
  -22.7448  -29.4642   22.4959 C   0  0  0  0  0  0
  -18.0262  -28.1361   22.8468 C   0  0  0  0  0  0
  -24.1483  -36.7287   23.2636 C   0  0  0  0  0  0
  -25.9489  -30.8168   21.3679 C   0  0  0  0  0  0
  -26.0209  -29.4490   20.7097 C   0  0  0  0  0  0
  -27.2095  -28.6736   20.6985 C   0  0  0  0  0  0
  -26.0387  -26.9175   19.4984 C   0  0  0  0  0  0
  -24.8632  -27.6903   19.4935 C   0  0  0  0  0  0
  -23.6213  -29.8257   20.1602 C   0  0  0  0  0  0
  -25.4118  -36.3129   24.0327 C   0  0  1  0  0  0
  -20.5864  -28.3677   23.1290 C   0  0  2  0  0  0
  -20.6751  -26.9412   22.5409 C   0  0  0  0  0  0
  -19.5729  -26.6375   21.5206 C   0  0  0  0  0  0
  -18.1904  -26.7899   22.1607 C   0  0  0  0  0  0
  -19.1518  -28.8824   23.2868 C   0  0  0  0  0  0
  -18.9452  -30.1418   23.8896 C   0  0  0  0  0  0
  -17.6456  -30.6567   24.0554 C   0  0  0  0  0  0
  -25.9055  -34.9501   23.5102 C   0  0  0  0  0  0
  -16.5341  -29.9073   23.6315 C   0  0  0  0  0  0
  -16.7250  -28.6484   23.0341 C   0  0  0  0  0  0
  -26.4475  -31.6624   25.0715 C   0  0  0  0  0  0
  -25.3701  -31.3748   26.1419 C   0  0  0  0  0  0
  -27.0319  -30.3065   24.6127 C   0  0  0  0  0  0
  -27.6056  -32.4350   25.7466 C   0  0  0  0  0  0
  -27.5565  -37.1802   24.8467 C   0  0  0  0  0  0
  -21.4161  -29.3060   22.3725 N   0  0  0  0  0  0
  -26.4288  -37.3819   23.9415 N   0  0  0  0  0  0
  -24.6801  -31.0722   22.0979 N   0  0  0  0  0  0
  -23.4206  -28.8174   23.3007 O   0  0  0  0  0  0
  -28.3518  -26.5795   20.1380 O   0  0  0  0  0  0
  -26.5599  -34.8957   22.4652 O   0  0  0  0  0  0
  -23.5394  -32.1420   23.7402 O   0  0  0  0  0  0
  -30.4639  -18.3609   23.2768 C   0  0  0  0  0  0
  -30.3571  -17.0598   22.7499 C   0  0  0  0  0  0
  -29.7786  -18.0180   20.5902 C   0  0  0  0  0  0
  -29.9065  -19.3521   21.0976 C   0  0  0  0  0  0
  -30.2557  -19.5054   22.4738 C   0  0  0  0  0  0
  -30.0205  -16.8692   21.3969 C   0  0  0  0  0  0
  -29.8339  -20.5313   20.1259 C   0  0  0  0  0  0
  -30.4550  -20.8627   23.1394 C   0  0  0  0  0  0
  -27.1904  -23.2285   19.2061 C   0  0  0  0  0  0
  -28.9096  -24.7230   18.1920 C   0  0  0  0  0  0
  -29.6279  -23.0413   19.9297 C   0  0  0  0  0  0
  -28.1809  -25.1878   20.5620 C   0  0  0  0  0  0
  -28.4706  -24.0402   19.5057 C   0  0  0  0  0  0
  -29.7654  -15.5378   20.9291 N   0  0  0  0  0  0
  -29.2893  -21.7126   20.5204 N   0  0  0  0  0  0
  -30.3158  -20.3878   19.0016 O   0  0  0  0  0  0
  -31.4845  -12.4939   19.1339 H   0  0  0  0  0  0
  -30.3788  -11.3404   19.8284 H   0  0  0  0  0  0
  -29.7658  -11.7744   17.4429 H   0  0  0  0  0  0
  -29.6574  -13.4878   17.7455 H   0  0  0  0  0  0
  -27.8663  -11.2914   18.8305 H   0  0  0  0  0  0
  -27.3698  -12.5862   17.7792 H   0  0  0  0  0  0
  -27.6888  -14.2404   19.5505 H   0  0  0  0  0  0
  -28.6841  -11.9393   21.3020 H   0  0  0  0  0  0
  -28.4428  -13.5581   21.8753 H   0  0  0  0  0  0
  -25.2733   -9.5688   22.4738 H   0  0  0  0  0  0
  -23.9996   -7.4613   22.7459 H   0  0  0  0  0  0
  -21.0815   -8.8713   19.8945 H   0  0  0  0  0  0
  -22.3642  -10.9625   19.6132 H   0  0  0  0  0  0
  -21.1989   -7.6121   23.9716 H   0  0  0  0  0  0
  -21.1497   -6.0493   25.9078 H   0  0  0  0  0  0
  -22.0604   -2.7585   23.2847 H   0  0  0  0  0  0
  -22.4080  -11.9883   22.4829 H   0  0  0  0  0  0
  -21.1095  -13.1236   22.2587 H   0  0  0  0  0  0
  -24.6506  -15.8305   20.5179 H   0  0  0  0  0  0
  -26.2671  -15.6352   20.0740 H   0  0  0  0  0  0
  -26.7173  -32.5492   23.1148 H   0  0  0  0  0  0
  -25.0233  -33.9840   25.0535 H   0  0  0  0  0  0
  -22.7057  -31.3097   21.4089 H   0  0  0  0  0  0
  -23.3782  -35.9586   23.3336 H   0  0  0  0  0  0
  -24.3536  -36.8854   22.2036 H   0  0  0  0  0  0
  -23.7187  -37.6481   23.6618 H   0  0  0  0  0  0
  -26.0780  -31.5848   20.6049 H   0  0  0  0  0  0
  -26.8328  -30.8577   21.9932 H   0  0  0  0  0  0
  -28.1086  -29.0513   21.1637 H   0  0  0  0  0  0
  -26.0187  -25.9527   19.0181 H   0  0  0  0  0  0
  -23.9741  -27.3030   19.0162 H   0  0  0  0  0  0
  -23.7399  -30.6041   19.4061 H   0  0  0  0  0  0
  -22.7446  -29.2526   19.8556 H   0  0  0  0  0  0
  -25.1304  -36.1992   25.0819 H   0  0  0  0  0  0
  -20.9911  -28.3225   24.1427 H   0  0  0  0  0  0
  -20.5650  -26.2293   23.3601 H   0  0  0  0  0  0
  -21.6621  -26.7444   22.1221 H   0  0  0  0  0  0
  -19.6911  -25.6293   21.1218 H   0  0  0  0  0  0
  -19.6653  -27.3198   20.6746 H   0  0  0  0  0  0
  -17.4185  -26.6636   21.4003 H   0  0  0  0  0  0
  -18.0304  -26.0032   22.8993 H   0  0  0  0  0  0
  -19.7941  -30.7206   24.2287 H   0  0  0  0  0  0
  -17.5023  -31.6251   24.5162 H   0  0  0  0  0  0
  -15.5343  -30.2993   23.7627 H   0  0  0  0  0  0
  -15.8632  -28.0805   22.7074 H   0  0  0  0  0  0
  -24.5894  -30.7099   25.7698 H   0  0  0  0  0  0
  -24.8879  -32.2909   26.4843 H   0  0  0  0  0  0
  -25.7990  -30.8893   27.0188 H   0  0  0  0  0  0
  -26.2871  -29.6823   24.1164 H   0  0  0  0  0  0
  -27.4067  -29.7309   25.4600 H   0  0  0  0  0  0
  -27.8723  -30.4410   23.9311 H   0  0  0  0  0  0
  -27.2703  -33.3674   26.2029 H   0  0  0  0  0  0
  -28.3835  -32.6869   25.0243 H   0  0  0  0  0  0
  -28.0749  -31.8471   26.5364 H   0  0  0  0  0  0
  -28.2633  -38.0061   24.7524 H   0  0  0  0  0  0
  -28.1013  -36.2598   24.6309 H   0  0  0  0  0  0
  -27.2258  -37.1447   25.8862 H   0  0  0  0  0  0
  -20.9319  -29.8846   21.7002 H   0  0  0  0  0  0
  -26.0180  -38.2897   24.1436 H   0  0  0  0  0  0
  -30.7255  -18.4756   24.3201 H   0  0  0  0  0  0
  -30.5162  -16.2116   23.4011 H   0  0  0  0  0  0
  -29.4998  -17.8808   19.5555 H   0  0  0  0  0  0
  -30.9108  -20.7674   24.1259 H   0  0  0  0  0  0
  -29.4969  -21.3630   23.2802 H   0  0  0  0  0  0
  -31.1086  -21.5108   22.5541 H   0  0  0  0  0  0
  -27.3963  -22.4242   18.4974 H   0  0  0  0  0  0
  -26.4037  -23.8410   18.7689 H   0  0  0  0  0  0
  -26.7794  -22.7720   20.1062 H   0  0  0  0  0  0
  -29.0495  -24.0002   17.3873 H   0  0  0  0  0  0
  -29.8550  -25.2510   18.3229 H   0  0  0  0  0  0
  -28.1735  -25.4507   17.8480 H   0  0  0  0  0  0
  -30.2973  -23.5353   20.6338 H   0  0  0  0  0  0
  -30.2569  -22.8640   19.0556 H   0  0  0  0  0  0
  -28.8455  -25.0569   21.4153 H   0  0  0  0  0  0
  -27.1911  -25.0416   20.9984 H   0  0  0  0  0  0
  -28.8191  -15.2162   21.0592 H   0  0  0  0  0  0
  -28.8283  -21.7135   21.4172 H   0  0  0  0  0  0
  1 25  1  0  0  0
  1 30  2  0  0  0
  1 84  1  0  0  0
  2  3  1  0  0  0
  2 25  1  0  0  0
  2 87  1  0  0  0
  2 88  1  0  0  0
  3  4  1  0  0  0
  3 89  1  0  0  0
  3 90  1  0  0  0
  4  5  1  0  0  0
  4 91  1  0  0  0
  4 92  1  0  0  0
  5  6  1  0  0  0
  5 26  1  0  0  0
  5 93  1  0  0  0
  6 25  1  0  0  0
  6 94  1  0  0  0
  6 95  1  0  0  0
  7  8  2  0  0  0
  7 26  1  0  0  0
  7 29  1  0  0  0
  8  9  1  0  0  0
  8 22  1  0  0  0
  9 10  1  0  0  0
  9 27  2  0  0  0
 10 11  2  0  0  0
 10 15  1  0  0  0
 11 12  1  0  0  0
 11 96  1  0  0  0
 12 13  2  0  0  0
 12 97  1  0  0  0
 13 14  1  0  0  0
 13 31  1  0  0  0
 14 15  2  0  0  0
 14 98  1  0  0  0
 15 99  1  0  0  0
 16 17  2  0  0  0
 16 21  1  0  0  0
 16 31  1  0  0  0
 17 18  1  0  0  0
 17100  1  0  0  0
 18 19  2  0  0  0
 18101  1  0  0  0
 19 20  1  0  0  0
 19 24  1  0  0  0
 20 21  2  0  0  0
 20102  1  0  0  0
 21 23  1  0  0  0
 22 28  1  0  0  0
 22 32  2  0  0  0
 26 27  1  0  0  0
 28103  1  0  0  0
 28104  1  0  0  0
 29105  1  0  0  0
 29106  1  0  0  0
 33 34  1  0  0  0
 33 66  1  0  0  0
 33 70  2  0  0  0
 34 36  1  0  0  0
 34 59  1  0  0  0
 34107  1  0  0  0
 35 44  2  0  0  0
 35 45  1  0  0  0
 35 68  1  0  0  0
 36 56  1  0  0  0
 36108  1  0  0  0
 37 39  1  0  0  0
 37 47  1  0  0  0
 37 66  1  0  0  0
 37109  1  0  0  0
 38 43  2  0  0  0
 38 46  1  0  0  0
 38 47  1  0  0  0
 39 64  1  0  0  0
 39 67  2  0  0  0
 40 52  1  0  0  0
 40 53  2  0  0  0
 40 58  1  0  0  0
 41110  1  0  0  0
 41111  1  0  0  0
 41112  1  0  0  0
 41 48  1  0  0  0
 42 43  1  0  0  0
 42 66  1  0  0  0
 42113  1  0  0  0
 42114  1  0  0  0
 43 44  1  0  0  0
 44115  1  0  0  0
 45 46  2  0  0  0
 45116  1  0  0  0
 46117  1  0  0  0
 47118  1  0  0  0
 47119  1  0  0  0
 48 56  1  0  0  0
 48 65  1  0  0  0
 48120  1  0  0  0
 49 50  1  0  0  0
 49 53  1  0  0  0
 49 64  1  0  0  0
 49121  1  0  0  0
 50 51  1  0  0  0
 50122  1  0  0  0
 50123  1  0  0  0
 51 52  1  0  0  0
 51124  1  0  0  0
 51125  1  0  0  0
 52126  1  0  0  0
 52127  1  0  0  0
 53 54  1  0  0  0
 54 55  2  0  0  0
 54128  1  0  0  0
 55 57  1  0  0  0
 55129  1  0  0  0
 56 69  2  0  0  0
 57 58  2  0  0  0
 57130  1  0  0  0
 58131  1  0  0  0
 59 60  1  0  0  0
 59 61  1  0  0  0
 59 62  1  0  0  0
 60132  1  0  0  0
 60133  1  0  0  0
 60134  1  0  0  0
 61135  1  0  0  0
 61136  1  0  0  0
 61137  1  0  0  0
 62138  1  0  0  0
 62139  1  0  0  0
 62140  1  0  0  0
 63 65  1  0  0  0
 63141  1  0  0  0
 63142  1  0  0  0
 63143  1  0  0  0
 64144  1  0  0  0
 65145  1  0  0  0
 68 82  1  0  0  0
 71 72  2  0  0  0
 71 75  1  0  0  0
 71146  1  0  0  0
 72 76  1  0  0  0
 72147  1  0  0  0
 73 74  1  0  0  0
 73 76  2  0  0  0
 73148  1  0  0  0
 74 75  2  0  0  0
 74 77  1  0  0  0
 75 78  1  0  0  0
 76 84  1  0  0  0
 77 85  1  0  0  0
 77 86  2  0  0  0
 78149  1  0  0  0
 78150  1  0  0  0
 78151  1  0  0  0
 79152  1  0  0  0
 79153  1  0  0  0
 79154  1  0  0  0
 79 83  1  0  0  0
 80 83  1  0  0  0
 80155  1  0  0  0
 80156  1  0  0  0
 80157  1  0  0  0
 81 83  1  0  0  0
 81 85  1  0  0  0
 81158  1  0  0  0
 81159  1  0  0  0
 82 83  1  0  0  0
 82160  1  0  0  0
 82161  1  0  0  0
 84162  1  0  0  0
 85163  1  0  0  0
M  ISO  4   1 100  68 101  82 101  84 100
M  END
> <chiral flag>
0

> <version>
0

> <s_m_source_file>
/data/baiqing/PycharmProjects/Reinvent-master-3.2/result/LINK_invent/BTK/process_docking_weight1_custom_product_contain_oxygen_bond_distance_aromatic_linkinvent_7_9_3/rearranged_h_0128.sdf

> <i_m_source_file_index>
39

> <r_mmod_Potential_Energy-OPLS-2005>
24.2681560516357

> <r_mmod_Stretch_Energy-OPLS-2005>
58.2210235595703

> <r_mmod_Bend_Energy-OPLS-2005>
123.826934814453

> <r_mmod_Torsional_Energy-OPLS-2005>
310.17724609375

> <r_mmod_Improper_Torsional_Energy-OPLS-2005>
8.08870220184326

> <r_mmod_Van_der_Waal_Energy-OPLS-2005>
159.053298950195

> <r_mmod_Electrostatic_Energy-OPLS-2005>
-435.869689941406

> <r_mmod_Solvation_Energy-OPLS-2005>
-226.354827880859

> <b_mmod_Minimization_Converged-OPLS-2005>
0

> <r_mmod_RMS_Derivative-OPLS-2005>
3.25488829612732

$$$$
39
                    3D
 Structure written by MMmdl.
153161  0  0  1  0            999 V2000
  -30.6020  -14.7578   20.4102 C   0  0  0  0  0  0
  -30.4386  -12.4419   19.4907 C   0  0  0  0  0  0
  -29.5215  -12.4540   18.2469 C   0  0  0  0  0  0
  -28.0410  -12.3140   18.6539 C   0  0  0  0  0  0
  -27.6437  -13.2309   19.8417 C   0  0  2  0  0  0
  -28.6855  -13.1801   20.9804 C   0  0  0  0  0  0
  -25.2525  -13.8199   20.5671 C   0  0  0  0  0  0
  -24.1814  -13.0447   20.9199 C   0  0  0  0  0  0
  -24.6405  -11.6926   20.8740 C   0  0  0  0  0  0
  -23.9080  -10.4302   21.0402 C   0  0  0  0  0  0
  -24.3631   -9.4208   21.9180 C   0  0  0  0  0  0
  -23.6307   -8.2238   22.0745 C   0  0  0  0  0  0
  -22.4282   -8.0282   21.3538 C   0  0  0  0  0  0
  -21.9924   -9.0256   20.4638 C   0  0  0  0  0  0
  -22.7255  -10.2134   20.3053 C   0  0  0  0  0  0
  -21.6849   -6.0740   22.5282 C   0  0  0  0  0  0
  -21.4011   -6.5643   23.8216 C   0  0  0  0  0  0
  -21.3660   -5.6790   24.9175 C   0  0  0  0  0  0
  -21.6049   -4.3055   24.7223 C   0  0  0  0  0  0
  -21.8818   -3.8148   23.4341 C   0  0  0  0  0  0
  -21.9189   -4.6967   22.3396 C   0  0  0  0  0  0
  -22.7834  -13.5223   21.1868 C   0  0  0  0  0  0
  -22.1659   -4.2154   21.0974 F   0  0  0  0  0  0
  -21.5632   -3.4539   25.7738 F   0  0  0  0  0  0
  -29.9879  -13.5242   20.3982 N   0  0  0  0  0  0
  -26.2948  -12.9409   20.3225 N   0  0  0  0  0  0
  -25.9334  -11.6554   20.5734 N   0  0  0  0  0  0
  -22.0483  -12.8200   22.0420 N   0  0  0  0  0  0
  -25.4231  -15.1924   20.4090 N   0  0  0  0  0  0
  -31.8031  -14.8385   20.1397 O   0  0  0  0  0  0
  -21.6635   -6.8885   21.4246 O   0  0  0  0  0  0
  -22.3511  -14.5519   20.6715 O   0  0  0  0  0  0
  -24.6306  -31.8560   23.1976 C   0  0  0  0  0  0
  -25.9131  -32.4760   23.8328 C   0  0  1  0  0  0
  -27.2273  -27.2775   20.1188 C   0  0  0  0  0  0
  -25.5926  -33.8560   24.2257 N   0  0  0  0  0  0
  -23.4257  -30.4785   21.5404 C   0  0  2  0  0  0
  -24.8726  -28.9255   20.1094 C   0  0  0  0  0  0
  -22.7496  -29.4613   22.4913 C   0  0  0  0  0  0
  -18.0294  -28.1392   22.8487 C   0  0  0  0  0  0
  -24.1487  -36.7289   23.2640 C   0  0  0  0  0  0
  -25.9686  -30.7767   21.3709 C   0  0  0  0  0  0
  -26.0423  -29.3988   20.7154 C   0  0  0  0  0  0
  -27.2180  -28.5852   20.7115 C   0  0  0  0  0  0
  -26.0274  -26.8639   19.4940 C   0  0  0  0  0  0
  -24.8698  -27.6668   19.4905 C   0  0  0  0  0  0
  -23.6417  -29.8088   20.1573 C   0  0  0  0  0  0
  -25.4113  -36.3071   24.0328 C   0  0  1  0  0  0
  -20.5894  -28.3702   23.1270 C   0  0  2  0  0  0
  -20.6775  -26.9417   22.5406 C   0  0  0  0  0  0
  -19.5747  -26.6386   21.5216 C   0  0  0  0  0  0
  -18.1933  -26.7933   22.1627 C   0  0  0  0  0  0
  -19.1544  -28.8862   23.2873 C   0  0  0  0  0  0
  -18.9467  -30.1461   23.8889 C   0  0  0  0  0  0
  -17.6465  -30.6586   24.0562 C   0  0  0  0  0  0
  -25.9056  -34.9444   23.5098 C   0  0  0  0  0  0
  -16.5359  -29.9085   23.6323 C   0  0  0  0  0  0
  -16.7282  -28.6505   23.0347 C   0  0  0  0  0  0
  -26.4495  -31.6583   25.0717 C   0  0  0  0  0  0
  -25.3713  -31.3755   26.1439 C   0  0  0  0  0  0
  -27.0321  -30.2996   24.6184 C   0  0  0  0  0  0
  -27.6062  -32.4303   25.7486 C   0  0  0  0  0  0
  -27.5575  -37.1798   24.8459 C   0  0  0  0  0  0
  -21.4204  -29.3054   22.3658 N   0  0  0  0  0  0
  -26.4282  -37.3774   23.9410 N   0  0  0  0  0  0
  -24.6941  -31.0547   22.0935 N   0  0  0  0  0  0
  -23.4204  -28.8158   23.3006 O   0  0  0  0  0  0
  -28.3525  -26.4279   20.1999 O   0  0  0  0  0  0
  -26.5621  -34.8917   22.4664 O   0  0  0  0  0  0
  -23.5458  -32.1365   23.7290 O   0  0  0  0  0  0
  -29.8832  -19.8121   18.5498 C   0  0  0  0  0  0
  -30.2153  -18.6283   17.8771 C   0  0  0  0  0  0
  -29.5393  -18.5064   20.5637 C   0  0  0  0  0  0
  -29.5194  -19.8149   19.9101 C   0  0  0  0  0  0
  -30.2026  -17.3700   18.5116 C   0  0  0  0  0  0
  -29.9010  -17.2502   19.9019 C   0  0  0  0  0  0
  -29.1356  -21.1863   20.5242 C   0  0  0  0  0  0
  -28.9628  -22.4113   19.8851 C   0  0  0  0  0  0
  -28.6351  -23.7868   20.4976 C   0  0  0  0  0  0
  -30.4225  -16.1755   17.6014 C   0  0  0  0  0  0
  -28.4221  -25.0699   19.5653 C   0  0  0  0  0  0
  -29.8139  -15.9000   20.5447 N   0  0  0  0  0  0
  -28.5380  -23.9322   21.7200 O   0  0  0  0  0  0
  -31.4816  -12.5604   19.1906 H   0  0  0  0  0  0
  -30.3810  -11.4764   19.9965 H   0  0  0  0  0  0
  -29.7975  -11.6414   17.5736 H   0  0  0  0  0  0
  -29.6717  -13.3660   17.6768 H   0  0  0  0  0  0
  -27.8859  -11.2714   18.9310 H   0  0  0  0  0  0
  -27.3923  -12.4981   17.7971 H   0  0  0  0  0  0
  -27.6371  -14.2479   19.4478 H   0  0  0  0  0  0
  -28.7180  -12.1872   21.4321 H   0  0  0  0  0  0
  -28.4184  -13.8732   21.7796 H   0  0  0  0  0  0
  -25.2781   -9.5673   22.4751 H   0  0  0  0  0  0
  -24.0015   -7.4623   22.7460 H   0  0  0  0  0  0
  -21.0850   -8.8779   19.8951 H   0  0  0  0  0  0
  -22.3718  -10.9670   19.6155 H   0  0  0  0  0  0
  -21.2003   -7.6153   23.9721 H   0  0  0  0  0  0
  -21.1487   -6.0518   25.9078 H   0  0  0  0  0  0
  -22.0597   -2.7613   23.2831 H   0  0  0  0  0  0
  -22.4101  -11.9863   22.4801 H   0  0  0  0  0  0
  -21.1101  -13.1218   22.2639 H   0  0  0  0  0  0
  -24.6554  -15.8469   20.5150 H   0  0  0  0  0  0
  -26.2698  -15.6301   20.0682 H   0  0  0  0  0  0
  -26.7203  -32.5414   23.1080 H   0  0  0  0  0  0
  -25.0072  -33.9699   25.0397 H   0  0  0  0  0  0
  -22.7218  -31.3002   21.3940 H   0  0  0  0  0  0
  -23.3747  -35.9619   23.3290 H   0  0  0  0  0  0
  -24.3585  -36.8921   22.2055 H   0  0  0  0  0  0
  -23.7233  -37.6488   23.6668 H   0  0  0  0  0  0
  -26.0983  -31.5369   20.5990 H   0  0  0  0  0  0
  -26.8491  -30.8319   21.9996 H   0  0  0  0  0  0
  -28.1140  -28.9467   21.1973 H   0  0  0  0  0  0
  -25.9285  -25.8983   19.0269 H   0  0  0  0  0  0
  -23.9702  -27.2972   19.0180 H   0  0  0  0  0  0
  -23.7628  -30.5811   19.3968 H   0  0  0  0  0  0
  -22.7608  -29.2377   19.8571 H   0  0  0  0  0  0
  -25.1295  -36.1919   25.0819 H   0  0  0  0  0  0
  -20.9999  -28.3279   24.1385 H   0  0  0  0  0  0
  -20.5670  -26.2320   23.3619 H   0  0  0  0  0  0
  -21.6641  -26.7433   22.1207 H   0  0  0  0  0  0
  -19.6907  -25.6293   21.1252 H   0  0  0  0  0  0
  -19.6681  -27.3184   20.6735 H   0  0  0  0  0  0
  -17.4204  -26.6678   21.4033 H   0  0  0  0  0  0
  -18.0333  -26.0078   22.9029 H   0  0  0  0  0  0
  -19.7945  -30.7279   24.2253 H   0  0  0  0  0  0
  -17.5024  -31.6266   24.5168 H   0  0  0  0  0  0
  -15.5359  -30.2987   23.7651 H   0  0  0  0  0  0
  -15.8688  -28.0827   22.7056 H   0  0  0  0  0  0
  -24.5861  -30.7142   25.7763 H   0  0  0  0  0  0
  -24.8941  -32.2944   26.4859 H   0  0  0  0  0  0
  -25.8016  -30.8918   27.0219 H   0  0  0  0  0  0
  -26.2894  -29.6762   24.1196 H   0  0  0  0  0  0
  -27.3991  -29.7248   25.4698 H   0  0  0  0  0  0
  -27.8783  -30.4271   23.9427 H   0  0  0  0  0  0
  -27.2697  -33.3625   26.2038 H   0  0  0  0  0  0
  -28.3892  -32.6820   25.0321 H   0  0  0  0  0  0
  -28.0703  -31.8432   26.5421 H   0  0  0  0  0  0
  -28.2588  -38.0099   24.7507 H   0  0  0  0  0  0
  -28.1075  -36.2632   24.6277 H   0  0  0  0  0  0
  -27.2302  -37.1437   25.8864 H   0  0  0  0  0  0
  -20.9391  -29.8798   21.6882 H   0  0  0  0  0  0
  -26.0163  -38.2850   24.1400 H   0  0  0  0  0  0
  -29.9055  -20.7241   17.9737 H   0  0  0  0  0  0
  -30.4490  -18.6988   16.8231 H   0  0  0  0  0  0
  -29.2566  -18.4683   21.6057 H   0  0  0  0  0  0
  -29.0081  -21.1800   21.5982 H   0  0  0  0  0  0
  -29.0713  -22.4493   18.8131 H   0  0  0  0  0  0
  -30.4532  -16.4697   16.5519 H   0  0  0  0  0  0
  -29.5851  -15.4914   17.7069 H   0  0  0  0  0  0
  -31.3593  -15.6632   17.8117 H   0  0  0  0  0  0
  -27.5930  -24.8675   18.8940 H   0  0  0  0  0  0
  -29.2928  -25.1026   18.9095 H   0  0  0  0  0  0
  -28.9301  -15.7205   20.9952 H   0  0  0  0  0  0
  1 25  1  0  0  0
  1 30  2  0  0  0
  1 82  1  0  0  0
  2  3  1  0  0  0
  2 25  1  0  0  0
  2 84  1  0  0  0
  2 85  1  0  0  0
  3  4  1  0  0  0
  3 86  1  0  0  0
  3 87  1  0  0  0
  4  5  1  0  0  0
  4 88  1  0  0  0
  4 89  1  0  0  0
  5  6  1  0  0  0
  5 26  1  0  0  0
  5 90  1  0  0  0
  6 25  1  0  0  0
  6 91  1  0  0  0
  6 92  1  0  0  0
  7  8  2  0  0  0
  7 26  1  0  0  0
  7 29  1  0  0  0
  8  9  1  0  0  0
  8 22  1  0  0  0
  9 10  1  0  0  0
  9 27  2  0  0  0
 10 11  2  0  0  0
 10 15  1  0  0  0
 11 12  1  0  0  0
 11 93  1  0  0  0
 12 13  2  0  0  0
 12 94  1  0  0  0
 13 14  1  0  0  0
 13 31  1  0  0  0
 14 15  2  0  0  0
 14 95  1  0  0  0
 15 96  1  0  0  0
 16 17  2  0  0  0
 16 21  1  0  0  0
 16 31  1  0  0  0
 17 18  1  0  0  0
 17 97  1  0  0  0
 18 19  2  0  0  0
 18 98  1  0  0  0
 19 20  1  0  0  0
 19 24  1  0  0  0
 20 21  2  0  0  0
 20 99  1  0  0  0
 21 23  1  0  0  0
 22 28  1  0  0  0
 22 32  2  0  0  0
 26 27  1  0  0  0
 28100  1  0  0  0
 28101  1  0  0  0
 29102  1  0  0  0
 29103  1  0  0  0
 33 34  1  0  0  0
 33 66  1  0  0  0
 33 70  2  0  0  0
 34 36  1  0  0  0
 34 59  1  0  0  0
 34104  1  0  0  0
 35 44  2  0  0  0
 35 45  1  0  0  0
 35 68  1  0  0  0
 36 56  1  0  0  0
 36105  1  0  0  0
 37 39  1  0  0  0
 37 47  1  0  0  0
 37 66  1  0  0  0
 37106  1  0  0  0
 38 43  2  0  0  0
 38 46  1  0  0  0
 38 47  1  0  0  0
 39 64  1  0  0  0
 39 67  2  0  0  0
 40 52  1  0  0  0
 40 53  2  0  0  0
 40 58  1  0  0  0
 41107  1  0  0  0
 41108  1  0  0  0
 41109  1  0  0  0
 41 48  1  0  0  0
 42 43  1  0  0  0
 42 66  1  0  0  0
 42110  1  0  0  0
 42111  1  0  0  0
 43 44  1  0  0  0
 44112  1  0  0  0
 45 46  2  0  0  0
 45113  1  0  0  0
 46114  1  0  0  0
 47115  1  0  0  0
 47116  1  0  0  0
 48 56  1  0  0  0
 48 65  1  0  0  0
 48117  1  0  0  0
 49 50  1  0  0  0
 49 53  1  0  0  0
 49 64  1  0  0  0
 49118  1  0  0  0
 50 51  1  0  0  0
 50119  1  0  0  0
 50120  1  0  0  0
 51 52  1  0  0  0
 51121  1  0  0  0
 51122  1  0  0  0
 52123  1  0  0  0
 52124  1  0  0  0
 53 54  1  0  0  0
 54 55  2  0  0  0
 54125  1  0  0  0
 55 57  1  0  0  0
 55126  1  0  0  0
 56 69  2  0  0  0
 57 58  2  0  0  0
 57127  1  0  0  0
 58128  1  0  0  0
 59 60  1  0  0  0
 59 61  1  0  0  0
 59 62  1  0  0  0
 60129  1  0  0  0
 60130  1  0  0  0
 60131  1  0  0  0
 61132  1  0  0  0
 61133  1  0  0  0
 61134  1  0  0  0
 62135  1  0  0  0
 62136  1  0  0  0
 62137  1  0  0  0
 63 65  1  0  0  0
 63138  1  0  0  0
 63139  1  0  0  0
 63140  1  0  0  0
 64141  1  0  0  0
 65142  1  0  0  0
 68 81  1  0  0  0
 71 72  2  0  0  0
 71 74  1  0  0  0
 71143  1  0  0  0
 72 75  1  0  0  0
 72144  1  0  0  0
 73 74  2  0  0  0
 73 76  1  0  0  0
 73145  1  0  0  0
 74 77  1  0  0  0
 75 76  2  0  0  0
 75 80  1  0  0  0
 76 82  1  0  0  0
 77 78  2  0  0  0
 77146  1  0  0  0
 78 79  1  0  0  0
 78147  1  0  0  0
 79 81  1  0  0  0
 79 83  2  0  0  0
 80148  1  0  0  0
 80149  1  0  0  0
 80150  1  0  0  0
 81151  1  0  0  0
 81152  1  0  0  0
 82153  1  0  0  0
M  ISO  4   1 100  68 101  81 101  82 100
M  END
> <chiral flag>
0

> <version>
0

> <s_m_source_file>
/data/baiqing/PycharmProjects/Reinvent-master-3.2/result/LINK_invent/BTK/process_docking_weight1_custom_product_contain_oxygen_bond_distance_aromatic_linkinvent_7_9_3/rearranged_h_0128.sdf

> <i_m_source_file_index>
40

> <r_mmod_Potential_Energy-OPLS-2005>
165.492034912109

> <r_mmod_Stretch_Energy-OPLS-2005>
125.623550415039

> <r_mmod_Bend_Energy-OPLS-2005>
162.685928344727

> <r_mmod_Torsional_Energy-OPLS-2005>
235.893569946289

> <r_mmod_Improper_Torsional_Energy-OPLS-2005>
5.52134895324707

> <r_mmod_Van_der_Waal_Energy-OPLS-2005>
145.038269042969

> <r_mmod_Electrostatic_Energy-OPLS-2005>
-358.529541015625

> <r_mmod_Solvation_Energy-OPLS-2005>
-235.611251831055

> <b_mmod_Minimization_Converged-OPLS-2005>
0

> <r_mmod_RMS_Derivative-OPLS-2005>
1.64242672920227

$$$$
40
                    3D
 Structure written by MMmdl.
163171  0  0  1  0            999 V2000
  -30.7385  -14.4205   20.5115 C   0  0  0  0  0  0
  -30.4008  -12.2586   19.4392 C   0  0  0  0  0  0
  -29.5003  -12.4918   18.2118 C   0  0  0  0  0  0
  -28.0157  -12.3714   18.6120 C   0  0  0  0  0  0
  -27.6577  -13.2146   19.8696 C   0  0  2  0  0  0
  -28.6951  -13.0090   20.9959 C   0  0  0  0  0  0
  -25.2556  -13.8179   20.5676 C   0  0  0  0  0  0
  -24.1812  -13.0440   20.9158 C   0  0  0  0  0  0
  -24.6364  -11.6904   20.8707 C   0  0  0  0  0  0
  -23.9015  -10.4290   21.0404 C   0  0  0  0  0  0
  -24.3584   -9.4220   21.9188 C   0  0  0  0  0  0
  -23.6294   -8.2229   22.0750 C   0  0  0  0  0  0
  -22.4270   -8.0263   21.3541 C   0  0  0  0  0  0
  -21.9880   -9.0219   20.4649 C   0  0  0  0  0  0
  -22.7182  -10.2114   20.3058 C   0  0  0  0  0  0
  -21.6836   -6.0717   22.5290 C   0  0  0  0  0  0
  -21.3999   -6.5618   23.8220 C   0  0  0  0  0  0
  -21.3664   -5.6767   24.9178 C   0  0  0  0  0  0
  -21.6061   -4.3032   24.7217 C   0  0  0  0  0  0
  -21.8816   -3.8132   23.4332 C   0  0  0  0  0  0
  -21.9192   -4.6955   22.3401 C   0  0  0  0  0  0
  -22.7842  -13.5243   21.1848 C   0  0  0  0  0  0
  -22.1665   -4.2148   21.0969 F   0  0  0  0  0  0
  -21.5645   -3.4514   25.7733 F   0  0  0  0  0  0
  -30.0300  -13.2674   20.4436 N   0  0  0  0  0  0
  -26.2991  -12.9369   20.3312 N   0  0  0  0  0  0
  -25.9295  -11.6514   20.5719 N   0  0  0  0  0  0
  -22.0455  -12.8269   22.0413 N   0  0  0  0  0  0
  -25.4279  -15.1912   20.4153 N   0  0  0  0  0  0
  -31.9193  -14.4673   20.1521 O   0  0  0  0  0  0
  -21.6626   -6.8869   21.4251 O   0  0  0  0  0  0
  -22.3538  -14.5545   20.6691 O   0  0  0  0  0  0
  -24.6111  -31.8709   23.2128 C   0  0  0  0  0  0
  -25.9020  -32.4849   23.8388 C   0  0  1  0  0  0
  -27.2143  -27.4588   20.0800 C   0  0  0  0  0  0
  -25.5880  -33.8645   24.2314 N   0  0  0  0  0  0
  -23.3959  -30.4980   21.5542 C   0  0  2  0  0  0
  -24.8390  -28.9770   20.1079 C   0  0  0  0  0  0
  -22.7385  -29.4683   22.5002 C   0  0  0  0  0  0
  -18.0267  -28.1372   22.8488 C   0  0  0  0  0  0
  -24.1464  -36.7308   23.2641 C   0  0  0  0  0  0
  -25.9245  -30.8446   21.3624 C   0  0  0  0  0  0
  -26.0002  -29.4832   20.7045 C   0  0  0  0  0  0
  -27.1942  -28.7300   20.6924 C   0  0  0  0  0  0
  -26.0448  -26.9820   19.4464 C   0  0  0  0  0  0
  -24.8546  -27.7246   19.4732 C   0  0  0  0  0  0
  -23.5993  -29.8364   20.1662 C   0  0  0  0  0  0
  -25.4088  -36.3125   24.0343 C   0  0  1  0  0  0
  -20.5857  -28.3644   23.1341 C   0  0  2  0  0  0
  -20.6750  -26.9385   22.5441 C   0  0  0  0  0  0
  -19.5740  -26.6390   21.5214 C   0  0  0  0  0  0
  -18.1908  -26.7920   22.1609 C   0  0  0  0  0  0
  -19.1521  -28.8827   23.2906 C   0  0  0  0  0  0
  -18.9453  -30.1424   23.8930 C   0  0  0  0  0  0
  -17.6465  -30.6579   24.0576 C   0  0  0  0  0  0
  -25.9042  -34.9493   23.5125 C   0  0  0  0  0  0
  -16.5348  -29.9089   23.6327 C   0  0  0  0  0  0
  -16.7265  -28.6504   23.0345 C   0  0  0  0  0  0
  -26.4451  -31.6629   25.0710 C   0  0  0  0  0  0
  -25.3736  -31.3791   26.1491 C   0  0  0  0  0  0
  -27.0245  -30.3053   24.6082 C   0  0  0  0  0  0
  -27.6047  -32.4346   25.7437 C   0  0  0  0  0  0
  -27.5586  -37.1774   24.8448 C   0  0  0  0  0  0
  -21.4129  -29.2997   22.3742 N   0  0  0  0  0  0
  -26.4267  -37.3816   23.9450 N   0  0  0  0  0  0
  -24.6630  -31.0822   22.1020 N   0  0  0  0  0  0
  -23.4167  -28.8233   23.3043 O   0  0  0  0  0  0
  -28.3427  -26.6749   20.1310 O   0  0  0  0  0  0
  -26.5626  -34.8947   22.4703 O   0  0  0  0  0  0
  -23.5325  -32.1455   23.7545 O   0  0  0  0  0  0
  -31.9185  -23.0396   20.1952 C   0  0  0  0  0  0
  -32.9243  -22.0975   20.4714 C   0  0  0  0  0  0
  -30.3090  -21.2379   19.8735 C   0  0  0  0  0  0
  -30.6069  -22.6196   19.8885 C   0  0  0  0  0  0
  -32.6322  -20.7203   20.4423 C   0  0  0  0  0  0
  -31.3169  -20.2914   20.1427 C   0  0  0  0  0  0
  -30.0149  -15.6525   20.8161 C   0  0  0  0  0  0
  -30.5257  -16.7619   20.2374 C   0  0  0  0  0  0
  -29.2200  -24.4308   20.6819 C   0  0  0  0  0  0
  -29.5458  -23.6104   19.6631 C   0  0  0  0  0  0
  -30.0933  -18.1223   20.4441 C   0  0  0  0  0  0
  -33.7293  -19.7134   20.7621 C   0  0  0  0  0  0
  -27.9473  -22.5265   17.9453 C   0  0  0  0  0  0
  -28.0603  -25.3965   20.7106 C   0  0  0  0  0  0
  -28.9031  -23.6818   18.2776 C   0  0  0  0  0  0
  -31.0984  -18.9031   20.0289 N   0  0  0  0  0  0
  -29.0190  -18.5072   20.9118 O   0  0  0  0  0  0
  -31.4547  -12.3013   19.1547 H   0  0  0  0  0  0
  -30.2440  -11.2572   19.8404 H   0  0  0  0  0  0
  -29.7388  -11.7737   17.4269 H   0  0  0  0  0  0
  -29.6938  -13.4822   17.7940 H   0  0  0  0  0  0
  -27.8090  -11.3176   18.8045 H   0  0  0  0  0  0
  -27.3774  -12.6579   17.7754 H   0  0  0  0  0  0
  -27.6994  -14.2620   19.5688 H   0  0  0  0  0  0
  -28.6547  -11.9854   21.3688 H   0  0  0  0  0  0
  -28.4779  -13.6419   21.8591 H   0  0  0  0  0  0
  -25.2733   -9.5723   22.4749 H   0  0  0  0  0  0
  -24.0023   -7.4619   22.7440 H   0  0  0  0  0  0
  -21.0818   -8.8716   19.8957 H   0  0  0  0  0  0
  -22.3628  -10.9650   19.6151 H   0  0  0  0  0  0
  -21.1965   -7.6133   23.9711 H   0  0  0  0  0  0
  -21.1509   -6.0504   25.9088 H   0  0  0  0  0  0
  -22.0603   -2.7602   23.2811 H   0  0  0  0  0  0
  -22.4033  -11.9940   22.4869 H   0  0  0  0  0  0
  -21.1087  -13.1382   22.2575 H   0  0  0  0  0  0
  -24.6596  -15.8472   20.5184 H   0  0  0  0  0  0
  -26.2899  -15.6388   20.1342 H   0  0  0  0  0  0
  -26.7085  -32.5558   23.1146 H   0  0  0  0  0  0
  -24.9963  -33.9780   25.0419 H   0  0  0  0  0  0
  -22.6825  -31.3153   21.4238 H   0  0  0  0  0  0
  -23.3764  -35.9597   23.3255 H   0  0  0  0  0  0
  -24.3563  -36.8986   22.2063 H   0  0  0  0  0  0
  -23.7161  -37.6471   23.6694 H   0  0  0  0  0  0
  -26.0282  -31.6133   20.5950 H   0  0  0  0  0  0
  -26.8166  -30.8964   21.9752 H   0  0  0  0  0  0
  -28.0852  -29.1080   21.1735 H   0  0  0  0  0  0
  -26.0392  -26.0336   18.9286 H   0  0  0  0  0  0
  -23.9662  -27.3353   18.9968 H   0  0  0  0  0  0
  -23.6965  -30.6142   19.4084 H   0  0  0  0  0  0
  -22.7241  -29.2513   19.8782 H   0  0  0  0  0  0
  -25.1253  -36.1958   25.0834 H   0  0  0  0  0  0
  -20.9941  -28.3200   24.1461 H   0  0  0  0  0  0
  -20.5632  -26.2245   23.3616 H   0  0  0  0  0  0
  -21.6623  -26.7406   22.1256 H   0  0  0  0  0  0
  -19.6897  -25.6308   21.1219 H   0  0  0  0  0  0
  -19.6700  -27.3230   20.6766 H   0  0  0  0  0  0
  -17.4188  -26.6688   21.3993 H   0  0  0  0  0  0
  -18.0293  -26.0060   22.9001 H   0  0  0  0  0  0
  -19.7942  -30.7219   24.2313 H   0  0  0  0  0  0
  -17.5035  -31.6266   24.5177 H   0  0  0  0  0  0
  -15.5347  -30.3001   23.7672 H   0  0  0  0  0  0
  -15.8655  -28.0855   22.7026 H   0  0  0  0  0  0
  -24.5795  -30.7273   25.7841 H   0  0  0  0  0  0
  -24.9075  -32.2993   26.5013 H   0  0  0  0  0  0
  -25.8075  -30.8864   27.0195 H   0  0  0  0  0  0
  -26.2744  -29.6824   24.1189 H   0  0  0  0  0  0
  -27.4054  -29.7290   25.4524 H   0  0  0  0  0  0
  -27.8578  -30.4343   23.9168 H   0  0  0  0  0  0
  -27.2656  -33.3618   26.2064 H   0  0  0  0  0  0
  -28.3798  -32.6967   25.0224 H   0  0  0  0  0  0
  -28.0780  -31.8456   26.5298 H   0  0  0  0  0  0
  -28.2578  -38.0105   24.7589 H   0  0  0  0  0  0
  -28.1104  -36.2647   24.6126 H   0  0  0  0  0  0
  -27.2338  -37.1274   25.8859 H   0  0  0  0  0  0
  -20.9295  -29.8666   21.6935 H   0  0  0  0  0  0
  -26.0152  -38.2874   24.1543 H   0  0  0  0  0  0
  -32.1555  -24.0942   20.2345 H   0  0  0  0  0  0
  -33.9210  -22.4373   20.7142 H   0  0  0  0  0  0
  -29.3042  -20.9042   19.6595 H   0  0  0  0  0  0
  -29.1571  -15.6924   21.4700 H   0  0  0  0  0  0
  -31.3616  -16.6451   19.5581 H   0  0  0  0  0  0
  -29.7832  -24.3773   21.6022 H   0  0  0  0  0  0
  -34.5805  -20.1885   21.2510 H   0  0  0  0  0  0
  -34.0878  -19.2275   19.8540 H   0  0  0  0  0  0
  -33.3614  -18.9416   21.4403 H   0  0  0  0  0  0
  -27.3459  -22.7615   17.0656 H   0  0  0  0  0  0
  -27.2631  -22.3198   18.7691 H   0  0  0  0  0  0
  -28.4956  -21.6143   17.7138 H   0  0  0  0  0  0
  -27.7655  -25.5306   21.7525 H   0  0  0  0  0  0
  -27.2299  -24.8760   20.2380 H   0  0  0  0  0  0
  -29.6908  -23.7480   17.5245 H   0  0  0  0  0  0
  -28.3487  -24.6159   18.1874 H   0  0  0  0  0  0
  -31.9101  -18.3748   19.7427 H   0  0  0  0  0  0
  1 25  1  0  0  0
  1 30  2  0  0  0
  1 77  1  0  0  0
  2  3  1  0  0  0
  2 25  1  0  0  0
  2 88  1  0  0  0
  2 89  1  0  0  0
  3  4  1  0  0  0
  3 90  1  0  0  0
  3 91  1  0  0  0
  4  5  1  0  0  0
  4 92  1  0  0  0
  4 93  1  0  0  0
  5  6  1  0  0  0
  5 26  1  0  0  0
  5 94  1  0  0  0
  6 25  1  0  0  0
  6 95  1  0  0  0
  6 96  1  0  0  0
  7  8  2  0  0  0
  7 26  1  0  0  0
  7 29  1  0  0  0
  8  9  1  0  0  0
  8 22  1  0  0  0
  9 10  1  0  0  0
  9 27  2  0  0  0
 10 11  2  0  0  0
 10 15  1  0  0  0
 11 12  1  0  0  0
 11 97  1  0  0  0
 12 13  2  0  0  0
 12 98  1  0  0  0
 13 14  1  0  0  0
 13 31  1  0  0  0
 14 15  2  0  0  0
 14 99  1  0  0  0
 15100  1  0  0  0
 16 17  2  0  0  0
 16 21  1  0  0  0
 16 31  1  0  0  0
 17 18  1  0  0  0
 17101  1  0  0  0
 18 19  2  0  0  0
 18102  1  0  0  0
 19 20  1  0  0  0
 19 24  1  0  0  0
 20 21  2  0  0  0
 20103  1  0  0  0
 21 23  1  0  0  0
 22 28  1  0  0  0
 22 32  2  0  0  0
 26 27  1  0  0  0
 28104  1  0  0  0
 28105  1  0  0  0
 29106  1  0  0  0
 29107  1  0  0  0
 33 34  1  0  0  0
 33 66  1  0  0  0
 33 70  2  0  0  0
 34 36  1  0  0  0
 34 59  1  0  0  0
 34108  1  0  0  0
 35 44  2  0  0  0
 35 45  1  0  0  0
 35 68  1  0  0  0
 36 56  1  0  0  0
 36109  1  0  0  0
 37 39  1  0  0  0
 37 47  1  0  0  0
 37 66  1  0  0  0
 37110  1  0  0  0
 38 43  2  0  0  0
 38 46  1  0  0  0
 38 47  1  0  0  0
 39 64  1  0  0  0
 39 67  2  0  0  0
 40 52  1  0  0  0
 40 53  2  0  0  0
 40 58  1  0  0  0
 41111  1  0  0  0
 41112  1  0  0  0
 41113  1  0  0  0
 41 48  1  0  0  0
 42 43  1  0  0  0
 42 66  1  0  0  0
 42114  1  0  0  0
 42115  1  0  0  0
 43 44  1  0  0  0
 44116  1  0  0  0
 45 46  2  0  0  0
 45117  1  0  0  0
 46118  1  0  0  0
 47119  1  0  0  0
 47120  1  0  0  0
 48 56  1  0  0  0
 48 65  1  0  0  0
 48121  1  0  0  0
 49 50  1  0  0  0
 49 53  1  0  0  0
 49 64  1  0  0  0
 49122  1  0  0  0
 50 51  1  0  0  0
 50123  1  0  0  0
 50124  1  0  0  0
 51 52  1  0  0  0
 51125  1  0  0  0
 51126  1  0  0  0
 52127  1  0  0  0
 52128  1  0  0  0
 53 54  1  0  0  0
 54 55  2  0  0  0
 54129  1  0  0  0
 55 57  1  0  0  0
 55130  1  0  0  0
 56 69  2  0  0  0
 57 58  2  0  0  0
 57131  1  0  0  0
 58132  1  0  0  0
 59 60  1  0  0  0
 59 61  1  0  0  0
 59 62  1  0  0  0
 60133  1  0  0  0
 60134  1  0  0  0
 60135  1  0  0  0
 61136  1  0  0  0
 61137  1  0  0  0
 61138  1  0  0  0
 62139  1  0  0  0
 62140  1  0  0  0
 62141  1  0  0  0
 63 65  1  0  0  0
 63142  1  0  0  0
 63143  1  0  0  0
 63144  1  0  0  0
 64145  1  0  0  0
 65146  1  0  0  0
 68 84  1  0  0  0
 71 72  2  0  0  0
 71 74  1  0  0  0
 71147  1  0  0  0
 72 75  1  0  0  0
 72148  1  0  0  0
 73 74  2  0  0  0
 73 76  1  0  0  0
 73149  1  0  0  0
 74 80  1  0  0  0
 75 76  2  0  0  0
 75 82  1  0  0  0
 76 86  1  0  0  0
 77 78  2  0  0  0
 77150  1  0  0  0
 78 81  1  0  0  0
 78151  1  0  0  0
 79 80  2  0  0  0
 79 84  1  0  0  0
 79152  1  0  0  0
 80 85  1  0  0  0
 81 86  1  0  0  0
 81 87  2  0  0  0
 82153  1  0  0  0
 82154  1  0  0  0
 82155  1  0  0  0
 83 85  1  0  0  0
 83156  1  0  0  0
 83157  1  0  0  0
 83158  1  0  0  0
 84159  1  0  0  0
 84160  1  0  0  0
 85161  1  0  0  0
 85162  1  0  0  0
 86163  1  0  0  0
M  ISO  4   1 100  68 101  77 100  84 101
M  END
> <chiral flag>
0

> <version>
0

> <s_m_source_file>
/data/baiqing/PycharmProjects/Reinvent-master-3.2/result/LINK_invent/BTK/process_docking_weight1_custom_product_contain_oxygen_bond_distance_aromatic_linkinvent_7_9_3/rearranged_h_0128.sdf

> <i_m_source_file_index>
41

> <r_mmod_Potential_Energy-OPLS-2005>
-64.6429595947266

> <r_mmod_Stretch_Energy-OPLS-2005>
31.9920253753662

> <r_mmod_Bend_Energy-OPLS-2005>
117.25505065918

> <r_mmod_Torsional_Energy-OPLS-2005>
245.806579589844

> <r_mmod_Improper_Torsional_Energy-OPLS-2005>
5.97306251525879

> <r_mmod_Van_der_Waal_Energy-OPLS-2005>
172.174728393555

> <r_mmod_Electrostatic_Energy-OPLS-2005>
-456.6083984375

> <r_mmod_Solvation_Energy-OPLS-2005>
-202.166595458984

> <b_mmod_Minimization_Converged-OPLS-2005>
0

> <r_mmod_RMS_Derivative-OPLS-2005>
3.7081618309021

$$$$
41
                    3D
 Structure written by MMmdl.
158166  0  0  1  0            999 V2000
  -30.7579  -14.4339   20.4922 C   0  0  0  0  0  0
  -30.4072  -12.2566   19.4215 C   0  0  0  0  0  0
  -29.5043  -12.4785   18.1946 C   0  0  0  0  0  0
  -28.0133  -12.3968   18.5859 C   0  0  0  0  0  0
  -27.6621  -13.2251   19.8548 C   0  0  2  0  0  0
  -28.7059  -13.0397   20.9769 C   0  0  0  0  0  0
  -25.2605  -13.8218   20.5638 C   0  0  0  0  0  0
  -24.1831  -13.0452   20.9166 C   0  0  0  0  0  0
  -24.6422  -11.6947   20.8678 C   0  0  0  0  0  0
  -23.9090  -10.4304   21.0373 C   0  0  0  0  0  0
  -24.3605   -9.4217   21.9170 C   0  0  0  0  0  0
  -23.6283   -8.2248   22.0723 C   0  0  0  0  0  0
  -22.4265   -8.0280   21.3534 C   0  0  0  0  0  0
  -21.9907   -9.0267   20.4638 C   0  0  0  0  0  0
  -22.7243  -10.2148   20.3055 C   0  0  0  0  0  0
  -21.6832   -6.0724   22.5284 C   0  0  0  0  0  0
  -21.4001   -6.5606   23.8231 C   0  0  0  0  0  0
  -21.3661   -5.6757   24.9195 C   0  0  0  0  0  0
  -21.6058   -4.3036   24.7223 C   0  0  0  0  0  0
  -21.8822   -3.8124   23.4345 C   0  0  0  0  0  0
  -21.9199   -4.6956   22.3402 C   0  0  0  0  0  0
  -22.7842  -13.5247   21.1828 C   0  0  0  0  0  0
  -22.1642   -4.2126   21.0984 F   0  0  0  0  0  0
  -21.5648   -3.4521   25.7740 F   0  0  0  0  0  0
  -30.0435  -13.2800   20.4146 N   0  0  0  0  0  0
  -26.3048  -12.9390   20.3268 N   0  0  0  0  0  0
  -25.9348  -11.6536   20.5616 N   0  0  0  0  0  0
  -22.0455  -12.8283   22.0423 N   0  0  0  0  0  0
  -25.4336  -15.1925   20.4044 N   0  0  0  0  0  0
  -31.9319  -14.5005   20.1179 O   0  0  0  0  0  0
  -21.6620   -6.8882   21.4255 O   0  0  0  0  0  0
  -22.3542  -14.5576   20.6733 O   0  0  0  0  0  0
  -24.6139  -31.8670   23.2149 C   0  0  0  0  0  0
  -25.9057  -32.4830   23.8409 C   0  0  1  0  0  0
  -27.2254  -27.4453   20.1244 C   0  0  0  0  0  0
  -25.5933  -33.8642   24.2353 N   0  0  0  0  0  0
  -23.3985  -30.4922   21.5562 C   0  0  2  0  0  0
  -24.8477  -28.9612   20.1138 C   0  0  0  0  0  0
  -22.7389  -29.4694   22.5038 C   0  0  0  0  0  0
  -18.0299  -28.1334   22.8515 C   0  0  0  0  0  0
  -24.1490  -36.7332   23.2630 C   0  0  0  0  0  0
  -25.9259  -30.8426   21.3634 C   0  0  0  0  0  0
  -26.0039  -29.4764   20.7165 C   0  0  0  0  0  0
  -27.1989  -28.7289   20.7123 C   0  0  0  0  0  0
  -26.0677  -26.9481   19.4920 C   0  0  0  0  0  0
  -24.8739  -27.6964   19.4996 C   0  0  0  0  0  0
  -23.6100  -29.8287   20.1690 C   0  0  0  0  0  0
  -25.4125  -36.3157   24.0369 C   0  0  1  0  0  0
  -20.5862  -28.3674   23.1361 C   0  0  2  0  0  0
  -20.6859  -26.9457   22.5362 C   0  0  0  0  0  0
  -19.5833  -26.6392   21.5182 C   0  0  0  0  0  0
  -18.1985  -26.7969   22.1493 C   0  0  0  0  0  0
  -19.1523  -28.8826   23.2926 C   0  0  0  0  0  0
  -18.9437  -30.1422   23.8930 C   0  0  0  0  0  0
  -17.6401  -30.6541   24.0521 C   0  0  0  0  0  0
  -25.9046  -34.9511   23.5143 C   0  0  0  0  0  0
  -16.5326  -29.9008   23.6266 C   0  0  0  0  0  0
  -16.7282  -28.6418   23.0327 C   0  0  0  0  0  0
  -26.4522  -31.6586   25.0705 C   0  0  0  0  0  0
  -25.3823  -31.3631   26.1457 C   0  0  0  0  0  0
  -27.0363  -30.3074   24.5996 C   0  0  0  0  0  0
  -27.6137  -32.4247   25.7440 C   0  0  0  0  0  0
  -27.5606  -37.1816   24.8455 C   0  0  0  0  0  0
  -21.4117  -29.3076   22.3805 N   0  0  0  0  0  0
  -26.4291  -37.3862   23.9444 N   0  0  0  0  0  0
  -24.6648  -31.0770   22.1050 N   0  0  0  0  0  0
  -23.4189  -28.8182   23.3000 O   0  0  0  0  0  0
  -28.4001  -26.7257   20.1581 O   0  0  0  0  0  0
  -26.5559  -34.8918   22.4673 O   0  0  0  0  0  0
  -23.5349  -32.1436   23.7565 O   0  0  0  0  0  0
  -29.4380  -18.6701   20.0340 C   0  0  0  0  0  0
  -30.5339  -19.0128   22.1814 C   0  0  0  0  0  0
  -29.0839  -20.0330   19.9981 C   0  0  0  0  0  0
  -30.1862  -20.3827   22.1375 C   0  0  0  0  0  0
  -30.1921  -18.1567   21.1154 C   0  0  0  0  0  0
  -29.4872  -20.9294   21.0297 C   0  0  0  0  0  0
  -30.7171  -16.7846   21.0659 C   0  0  0  0  0  0
  -30.0225  -15.6641   20.7680 C   0  0  0  0  0  0
  -29.0088  -22.9379   19.9055 C   0  0  0  0  0  0
  -29.6759  -25.5855   21.7586 C   0  0  0  0  0  0
  -27.2155  -25.0325   21.6370 C   0  0  0  0  0  0
  -28.7235  -24.4286   19.6468 C   0  0  0  0  0  0
  -28.4660  -25.4270   20.8070 C   0  0  0  0  0  0
  -29.2365  -22.3259   21.0093 N   0  0  0  0  0  0
  -31.4561  -12.2985   19.1234 H   0  0  0  0  0  0
  -30.2539  -11.2563   19.8276 H   0  0  0  0  0  0
  -29.7274  -11.7333   17.4306 H   0  0  0  0  0  0
  -29.7317  -13.4503   17.7491 H   0  0  0  0  0  0
  -27.7784  -11.3434   18.7496 H   0  0  0  0  0  0
  -27.4004  -12.7247   17.7435 H   0  0  0  0  0  0
  -27.6920  -14.2679   19.5430 H   0  0  0  0  0  0
  -28.6503  -12.0282   21.3829 H   0  0  0  0  0  0
  -28.4968  -13.7145   21.8092 H   0  0  0  0  0  0
  -25.2712   -9.5678   22.4781 H   0  0  0  0  0  0
  -23.9957   -7.4629   22.7455 H   0  0  0  0  0  0
  -21.0830   -8.8834   19.8942 H   0  0  0  0  0  0
  -22.3709  -10.9700   19.6187 H   0  0  0  0  0  0
  -21.1963   -7.6110   23.9751 H   0  0  0  0  0  0
  -21.1475   -6.0460   25.9111 H   0  0  0  0  0  0
  -22.0604   -2.7579   23.2859 H   0  0  0  0  0  0
  -22.3920  -11.9897   22.4818 H   0  0  0  0  0  0
  -21.1113  -13.1413   22.2611 H   0  0  0  0  0  0
  -24.6786  -15.8615   20.5233 H   0  0  0  0  0  0
  -26.2960  -15.6255   20.0983 H   0  0  0  0  0  0
  -26.7098  -32.5568   23.1127 H   0  0  0  0  0  0
  -25.0179  -33.9826   25.0565 H   0  0  0  0  0  0
  -22.6845  -31.3084   21.4191 H   0  0  0  0  0  0
  -23.3788  -35.9622   23.3286 H   0  0  0  0  0  0
  -24.3549  -36.8938   22.2020 H   0  0  0  0  0  0
  -23.7145  -37.6503   23.6620 H   0  0  0  0  0  0
  -26.0241  -31.6062   20.5882 H   0  0  0  0  0  0
  -26.8231  -30.9091   21.9719 H   0  0  0  0  0  0
  -28.0910  -29.1142   21.1877 H   0  0  0  0  0  0
  -26.0810  -25.9819   19.0106 H   0  0  0  0  0  0
  -23.9867  -27.2904   19.0341 H   0  0  0  0  0  0
  -23.7280  -30.6094   19.4191 H   0  0  0  0  0  0
  -22.7349  -29.2630   19.8468 H   0  0  0  0  0  0
  -25.1265  -36.2047   25.0868 H   0  0  0  0  0  0
  -20.9949  -28.3160   24.1482 H   0  0  0  0  0  0
  -20.5986  -26.2243   23.3504 H   0  0  0  0  0  0
  -21.6706  -26.7746   22.0999 H   0  0  0  0  0  0
  -19.6941  -25.6293   21.1220 H   0  0  0  0  0  0
  -19.6779  -27.3194   20.6708 H   0  0  0  0  0  0
  -17.4341  -26.6864   21.3797 H   0  0  0  0  0  0
  -18.0160  -26.0046   22.8757 H   0  0  0  0  0  0
  -19.7904  -30.7287   24.2265 H   0  0  0  0  0  0
  -17.4953  -31.6231   24.5084 H   0  0  0  0  0  0
  -15.5316  -30.2900   23.7556 H   0  0  0  0  0  0
  -15.8726  -28.0704   22.6976 H   0  0  0  0  0  0
  -24.6036  -30.6934   25.7770 H   0  0  0  0  0  0
  -24.8949  -32.2734   26.4948 H   0  0  0  0  0  0
  -25.8218  -30.8743   27.0166 H   0  0  0  0  0  0
  -26.2875  -29.6771   24.1173 H   0  0  0  0  0  0
  -27.4324  -29.7342   25.4388 H   0  0  0  0  0  0
  -27.8630  -30.4422   23.9020 H   0  0  0  0  0  0
  -27.2830  -33.3518   26.2131 H   0  0  0  0  0  0
  -28.3891  -32.6853   25.0216 H   0  0  0  0  0  0
  -28.0900  -31.8274   26.5206 H   0  0  0  0  0  0
  -28.2617  -38.0136   24.7590 H   0  0  0  0  0  0
  -28.1098  -36.2664   24.6187 H   0  0  0  0  0  0
  -27.2305  -37.1353   25.8847 H   0  0  0  0  0  0
  -20.9227  -29.8901   21.7137 H   0  0  0  0  0  0
  -26.0212  -38.2946   24.1496 H   0  0  0  0  0  0
  -29.1618  -18.0337   19.2055 H   0  0  0  0  0  0
  -31.0970  -18.6321   23.0266 H   0  0  0  0  0  0
  -28.4995  -20.3630   19.1482 H   0  0  0  0  0  0
  -30.5011  -21.0098   22.9657 H   0  0  0  0  0  0
  -31.7916  -16.7154   21.2036 H   0  0  0  0  0  0
  -28.9507  -15.7089   20.6631 H   0  0  0  0  0  0
  -29.0148  -22.4044   18.9523 H   0  0  0  0  0  0
  -29.8919  -24.6765   22.3255 H   0  0  0  0  0  0
  -29.4965  -26.3800   22.4846 H   0  0  0  0  0  0
  -30.5829  -25.8522   21.2174 H   0  0  0  0  0  0
  -27.3990  -24.1103   22.1899 H   0  0  0  0  0  0
  -26.3450  -24.8385   21.0099 H   0  0  0  0  0  0
  -26.9409  -25.7934   22.3674 H   0  0  0  0  0  0
  -27.8491  -24.4613   18.9958 H   0  0  0  0  0  0
  -29.5355  -24.8048   19.0227 H   0  0  0  0  0  0
  1 25  1  0  0  0
  1 30  2  0  0  0
  1 78  1  0  0  0
  2  3  1  0  0  0
  2 25  1  0  0  0
  2 85  1  0  0  0
  2 86  1  0  0  0
  3  4  1  0  0  0
  3 87  1  0  0  0
  3 88  1  0  0  0
  4  5  1  0  0  0
  4 89  1  0  0  0
  4 90  1  0  0  0
  5  6  1  0  0  0
  5 26  1  0  0  0
  5 91  1  0  0  0
  6 25  1  0  0  0
  6 92  1  0  0  0
  6 93  1  0  0  0
  7  8  2  0  0  0
  7 26  1  0  0  0
  7 29  1  0  0  0
  8  9  1  0  0  0
  8 22  1  0  0  0
  9 10  1  0  0  0
  9 27  2  0  0  0
 10 11  2  0  0  0
 10 15  1  0  0  0
 11 12  1  0  0  0
 11 94  1  0  0  0
 12 13  2  0  0  0
 12 95  1  0  0  0
 13 14  1  0  0  0
 13 31  1  0  0  0
 14 15  2  0  0  0
 14 96  1  0  0  0
 15 97  1  0  0  0
 16 17  2  0  0  0
 16 21  1  0  0  0
 16 31  1  0  0  0
 17 18  1  0  0  0
 17 98  1  0  0  0
 18 19  2  0  0  0
 18 99  1  0  0  0
 19 20  1  0  0  0
 19 24  1  0  0  0
 20 21  2  0  0  0
 20100  1  0  0  0
 21 23  1  0  0  0
 22 28  1  0  0  0
 22 32  2  0  0  0
 26 27  1  0  0  0
 28101  1  0  0  0
 28102  1  0  0  0
 29103  1  0  0  0
 29104  1  0  0  0
 33 34  1  0  0  0
 33 66  1  0  0  0
 33 70  2  0  0  0
 34 36  1  0  0  0
 34 59  1  0  0  0
 34105  1  0  0  0
 35 44  2  0  0  0
 35 45  1  0  0  0
 35 68  1  0  0  0
 36 56  1  0  0  0
 36106  1  0  0  0
 37 39  1  0  0  0
 37 47  1  0  0  0
 37 66  1  0  0  0
 37107  1  0  0  0
 38 43  2  0  0  0
 38 46  1  0  0  0
 38 47  1  0  0  0
 39 64  1  0  0  0
 39 67  2  0  0  0
 40 52  1  0  0  0
 40 53  2  0  0  0
 40 58  1  0  0  0
 41108  1  0  0  0
 41109  1  0  0  0
 41110  1  0  0  0
 41 48  1  0  0  0
 42 43  1  0  0  0
 42 66  1  0  0  0
 42111  1  0  0  0
 42112  1  0  0  0
 43 44  1  0  0  0
 44113  1  0  0  0
 45 46  2  0  0  0
 45114  1  0  0  0
 46115  1  0  0  0
 47116  1  0  0  0
 47117  1  0  0  0
 48 56  1  0  0  0
 48 65  1  0  0  0
 48118  1  0  0  0
 49 50  1  0  0  0
 49 53  1  0  0  0
 49 64  1  0  0  0
 49119  1  0  0  0
 50 51  1  0  0  0
 50120  1  0  0  0
 50121  1  0  0  0
 51 52  1  0  0  0
 51122  1  0  0  0
 51123  1  0  0  0
 52124  1  0  0  0
 52125  1  0  0  0
 53 54  1  0  0  0
 54 55  2  0  0  0
 54126  1  0  0  0
 55 57  1  0  0  0
 55127  1  0  0  0
 56 69  2  0  0  0
 57 58  2  0  0  0
 57128  1  0  0  0
 58129  1  0  0  0
 59 60  1  0  0  0
 59 61  1  0  0  0
 59 62  1  0  0  0
 60130  1  0  0  0
 60131  1  0  0  0
 60132  1  0  0  0
 61133  1  0  0  0
 61134  1  0  0  0
 61135  1  0  0  0
 62136  1  0  0  0
 62137  1  0  0  0
 62138  1  0  0  0
 63 65  1  0  0  0
 63139  1  0  0  0
 63140  1  0  0  0
 63141  1  0  0  0
 64142  1  0  0  0
 65143  1  0  0  0
 68 83  1  0  0  0
 71 73  2  0  0  0
 71 75  1  0  0  0
 71144  1  0  0  0
 72 74  1  0  0  0
 72 75  2  0  0  0
 72145  1  0  0  0
 73 76  1  0  0  0
 73146  1  0  0  0
 74 76  2  0  0  0
 74147  1  0  0  0
 75 77  1  0  0  0
 76 84  1  0  0  0
 77 78  2  0  0  0
 77148  1  0  0  0
 78149  1  0  0  0
 79 82  1  0  0  0
 79 84  2  0  0  0
 79150  1  0  0  0
 80151  1  0  0  0
 80152  1  0  0  0
 80153  1  0  0  0
 80 83  1  0  0  0
 81 83  1  0  0  0
 81154  1  0  0  0
 81155  1  0  0  0
 81156  1  0  0  0
 82 83  1  0  0  0
 82157  1  0  0  0
 82158  1  0  0  0
M  ISO  4   1 100  68 101  78 100  83 101
M  END
> <chiral flag>
0

> <version>
0

> <s_m_source_file>
/data/baiqing/PycharmProjects/Reinvent-master-3.2/result/LINK_invent/BTK/process_docking_weight1_custom_product_contain_oxygen_bond_distance_aromatic_linkinvent_7_9_3/rearranged_h_0128.sdf

> <i_m_source_file_index>
42

> <r_mmod_Potential_Energy-OPLS-2005>
40.1035346984863

> <r_mmod_Stretch_Energy-OPLS-2005>
41.4050331115723

> <r_mmod_Bend_Energy-OPLS-2005>
128.151641845703

> <r_mmod_Torsional_Energy-OPLS-2005>
231.592041015625

> <r_mmod_Improper_Torsional_Energy-OPLS-2005>
8.34367370605469

> <r_mmod_Van_der_Waal_Energy-OPLS-2005>
164.035781860352

> <r_mmod_Electrostatic_Energy-OPLS-2005>
-360.009857177734

> <r_mmod_Solvation_Energy-OPLS-2005>
-193.32243347168

> <b_mmod_Minimization_Converged-OPLS-2005>
0

> <r_mmod_RMS_Derivative-OPLS-2005>
7.9909725189209

$$$$
42
                    3D
 Structure written by MMmdl.
159167  0  0  1  0            999 V2000
  -30.6491  -14.6772   20.4692 C   0  0  0  0  0  0
  -30.4406  -12.4129   19.4520 C   0  0  0  0  0  0
  -29.5078  -12.5085   18.2241 C   0  0  0  0  0  0
  -28.0314  -12.3443   18.6395 C   0  0  0  0  0  0
  -27.6486  -13.2228   19.8599 C   0  0  2  0  0  0
  -28.7051  -13.1198   20.9855 C   0  0  0  0  0  0
  -25.2408  -13.8043   20.5647 C   0  0  0  0  0  0
  -24.1749  -13.0316   20.9251 C   0  0  0  0  0  0
  -24.6393  -11.6828   20.8792 C   0  0  0  0  0  0
  -23.9072  -10.4222   21.0425 C   0  0  0  0  0  0
  -24.3610   -9.4148   21.9211 C   0  0  0  0  0  0
  -23.6280   -8.2190   22.0768 C   0  0  0  0  0  0
  -22.4265   -8.0247   21.3547 C   0  0  0  0  0  0
  -21.9903   -9.0224   20.4653 C   0  0  0  0  0  0
  -22.7241  -10.2094   20.3066 C   0  0  0  0  0  0
  -21.6842   -6.0708   22.5281 C   0  0  0  0  0  0
  -21.4001   -6.5619   23.8210 C   0  0  0  0  0  0
  -21.3665   -5.6781   24.9179 C   0  0  0  0  0  0
  -21.6048   -4.3045   24.7233 C   0  0  0  0  0  0
  -21.8824   -3.8128   23.4357 C   0  0  0  0  0  0
  -21.9195   -4.6939   22.3408 C   0  0  0  0  0  0
  -22.7769  -13.5134   21.1886 C   0  0  0  0  0  0
  -22.1671   -4.2121   21.0991 F   0  0  0  0  0  0
  -21.5632   -3.4537   25.7749 F   0  0  0  0  0  0
  -30.0196  -13.4562   20.4086 N   0  0  0  0  0  0
  -26.2952  -12.9337   20.3336 N   0  0  0  0  0  0
  -25.9341  -11.6483   20.5818 N   0  0  0  0  0  0
  -22.0386  -12.8164   22.0443 N   0  0  0  0  0  0
  -25.3748  -15.1715   20.3864 N   0  0  0  0  0  0
  -31.8297  -14.8055   20.1360 O   0  0  0  0  0  0
  -21.6625   -6.8849   21.4241 O   0  0  0  0  0  0
  -22.3475  -14.5448   20.6725 O   0  0  0  0  0  0
  -24.6275  -31.8596   23.2034 C   0  0  0  0  0  0
  -25.9118  -32.4779   23.8363 C   0  0  1  0  0  0
  -27.2302  -27.3150   20.1091 C   0  0  0  0  0  0
  -25.5925  -33.8579   24.2290 N   0  0  0  0  0  0
  -23.4217  -30.4837   21.5465 C   0  0  2  0  0  0
  -24.8687  -28.9404   20.1112 C   0  0  0  0  0  0
  -22.7482  -29.4623   22.4943 C   0  0  0  0  0  0
  -18.0279  -28.1386   22.8488 C   0  0  0  0  0  0
  -24.1484  -36.7291   23.2641 C   0  0  0  0  0  0
  -25.9643  -30.7884   21.3764 C   0  0  0  0  0  0
  -26.0386  -29.4156   20.7176 C   0  0  0  0  0  0
  -27.2199  -28.6138   20.7097 C   0  0  0  0  0  0
  -26.0346  -26.8981   19.4759 C   0  0  0  0  0  0
  -24.8693  -27.6871   19.4828 C   0  0  0  0  0  0
  -23.6366  -29.8203   20.1614 C   0  0  0  0  0  0
  -25.4109  -36.3085   24.0333 C   0  0  1  0  0  0
  -20.5883  -28.3694   23.1289 C   0  0  2  0  0  0
  -20.6771  -26.9418   22.5415 C   0  0  0  0  0  0
  -19.5743  -26.6387   21.5218 C   0  0  0  0  0  0
  -18.1920  -26.7933   22.1623 C   0  0  0  0  0  0
  -19.1530  -28.8857   23.2884 C   0  0  0  0  0  0
  -18.9453  -30.1458   23.8898 C   0  0  0  0  0  0
  -17.6454  -30.6599   24.0557 C   0  0  0  0  0  0
  -25.9046  -34.9453   23.5112 C   0  0  0  0  0  0
  -16.5346  -29.9093   23.6329 C   0  0  0  0  0  0
  -16.7264  -28.6507   23.0360 C   0  0  0  0  0  0
  -26.4498  -31.6587   25.0737 C   0  0  0  0  0  0
  -25.3733  -31.3717   26.1463 C   0  0  0  0  0  0
  -27.0336  -30.3006   24.6194 C   0  0  0  0  0  0
  -27.6073  -32.4312   25.7499 C   0  0  0  0  0  0
  -27.5575  -37.1798   24.8465 C   0  0  0  0  0  0
  -21.4195  -29.3046   22.3688 N   0  0  0  0  0  0
  -26.4286  -37.3779   23.9410 N   0  0  0  0  0  0
  -24.6901  -31.0602   22.0987 N   0  0  0  0  0  0
  -23.4203  -28.8158   23.3025 O   0  0  0  0  0  0
  -28.3488  -26.4611   20.1590 O   0  0  0  0  0  0
  -26.5619  -34.8923   22.4680 O   0  0  0  0  0  0
  -23.5437  -32.1397   23.7349 O   0  0  0  0  0  0
  -31.1475  -17.9525   20.9249 C   0  0  0  0  0  0
  -28.9441  -19.4316   20.0170 C   0  0  0  0  0  0
  -31.1780  -19.3858   20.8929 C   0  0  0  0  0  0
  -28.9044  -18.0052   20.0628 C   0  0  0  0  0  0
  -29.9979  -17.2149   20.5356 C   0  0  0  0  0  0
  -30.0689  -20.1701   20.4542 C   0  0  0  0  0  0
  -29.2427  -23.9948   20.3283 C   0  0  0  0  0  0
  -32.4291  -20.1005   21.3694 C   0  0  0  0  0  0
  -27.7488  -16.7293   18.1981 C   0  0  0  0  0  0
  -27.6306  -17.3327   19.6044 C   0  0  0  0  0  0
  -28.1241  -25.0177   19.8804 C   0  0  0  0  0  0
  -29.0080  -22.4403   20.1059 C   0  0  0  0  0  0
  -29.8386  -15.7591   20.7052 N   0  0  0  0  0  0
  -30.2864  -24.4018   20.8522 O   0  0  0  0  0  0
  -30.1402  -21.5829   20.4880 O   0  0  0  0  0  0
  -31.4812  -12.5319   19.1442 H   0  0  0  0  0  0
  -30.3762  -11.4247   19.9117 H   0  0  0  0  0  0
  -29.7761  -11.7502   17.4869 H   0  0  0  0  0  0
  -29.6451  -13.4730   17.7323 H   0  0  0  0  0  0
  -27.8733  -11.2932   18.8818 H   0  0  0  0  0  0
  -27.3759  -12.5637   17.7962 H   0  0  0  0  0  0
  -27.6477  -14.2494   19.5025 H   0  0  0  0  0  0
  -28.7266  -12.1110   21.4000 H   0  0  0  0  0  0
  -28.4543  -13.7814   21.8163 H   0  0  0  0  0  0
  -25.2744   -9.5627   22.4795 H   0  0  0  0  0  0
  -23.9984   -7.4579   22.7485 H   0  0  0  0  0  0
  -21.0835   -8.8758   19.8953 H   0  0  0  0  0  0
  -22.3719  -10.9643   19.6173 H   0  0  0  0  0  0
  -21.1978   -7.6120   23.9707 H   0  0  0  0  0  0
  -21.1493   -6.0506   25.9084 H   0  0  0  0  0  0
  -22.0596   -2.7587   23.2866 H   0  0  0  0  0  0
  -22.3972  -11.9840   22.4883 H   0  0  0  0  0  0
  -21.1004  -13.1221   22.2615 H   0  0  0  0  0  0
  -24.5683  -15.7835   20.4452 H   0  0  0  0  0  0
  -26.1581  -15.5913   19.9073 H   0  0  0  0  0  0
  -26.7190  -32.5446   23.1120 H   0  0  0  0  0  0
  -25.0071  -33.9718   25.0433 H   0  0  0  0  0  0
  -22.7156  -31.3045   21.4048 H   0  0  0  0  0  0
  -23.3745  -35.9625   23.3313 H   0  0  0  0  0  0
  -24.3575  -36.8898   22.2056 H   0  0  0  0  0  0
  -23.7244  -37.6500   23.6652 H   0  0  0  0  0  0
  -26.0961  -31.5509   20.6073 H   0  0  0  0  0  0
  -26.8450  -30.8378   22.0056 H   0  0  0  0  0  0
  -28.1152  -28.9728   21.1971 H   0  0  0  0  0  0
  -25.9653  -25.9454   18.9721 H   0  0  0  0  0  0
  -23.9737  -27.3191   19.0011 H   0  0  0  0  0  0
  -23.7558  -30.5981   19.4063 H   0  0  0  0  0  0
  -22.7562  -29.2504   19.8586 H   0  0  0  0  0  0
  -25.1287  -36.1945   25.0825 H   0  0  0  0  0  0
  -20.9964  -28.3268   24.1416 H   0  0  0  0  0  0
  -20.5690  -26.2298   23.3615 H   0  0  0  0  0  0
  -21.6638  -26.7464   22.1202 H   0  0  0  0  0  0
  -19.6912  -25.6297   21.1251 H   0  0  0  0  0  0
  -19.6691  -27.3198   20.6748 H   0  0  0  0  0  0
  -17.4201  -26.6697   21.4010 H   0  0  0  0  0  0
  -18.0307  -26.0075   22.9016 H   0  0  0  0  0  0
  -19.7926  -30.7268   24.2282 H   0  0  0  0  0  0
  -17.5009  -31.6281   24.5153 H   0  0  0  0  0  0
  -15.5343  -30.2995   23.7657 H   0  0  0  0  0  0
  -15.8662  -28.0823   22.7089 H   0  0  0  0  0  0
  -24.5907  -30.7071   25.7785 H   0  0  0  0  0  0
  -24.8921  -32.2874   26.4906 H   0  0  0  0  0  0
  -25.8055  -30.8878   27.0230 H   0  0  0  0  0  0
  -26.2902  -29.6760   24.1228 H   0  0  0  0  0  0
  -27.4034  -29.7267   25.4702 H   0  0  0  0  0  0
  -27.8778  -30.4284   23.9417 H   0  0  0  0  0  0
  -27.2704  -33.3614   26.2087 H   0  0  0  0  0  0
  -28.3873  -32.6863   25.0314 H   0  0  0  0  0  0
  -28.0756  -31.8428   26.5401 H   0  0  0  0  0  0
  -28.2601  -38.0088   24.7498 H   0  0  0  0  0  0
  -28.1053  -36.2614   24.6293 H   0  0  0  0  0  0
  -27.2290  -37.1468   25.8868 H   0  0  0  0  0  0
  -20.9378  -29.8760   21.6890 H   0  0  0  0  0  0
  -26.0169  -38.2854   24.1399 H   0  0  0  0  0  0
  -32.0088  -17.4139   21.2958 H   0  0  0  0  0  0
  -28.0747  -19.9592   19.6520 H   0  0  0  0  0  0
  -33.1319  -19.4153   21.8446 H   0  0  0  0  0  0
  -32.1709  -20.8713   22.0961 H   0  0  0  0  0  0
  -32.9354  -20.5796   20.5312 H   0  0  0  0  0  0
  -26.8293  -16.2151   17.9164 H   0  0  0  0  0  0
  -28.5653  -16.0093   18.1354 H   0  0  0  0  0  0
  -27.9363  -17.5039   17.4540 H   0  0  0  0  0  0
  -26.7968  -18.0362   19.6339 H   0  0  0  0  0  0
  -27.4050  -16.5757   20.3467 H   0  0  0  0  0  0
  -27.2036  -24.6971   20.3695 H   0  0  0  0  0  0
  -27.9764  -24.8906   18.8078 H   0  0  0  0  0  0
  -28.7760  -22.2745   19.0538 H   0  0  0  0  0  0
  -28.1290  -22.1439   20.6783 H   0  0  0  0  0  0
  -28.8869  -15.4714   20.8684 H   0  0  0  0  0  0
  1 25  1  0  0  0
  1 30  2  0  0  0
  1 83  1  0  0  0
  2  3  1  0  0  0
  2 25  1  0  0  0
  2 86  1  0  0  0
  2 87  1  0  0  0
  3  4  1  0  0  0
  3 88  1  0  0  0
  3 89  1  0  0  0
  4  5  1  0  0  0
  4 90  1  0  0  0
  4 91  1  0  0  0
  5  6  1  0  0  0
  5 26  1  0  0  0
  5 92  1  0  0  0
  6 25  1  0  0  0
  6 93  1  0  0  0
  6 94  1  0  0  0
  7  8  2  0  0  0
  7 26  1  0  0  0
  7 29  1  0  0  0
  8  9  1  0  0  0
  8 22  1  0  0  0
  9 10  1  0  0  0
  9 27  2  0  0  0
 10 11  2  0  0  0
 10 15  1  0  0  0
 11 12  1  0  0  0
 11 95  1  0  0  0
 12 13  2  0  0  0
 12 96  1  0  0  0
 13 14  1  0  0  0
 13 31  1  0  0  0
 14 15  2  0  0  0
 14 97  1  0  0  0
 15 98  1  0  0  0
 16 17  2  0  0  0
 16 21  1  0  0  0
 16 31  1  0  0  0
 17 18  1  0  0  0
 17 99  1  0  0  0
 18 19  2  0  0  0
 18100  1  0  0  0
 19 20  1  0  0  0
 19 24  1  0  0  0
 20 21  2  0  0  0
 20101  1  0  0  0
 21 23  1  0  0  0
 22 28  1  0  0  0
 22 32  2  0  0  0
 26 27  1  0  0  0
 28102  1  0  0  0
 28103  1  0  0  0
 29104  1  0  0  0
 29105  1  0  0  0
 33 34  1  0  0  0
 33 66  1  0  0  0
 33 70  2  0  0  0
 34 36  1  0  0  0
 34 59  1  0  0  0
 34106  1  0  0  0
 35 44  2  0  0  0
 35 45  1  0  0  0
 35 68  1  0  0  0
 36 56  1  0  0  0
 36107  1  0  0  0
 37 39  1  0  0  0
 37 47  1  0  0  0
 37 66  1  0  0  0
 37108  1  0  0  0
 38 43  2  0  0  0
 38 46  1  0  0  0
 38 47  1  0  0  0
 39 64  1  0  0  0
 39 67  2  0  0  0
 40 52  1  0  0  0
 40 53  2  0  0  0
 40 58  1  0  0  0
 41109  1  0  0  0
 41110  1  0  0  0
 41111  1  0  0  0
 41 48  1  0  0  0
 42 43  1  0  0  0
 42 66  1  0  0  0
 42112  1  0  0  0
 42113  1  0  0  0
 43 44  1  0  0  0
 44114  1  0  0  0
 45 46  2  0  0  0
 45115  1  0  0  0
 46116  1  0  0  0
 47117  1  0  0  0
 47118  1  0  0  0
 48 56  1  0  0  0
 48 65  1  0  0  0
 48119  1  0  0  0
 49 50  1  0  0  0
 49 53  1  0  0  0
 49 64  1  0  0  0
 49120  1  0  0  0
 50 51  1  0  0  0
 50121  1  0  0  0
 50122  1  0  0  0
 51 52  1  0  0  0
 51123  1  0  0  0
 51124  1  0  0  0
 52125  1  0  0  0
 52126  1  0  0  0
 53 54  1  0  0  0
 54 55  2  0  0  0
 54127  1  0  0  0
 55 57  1  0  0  0
 55128  1  0  0  0
 56 69  2  0  0  0
 57 58  2  0  0  0
 57129  1  0  0  0
 58130  1  0  0  0
 59 60  1  0  0  0
 59 61  1  0  0  0
 59 62  1  0  0  0
 60131  1  0  0  0
 60132  1  0  0  0
 60133  1  0  0  0
 61134  1  0  0  0
 61135  1  0  0  0
 61136  1  0  0  0
 62137  1  0  0  0
 62138  1  0  0  0
 62139  1  0  0  0
 63 65  1  0  0  0
 63140  1  0  0  0
 63141  1  0  0  0
 63142  1  0  0  0
 64143  1  0  0  0
 65144  1  0  0  0
 68 81  1  0  0  0
 71 73  2  0  0  0
 71 75  1  0  0  0
 71145  1  0  0  0
 72 74  1  0  0  0
 72 76  2  0  0  0
 72146  1  0  0  0
 73 76  1  0  0  0
 73 78  1  0  0  0
 74 75  2  0  0  0
 74 80  1  0  0  0
 75 83  1  0  0  0
 76 85  1  0  0  0
 77 81  1  0  0  0
 77 82  1  0  0  0
 77 84  2  0  0  0
 78147  1  0  0  0
 78148  1  0  0  0
 78149  1  0  0  0
 79 80  1  0  0  0
 79150  1  0  0  0
 79151  1  0  0  0
 79152  1  0  0  0
 80153  1  0  0  0
 80154  1  0  0  0
 81155  1  0  0  0
 81156  1  0  0  0
 82 85  1  0  0  0
 82157  1  0  0  0
 82158  1  0  0  0
 83159  1  0  0  0
M  ISO  4   1 100  68 101  81 101  83 100
M  END
> <chiral flag>
0

> <version>
0

> <s_m_source_file>
/data/baiqing/PycharmProjects/Reinvent-master-3.2/result/LINK_invent/BTK/process_docking_weight1_custom_product_contain_oxygen_bond_distance_aromatic_linkinvent_7_9_3/rearranged_h_0128.sdf

> <i_m_source_file_index>
43

> <r_mmod_Potential_Energy-OPLS-2005>
61.876594543457

> <r_mmod_Stretch_Energy-OPLS-2005>
86.3236465454102

> <r_mmod_Bend_Energy-OPLS-2005>
141.3017578125

> <r_mmod_Torsional_Energy-OPLS-2005>
218.719100952148

> <r_mmod_Improper_Torsional_Energy-OPLS-2005>
6.61603021621704

> <r_mmod_Van_der_Waal_Energy-OPLS-2005>
140.362655639648

> <r_mmod_Electrostatic_Energy-OPLS-2005>
-346.965667724609

> <r_mmod_Solvation_Energy-OPLS-2005>
-241.750762939453

> <b_mmod_Minimization_Converged-OPLS-2005>
0

> <r_mmod_RMS_Derivative-OPLS-2005>
1.42809891700745

$$$$
43
                    3D
 Structure written by MMmdl.
156164  0  0  1  0            999 V2000
  -30.7462  -14.4285   20.6812 C   0  0  0  0  0  0
  -30.4217  -12.3334   19.3948 C   0  0  0  0  0  0
  -29.4836  -12.5369   18.1907 C   0  0  0  0  0  0
  -28.0099  -12.3735   18.6090 C   0  0  0  0  0  0
  -27.6611  -13.1973   19.8749 C   0  0  2  0  0  0
  -28.7023  -12.9683   20.9918 C   0  0  0  0  0  0
  -25.2602  -13.8132   20.5690 C   0  0  0  0  0  0
  -24.1832  -13.0431   20.9179 C   0  0  0  0  0  0
  -24.6364  -11.6898   20.8709 C   0  0  0  0  0  0
  -23.9016  -10.4298   21.0391 C   0  0  0  0  0  0
  -24.3581   -9.4224   21.9175 C   0  0  0  0  0  0
  -23.6279   -8.2245   22.0736 C   0  0  0  0  0  0
  -22.4257   -8.0276   21.3538 C   0  0  0  0  0  0
  -21.9884   -9.0233   20.4635 C   0  0  0  0  0  0
  -22.7186  -10.2129   20.3047 C   0  0  0  0  0  0
  -21.6850   -6.0732   22.5282 C   0  0  0  0  0  0
  -21.4009   -6.5636   23.8218 C   0  0  0  0  0  0
  -21.3661   -5.6790   24.9179 C   0  0  0  0  0  0
  -21.6039   -4.3048   24.7224 C   0  0  0  0  0  0
  -21.8819   -3.8147   23.4348 C   0  0  0  0  0  0
  -21.9195   -4.6966   22.3402 C   0  0  0  0  0  0
  -22.7868  -13.5256   21.1871 C   0  0  0  0  0  0
  -22.1665   -4.2156   21.0979 F   0  0  0  0  0  0
  -21.5634   -3.4529   25.7736 F   0  0  0  0  0  0
  -30.0411  -13.2828   20.4547 N   0  0  0  0  0  0
  -26.3017  -12.9278   20.3359 N   0  0  0  0  0  0
  -25.9288  -11.6445   20.5727 N   0  0  0  0  0  0
  -22.0487  -12.8247   22.0415 N   0  0  0  0  0  0
  -25.4351  -15.1851   20.4145 N   0  0  0  0  0  0
  -31.7438  -14.7271   20.0183 O   0  0  0  0  0  0
  -21.6634   -6.8866   21.4242 O   0  0  0  0  0  0
  -22.3569  -14.5573   20.6740 O   0  0  0  0  0  0
  -24.6180  -31.8656   23.2068 C   0  0  0  0  0  0
  -25.9073  -32.4793   23.8370 C   0  0  1  0  0  0
  -27.2305  -27.4134   20.0774 C   0  0  0  0  0  0
  -25.5925  -33.8593   24.2310 N   0  0  0  0  0  0
  -23.4046  -30.4929   21.5483 C   0  0  2  0  0  0
  -24.8473  -28.9551   20.1105 C   0  0  0  0  0  0
  -22.7427  -29.4667   22.4961 C   0  0  0  0  0  0
  -18.0277  -28.1397   22.8494 C   0  0  0  0  0  0
  -24.1481  -36.7293   23.2636 C   0  0  0  0  0  0
  -25.9369  -30.8228   21.3634 C   0  0  0  0  0  0
  -26.0103  -29.4563   20.7070 C   0  0  0  0  0  0
  -27.2016  -28.6921   20.6882 C   0  0  0  0  0  0
  -26.0441  -26.9355   19.4708 C   0  0  0  0  0  0
  -24.8598  -27.6950   19.4910 C   0  0  0  0  0  0
  -23.6125  -29.8258   20.1622 C   0  0  0  0  0  0
  -25.4105  -36.3093   24.0335 C   0  0  1  0  0  0
  -20.5878  -28.3687   23.1305 C   0  0  2  0  0  0
  -20.6773  -26.9417   22.5412 C   0  0  0  0  0  0
  -19.5752  -26.6398   21.5215 C   0  0  0  0  0  0
  -18.1931  -26.7948   22.1618 C   0  0  0  0  0  0
  -19.1526  -28.8859   23.2905 C   0  0  0  0  0  0
  -18.9455  -30.1468   23.8913 C   0  0  0  0  0  0
  -17.6451  -30.6598   24.0583 C   0  0  0  0  0  0
  -25.9041  -34.9466   23.5119 C   0  0  0  0  0  0
  -16.5347  -29.9104   23.6334 C   0  0  0  0  0  0
  -16.7267  -28.6521   23.0347 C   0  0  0  0  0  0
  -26.4507  -31.6571   25.0696 C   0  0  0  0  0  0
  -25.3787  -31.3676   26.1452 C   0  0  0  0  0  0
  -27.0328  -30.3011   24.6073 C   0  0  0  0  0  0
  -27.6069  -32.4294   25.7467 C   0  0  0  0  0  0
  -27.5580  -37.1801   24.8472 C   0  0  0  0  0  0
  -21.4149  -29.3047   22.3698 N   0  0  0  0  0  0
  -26.4286  -37.3785   23.9418 N   0  0  0  0  0  0
  -24.6725  -31.0746   22.0969 N   0  0  0  0  0  0
  -23.4192  -28.8221   23.3022 O   0  0  0  0  0  0
  -28.4077  -26.6802   20.0901 O   0  0  0  0  0  0
  -26.5591  -34.8937   22.4669 O   0  0  0  0  0  0
  -23.5366  -32.1401   23.7461 O   0  0  0  0  0  0
  -29.9883  -19.3391   19.5287 C   0  0  0  0  0  0
  -29.7698  -17.9383   19.7302 C   0  0  0  0  0  0
  -30.6012  -19.8245   20.6496 C   0  0  0  0  0  0
  -30.1839  -17.6739   21.0141 C   0  0  0  0  0  0
  -31.1120  -21.0955   21.0801 C   0  0  0  0  0  0
  -30.1573  -16.5457   21.9111 C   0  0  0  0  0  0
  -30.3168  -15.2017   21.8401 C   0  0  0  0  0  0
  -30.8453  -22.3939   20.8085 C   0  0  0  0  0  0
  -29.1457  -16.9921   18.7399 C   0  0  0  0  0  0
  -29.7569  -23.0343   19.9490 C   0  0  0  0  0  0
  -29.5893  -24.5408   20.3156 C   0  0  0  0  0  0
  -28.3776  -25.2871   19.7116 C   0  0  0  0  0  0
  -30.7055  -18.8131   21.5576 O   0  0  0  0  0  0
  -31.4615  -12.4515   19.0831 H   0  0  0  0  0  0
  -30.3410  -11.3128   19.7684 H   0  0  0  0  0  0
  -29.7267  -11.8233   17.4016 H   0  0  0  0  0  0
  -29.6385  -13.5325   17.7712 H   0  0  0  0  0  0
  -27.8272  -11.3141   18.7917 H   0  0  0  0  0  0
  -27.3528  -12.6558   17.7857 H   0  0  0  0  0  0
  -27.7041  -14.2445   19.5876 H   0  0  0  0  0  0
  -28.6819  -11.9289   21.3199 H   0  0  0  0  0  0
  -28.4243  -13.5525   21.8676 H   0  0  0  0  0  0
  -25.2718   -9.5726   22.4754 H   0  0  0  0  0  0
  -24.0006   -7.4638   22.7443 H   0  0  0  0  0  0
  -21.0819   -8.8719   19.8946 H   0  0  0  0  0  0
  -22.3607  -10.9656   19.6162 H   0  0  0  0  0  0
  -21.1986   -7.6140   23.9718 H   0  0  0  0  0  0
  -21.1490   -6.0519   25.9081 H   0  0  0  0  0  0
  -22.0597   -2.7613   23.2838 H   0  0  0  0  0  0
  -22.4068  -11.9905   22.4824 H   0  0  0  0  0  0
  -21.1107  -13.1298   22.2589 H   0  0  0  0  0  0
  -24.6742  -15.8454   20.5274 H   0  0  0  0  0  0
  -26.3036  -15.6248   20.1378 H   0  0  0  0  0  0
  -26.7131  -32.5509   23.1127 H   0  0  0  0  0  0
  -25.0152  -33.9749   25.0513 H   0  0  0  0  0  0
  -22.6933  -31.3112   21.4115 H   0  0  0  0  0  0
  -23.3739  -35.9631   23.3313 H   0  0  0  0  0  0
  -24.3567  -36.8879   22.2045 H   0  0  0  0  0  0
  -23.7251  -37.6512   23.6632 H   0  0  0  0  0  0
  -26.0560  -31.5890   20.5953 H   0  0  0  0  0  0
  -26.8219  -30.8696   21.9860 H   0  0  0  0  0  0
  -28.1001  -29.0803   21.1475 H   0  0  0  0  0  0
  -26.0095  -25.9812   18.9661 H   0  0  0  0  0  0
  -23.9651  -27.3081   19.0241 H   0  0  0  0  0  0
  -23.7273  -30.6015   19.4040 H   0  0  0  0  0  0
  -22.7339  -29.2518   19.8625 H   0  0  0  0  0  0
  -25.1289  -36.1939   25.0826 H   0  0  0  0  0  0
  -20.9973  -28.3258   24.1431 H   0  0  0  0  0  0
  -20.5687  -26.2297   23.3608 H   0  0  0  0  0  0
  -21.6651  -26.7481   22.1209 H   0  0  0  0  0  0
  -19.6910  -25.6313   21.1240 H   0  0  0  0  0  0
  -19.6690  -27.3221   20.6755 H   0  0  0  0  0  0
  -17.4207  -26.6713   21.4005 H   0  0  0  0  0  0
  -18.0326  -26.0086   22.9005 H   0  0  0  0  0  0
  -19.7925  -30.7302   24.2266 H   0  0  0  0  0  0
  -17.5001  -31.6274   24.5198 H   0  0  0  0  0  0
  -15.5347  -30.3013   23.7644 H   0  0  0  0  0  0
  -15.8671  -28.0856   22.7035 H   0  0  0  0  0  0
  -24.5986  -30.6977   25.7821 H   0  0  0  0  0  0
  -24.8959  -32.2825   26.4894 H   0  0  0  0  0  0
  -25.8178  -30.8884   27.0213 H   0  0  0  0  0  0
  -26.2852  -29.6752   24.1184 H   0  0  0  0  0  0
  -27.4158  -29.7272   25.4519 H   0  0  0  0  0  0
  -27.8675  -30.4318   23.9178 H   0  0  0  0  0  0
  -27.2675  -33.3586   26.2066 H   0  0  0  0  0  0
  -28.3885  -32.6851   25.0296 H   0  0  0  0  0  0
  -28.0737  -31.8401   26.5370 H   0  0  0  0  0  0
  -28.2615  -38.0089   24.7527 H   0  0  0  0  0  0
  -28.1060  -36.2621   24.6285 H   0  0  0  0  0  0
  -27.2301  -37.1453   25.8879 H   0  0  0  0  0  0
  -20.9303  -29.8739   21.6900 H   0  0  0  0  0  0
  -26.0161  -38.2851   24.1434 H   0  0  0  0  0  0
  -29.7576  -19.9222   18.6472 H   0  0  0  0  0  0
  -31.9394  -20.9661   21.7655 H   0  0  0  0  0  0
  -29.8834  -16.8680   22.9054 H   0  0  0  0  0  0
  -30.1503  -14.6508   22.7548 H   0  0  0  0  0  0
  -31.4985  -23.1097   21.2878 H   0  0  0  0  0  0
  -29.8261  -16.8063   17.9074 H   0  0  0  0  0  0
  -28.2167  -17.4037   18.3444 H   0  0  0  0  0  0
  -28.9139  -16.0409   19.2095 H   0  0  0  0  0  0
  -28.8229  -22.4860   20.0847 H   0  0  0  0  0  0
  -30.0341  -22.9425   18.8985 H   0  0  0  0  0  0
  -30.4996  -25.0718   20.0315 H   0  0  0  0  0  0
  -29.5118  -24.6309   21.4000 H   0  0  0  0  0  0
  -27.4757  -24.7954   20.0770 H   0  0  0  0  0  0
  -28.3837  -25.2043   18.6245 H   0  0  0  0  0  0
  1 25  1  0  0  0
  1 30  2  0  0  0
  1 77  1  0  0  0
  2  3  1  0  0  0
  2 25  1  0  0  0
  2 84  1  0  0  0
  2 85  1  0  0  0
  3  4  1  0  0  0
  3 86  1  0  0  0
  3 87  1  0  0  0
  4  5  1  0  0  0
  4 88  1  0  0  0
  4 89  1  0  0  0
  5  6  1  0  0  0
  5 26  1  0  0  0
  5 90  1  0  0  0
  6 25  1  0  0  0
  6 91  1  0  0  0
  6 92  1  0  0  0
  7  8  2  0  0  0
  7 26  1  0  0  0
  7 29  1  0  0  0
  8  9  1  0  0  0
  8 22  1  0  0  0
  9 10  1  0  0  0
  9 27  2  0  0  0
 10 11  2  0  0  0
 10 15  1  0  0  0
 11 12  1  0  0  0
 11 93  1  0  0  0
 12 13  2  0  0  0
 12 94  1  0  0  0
 13 14  1  0  0  0
 13 31  1  0  0  0
 14 15  2  0  0  0
 14 95  1  0  0  0
 15 96  1  0  0  0
 16 17  2  0  0  0
 16 21  1  0  0  0
 16 31  1  0  0  0
 17 18  1  0  0  0
 17 97  1  0  0  0
 18 19  2  0  0  0
 18 98  1  0  0  0
 19 20  1  0  0  0
 19 24  1  0  0  0
 20 21  2  0  0  0
 20 99  1  0  0  0
 21 23  1  0  0  0
 22 28  1  0  0  0
 22 32  2  0  0  0
 26 27  1  0  0  0
 28100  1  0  0  0
 28101  1  0  0  0
 29102  1  0  0  0
 29103  1  0  0  0
 33 34  1  0  0  0
 33 66  1  0  0  0
 33 70  2  0  0  0
 34 36  1  0  0  0
 34 59  1  0  0  0
 34104  1  0  0  0
 35 44  2  0  0  0
 35 45  1  0  0  0
 35 68  1  0  0  0
 36 56  1  0  0  0
 36105  1  0  0  0
 37 39  1  0  0  0
 37 47  1  0  0  0
 37 66  1  0  0  0
 37106  1  0  0  0
 38 43  2  0  0  0
 38 46  1  0  0  0
 38 47  1  0  0  0
 39 64  1  0  0  0
 39 67  2  0  0  0
 40 52  1  0  0  0
 40 53  2  0  0  0
 40 58  1  0  0  0
 41107  1  0  0  0
 41108  1  0  0  0
 41109  1  0  0  0
 41 48  1  0  0  0
 42 43  1  0  0  0
 42 66  1  0  0  0
 42110  1  0  0  0
 42111  1  0  0  0
 43 44  1  0  0  0
 44112  1  0  0  0
 45 46  2  0  0  0
 45113  1  0  0  0
 46114  1  0  0  0
 47115  1  0  0  0
 47116  1  0  0  0
 48 56  1  0  0  0
 48 65  1  0  0  0
 48117  1  0  0  0
 49 50  1  0  0  0
 49 53  1  0  0  0
 49 64  1  0  0  0
 49118  1  0  0  0
 50 51  1  0  0  0
 50119  1  0  0  0
 50120  1  0  0  0
 51 52  1  0  0  0
 51121  1  0  0  0
 51122  1  0  0  0
 52123  1  0  0  0
 52124  1  0  0  0
 53 54  1  0  0  0
 54 55  2  0  0  0
 54125  1  0  0  0
 55 57  1  0  0  0
 55126  1  0  0  0
 56 69  2  0  0  0
 57 58  2  0  0  0
 57127  1  0  0  0
 58128  1  0  0  0
 59 60  1  0  0  0
 59 61  1  0  0  0
 59 62  1  0  0  0
 60129  1  0  0  0
 60130  1  0  0  0
 60131  1  0  0  0
 61132  1  0  0  0
 61133  1  0  0  0
 61134  1  0  0  0
 62135  1  0  0  0
 62136  1  0  0  0
 62137  1  0  0  0
 63 65  1  0  0  0
 63138  1  0  0  0
 63139  1  0  0  0
 63140  1  0  0  0
 64141  1  0  0  0
 65142  1  0  0  0
 68 82  1  0  0  0
 71 72  1  0  0  0
 71 73  2  0  0  0
 71143  1  0  0  0
 72 74  2  0  0  0
 72 79  1  0  0  0
 73 75  1  0  0  0
 73 83  1  0  0  0
 74 76  1  0  0  0
 74 83  1  0  0  0
 75 78  2  0  0  0
 75144  1  0  0  0
 76 77  2  0  0  0
 76145  1  0  0  0
 77146  1  0  0  0
 78 80  1  0  0  0
 78147  1  0  0  0
 79148  1  0  0  0
 79149  1  0  0  0
 79150  1  0  0  0
 80 81  1  0  0  0
 80151  1  0  0  0
 80152  1  0  0  0
 81 82  1  0  0  0
 81153  1  0  0  0
 81154  1  0  0  0
 82155  1  0  0  0
 82156  1  0  0  0
M  ISO  4   1 100  68 101  77 100  82 101
M  END
> <chiral flag>
0

> <version>
0

> <s_m_source_file>
/data/baiqing/PycharmProjects/Reinvent-master-3.2/result/LINK_invent/BTK/process_docking_weight1_custom_product_contain_oxygen_bond_distance_aromatic_linkinvent_7_9_3/rearranged_h_0128.sdf

> <i_m_source_file_index>
44

> <r_mmod_Potential_Energy-OPLS-2005>
-28.271842956543

> <r_mmod_Stretch_Energy-OPLS-2005>
37.0163955688477

> <r_mmod_Bend_Energy-OPLS-2005>
127.092506408691

> <r_mmod_Torsional_Energy-OPLS-2005>
202.488510131836

> <r_mmod_Improper_Torsional_Energy-OPLS-2005>
3.36270356178284

> <r_mmod_Van_der_Waal_Energy-OPLS-2005>
121.824172973633

> <r_mmod_Electrostatic_Energy-OPLS-2005>
-336.442993164062

> <r_mmod_Solvation_Energy-OPLS-2005>
-195.770202636719

> <b_mmod_Minimization_Converged-OPLS-2005>
0

> <r_mmod_RMS_Derivative-OPLS-2005>
2.14285802841187

$$$$
44
                    3D
 Structure written by MMmdl.
155163  0  0  1  0            999 V2000
  -30.6792  -14.5358   20.4772 C   0  0  0  0  0  0
  -30.4168  -12.3219   19.4368 C   0  0  0  0  0  0
  -29.5065  -12.5210   18.2098 C   0  0  0  0  0  0
  -28.0188  -12.4060   18.5996 C   0  0  0  0  0  0
  -27.6594  -13.2248   19.8717 C   0  0  2  0  0  0
  -28.7072  -13.0380   20.9927 C   0  0  0  0  0  0
  -25.2578  -13.8194   20.5675 C   0  0  0  0  0  0
  -24.1833  -13.0467   20.9154 C   0  0  0  0  0  0
  -24.6397  -11.6934   20.8700 C   0  0  0  0  0  0
  -23.9048  -10.4320   21.0372 C   0  0  0  0  0  0
  -24.3613   -9.4256   21.9157 C   0  0  0  0  0  0
  -23.6324   -8.2274   22.0733 C   0  0  0  0  0  0
  -22.4306   -8.0265   21.3512 C   0  0  0  0  0  0
  -21.9925   -9.0238   20.4630 C   0  0  0  0  0  0
  -22.7206  -10.2139   20.3029 C   0  0  0  0  0  0
  -21.6862   -6.0727   22.5246 C   0  0  0  0  0  0
  -21.4031   -6.5645   23.8174 C   0  0  0  0  0  0
  -21.3668   -5.6791   24.9130 C   0  0  0  0  0  0
  -21.6066   -4.3047   24.7195 C   0  0  0  0  0  0
  -21.8826   -3.8135   23.4323 C   0  0  0  0  0  0
  -21.9218   -4.6947   22.3384 C   0  0  0  0  0  0
  -22.7863  -13.5252   21.1817 C   0  0  0  0  0  0
  -22.1669   -4.2119   21.0964 F   0  0  0  0  0  0
  -21.5647   -3.4532   25.7720 F   0  0  0  0  0  0
  -30.0291  -13.3367   20.4264 N   0  0  0  0  0  0
  -26.3028  -12.9391   20.3373 N   0  0  0  0  0  0
  -25.9337  -11.6533   20.5718 N   0  0  0  0  0  0
  -22.0501  -12.8220   22.0345 N   0  0  0  0  0  0
  -25.4363  -15.1904   20.4056 N   0  0  0  0  0  0
  -31.8598  -14.6488   20.1344 O   0  0  0  0  0  0
  -21.6674   -6.8861   21.4206 O   0  0  0  0  0  0
  -22.3547  -14.5567   20.6688 O   0  0  0  0  0  0
  -24.6159  -31.8654   23.2026 C   0  0  0  0  0  0
  -25.9033  -32.4798   23.8361 C   0  0  1  0  0  0
  -27.2323  -27.3851   20.1087 C   0  0  0  0  0  0
  -25.5905  -33.8604   24.2294 N   0  0  0  0  0  0
  -23.4071  -30.4843   21.5459 C   0  0  2  0  0  0
  -24.8509  -28.9406   20.1178 C   0  0  0  0  0  0
  -22.7417  -29.4638   22.4977 C   0  0  0  0  0  0
  -18.0278  -28.1359   22.8462 C   0  0  0  0  0  0
  -24.1501  -36.7297   23.2630 C   0  0  0  0  0  0
  -25.9384  -30.8152   21.3634 C   0  0  0  0  0  0
  -26.0136  -29.4445   20.7123 C   0  0  0  0  0  0
  -27.2033  -28.6751   20.6976 C   0  0  0  0  0  0
  -26.0434  -26.9057   19.5107 C   0  0  0  0  0  0
  -24.8632  -27.6723   19.5142 C   0  0  0  0  0  0
  -23.6155  -29.8085   20.1655 C   0  0  0  0  0  0
  -25.4124  -36.3097   24.0334 C   0  0  1  0  0  0
  -20.5867  -28.3653   23.1291 C   0  0  2  0  0  0
  -20.6766  -26.9390   22.5407 C   0  0  0  0  0  0
  -19.5775  -26.6369   21.5180 C   0  0  0  0  0  0
  -18.1942  -26.7912   22.1577 C   0  0  0  0  0  0
  -19.1520  -28.8826   23.2868 C   0  0  0  0  0  0
  -18.9450  -30.1433   23.8862 C   0  0  0  0  0  0
  -17.6457  -30.6574   24.0538 C   0  0  0  0  0  0
  -25.9043  -34.9467   23.5103 C   0  0  0  0  0  0
  -16.5353  -29.9064   23.6321 C   0  0  0  0  0  0
  -16.7265  -28.6487   23.0337 C   0  0  0  0  0  0
  -26.4438  -31.6594   25.0711 C   0  0  0  0  0  0
  -25.3694  -31.3692   26.1453 C   0  0  0  0  0  0
  -27.0295  -30.3053   24.6097 C   0  0  0  0  0  0
  -27.6022  -32.4301   25.7476 C   0  0  0  0  0  0
  -27.5596  -37.1809   24.8449 C   0  0  0  0  0  0
  -21.4149  -29.3023   22.3714 N   0  0  0  0  0  0
  -26.4301  -37.3792   23.9401 N   0  0  0  0  0  0
  -24.6717  -31.0731   22.0935 N   0  0  0  0  0  0
  -23.4184  -28.8191   23.3036 O   0  0  0  0  0  0
  -28.4207  -26.6650   20.1224 O   0  0  0  0  0  0
  -26.5609  -34.8921   22.4660 O   0  0  0  0  0  0
  -23.5336  -32.1419   23.7407 O   0  0  0  0  0  0
  -30.2051  -19.5763   19.0508 C   0  0  0  0  0  0
  -29.3496  -18.0662   20.7640 C   0  0  0  0  0  0
  -30.8080  -17.2112   19.0112 C   0  0  0  0  0  0
  -29.4141  -19.3787   20.2048 C   0  0  0  0  0  0
  -30.8780  -18.4994   18.4443 C   0  0  0  0  0  0
  -30.0464  -16.9624   20.1866 C   0  0  0  0  0  0
  -28.6515  -20.5312   20.7733 C   0  0  0  0  0  0
  -28.9086  -21.8544   20.5865 C   0  0  0  0  0  0
  -28.0003  -22.9251   21.0872 C   0  0  0  0  0  0
  -28.4819  -24.3931   21.2015 C   0  0  0  0  0  0
  -28.4535  -25.2316   19.8914 C   0  0  0  0  0  0
  -31.5952  -18.7113   17.2627 N   0  0  0  0  0  0
  -29.9128  -15.6263   20.7383 N   0  0  0  0  0  0
  -26.8431  -22.6757   21.4412 O   0  0  0  0  0  0
  -31.4663  -12.3966   19.1486 H   0  0  0  0  0  0
  -30.2893  -11.3205   19.8530 H   0  0  0  0  0  0
  -29.7537  -11.7883   17.4407 H   0  0  0  0  0  0
  -29.6944  -13.5030   17.7667 H   0  0  0  0  0  0
  -27.7842  -11.3554   18.7581 H   0  0  0  0  0  0
  -27.3938  -12.7329   17.7652 H   0  0  0  0  0  0
  -27.6959  -14.2750   19.5827 H   0  0  0  0  0  0
  -28.6919  -12.0140   21.3752 H   0  0  0  0  0  0
  -28.4855  -13.6788   21.8473 H   0  0  0  0  0  0
  -25.2737   -9.5804   22.4719 H   0  0  0  0  0  0
  -24.0058   -7.4704   22.7478 H   0  0  0  0  0  0
  -21.0840   -8.8723   19.8968 H   0  0  0  0  0  0
  -22.3602  -10.9667   19.6144 H   0  0  0  0  0  0
  -21.2000   -7.6146   23.9670 H   0  0  0  0  0  0
  -21.1492   -6.0510   25.9039 H   0  0  0  0  0  0
  -22.0610   -2.7600   23.2809 H   0  0  0  0  0  0
  -22.4113  -11.9872   22.4731 H   0  0  0  0  0  0
  -21.1103  -13.1241   22.2526 H   0  0  0  0  0  0
  -24.6854  -15.8608   20.5204 H   0  0  0  0  0  0
  -26.2970  -15.6173   20.0871 H   0  0  0  0  0  0
  -26.7105  -32.5506   23.1123 H   0  0  0  0  0  0
  -25.0108  -33.9764   25.0481 H   0  0  0  0  0  0
  -22.6952  -31.2989   21.3990 H   0  0  0  0  0  0
  -23.3772  -35.9617   23.3274 H   0  0  0  0  0  0
  -24.3606  -36.8921   22.2047 H   0  0  0  0  0  0
  -23.7232  -37.6489   23.6657 H   0  0  0  0  0  0
  -26.0624  -31.5788   20.5949 H   0  0  0  0  0  0
  -26.8222  -30.8669   21.9884 H   0  0  0  0  0  0
  -28.1035  -29.0644   21.1524 H   0  0  0  0  0  0
  -25.9914  -25.9444   19.0276 H   0  0  0  0  0  0
  -23.9698  -27.2736   19.0517 H   0  0  0  0  0  0
  -23.7209  -30.5722   19.3940 H   0  0  0  0  0  0
  -22.7419  -29.2197   19.8819 H   0  0  0  0  0  0
  -25.1304  -36.1936   25.0827 H   0  0  0  0  0  0
  -20.9945  -28.3212   24.1416 H   0  0  0  0  0  0
  -20.5625  -26.2268   23.3591 H   0  0  0  0  0  0
  -21.6647  -26.7431   22.1225 H   0  0  0  0  0  0
  -19.6939  -25.6268   21.1232 H   0  0  0  0  0  0
  -19.6731  -27.3153   20.6691 H   0  0  0  0  0  0
  -17.4222  -26.6648   21.3960 H   0  0  0  0  0  0
  -18.0343  -26.0049   22.8973 H   0  0  0  0  0  0
  -19.7931  -30.7236   24.2215 H   0  0  0  0  0  0
  -17.5028  -31.6247   24.5144 H   0  0  0  0  0  0
  -15.5346  -30.2950   23.7681 H   0  0  0  0  0  0
  -15.8675  -28.0809   22.7050 H   0  0  0  0  0  0
  -24.5892  -30.7000   25.7788 H   0  0  0  0  0  0
  -24.8832  -32.2833   26.4879 H   0  0  0  0  0  0
  -25.8048  -30.8887   27.0228 H   0  0  0  0  0  0
  -26.2869  -29.6808   24.1114 H   0  0  0  0  0  0
  -27.4040  -29.7275   25.4554 H   0  0  0  0  0  0
  -27.8701  -30.4378   23.9281 H   0  0  0  0  0  0
  -27.2673  -33.3609   26.2062 H   0  0  0  0  0  0
  -28.3848  -32.6836   25.0314 H   0  0  0  0  0  0
  -28.0682  -31.8408   26.5381 H   0  0  0  0  0  0
  -28.2585  -38.0142   24.7553 H   0  0  0  0  0  0
  -28.1132  -36.2670   24.6214 H   0  0  0  0  0  0
  -27.2325  -37.1373   25.8856 H   0  0  0  0  0  0
  -20.9303  -29.8739   21.6939 H   0  0  0  0  0  0
  -26.0177  -38.2865   24.1411 H   0  0  0  0  0  0
  -30.2579  -20.5544   18.5974 H   0  0  0  0  0  0
  -28.7428  -17.8962   21.6433 H   0  0  0  0  0  0
  -31.3229  -16.4043   18.5115 H   0  0  0  0  0  0
  -27.7760  -20.2591   21.3496 H   0  0  0  0  0  0
  -29.7871  -22.1817   20.0474 H   0  0  0  0  0  0
  -29.4870  -24.3927   21.6231 H   0  0  0  0  0  0
  -27.8486  -24.8818   21.9410 H   0  0  0  0  0  0
  -27.6964  -24.8636   19.2052 H   0  0  0  0  0  0
  -29.3926  -25.0374   19.3737 H   0  0  0  0  0  0
  -31.3098  -19.4821   16.6656 H   0  0  0  0  0  0
  -31.8655  -17.9002   16.7167 H   0  0  0  0  0  0
  -29.0415  -15.4256   21.2039 H   0  0  0  0  0  0
  1 25  1  0  0  0
  1 30  2  0  0  0
  1 83  1  0  0  0
  2  3  1  0  0  0
  2 25  1  0  0  0
  2 85  1  0  0  0
  2 86  1  0  0  0
  3  4  1  0  0  0
  3 87  1  0  0  0
  3 88  1  0  0  0
  4  5  1  0  0  0
  4 89  1  0  0  0
  4 90  1  0  0  0
  5  6  1  0  0  0
  5 26  1  0  0  0
  5 91  1  0  0  0
  6 25  1  0  0  0
  6 92  1  0  0  0
  6 93  1  0  0  0
  7  8  2  0  0  0
  7 26  1  0  0  0
  7 29  1  0  0  0
  8  9  1  0  0  0
  8 22  1  0  0  0
  9 10  1  0  0  0
  9 27  2  0  0  0
 10 11  2  0  0  0
 10 15  1  0  0  0
 11 12  1  0  0  0
 11 94  1  0  0  0
 12 13  2  0  0  0
 12 95  1  0  0  0
 13 14  1  0  0  0
 13 31  1  0  0  0
 14 15  2  0  0  0
 14 96  1  0  0  0
 15 97  1  0  0  0
 16 17  2  0  0  0
 16 21  1  0  0  0
 16 31  1  0  0  0
 17 18  1  0  0  0
 17 98  1  0  0  0
 18 19  2  0  0  0
 18 99  1  0  0  0
 19 20  1  0  0  0
 19 24  1  0  0  0
 20 21  2  0  0  0
 20100  1  0  0  0
 21 23  1  0  0  0
 22 28  1  0  0  0
 22 32  2  0  0  0
 26 27  1  0  0  0
 28101  1  0  0  0
 28102  1  0  0  0
 29103  1  0  0  0
 29104  1  0  0  0
 33 34  1  0  0  0
 33 66  1  0  0  0
 33 70  2  0  0  0
 34 36  1  0  0  0
 34 59  1  0  0  0
 34105  1  0  0  0
 35 44  2  0  0  0
 35 45  1  0  0  0
 35 68  1  0  0  0
 36 56  1  0  0  0
 36106  1  0  0  0
 37 39  1  0  0  0
 37 47  1  0  0  0
 37 66  1  0  0  0
 37107  1  0  0  0
 38 43  2  0  0  0
 38 46  1  0  0  0
 38 47  1  0  0  0
 39 64  1  0  0  0
 39 67  2  0  0  0
 40 52  1  0  0  0
 40 53  2  0  0  0
 40 58  1  0  0  0
 41108  1  0  0  0
 41109  1  0  0  0
 41110  1  0  0  0
 41 48  1  0  0  0
 42 43  1  0  0  0
 42 66  1  0  0  0
 42111  1  0  0  0
 42112  1  0  0  0
 43 44  1  0  0  0
 44113  1  0  0  0
 45 46  2  0  0  0
 45114  1  0  0  0
 46115  1  0  0  0
 47116  1  0  0  0
 47117  1  0  0  0
 48 56  1  0  0  0
 48 65  1  0  0  0
 48118  1  0  0  0
 49 50  1  0  0  0
 49 53  1  0  0  0
 49 64  1  0  0  0
 49119  1  0  0  0
 50 51  1  0  0  0
 50120  1  0  0  0
 50121  1  0  0  0
 51 52  1  0  0  0
 51122  1  0  0  0
 51123  1  0  0  0
 52124  1  0  0  0
 52125  1  0  0  0
 53 54  1  0  0  0
 54 55  2  0  0  0
 54126  1  0  0  0
 55 57  1  0  0  0
 55127  1  0  0  0
 56 69  2  0  0  0
 57 58  2  0  0  0
 57128  1  0  0  0
 58129  1  0  0  0
 59 60  1  0  0  0
 59 61  1  0  0  0
 59 62  1  0  0  0
 60130  1  0  0  0
 60131  1  0  0  0
 60132  1  0  0  0
 61133  1  0  0  0
 61134  1  0  0  0
 61135  1  0  0  0
 62136  1  0  0  0
 62137  1  0  0  0
 62138  1  0  0  0
 63 65  1  0  0  0
 63139  1  0  0  0
 63140  1  0  0  0
 63141  1  0  0  0
 64142  1  0  0  0
 65143  1  0  0  0
 68 81  1  0  0  0
 71 74  2  0  0  0
 71 75  1  0  0  0
 71144  1  0  0  0
 72 74  1  0  0  0
 72 76  2  0  0  0
 72145  1  0  0  0
 73 75  2  0  0  0
 73 76  1  0  0  0
 73146  1  0  0  0
 74 77  1  0  0  0
 75 82  1  0  0  0
 76 83  1  0  0  0
 77 78  2  0  0  0
 77147  1  0  0  0
 78 79  1  0  0  0
 78148  1  0  0  0
 79 80  1  0  0  0
 79 84  2  0  0  0
 80 81  1  0  0  0
 80149  1  0  0  0
 80150  1  0  0  0
 81151  1  0  0  0
 81152  1  0  0  0
 82153  1  0  0  0
 82154  1  0  0  0
 83155  1  0  0  0
M  ISO  4   1 100  68 101  81 101  83 100
M  END
> <chiral flag>
0

> <version>
0

> <s_m_source_file>
/data/baiqing/PycharmProjects/Reinvent-master-3.2/result/LINK_invent/BTK/process_docking_weight1_custom_product_contain_oxygen_bond_distance_aromatic_linkinvent_7_9_3/rearranged_h_0128.sdf

> <i_m_source_file_index>
45

> <r_mmod_Potential_Energy-OPLS-2005>
-12.3923597335815

> <r_mmod_Stretch_Energy-OPLS-2005>
48.9522857666016

> <r_mmod_Bend_Energy-OPLS-2005>
112.94953918457

> <r_mmod_Torsional_Energy-OPLS-2005>
239.409484863281

> <r_mmod_Improper_Torsional_Energy-OPLS-2005>
9.03059768676758

> <r_mmod_Van_der_Waal_Energy-OPLS-2005>
153.111297607422

> <r_mmod_Electrostatic_Energy-OPLS-2005>
-361.744842529297

> <r_mmod_Solvation_Energy-OPLS-2005>
-237.609664916992

> <b_mmod_Minimization_Converged-OPLS-2005>
0

> <r_mmod_RMS_Derivative-OPLS-2005>
4.43594360351562

$$$$
45
                    3D
 Structure written by MMmdl.
154162  0  0  1  0            999 V2000
  -30.6298  -14.6250   20.5071 C   0  0  0  0  0  0
  -30.4391  -12.3835   19.4531 C   0  0  0  0  0  0
  -29.5089  -12.5085   18.2254 C   0  0  0  0  0  0
  -28.0303  -12.3506   18.6347 C   0  0  0  0  0  0
  -27.6558  -13.2160   19.8676 C   0  0  2  0  0  0
  -28.7003  -13.0598   20.9966 C   0  0  0  0  0  0
  -25.2561  -13.8158   20.5664 C   0  0  0  0  0  0
  -24.1836  -13.0434   20.9192 C   0  0  0  0  0  0
  -24.6401  -11.6901   20.8744 C   0  0  0  0  0  0
  -23.9066  -10.4292   21.0413 C   0  0  0  0  0  0
  -24.3618   -9.4204   21.9188 C   0  0  0  0  0  0
  -23.6293   -8.2242   22.0753 C   0  0  0  0  0  0
  -22.4275   -8.0282   21.3542 C   0  0  0  0  0  0
  -21.9913   -9.0257   20.4644 C   0  0  0  0  0  0
  -22.7240  -10.2135   20.3058 C   0  0  0  0  0  0
  -21.6852   -6.0736   22.5280 C   0  0  0  0  0  0
  -21.4012   -6.5640   23.8213 C   0  0  0  0  0  0
  -21.3658   -5.6793   24.9175 C   0  0  0  0  0  0
  -21.6047   -4.3058   24.7226 C   0  0  0  0  0  0
  -21.8817   -3.8148   23.4346 C   0  0  0  0  0  0
  -21.9193   -4.6965   22.3401 C   0  0  0  0  0  0
  -22.7854  -13.5228   21.1848 C   0  0  0  0  0  0
  -22.1662   -4.2150   21.0980 F   0  0  0  0  0  0
  -21.5627   -3.4539   25.7739 F   0  0  0  0  0  0
  -30.0192  -13.4001   20.4376 N   0  0  0  0  0  0
  -26.2999  -12.9350   20.3330 N   0  0  0  0  0  0
  -25.9334  -11.6504   20.5772 N   0  0  0  0  0  0
  -22.0496  -12.8228   22.0408 N   0  0  0  0  0  0
  -25.4250  -15.1871   20.4014 N   0  0  0  0  0  0
  -31.7838  -14.7893   20.0990 O   0  0  0  0  0  0
  -21.6637   -6.8876   21.4240 O   0  0  0  0  0  0
  -22.3541  -14.5537   20.6693 O   0  0  0  0  0  0
  -24.6253  -31.8609   23.2020 C   0  0  0  0  0  0
  -25.9104  -32.4785   23.8340 C   0  0  1  0  0  0
  -27.2266  -27.3309   20.1148 C   0  0  0  0  0  0
  -25.5919  -33.8578   24.2277 N   0  0  0  0  0  0
  -23.4186  -30.4852   21.5451 C   0  0  2  0  0  0
  -24.8642  -28.9418   20.1128 C   0  0  0  0  0  0
  -22.7472  -29.4634   22.4933 C   0  0  0  0  0  0
  -18.0288  -28.1389   22.8485 C   0  0  0  0  0  0
  -24.1493  -36.7293   23.2639 C   0  0  0  0  0  0
  -25.9583  -30.7967   21.3698 C   0  0  0  0  0  0
  -26.0333  -29.4248   20.7138 C   0  0  0  0  0  0
  -27.2184  -28.6328   20.7017 C   0  0  0  0  0  0
  -26.0304  -26.8957   19.4968 C   0  0  0  0  0  0
  -24.8642  -27.6825   19.4956 C   0  0  0  0  0  0
  -23.6313  -29.8192   20.1611 C   0  0  0  0  0  0
  -25.4120  -36.3086   24.0330 C   0  0  1  0  0  0
  -20.5890  -28.3693   23.1279 C   0  0  2  0  0  0
  -20.6787  -26.9420   22.5408 C   0  0  0  0  0  0
  -19.5759  -26.6390   21.5216 C   0  0  0  0  0  0
  -18.1934  -26.7932   22.1626 C   0  0  0  0  0  0
  -19.1542  -28.8856   23.2877 C   0  0  0  0  0  0
  -18.9466  -30.1457   23.8897 C   0  0  0  0  0  0
  -17.6467  -30.6592   24.0569 C   0  0  0  0  0  0
  -25.9049  -34.9454   23.5107 C   0  0  0  0  0  0
  -16.5358  -29.9091   23.6332 C   0  0  0  0  0  0
  -16.7275  -28.6510   23.0348 C   0  0  0  0  0  0
  -26.4495  -31.6580   25.0703 C   0  0  0  0  0  0
  -25.3726  -31.3709   26.1427 C   0  0  0  0  0  0
  -27.0341  -30.3011   24.6139 C   0  0  0  0  0  0
  -27.6066  -32.4301   25.7472 C   0  0  0  0  0  0
  -27.5586  -37.1805   24.8469 C   0  0  0  0  0  0
  -21.4188  -29.3045   22.3672 N   0  0  0  0  0  0
  -26.4304  -37.3780   23.9399 N   0  0  0  0  0  0
  -24.6864  -31.0640   22.0962 N   0  0  0  0  0  0
  -23.4202  -28.8167   23.3002 O   0  0  0  0  0  0
  -28.3540  -26.4973   20.1577 O   0  0  0  0  0  0
  -26.5625  -34.8926   22.4682 O   0  0  0  0  0  0
  -23.5422  -32.1376   23.7371 O   0  0  0  0  0  0
  -30.8005  -19.1902   19.7235 C   0  0  0  0  0  0
  -30.8261  -17.7760   19.8987 C   0  0  0  0  0  0
  -28.9460  -19.3696   21.2316 C   0  0  0  0  0  0
  -29.8647  -20.0339   20.3814 C   0  0  0  0  0  0
  -28.9661  -17.9523   21.4223 C   0  0  0  0  0  0
  -29.9073  -17.1118   20.7527 C   0  0  0  0  0  0
  -29.9189  -21.5403   20.1699 C   0  0  0  0  0  0
  -29.1246  -22.5589   20.6270 C   0  0  0  0  0  0
  -27.9427  -17.3499   22.3710 C   0  0  0  0  0  0
  -29.3727  -24.0943   20.4187 C   0  0  0  0  0  0
  -28.1394  -25.0352   20.1068 C   0  0  0  0  0  0
  -29.8394  -15.6600   20.9290 N   0  0  0  0  0  0
  -31.4808  -12.5062   19.1513 H   0  0  0  0  0  0
  -30.3706  -11.3862   19.8892 H   0  0  0  0  0  0
  -29.7709  -11.7598   17.4766 H   0  0  0  0  0  0
  -29.6552  -13.4799   17.7497 H   0  0  0  0  0  0
  -27.8612  -11.2968   18.8584 H   0  0  0  0  0  0
  -27.3785  -12.5903   17.7938 H   0  0  0  0  0  0
  -27.6785  -14.2539   19.5347 H   0  0  0  0  0  0
  -28.7080  -12.0347   21.3700 H   0  0  0  0  0  0
  -28.4452  -13.6831   21.8548 H   0  0  0  0  0  0
  -25.2763   -9.5681   22.4760 H   0  0  0  0  0  0
  -24.0003   -7.4631   22.7471 H   0  0  0  0  0  0
  -21.0842   -8.8774   19.8951 H   0  0  0  0  0  0
  -22.3699  -10.9673   19.6167 H   0  0  0  0  0  0
  -21.2005   -7.6149   23.9715 H   0  0  0  0  0  0
  -21.1481   -6.0524   25.9077 H   0  0  0  0  0  0
  -22.0599   -2.7609   23.2847 H   0  0  0  0  0  0
  -22.4111  -11.9895   22.4810 H   0  0  0  0  0  0
  -21.1108  -13.1246   22.2601 H   0  0  0  0  0  0
  -24.6512  -15.8358   20.4928 H   0  0  0  0  0  0
  -26.2627  -15.6199   20.0347 H   0  0  0  0  0  0
  -26.7177  -32.5470   23.1092 H   0  0  0  0  0  0
  -25.0068  -33.9705   25.0425 H   0  0  0  0  0  0
  -22.7118  -31.3055   21.4023 H   0  0  0  0  0  0
  -23.3754  -35.9629   23.3307 H   0  0  0  0  0  0
  -24.3589  -36.8907   22.2054 H   0  0  0  0  0  0
  -23.7248  -37.6500   23.6655 H   0  0  0  0  0  0
  -26.0875  -31.5579   20.5988 H   0  0  0  0  0  0
  -26.8406  -30.8459   21.9966 H   0  0  0  0  0  0
  -28.1182  -29.0005   21.1753 H   0  0  0  0  0  0
  -25.9675  -25.9335   19.0115 H   0  0  0  0  0  0
  -23.9679  -27.3072   19.0214 H   0  0  0  0  0  0
  -23.7460  -30.5926   19.4007 H   0  0  0  0  0  0
  -22.7522  -29.2444   19.8640 H   0  0  0  0  0  0
  -25.1301  -36.1946   25.0826 H   0  0  0  0  0  0
  -20.9986  -28.3282   24.1400 H   0  0  0  0  0  0
  -20.5707  -26.2306   23.3607 H   0  0  0  0  0  0
  -21.6651  -26.7464   22.1193 H   0  0  0  0  0  0
  -19.6930  -25.6304   21.1237 H   0  0  0  0  0  0
  -19.6699  -27.3209   20.6752 H   0  0  0  0  0  0
  -17.4210  -26.6674   21.4021 H   0  0  0  0  0  0
  -18.0337  -26.0071   22.9021 H   0  0  0  0  0  0
  -19.7942  -30.7272   24.2266 H   0  0  0  0  0  0
  -17.5024  -31.6270   24.5171 H   0  0  0  0  0  0
  -15.5358  -30.2997   23.7657 H   0  0  0  0  0  0
  -15.8671  -28.0833   22.7057 H   0  0  0  0  0  0
  -24.5908  -30.7057   25.7741 H   0  0  0  0  0  0
  -24.8909  -32.2873   26.4844 H   0  0  0  0  0  0
  -25.8043  -30.8883   27.0204 H   0  0  0  0  0  0
  -26.2914  -29.6757   24.1175 H   0  0  0  0  0  0
  -27.4066  -29.7265   25.4626 H   0  0  0  0  0  0
  -27.8763  -30.4302   23.9338 H   0  0  0  0  0  0
  -27.2688  -33.3597   26.2062 H   0  0  0  0  0  0
  -28.3871  -32.6861   25.0294 H   0  0  0  0  0  0
  -28.0741  -31.8412   26.5373 H   0  0  0  0  0  0
  -28.2611  -38.0096   24.7514 H   0  0  0  0  0  0
  -28.1072  -36.2625   24.6300 H   0  0  0  0  0  0
  -27.2293  -37.1462   25.8871 H   0  0  0  0  0  0
  -20.9374  -29.8751   21.6865 H   0  0  0  0  0  0
  -26.0184  -38.2859   24.1400 H   0  0  0  0  0  0
  -31.5297  -19.6325   19.0588 H   0  0  0  0  0  0
  -31.5651  -17.2096   19.3500 H   0  0  0  0  0  0
  -28.2127  -19.9605   21.7624 H   0  0  0  0  0  0
  -30.7607  -21.8543   19.5683 H   0  0  0  0  0  0
  -28.2621  -22.3112   21.2295 H   0  0  0  0  0  0
  -27.5631  -18.1007   23.0646 H   0  0  0  0  0  0
  -28.3731  -16.5485   22.9714 H   0  0  0  0  0  0
  -27.0955  -16.9523   21.8137 H   0  0  0  0  0  0
  -30.1298  -24.2270   19.6452 H   0  0  0  0  0  0
  -29.8295  -24.4539   21.3408 H   0  0  0  0  0  0
  -27.7749  -24.7639   19.1161 H   0  0  0  0  0  0
  -27.3448  -24.7871   20.8129 H   0  0  0  0  0  0
  -28.9771  -15.3376   21.3387 H   0  0  0  0  0  0
  1 25  1  0  0  0
  1 30  2  0  0  0
  1 82  1  0  0  0
  2  3  1  0  0  0
  2 25  1  0  0  0
  2 83  1  0  0  0
  2 84  1  0  0  0
  3  4  1  0  0  0
  3 85  1  0  0  0
  3 86  1  0  0  0
  4  5  1  0  0  0
  4 87  1  0  0  0
  4 88  1  0  0  0
  5  6  1  0  0  0
  5 26  1  0  0  0
  5 89  1  0  0  0
  6 25  1  0  0  0
  6 90  1  0  0  0
  6 91  1  0  0  0
  7  8  2  0  0  0
  7 26  1  0  0  0
  7 29  1  0  0  0
  8  9  1  0  0  0
  8 22  1  0  0  0
  9 10  1  0  0  0
  9 27  2  0  0  0
 10 11  2  0  0  0
 10 15  1  0  0  0
 11 12  1  0  0  0
 11 92  1  0  0  0
 12 13  2  0  0  0
 12 93  1  0  0  0
 13 14  1  0  0  0
 13 31  1  0  0  0
 14 15  2  0  0  0
 14 94  1  0  0  0
 15 95  1  0  0  0
 16 17  2  0  0  0
 16 21  1  0  0  0
 16 31  1  0  0  0
 17 18  1  0  0  0
 17 96  1  0  0  0
 18 19  2  0  0  0
 18 97  1  0  0  0
 19 20  1  0  0  0
 19 24  1  0  0  0
 20 21  2  0  0  0
 20 98  1  0  0  0
 21 23  1  0  0  0
 22 28  1  0  0  0
 22 32  2  0  0  0
 26 27  1  0  0  0
 28 99  1  0  0  0
 28100  1  0  0  0
 29101  1  0  0  0
 29102  1  0  0  0
 33 34  1  0  0  0
 33 66  1  0  0  0
 33 70  2  0  0  0
 34 36  1  0  0  0
 34 59  1  0  0  0
 34103  1  0  0  0
 35 44  2  0  0  0
 35 45  1  0  0  0
 35 68  1  0  0  0
 36 56  1  0  0  0
 36104  1  0  0  0
 37 39  1  0  0  0
 37 47  1  0  0  0
 37 66  1  0  0  0
 37105  1  0  0  0
 38 43  2  0  0  0
 38 46  1  0  0  0
 38 47  1  0  0  0
 39 64  1  0  0  0
 39 67  2  0  0  0
 40 52  1  0  0  0
 40 53  2  0  0  0
 40 58  1  0  0  0
 41106  1  0  0  0
 41107  1  0  0  0
 41108  1  0  0  0
 41 48  1  0  0  0
 42 43  1  0  0  0
 42 66  1  0  0  0
 42109  1  0  0  0
 42110  1  0  0  0
 43 44  1  0  0  0
 44111  1  0  0  0
 45 46  2  0  0  0
 45112  1  0  0  0
 46113  1  0  0  0
 47114  1  0  0  0
 47115  1  0  0  0
 48 56  1  0  0  0
 48 65  1  0  0  0
 48116  1  0  0  0
 49 50  1  0  0  0
 49 53  1  0  0  0
 49 64  1  0  0  0
 49117  1  0  0  0
 50 51  1  0  0  0
 50118  1  0  0  0
 50119  1  0  0  0
 51 52  1  0  0  0
 51120  1  0  0  0
 51121  1  0  0  0
 52122  1  0  0  0
 52123  1  0  0  0
 53 54  1  0  0  0
 54 55  2  0  0  0
 54124  1  0  0  0
 55 57  1  0  0  0
 55125  1  0  0  0
 56 69  2  0  0  0
 57 58  2  0  0  0
 57126  1  0  0  0
 58127  1  0  0  0
 59 60  1  0  0  0
 59 61  1  0  0  0
 59 62  1  0  0  0
 60128  1  0  0  0
 60129  1  0  0  0
 60130  1  0  0  0
 61131  1  0  0  0
 61132  1  0  0  0
 61133  1  0  0  0
 62134  1  0  0  0
 62135  1  0  0  0
 62136  1  0  0  0
 63 65  1  0  0  0
 63137  1  0  0  0
 63138  1  0  0  0
 63139  1  0  0  0
 64140  1  0  0  0
 65141  1  0  0  0
 68 81  1  0  0  0
 71 72  2  0  0  0
 71 74  1  0  0  0
 71142  1  0  0  0
 72 76  1  0  0  0
 72143  1  0  0  0
 73 74  2  0  0  0
 73 75  1  0  0  0
 73144  1  0  0  0
 74 77  1  0  0  0
 75 76  2  0  0  0
 75 79  1  0  0  0
 76 82  1  0  0  0
 77 78  2  0  0  0
 77145  1  0  0  0
 78 80  1  0  0  0
 78146  1  0  0  0
 79147  1  0  0  0
 79148  1  0  0  0
 79149  1  0  0  0
 80 81  1  0  0  0
 80150  1  0  0  0
 80151  1  0  0  0
 81152  1  0  0  0
 81153  1  0  0  0
 82154  1  0  0  0
M  ISO  4   1 100  68 101  81 101  82 100
M  END
> <chiral flag>
0

> <version>
0

> <s_m_source_file>
/data/baiqing/PycharmProjects/Reinvent-master-3.2/result/LINK_invent/BTK/process_docking_weight1_custom_product_contain_oxygen_bond_distance_aromatic_linkinvent_7_9_3/rearranged_h_0128.sdf

> <i_m_source_file_index>
46

> <r_mmod_Potential_Energy-OPLS-2005>
15.8081169128418

> <r_mmod_Stretch_Energy-OPLS-2005>
72.9601364135742

> <r_mmod_Bend_Energy-OPLS-2005>
127.959579467773

> <r_mmod_Torsional_Energy-OPLS-2005>
210.670867919922

> <r_mmod_Improper_Torsional_Energy-OPLS-2005>
3.97630620002747

> <r_mmod_Van_der_Waal_Energy-OPLS-2005>
145.290176391602

> <r_mmod_Electrostatic_Energy-OPLS-2005>
-385.619903564453

> <r_mmod_Solvation_Energy-OPLS-2005>
-202.09001159668

> <b_mmod_Minimization_Converged-OPLS-2005>
0

> <r_mmod_RMS_Derivative-OPLS-2005>
1.18030452728271

$$$$
46
                    3D
 Structure written by MMmdl.
153161  0  0  1  0            999 V2000
  -30.7197  -14.4732   20.5702 C   0  0  0  0  0  0
  -30.4174  -12.3084   19.4277 C   0  0  0  0  0  0
  -29.4924  -12.4993   18.2087 C   0  0  0  0  0  0
  -28.0153  -12.3589   18.6232 C   0  0  0  0  0  0
  -27.6595  -13.2098   19.8718 C   0  0  2  0  0  0
  -28.7015  -13.0123   20.9969 C   0  0  0  0  0  0
  -25.2581  -13.8170   20.5685 C   0  0  0  0  0  0
  -24.1838  -13.0442   20.9187 C   0  0  0  0  0  0
  -24.6395  -11.6910   20.8741 C   0  0  0  0  0  0
  -23.9066  -10.4292   21.0408 C   0  0  0  0  0  0
  -24.3618   -9.4209   21.9186 C   0  0  0  0  0  0
  -23.6294   -8.2244   22.0754 C   0  0  0  0  0  0
  -22.4278   -8.0282   21.3542 C   0  0  0  0  0  0
  -21.9913   -9.0259   20.4649 C   0  0  0  0  0  0
  -22.7240  -10.2138   20.3058 C   0  0  0  0  0  0
  -21.6852   -6.0739   22.5280 C   0  0  0  0  0  0
  -21.4014   -6.5642   23.8214 C   0  0  0  0  0  0
  -21.3659   -5.6794   24.9176 C   0  0  0  0  0  0
  -21.6042   -4.3057   24.7227 C   0  0  0  0  0  0
  -21.8819   -3.8149   23.4349 C   0  0  0  0  0  0
  -21.9192   -4.6966   22.3404 C   0  0  0  0  0  0
  -22.7861  -13.5234   21.1857 C   0  0  0  0  0  0
  -22.1661   -4.2152   21.0982 F   0  0  0  0  0  0
  -21.5629   -3.4541   25.7740 F   0  0  0  0  0  0
  -30.0323  -13.3056   20.4403 N   0  0  0  0  0  0
  -26.3016  -12.9346   20.3358 N   0  0  0  0  0  0
  -25.9322  -11.6503   20.5774 N   0  0  0  0  0  0
  -22.0503  -12.8220   22.0410 N   0  0  0  0  0  0
  -25.4310  -15.1891   20.4092 N   0  0  0  0  0  0
  -31.8489  -14.6238   20.0962 O   0  0  0  0  0  0
  -21.6637   -6.8885   21.4243 O   0  0  0  0  0  0
  -22.3545  -14.5541   20.6711 O   0  0  0  0  0  0
  -24.6147  -31.8677   23.2094 C   0  0  0  0  0  0
  -25.9037  -32.4823   23.8392 C   0  0  1  0  0  0
  -27.2324  -27.4337   20.1031 C   0  0  0  0  0  0
  -25.5897  -33.8620   24.2328 N   0  0  0  0  0  0
  -23.4030  -30.4913   21.5499 C   0  0  2  0  0  0
  -24.8512  -28.9583   20.1132 C   0  0  0  0  0  0
  -22.7413  -29.4660   22.4986 C   0  0  0  0  0  0
  -18.0273  -28.1376   22.8494 C   0  0  0  0  0  0
  -24.1488  -36.7319   23.2637 C   0  0  0  0  0  0
  -25.9318  -30.8355   21.3609 C   0  0  0  0  0  0
  -26.0119  -29.4698   20.7088 C   0  0  0  0  0  0
  -27.2096  -28.7168   20.6971 C   0  0  0  0  0  0
  -26.0590  -26.9397   19.4944 C   0  0  0  0  0  0
  -24.8698  -27.6929   19.5010 C   0  0  0  0  0  0
  -23.6117  -29.8233   20.1646 C   0  0  0  0  0  0
  -25.4107  -36.3113   24.0336 C   0  0  1  0  0  0
  -20.5864  -28.3666   23.1315 C   0  0  2  0  0  0
  -20.6765  -26.9403   22.5417 C   0  0  0  0  0  0
  -19.5747  -26.6385   21.5212 C   0  0  0  0  0  0
  -18.1921  -26.7925   22.1616 C   0  0  0  0  0  0
  -19.1523  -28.8836   23.2901 C   0  0  0  0  0  0
  -18.9451  -30.1440   23.8916 C   0  0  0  0  0  0
  -17.6453  -30.6584   24.0567 C   0  0  0  0  0  0
  -25.9034  -34.9477   23.5131 C   0  0  0  0  0  0
  -16.5344  -29.9088   23.6325 C   0  0  0  0  0  0
  -16.7261  -28.6502   23.0353 C   0  0  0  0  0  0
  -26.4476  -31.6599   25.0713 C   0  0  0  0  0  0
  -25.3751  -31.3693   26.1467 C   0  0  0  0  0  0
  -27.0308  -30.3047   24.6075 C   0  0  0  0  0  0
  -27.6060  -32.4316   25.7467 C   0  0  0  0  0  0
  -27.5584  -37.1809   24.8463 C   0  0  0  0  0  0
  -21.4139  -29.3035   22.3723 N   0  0  0  0  0  0
  -26.4299  -37.3794   23.9406 N   0  0  0  0  0  0
  -24.6683  -31.0785   22.0988 N   0  0  0  0  0  0
  -23.4186  -28.8199   23.3027 O   0  0  0  0  0  0
  -28.3726  -26.6613   20.1189 O   0  0  0  0  0  0
  -26.5596  -34.8929   22.4693 O   0  0  0  0  0  0
  -23.5340  -32.1429   23.7491 O   0  0  0  0  0  0
  -29.4829  -17.9122   20.9376 C   0  0  0  0  0  0
  -31.2006  -19.6197   21.1694 C   0  0  0  0  0  0
  -31.7775  -17.2632   21.4252 C   0  0  0  0  0  0
  -29.8472  -19.2915   20.9283 C   0  0  0  0  0  0
  -30.4412  -16.8865   21.1526 C   0  0  0  0  0  0
  -32.1526  -18.6184   21.4279 C   0  0  0  0  0  0
  -29.2561  -21.7616   20.2777 C   0  0  0  0  0  0
  -28.5693  -22.8760   20.6278 C   0  0  0  0  0  0
  -28.8494  -20.3775   20.6510 C   0  0  0  0  0  0
  -28.9660  -24.2414   20.2077 C   0  0  0  0  0  0
  -28.2109  -25.4259   20.8473 C   0  0  0  0  0  0
  -27.6071  -20.1402   20.7158 N   0  0  0  0  0  0
  -30.0372  -15.5081   21.1113 N   0  0  0  0  0  0
  -29.8620  -24.4549   19.3831 O   0  0  0  0  0  0
  -33.4390  -18.9619   21.6772 F   0  0  0  0  0  0
  -31.4625  -12.3946   19.1249 H   0  0  0  0  0  0
  -30.3110  -11.3024   19.8360 H   0  0  0  0  0  0
  -29.7328  -11.7689   17.4350 H   0  0  0  0  0  0
  -29.6594  -13.4824   17.7653 H   0  0  0  0  0  0
  -27.8309  -11.3043   18.8311 H   0  0  0  0  0  0
  -27.3621  -12.6208   17.7903 H   0  0  0  0  0  0
  -27.6983  -14.2543   19.5610 H   0  0  0  0  0  0
  -28.6777  -11.9844   21.3612 H   0  0  0  0  0  0
  -28.4642  -13.6341   21.8615 H   0  0  0  0  0  0
  -25.2768   -9.5678   22.4759 H   0  0  0  0  0  0
  -24.0004   -7.4632   22.7467 H   0  0  0  0  0  0
  -21.0847   -8.8781   19.8953 H   0  0  0  0  0  0
  -22.3707  -10.9678   19.6165 H   0  0  0  0  0  0
  -21.2005   -7.6150   23.9719 H   0  0  0  0  0  0
  -21.1481   -6.0525   25.9078 H   0  0  0  0  0  0
  -22.0598   -2.7613   23.2848 H   0  0  0  0  0  0
  -22.4121  -11.9870   22.4774 H   0  0  0  0  0  0
  -21.1126  -13.1247   22.2635 H   0  0  0  0  0  0
  -24.6649  -15.8449   20.5164 H   0  0  0  0  0  0
  -26.2792  -15.6236   20.0687 H   0  0  0  0  0  0
  -26.7108  -32.5544   23.1160 H   0  0  0  0  0  0
  -25.0062  -33.9786   25.0483 H   0  0  0  0  0  0
  -22.6916  -31.3080   21.4108 H   0  0  0  0  0  0
  -23.3743  -35.9660   23.3307 H   0  0  0  0  0  0
  -24.3582  -36.8929   22.2052 H   0  0  0  0  0  0
  -23.7251  -37.6530   23.6651 H   0  0  0  0  0  0
  -26.0407  -31.6005   20.5908 H   0  0  0  0  0  0
  -26.8206  -30.8919   21.9777 H   0  0  0  0  0  0
  -28.1059  -29.1055   21.1608 H   0  0  0  0  0  0
  -26.0617  -25.9683   19.0199 H   0  0  0  0  0  0
  -23.9787  -27.2950   19.0352 H   0  0  0  0  0  0
  -23.7171  -30.5984   19.4046 H   0  0  0  0  0  0
  -22.7363  -29.2416   19.8704 H   0  0  0  0  0  0
  -25.1283  -36.1979   25.0830 H   0  0  0  0  0  0
  -20.9958  -28.3236   24.1436 H   0  0  0  0  0  0
  -20.5670  -26.2275   23.3604 H   0  0  0  0  0  0
  -21.6634  -26.7451   22.1210 H   0  0  0  0  0  0
  -19.6911  -25.6300   21.1230 H   0  0  0  0  0  0
  -19.6686  -27.3202   20.6750 H   0  0  0  0  0  0
  -17.4196  -26.6682   21.4011 H   0  0  0  0  0  0
  -18.0312  -26.0056   22.9002 H   0  0  0  0  0  0
  -19.7929  -30.7243   24.2301 H   0  0  0  0  0  0
  -17.5016  -31.6269   24.5158 H   0  0  0  0  0  0
  -15.5349  -30.3000   23.7638 H   0  0  0  0  0  0
  -15.8660  -28.0827   22.7066 H   0  0  0  0  0  0
  -24.5943  -30.7012   25.7810 H   0  0  0  0  0  0
  -24.8910  -32.2837   26.4909 H   0  0  0  0  0  0
  -25.8114  -30.8882   27.0229 H   0  0  0  0  0  0
  -26.2841  -29.6791   24.1170 H   0  0  0  0  0  0
  -27.4137  -29.7297   25.4513 H   0  0  0  0  0  0
  -27.8647  -30.4370   23.9178 H   0  0  0  0  0  0
  -27.2697  -33.3616   26.2064 H   0  0  0  0  0  0
  -28.3857  -32.6876   25.0280 H   0  0  0  0  0  0
  -28.0745  -31.8427   26.5363 H   0  0  0  0  0  0
  -28.2606  -38.0102   24.7517 H   0  0  0  0  0  0
  -28.1079  -36.2636   24.6283 H   0  0  0  0  0  0
  -27.2305  -37.1455   25.8868 H   0  0  0  0  0  0
  -20.9297  -29.8768   21.6958 H   0  0  0  0  0  0
  -26.0188  -38.2874   24.1406 H   0  0  0  0  0  0
  -28.4584  -17.6311   20.7400 H   0  0  0  0  0  0
  -31.5264  -20.6494   21.1808 H   0  0  0  0  0  0
  -32.5354  -16.5215   21.6280 H   0  0  0  0  0  0
  -30.1580  -21.8315   19.6859 H   0  0  0  0  0  0
  -27.6785  -22.7914   21.2335 H   0  0  0  0  0  0
  -28.5983  -25.5707   21.8559 H   0  0  0  0  0  0
  -27.1626  -25.1477   20.9575 H   0  0  0  0  0  0
  -27.4219  -19.1793   20.9795 H   0  0  0  0  0  0
  -29.0816  -15.3041   21.3617 H   0  0  0  0  0  0
  1 25  1  0  0  0
  1 30  2  0  0  0
  1 83  1  0  0  0
  2  3  1  0  0  0
  2 25  1  0  0  0
  2 86  1  0  0  0
  2 87  1  0  0  0
  3  4  1  0  0  0
  3 88  1  0  0  0
  3 89  1  0  0  0
  4  5  1  0  0  0
  4 90  1  0  0  0
  4 91  1  0  0  0
  5  6  1  0  0  0
  5 26  1  0  0  0
  5 92  1  0  0  0
  6 25  1  0  0  0
  6 93  1  0  0  0
  6 94  1  0  0  0
  7  8  2  0  0  0
  7 26  1  0  0  0
  7 29  1  0  0  0
  8  9  1  0  0  0
  8 22  1  0  0  0
  9 10  1  0  0  0
  9 27  2  0  0  0
 10 11  2  0  0  0
 10 15  1  0  0  0
 11 12  1  0  0  0
 11 95  1  0  0  0
 12 13  2  0  0  0
 12 96  1  0  0  0
 13 14  1  0  0  0
 13 31  1  0  0  0
 14 15  2  0  0  0
 14 97  1  0  0  0
 15 98  1  0  0  0
 16 17  2  0  0  0
 16 21  1  0  0  0
 16 31  1  0  0  0
 17 18  1  0  0  0
 17 99  1  0  0  0
 18 19  2  0  0  0
 18100  1  0  0  0
 19 20  1  0  0  0
 19 24  1  0  0  0
 20 21  2  0  0  0
 20101  1  0  0  0
 21 23  1  0  0  0
 22 28  1  0  0  0
 22 32  2  0  0  0
 26 27  1  0  0  0
 28102  1  0  0  0
 28103  1  0  0  0
 29104  1  0  0  0
 29105  1  0  0  0
 33 34  1  0  0  0
 33 66  1  0  0  0
 33 70  2  0  0  0
 34 36  1  0  0  0
 34 59  1  0  0  0
 34106  1  0  0  0
 35 44  2  0  0  0
 35 45  1  0  0  0
 35 68  1  0  0  0
 36 56  1  0  0  0
 36107  1  0  0  0
 37 39  1  0  0  0
 37 47  1  0  0  0
 37 66  1  0  0  0
 37108  1  0  0  0
 38 43  2  0  0  0
 38 46  1  0  0  0
 38 47  1  0  0  0
 39 64  1  0  0  0
 39 67  2  0  0  0
 40 52  1  0  0  0
 40 53  2  0  0  0
 40 58  1  0  0  0
 41109  1  0  0  0
 41110  1  0  0  0
 41111  1  0  0  0
 41 48  1  0  0  0
 42 43  1  0  0  0
 42 66  1  0  0  0
 42112  1  0  0  0
 42113  1  0  0  0
 43 44  1  0  0  0
 44114  1  0  0  0
 45 46  2  0  0  0
 45115  1  0  0  0
 46116  1  0  0  0
 47117  1  0  0  0
 47118  1  0  0  0
 48 56  1  0  0  0
 48 65  1  0  0  0
 48119  1  0  0  0
 49 50  1  0  0  0
 49 53  1  0  0  0
 49 64  1  0  0  0
 49120  1  0  0  0
 50 51  1  0  0  0
 50121  1  0  0  0
 50122  1  0  0  0
 51 52  1  0  0  0
 51123  1  0  0  0
 51124  1  0  0  0
 52125  1  0  0  0
 52126  1  0  0  0
 53 54  1  0  0  0
 54 55  2  0  0  0
 54127  1  0  0  0
 55 57  1  0  0  0
 55128  1  0  0  0
 56 69  2  0  0  0
 57 58  2  0  0  0
 57129  1  0  0  0
 58130  1  0  0  0
 59 60  1  0  0  0
 59 61  1  0  0  0
 59 62  1  0  0  0
 60131  1  0  0  0
 60132  1  0  0  0
 60133  1  0  0  0
 61134  1  0  0  0
 61135  1  0  0  0
 61136  1  0  0  0
 62137  1  0  0  0
 62138  1  0  0  0
 62139  1  0  0  0
 63 65  1  0  0  0
 63140  1  0  0  0
 63141  1  0  0  0
 63142  1  0  0  0
 64143  1  0  0  0
 65144  1  0  0  0
 68 81  1  0  0  0
 71 74  2  0  0  0
 71 75  1  0  0  0
 71145  1  0  0  0
 72 74  1  0  0  0
 72 76  2  0  0  0
 72146  1  0  0  0
 73 75  2  0  0  0
 73 76  1  0  0  0
 73147  1  0  0  0
 74 79  1  0  0  0
 75 83  1  0  0  0
 76 85  1  0  0  0
 77 78  2  0  0  0
 77 79  1  0  0  0
 77148  1  0  0  0
 78 80  1  0  0  0
 78149  1  0  0  0
 79 82  2  0  0  0
 80 81  1  0  0  0
 80 84  2  0  0  0
 81150  1  0  0  0
 81151  1  0  0  0
 82152  1  0  0  0
 83153  1  0  0  0
M  ISO  4   1 100  68 101  81 101  83 100
M  END
> <chiral flag>
0

> <version>
0

> <s_m_source_file>
/data/baiqing/PycharmProjects/Reinvent-master-3.2/result/LINK_invent/BTK/process_docking_weight1_custom_product_contain_oxygen_bond_distance_aromatic_linkinvent_7_9_3/rearranged_h_0128.sdf

> <i_m_source_file_index>
47

> <r_mmod_Potential_Energy-OPLS-2005>
-94.0259094238281

> <r_mmod_Stretch_Energy-OPLS-2005>
40.7688179016113

> <r_mmod_Bend_Energy-OPLS-2005>
91.9405364990234

> <r_mmod_Torsional_Energy-OPLS-2005>
249.30827331543

> <r_mmod_Improper_Torsional_Energy-OPLS-2005>
3.68996429443359

> <r_mmod_Van_der_Waal_Energy-OPLS-2005>
161.437164306641

> <r_mmod_Electrostatic_Energy-OPLS-2005>
-417.368804931641

> <r_mmod_Solvation_Energy-OPLS-2005>
-237.826141357422

> <b_mmod_Minimization_Converged-OPLS-2005>
0

> <r_mmod_RMS_Derivative-OPLS-2005>
0.772734045982361

$$$$
47
                    3D
 Structure written by MMmdl.
158166  0  0  1  0            999 V2000
  -30.7212  -14.4177   20.6315 C   0  0  0  0  0  0
  -30.4242  -12.2903   19.4180 C   0  0  0  0  0  0
  -29.4926  -12.5132   18.2089 C   0  0  0  0  0  0
  -28.0126  -12.3769   18.6171 C   0  0  0  0  0  0
  -27.6660  -13.2041   19.8841 C   0  0  2  0  0  0
  -28.7026  -12.9511   21.0025 C   0  0  0  0  0  0
  -25.2590  -13.8171   20.5684 C   0  0  0  0  0  0
  -24.1825  -13.0459   20.9165 C   0  0  0  0  0  0
  -24.6374  -11.6920   20.8737 C   0  0  0  0  0  0
  -23.9041  -10.4308   21.0410 C   0  0  0  0  0  0
  -24.3597   -9.4223   21.9191 C   0  0  0  0  0  0
  -23.6286   -8.2252   22.0753 C   0  0  0  0  0  0
  -22.4271   -8.0279   21.3540 C   0  0  0  0  0  0
  -21.9898   -9.0254   20.4644 C   0  0  0  0  0  0
  -22.7212  -10.2142   20.3062 C   0  0  0  0  0  0
  -21.6851   -6.0740   22.5287 C   0  0  0  0  0  0
  -21.4012   -6.5643   23.8219 C   0  0  0  0  0  0
  -21.3659   -5.6793   24.9182 C   0  0  0  0  0  0
  -21.6048   -4.3056   24.7227 C   0  0  0  0  0  0
  -21.8818   -3.8148   23.4346 C   0  0  0  0  0  0
  -21.9192   -4.6971   22.3405 C   0  0  0  0  0  0
  -22.7845  -13.5262   21.1817 C   0  0  0  0  0  0
  -22.1652   -4.2160   21.0984 F   0  0  0  0  0  0
  -21.5633   -3.4534   25.7739 F   0  0  0  0  0  0
  -30.0474  -13.2473   20.4708 N   0  0  0  0  0  0
  -26.3035  -12.9338   20.3407 N   0  0  0  0  0  0
  -25.9305  -11.6497   20.5786 N   0  0  0  0  0  0
  -22.0467  -12.8283   22.0381 N   0  0  0  0  0  0
  -25.4344  -15.1888   20.4089 N   0  0  0  0  0  0
  -31.7866  -14.6649   20.0557 O   0  0  0  0  0  0
  -21.6635   -6.8880   21.4244 O   0  0  0  0  0  0
  -22.3533  -14.5562   20.6648 O   0  0  0  0  0  0
  -24.6122  -31.8698   23.2124 C   0  0  0  0  0  0
  -25.9026  -32.4837   23.8409 C   0  0  1  0  0  0
  -27.2419  -27.4666   20.0768 C   0  0  0  0  0  0
  -25.5891  -33.8635   24.2343 N   0  0  0  0  0  0
  -23.3995  -30.4943   21.5507 C   0  0  2  0  0  0
  -24.8464  -28.9606   20.1173 C   0  0  0  0  0  0
  -22.7397  -29.4674   22.4991 C   0  0  0  0  0  0
  -18.0274  -28.1382   22.8494 C   0  0  0  0  0  0
  -24.1485  -36.7329   23.2638 C   0  0  0  0  0  0
  -25.9255  -30.8417   21.3628 C   0  0  0  0  0  0
  -26.0030  -29.4753   20.7159 C   0  0  0  0  0  0
  -27.2006  -28.7282   20.7072 C   0  0  0  0  0  0
  -26.0646  -26.9512   19.4903 C   0  0  0  0  0  0
  -24.8681  -27.6923   19.5104 C   0  0  0  0  0  0
  -23.6085  -29.8265   20.1650 C   0  0  0  0  0  0
  -25.4103  -36.3121   24.0341 C   0  0  1  0  0  0
  -20.5863  -28.3663   23.1324 C   0  0  2  0  0  0
  -20.6765  -26.9398   22.5420 C   0  0  0  0  0  0
  -19.5745  -26.6384   21.5217 C   0  0  0  0  0  0
  -18.1922  -26.7931   22.1624 C   0  0  0  0  0  0
  -19.1524  -28.8838   23.2909 C   0  0  0  0  0  0
  -18.9454  -30.1445   23.8914 C   0  0  0  0  0  0
  -17.6458  -30.6583   24.0572 C   0  0  0  0  0  0
  -25.9024  -34.9485   23.5137 C   0  0  0  0  0  0
  -16.5348  -29.9089   23.6326 C   0  0  0  0  0  0
  -16.7267  -28.6511   23.0340 C   0  0  0  0  0  0
  -26.4466  -31.6610   25.0727 C   0  0  0  0  0  0
  -25.3750  -31.3714   26.1492 C   0  0  0  0  0  0
  -27.0294  -30.3060   24.6086 C   0  0  0  0  0  0
  -27.6046  -32.4326   25.7486 C   0  0  0  0  0  0
  -27.5582  -37.1817   24.8462 C   0  0  0  0  0  0
  -21.4129  -29.3035   22.3730 N   0  0  0  0  0  0
  -26.4291  -37.3801   23.9411 N   0  0  0  0  0  0
  -24.6638  -31.0826   22.1006 N   0  0  0  0  0  0
  -23.4182  -28.8211   23.3021 O   0  0  0  0  0  0
  -28.4168  -26.7530   20.0652 O   0  0  0  0  0  0
  -26.5584  -34.8932   22.4697 O   0  0  0  0  0  0
  -23.5320  -32.1439   23.7530 O   0  0  0  0  0  0
  -30.3831  -18.8191   20.1346 C   0  0  0  0  0  0
  -30.4696  -17.4152   20.1889 C   0  0  0  0  0  0
  -29.6763  -18.8687   22.4569 C   0  0  0  0  0  0
  -29.9807  -19.5657   21.2658 C   0  0  0  0  0  0
  -30.1641  -16.7203   21.3830 C   0  0  0  0  0  0
  -29.7666  -17.4601   22.5197 C   0  0  0  0  0  0
  -29.8332  -21.0380   21.2243 C   0  0  0  0  0  0
  -29.9142  -21.8086   20.1190 C   0  0  0  0  0  0
  -29.7698  -23.2764   20.1501 C   0  0  0  0  0  0
  -30.0262  -24.0003   18.8237 C   0  0  0  0  0  0
  -30.1746  -25.5382   18.8808 C   0  0  0  0  0  0
  -28.8547  -26.3229   18.7809 C   0  0  0  0  0  0
  -29.4564  -16.7952   23.7085 N   0  0  0  0  0  0
  -30.1460  -15.2981   21.4642 N   0  0  0  0  0  0
  -29.4692  -23.9118   21.1648 O   0  0  0  0  0  0
  -31.4677  -12.3952   19.1152 H   0  0  0  0  0  0
  -30.3288  -11.2709   19.7945 H   0  0  0  0  0  0
  -29.7262  -11.8020   17.4151 H   0  0  0  0  0  0
  -29.6654  -13.5057   17.7908 H   0  0  0  0  0  0
  -27.8104  -11.3197   18.7950 H   0  0  0  0  0  0
  -27.3647  -12.6696   17.7899 H   0  0  0  0  0  0
  -27.7212  -14.2576   19.6068 H   0  0  0  0  0  0
  -28.6635  -11.9082   21.3188 H   0  0  0  0  0  0
  -28.4507  -13.5259   21.8943 H   0  0  0  0  0  0
  -25.2743   -9.5716   22.4763 H   0  0  0  0  0  0
  -24.0008   -7.4648   22.7470 H   0  0  0  0  0  0
  -21.0830   -8.8761   19.8952 H   0  0  0  0  0  0
  -22.3659  -10.9678   19.6171 H   0  0  0  0  0  0
  -21.1995   -7.6151   23.9730 H   0  0  0  0  0  0
  -21.1482   -6.0519   25.9089 H   0  0  0  0  0  0
  -22.0596   -2.7613   23.2843 H   0  0  0  0  0  0
  -22.4045  -11.9954   22.4820 H   0  0  0  0  0  0
  -21.1088  -13.1345   22.2556 H   0  0  0  0  0  0
  -24.6782  -15.8545   20.5255 H   0  0  0  0  0  0
  -26.3070  -15.6247   20.1363 H   0  0  0  0  0  0
  -26.7104  -32.5564   23.1185 H   0  0  0  0  0  0
  -25.0048  -33.9798   25.0496 H   0  0  0  0  0  0
  -22.6878  -31.3105   21.4115 H   0  0  0  0  0  0
  -23.3734  -35.9675   23.3306 H   0  0  0  0  0  0
  -24.3581  -36.8934   22.2050 H   0  0  0  0  0  0
  -23.7253  -37.6545   23.6645 H   0  0  0  0  0  0
  -26.0326  -31.6054   20.5908 H   0  0  0  0  0  0
  -26.8156  -30.8998   21.9769 H   0  0  0  0  0  0
  -28.0962  -29.1226   21.1672 H   0  0  0  0  0  0
  -26.0600  -25.9745   19.0280 H   0  0  0  0  0  0
  -23.9748  -27.2839   19.0576 H   0  0  0  0  0  0
  -23.7218  -30.6016   19.4063 H   0  0  0  0  0  0
  -22.7328  -29.2478   19.8656 H   0  0  0  0  0  0
  -25.1280  -36.1988   25.0833 H   0  0  0  0  0  0
  -20.9969  -28.3228   24.1441 H   0  0  0  0  0  0
  -20.5676  -26.2269   23.3607 H   0  0  0  0  0  0
  -21.6638  -26.7444   22.1212 H   0  0  0  0  0  0
  -19.6901  -25.6297   21.1239 H   0  0  0  0  0  0
  -19.6691  -27.3203   20.6756 H   0  0  0  0  0  0
  -17.4199  -26.6698   21.4013 H   0  0  0  0  0  0
  -18.0304  -26.0068   22.9012 H   0  0  0  0  0  0
  -19.7929  -30.7261   24.2287 H   0  0  0  0  0  0
  -17.5011  -31.6266   24.5168 H   0  0  0  0  0  0
  -15.5349  -30.2998   23.7632 H   0  0  0  0  0  0
  -15.8670  -28.0840   22.7028 H   0  0  0  0  0  0
  -24.5906  -30.7076   25.7841 H   0  0  0  0  0  0
  -24.8965  -32.2872   26.4975 H   0  0  0  0  0  0
  -25.8120  -30.8865   27.0230 H   0  0  0  0  0  0
  -26.2829  -29.6823   24.1156 H   0  0  0  0  0  0
  -27.4091  -29.7299   25.4534 H   0  0  0  0  0  0
  -27.8652  -30.4389   23.9212 H   0  0  0  0  0  0
  -27.2657  -33.3599   26.2123 H   0  0  0  0  0  0
  -28.3822  -32.6933   25.0293 H   0  0  0  0  0  0
  -28.0756  -31.8421   26.5355 H   0  0  0  0  0  0
  -28.2601  -38.0110   24.7502 H   0  0  0  0  0  0
  -28.1071  -36.2643   24.6286 H   0  0  0  0  0  0
  -27.2304  -37.1471   25.8865 H   0  0  0  0  0  0
  -20.9279  -29.8773   21.6973 H   0  0  0  0  0  0
  -26.0182  -38.2880   24.1411 H   0  0  0  0  0  0
  -30.6246  -19.3027   19.2005 H   0  0  0  0  0  0
  -30.7490  -16.8883   19.2888 H   0  0  0  0  0  0
  -29.3617  -19.4289   23.3269 H   0  0  0  0  0  0
  -29.6527  -21.5200   22.1755 H   0  0  0  0  0  0
  -30.0940  -21.3697   19.1502 H   0  0  0  0  0  0
  -29.2443  -23.7217   18.1169 H   0  0  0  0  0  0
  -30.9500  -23.5849   18.4214 H   0  0  0  0  0  0
  -30.7850  -25.8215   18.0231 H   0  0  0  0  0  0
  -30.7477  -25.8543   19.7540 H   0  0  0  0  0  0
  -28.1075  -25.7270   18.2578 H   0  0  0  0  0  0
  -29.0219  -27.2152   18.1746 H   0  0  0  0  0  0
  -29.4160  -17.3610   24.5493 H   0  0  0  0  0  0
  -29.9407  -15.9205   23.8771 H   0  0  0  0  0  0
  -29.4441  -14.9262   22.0856 H   0  0  0  0  0  0
  1 25  1  0  0  0
  1 30  2  0  0  0
  1 84  1  0  0  0
  2  3  1  0  0  0
  2 25  1  0  0  0
  2 86  1  0  0  0
  2 87  1  0  0  0
  3  4  1  0  0  0
  3 88  1  0  0  0
  3 89  1  0  0  0
  4  5  1  0  0  0
  4 90  1  0  0  0
  4 91  1  0  0  0
  5  6  1  0  0  0
  5 26  1  0  0  0
  5 92  1  0  0  0
  6 25  1  0  0  0
  6 93  1  0  0  0
  6 94  1  0  0  0
  7  8  2  0  0  0
  7 26  1  0  0  0
  7 29  1  0  0  0
  8  9  1  0  0  0
  8 22  1  0  0  0
  9 10  1  0  0  0
  9 27  2  0  0  0
 10 11  2  0  0  0
 10 15  1  0  0  0
 11 12  1  0  0  0
 11 95  1  0  0  0
 12 13  2  0  0  0
 12 96  1  0  0  0
 13 14  1  0  0  0
 13 31  1  0  0  0
 14 15  2  0  0  0
 14 97  1  0  0  0
 15 98  1  0  0  0
 16 17  2  0  0  0
 16 21  1  0  0  0
 16 31  1  0  0  0
 17 18  1  0  0  0
 17 99  1  0  0  0
 18 19  2  0  0  0
 18100  1  0  0  0
 19 20  1  0  0  0
 19 24  1  0  0  0
 20 21  2  0  0  0
 20101  1  0  0  0
 21 23  1  0  0  0
 22 28  1  0  0  0
 22 32  2  0  0  0
 26 27  1  0  0  0
 28102  1  0  0  0
 28103  1  0  0  0
 29104  1  0  0  0
 29105  1  0  0  0
 33 34  1  0  0  0
 33 66  1  0  0  0
 33 70  2  0  0  0
 34 36  1  0  0  0
 34 59  1  0  0  0
 34106  1  0  0  0
 35 44  2  0  0  0
 35 45  1  0  0  0
 35 68  1  0  0  0
 36 56  1  0  0  0
 36107  1  0  0  0
 37 39  1  0  0  0
 37 47  1  0  0  0
 37 66  1  0  0  0
 37108  1  0  0  0
 38 43  2  0  0  0
 38 46  1  0  0  0
 38 47  1  0  0  0
 39 64  1  0  0  0
 39 67  2  0  0  0
 40 52  1  0  0  0
 40 53  2  0  0  0
 40 58  1  0  0  0
 41109  1  0  0  0
 41110  1  0  0  0
 41111  1  0  0  0
 41 48  1  0  0  0
 42 43  1  0  0  0
 42 66  1  0  0  0
 42112  1  0  0  0
 42113  1  0  0  0
 43 44  1  0  0  0
 44114  1  0  0  0
 45 46  2  0  0  0
 45115  1  0  0  0
 46116  1  0  0  0
 47117  1  0  0  0
 47118  1  0  0  0
 48 56  1  0  0  0
 48 65  1  0  0  0
 48119  1  0  0  0
 49 50  1  0  0  0
 49 53  1  0  0  0
 49 64  1  0  0  0
 49120  1  0  0  0
 50 51  1  0  0  0
 50121  1  0  0  0
 50122  1  0  0  0
 51 52  1  0  0  0
 51123  1  0  0  0
 51124  1  0  0  0
 52125  1  0  0  0
 52126  1  0  0  0
 53 54  1  0  0  0
 54 55  2  0  0  0
 54127  1  0  0  0
 55 57  1  0  0  0
 55128  1  0  0  0
 56 69  2  0  0  0
 57 58  2  0  0  0
 57129  1  0  0  0
 58130  1  0  0  0
 59 60  1  0  0  0
 59 61  1  0  0  0
 59 62  1  0  0  0
 60131  1  0  0  0
 60132  1  0  0  0
 60133  1  0  0  0
 61134  1  0  0  0
 61135  1  0  0  0
 61136  1  0  0  0
 62137  1  0  0  0
 62138  1  0  0  0
 62139  1  0  0  0
 63 65  1  0  0  0
 63140  1  0  0  0
 63141  1  0  0  0
 63142  1  0  0  0
 64143  1  0  0  0
 65144  1  0  0  0
 68 82  1  0  0  0
 71 72  2  0  0  0
 71 74  1  0  0  0
 71145  1  0  0  0
 72 75  1  0  0  0
 72146  1  0  0  0
 73 74  2  0  0  0
 73 76  1  0  0  0
 73147  1  0  0  0
 74 77  1  0  0  0
 75 76  2  0  0  0
 75 84  1  0  0  0
 76 83  1  0  0  0
 77 78  2  0  0  0
 77148  1  0  0  0
 78 79  1  0  0  0
 78149  1  0  0  0
 79 80  1  0  0  0
 79 85  2  0  0  0
 80 81  1  0  0  0
 80150  1  0  0  0
 80151  1  0  0  0
 81 82  1  0  0  0
 81152  1  0  0  0
 81153  1  0  0  0
 82154  1  0  0  0
 82155  1  0  0  0
 83156  1  0  0  0
 83157  1  0  0  0
 84158  1  0  0  0
M  ISO  4   1 100  68 101  82 101  84 100
M  END
> <chiral flag>
0

> <version>
0

> <s_m_source_file>
/data/baiqing/PycharmProjects/Reinvent-master-3.2/result/LINK_invent/BTK/process_docking_weight1_custom_product_contain_oxygen_bond_distance_aromatic_linkinvent_7_9_3/rearranged_h_0128.sdf

> <i_m_source_file_index>
48

> <r_mmod_Potential_Energy-OPLS-2005>
-195.85334777832

> <r_mmod_Stretch_Energy-OPLS-2005>
33.8914337158203

> <r_mmod_Bend_Energy-OPLS-2005>
95.3728485107422

> <r_mmod_Torsional_Energy-OPLS-2005>
240.638122558594

> <r_mmod_Improper_Torsional_Energy-OPLS-2005>
7.05266523361206

> <r_mmod_Van_der_Waal_Energy-OPLS-2005>
162.513565063477

> <r_mmod_Electrostatic_Energy-OPLS-2005>
-509.271728515625

> <r_mmod_Solvation_Energy-OPLS-2005>
-233.79655456543

> <b_mmod_Minimization_Converged-OPLS-2005>
0

> <r_mmod_RMS_Derivative-OPLS-2005>
1.29457688331604

$$$$
48
                    3D
 Structure written by MMmdl.
153161  0  0  1  0            999 V2000
  -30.6233  -14.6144   20.5019 C   0  0  0  0  0  0
  -30.4309  -12.3681   19.4631 C   0  0  0  0  0  0
  -29.5156  -12.5114   18.2282 C   0  0  0  0  0  0
  -28.0360  -12.3450   18.6283 C   0  0  0  0  0  0
  -27.6539  -13.2112   19.8579 C   0  0  2  0  0  0
  -28.6907  -13.0598   20.9948 C   0  0  0  0  0  0
  -25.2580  -13.8148   20.5621 C   0  0  0  0  0  0
  -24.1837  -13.0429   20.9129 C   0  0  0  0  0  0
  -24.6388  -11.6893   20.8681 C   0  0  0  0  0  0
  -23.9040  -10.4283   21.0379 C   0  0  0  0  0  0
  -24.3593   -9.4209   21.9171 C   0  0  0  0  0  0
  -23.6274   -8.2242   22.0759 C   0  0  0  0  0  0
  -22.4260   -8.0262   21.3547 C   0  0  0  0  0  0
  -21.9885   -9.0228   20.4647 C   0  0  0  0  0  0
  -22.7203  -10.2112   20.3046 C   0  0  0  0  0  0
  -21.6846   -6.0724   22.5277 C   0  0  0  0  0  0
  -21.4012   -6.5635   23.8210 C   0  0  0  0  0  0
  -21.3665   -5.6790   24.9171 C   0  0  0  0  0  0
  -21.6039   -4.3054   24.7221 C   0  0  0  0  0  0
  -21.8814   -3.8143   23.4342 C   0  0  0  0  0  0
  -21.9185   -4.6955   22.3398 C   0  0  0  0  0  0
  -22.7867  -13.5246   21.1786 C   0  0  0  0  0  0
  -22.1648   -4.2138   21.0977 F   0  0  0  0  0  0
  -21.5632   -3.4542   25.7742 F   0  0  0  0  0  0
  -30.0144  -13.3877   20.4454 N   0  0  0  0  0  0
  -26.2984  -12.9311   20.3250 N   0  0  0  0  0  0
  -25.9308  -11.6468   20.5670 N   0  0  0  0  0  0
  -22.0495  -12.8260   22.0342 N   0  0  0  0  0  0
  -25.4334  -15.1854   20.4000 N   0  0  0  0  0  0
  -31.7718  -14.7814   20.0826 O   0  0  0  0  0  0
  -21.6628   -6.8854   21.4240 O   0  0  0  0  0  0
  -22.3566  -14.5538   20.6603 O   0  0  0  0  0  0
  -24.6242  -31.8610   23.2026 C   0  0  0  0  0  0
  -25.9112  -32.4781   23.8340 C   0  0  1  0  0  0
  -27.2273  -27.3586   20.1085 C   0  0  0  0  0  0
  -25.5950  -33.8580   24.2273 N   0  0  0  0  0  0
  -23.4134  -30.4862   21.5440 C   0  0  2  0  0  0
  -24.8581  -28.9403   20.1119 C   0  0  0  0  0  0
  -22.7435  -29.4651   22.4943 C   0  0  0  0  0  0
  -18.0290  -28.1381   22.8502 C   0  0  0  0  0  0
  -24.1481  -36.7288   23.2635 C   0  0  0  0  0  0
  -25.9488  -30.8081   21.3610 C   0  0  0  0  0  0
  -26.0257  -29.4366   20.7065 C   0  0  0  0  0  0
  -27.2163  -28.6582   20.6913 C   0  0  0  0  0  0
  -26.0427  -26.9025   19.4927 C   0  0  0  0  0  0
  -24.8662  -27.6775   19.4973 C   0  0  0  0  0  0
  -23.6234  -29.8163   20.1606 C   0  0  0  0  0  0
  -25.4108  -36.3065   24.0314 C   0  0  1  0  0  0
  -20.5881  -28.3682   23.1289 C   0  0  2  0  0  0
  -20.6773  -26.9412   22.5406 C   0  0  0  0  0  0
  -19.5746  -26.6378   21.5209 C   0  0  0  0  0  0
  -18.1925  -26.7927   22.1626 C   0  0  0  0  0  0
  -19.1544  -28.8851   23.2894 C   0  0  0  0  0  0
  -18.9467  -30.1454   23.8904 C   0  0  0  0  0  0
  -17.6467  -30.6587   24.0575 C   0  0  0  0  0  0
  -25.9047  -34.9448   23.5076 C   0  0  0  0  0  0
  -16.5359  -29.9084   23.6337 C   0  0  0  0  0  0
  -16.7275  -28.6501   23.0364 C   0  0  0  0  0  0
  -26.4511  -31.6583   25.0704 C   0  0  0  0  0  0
  -25.3746  -31.3733   26.1432 C   0  0  0  0  0  0
  -27.0335  -30.2998   24.6136 C   0  0  0  0  0  0
  -27.6050  -32.4327   25.7509 C   0  0  0  0  0  0
  -27.5559  -37.1805   24.8470 C   0  0  0  0  0  0
  -21.4150  -29.3043   22.3673 N   0  0  0  0  0  0
  -26.4278  -37.3768   23.9398 N   0  0  0  0  0  0
  -24.6812  -31.0673   22.0938 N   0  0  0  0  0  0
  -23.4180  -28.8186   23.3002 O   0  0  0  0  0  0
  -28.3592  -26.5442   20.1058 O   0  0  0  0  0  0
  -26.5605  -34.8915   22.4634 O   0  0  0  0  0  0
  -23.5427  -32.1391   23.7396 O   0  0  0  0  0  0
  -30.3145  -19.0079   19.1438 C   0  0  0  0  0  0
  -28.9375  -19.3595   21.0770 C   0  0  0  0  0  0
  -30.4822  -17.6361   19.4862 C   0  0  0  0  0  0
  -29.0850  -17.9797   21.4132 C   0  0  0  0  0  0
  -29.5257  -19.9164   19.9125 C   0  0  0  0  0  0
  -29.8450  -17.0748   20.6202 C   0  0  0  0  0  0
  -29.2837  -21.3543   19.4247 C   0  0  0  0  0  0
  -28.8089  -22.5242   20.3558 C   0  0  0  0  0  0
  -28.8569  -24.0033   19.7542 C   0  0  0  0  0  0
  -28.2120  -25.1678   20.6032 C   0  0  0  0  0  0
  -29.4640  -21.6324   18.2024 N   0  0  0  0  0  0
  -29.8474  -15.6507   20.9448 N   0  0  0  0  0  0
  -31.4809  -12.4660   19.1839 H   0  0  0  0  0  0
  -30.3324  -11.3683   19.8904 H   0  0  0  0  0  0
  -29.7862  -11.7733   17.4727 H   0  0  0  0  0  0
  -29.6665  -13.4900   17.7689 H   0  0  0  0  0  0
  -27.8757  -11.2905   18.8545 H   0  0  0  0  0  0
  -27.3867  -12.5733   17.7825 H   0  0  0  0  0  0
  -27.6726  -14.2459   19.5149 H   0  0  0  0  0  0
  -28.6928  -12.0411   21.3856 H   0  0  0  0  0  0
  -28.4293  -13.6961   21.8407 H   0  0  0  0  0  0
  -25.2722   -9.5692   22.4757 H   0  0  0  0  0  0
  -23.9981   -7.4641   22.7490 H   0  0  0  0  0  0
  -21.0810   -8.8712   19.8960 H   0  0  0  0  0  0
  -22.3626  -10.9640   19.6156 H   0  0  0  0  0  0
  -21.2008   -7.6144   23.9710 H   0  0  0  0  0  0
  -21.1498   -6.0520   25.9075 H   0  0  0  0  0  0
  -22.0592   -2.7604   23.2832 H   0  0  0  0  0  0
  -22.4109  -11.9948   22.4776 H   0  0  0  0  0  0
  -21.1113  -13.1327   22.2507 H   0  0  0  0  0  0
  -24.6557  -15.8337   20.4479 H   0  0  0  0  0  0
  -26.2783  -15.6123   20.0400 H   0  0  0  0  0  0
  -26.7179  -32.5460   23.1094 H   0  0  0  0  0  0
  -25.0142  -33.9730   25.0449 H   0  0  0  0  0  0
  -22.7071  -31.3062   21.4015 H   0  0  0  0  0  0
  -23.3720  -35.9646   23.3323 H   0  0  0  0  0  0
  -24.3563  -36.8888   22.2042 H   0  0  0  0  0  0
  -23.7260  -37.6506   23.6655 H   0  0  0  0  0  0
  -26.0697  -31.5725   20.5927 H   0  0  0  0  0  0
  -26.8341  -30.8591   21.9834 H   0  0  0  0  0  0
  -28.1165  -29.0453   21.1476 H   0  0  0  0  0  0
  -26.0254  -25.9384   19.0046 H   0  0  0  0  0  0
  -23.9730  -27.2922   19.0261 H   0  0  0  0  0  0
  -23.7387  -30.5922   19.4027 H   0  0  0  0  0  0
  -22.7427  -29.2429   19.8629 H   0  0  0  0  0  0
  -25.1297  -36.1894   25.0805 H   0  0  0  0  0  0
  -21.0012  -28.3250   24.1391 H   0  0  0  0  0  0
  -20.5660  -26.2290   23.3601 H   0  0  0  0  0  0
  -21.6641  -26.7419   22.1208 H   0  0  0  0  0  0
  -19.6900  -25.6285   21.1239 H   0  0  0  0  0  0
  -19.6688  -27.3194   20.6745 H   0  0  0  0  0  0
  -17.4197  -26.6708   21.4024 H   0  0  0  0  0  0
  -18.0322  -26.0062   22.9013 H   0  0  0  0  0  0
  -19.7939  -30.7285   24.2257 H   0  0  0  0  0  0
  -17.5019  -31.6274   24.5165 H   0  0  0  0  0  0
  -15.5359  -30.2995   23.7644 H   0  0  0  0  0  0
  -15.8679  -28.0819   22.7075 H   0  0  0  0  0  0
  -24.5921  -30.7088   25.7767 H   0  0  0  0  0  0
  -24.8962  -32.2919   26.4835 H   0  0  0  0  0  0
  -25.8078  -30.8920   27.0206 H   0  0  0  0  0  0
  -26.2875  -29.6750   24.1217 H   0  0  0  0  0  0
  -27.4081  -29.7272   25.4635 H   0  0  0  0  0  0
  -27.8731  -30.4272   23.9299 H   0  0  0  0  0  0
  -27.2617  -33.3609   26.2084 H   0  0  0  0  0  0
  -28.3889  -32.6903   25.0381 H   0  0  0  0  0  0
  -28.0680  -31.8448   26.5449 H   0  0  0  0  0  0
  -28.2608  -38.0070   24.7466 H   0  0  0  0  0  0
  -28.1016  -36.2599   24.6358 H   0  0  0  0  0  0
  -27.2272  -37.1534   25.8874 H   0  0  0  0  0  0
  -20.9298  -29.8742   21.6886 H   0  0  0  0  0  0
  -26.0143  -38.2832   24.1409 H   0  0  0  0  0  0
  -30.7939  -19.3525   18.2388 H   0  0  0  0  0  0
  -28.3236  -19.9880   21.7076 H   0  0  0  0  0  0
  -31.0747  -17.0117   18.8323 H   0  0  0  0  0  0
  -28.5802  -17.6151   22.2964 H   0  0  0  0  0  0
  -29.4138  -22.4992   21.2617 H   0  0  0  0  0  0
  -27.7868  -22.3063   20.6666 H   0  0  0  0  0  0
  -28.3736  -24.0116   18.7767 H   0  0  0  0  0  0
  -29.9000  -24.2551   19.5675 H   0  0  0  0  0  0
  -27.1671  -24.9193   20.7932 H   0  0  0  0  0  0
  -28.6793  -25.1603   21.5876 H   0  0  0  0  0  0
  -29.7439  -20.8155   17.6708 H   0  0  0  0  0  0
  -29.0331  -15.3397   21.4528 H   0  0  0  0  0  0
  1 25  1  0  0  0
  1 30  2  0  0  0
  1 82  1  0  0  0
  2  3  1  0  0  0
  2 25  1  0  0  0
  2 83  1  0  0  0
  2 84  1  0  0  0
  3  4  1  0  0  0
  3 85  1  0  0  0
  3 86  1  0  0  0
  4  5  1  0  0  0
  4 87  1  0  0  0
  4 88  1  0  0  0
  5  6  1  0  0  0
  5 26  1  0  0  0
  5 89  1  0  0  0
  6 25  1  0  0  0
  6 90  1  0  0  0
  6 91  1  0  0  0
  7  8  2  0  0  0
  7 26  1  0  0  0
  7 29  1  0  0  0
  8  9  1  0  0  0
  8 22  1  0  0  0
  9 10  1  0  0  0
  9 27  2  0  0  0
 10 11  2  0  0  0
 10 15  1  0  0  0
 11 12  1  0  0  0
 11 92  1  0  0  0
 12 13  2  0  0  0
 12 93  1  0  0  0
 13 14  1  0  0  0
 13 31  1  0  0  0
 14 15  2  0  0  0
 14 94  1  0  0  0
 15 95  1  0  0  0
 16 17  2  0  0  0
 16 21  1  0  0  0
 16 31  1  0  0  0
 17 18  1  0  0  0
 17 96  1  0  0  0
 18 19  2  0  0  0
 18 97  1  0  0  0
 19 20  1  0  0  0
 19 24  1  0  0  0
 20 21  2  0  0  0
 20 98  1  0  0  0
 21 23  1  0  0  0
 22 28  1  0  0  0
 22 32  2  0  0  0
 26 27  1  0  0  0
 28 99  1  0  0  0
 28100  1  0  0  0
 29101  1  0  0  0
 29102  1  0  0  0
 33 34  1  0  0  0
 33 66  1  0  0  0
 33 70  2  0  0  0
 34 36  1  0  0  0
 34 59  1  0  0  0
 34103  1  0  0  0
 35 44  2  0  0  0
 35 45  1  0  0  0
 35 68  1  0  0  0
 36 56  1  0  0  0
 36104  1  0  0  0
 37 39  1  0  0  0
 37 47  1  0  0  0
 37 66  1  0  0  0
 37105  1  0  0  0
 38 43  2  0  0  0
 38 46  1  0  0  0
 38 47  1  0  0  0
 39 64  1  0  0  0
 39 67  2  0  0  0
 40 52  1  0  0  0
 40 53  2  0  0  0
 40 58  1  0  0  0
 41106  1  0  0  0
 41107  1  0  0  0
 41108  1  0  0  0
 41 48  1  0  0  0
 42 43  1  0  0  0
 42 66  1  0  0  0
 42109  1  0  0  0
 42110  1  0  0  0
 43 44  1  0  0  0
 44111  1  0  0  0
 45 46  2  0  0  0
 45112  1  0  0  0
 46113  1  0  0  0
 47114  1  0  0  0
 47115  1  0  0  0
 48 56  1  0  0  0
 48 65  1  0  0  0
 48116  1  0  0  0
 49 50  1  0  0  0
 49 53  1  0  0  0
 49 64  1  0  0  0
 49117  1  0  0  0
 50 51  1  0  0  0
 50118  1  0  0  0
 50119  1  0  0  0
 51 52  1  0  0  0
 51120  1  0  0  0
 51121  1  0  0  0
 52122  1  0  0  0
 52123  1  0  0  0
 53 54  1  0  0  0
 54 55  2  0  0  0
 54124  1  0  0  0
 55 57  1  0  0  0
 55125  1  0  0  0
 56 69  2  0  0  0
 57 58  2  0  0  0
 57126  1  0  0  0
 58127  1  0  0  0
 59 60  1  0  0  0
 59 61  1  0  0  0
 59 62  1  0  0  0
 60128  1  0  0  0
 60129  1  0  0  0
 60130  1  0  0  0
 61131  1  0  0  0
 61132  1  0  0  0
 61133  1  0  0  0
 62134  1  0  0  0
 62135  1  0  0  0
 62136  1  0  0  0
 63 65  1  0  0  0
 63137  1  0  0  0
 63138  1  0  0  0
 63139  1  0  0  0
 64140  1  0  0  0
 65141  1  0  0  0
 68 80  1  0  0  0
 71 73  2  0  0  0
 71 75  1  0  0  0
 71142  1  0  0  0
 72 74  1  0  0  0
 72 75  2  0  0  0
 72143  1  0  0  0
 73 76  1  0  0  0
 73144  1  0  0  0
 74 76  2  0  0  0
 74145  1  0  0  0
 75 77  1  0  0  0
 76 82  1  0  0  0
 77 78  1  0  0  0
 77 81  2  0  0  0
 78 79  1  0  0  0
 78146  1  0  0  0
 78147  1  0  0  0
 79 80  1  0  0  0
 79148  1  0  0  0
 79149  1  0  0  0
 80150  1  0  0  0
 80151  1  0  0  0
 81152  1  0  0  0
 82153  1  0  0  0
M  ISO  4   1 100  68 101  80 101  82 100
M  END
> <chiral flag>
0

> <version>
0

> <s_m_source_file>
/data/baiqing/PycharmProjects/Reinvent-master-3.2/result/LINK_invent/BTK/process_docking_weight1_custom_product_contain_oxygen_bond_distance_aromatic_linkinvent_7_9_3/rearranged_h_0128.sdf

> <i_m_source_file_index>
49

> <r_mmod_Potential_Energy-OPLS-2005>
9.87871932983398

> <r_mmod_Stretch_Energy-OPLS-2005>
71.9521255493164

> <r_mmod_Bend_Energy-OPLS-2005>
124.002754211426

> <r_mmod_Torsional_Energy-OPLS-2005>
236.867889404297

> <r_mmod_Improper_Torsional_Energy-OPLS-2005>
4.09604024887085

> <r_mmod_Van_der_Waal_Energy-OPLS-2005>
146.762756347656

> <r_mmod_Electrostatic_Energy-OPLS-2005>
-392.326690673828

> <r_mmod_Solvation_Energy-OPLS-2005>
-217.517379760742

> <b_mmod_Minimization_Converged-OPLS-2005>
0

> <r_mmod_RMS_Derivative-OPLS-2005>
2.45420694351196

$$$$
49
                    3D
 Structure written by MMmdl.
153161  0  0  1  0            999 V2000
  -30.5948  -14.6670   20.4959 C   0  0  0  0  0  0
  -30.4531  -12.4095   19.4489 C   0  0  0  0  0  0
  -29.5170  -12.5298   18.2238 C   0  0  0  0  0  0
  -28.0389  -12.3633   18.6339 C   0  0  0  0  0  0
  -27.6636  -13.2147   19.8755 C   0  0  2  0  0  0
  -28.7124  -13.0501   21.0004 C   0  0  0  0  0  0
  -25.2602  -13.8161   20.5652 C   0  0  0  0  0  0
  -24.1885  -13.0437   20.9201 C   0  0  0  0  0  0
  -24.6443  -11.6910   20.8755 C   0  0  0  0  0  0
  -23.9104  -10.4284   21.0419 C   0  0  0  0  0  0
  -24.3638   -9.4191   21.9199 C   0  0  0  0  0  0
  -23.6295   -8.2237   22.0764 C   0  0  0  0  0  0
  -22.4286   -8.0282   21.3542 C   0  0  0  0  0  0
  -21.9928   -9.0275   20.4658 C   0  0  0  0  0  0
  -22.7275  -10.2142   20.3074 C   0  0  0  0  0  0
  -21.6850   -6.0741   22.5274 C   0  0  0  0  0  0
  -21.4013   -6.5638   23.8207 C   0  0  0  0  0  0
  -21.3663   -5.6790   24.9170 C   0  0  0  0  0  0
  -21.6039   -4.3051   24.7218 C   0  0  0  0  0  0
  -21.8826   -3.8146   23.4338 C   0  0  0  0  0  0
  -21.9195   -4.6968   22.3396 C   0  0  0  0  0  0
  -22.7893  -13.5231   21.1837 C   0  0  0  0  0  0
  -22.1663   -4.2152   21.0972 F   0  0  0  0  0  0
  -21.5629   -3.4538   25.7728 F   0  0  0  0  0  0
  -30.0254  -13.4175   20.4408 N   0  0  0  0  0  0
  -26.3057  -12.9343   20.3376 N   0  0  0  0  0  0
  -25.9387  -11.6501   20.5814 N   0  0  0  0  0  0
  -22.0519  -12.8244   22.0385 N   0  0  0  0  0  0
  -25.4277  -15.1875   20.3955 N   0  0  0  0  0  0
  -31.7401  -14.8684   20.0770 O   0  0  0  0  0  0
  -21.6644   -6.8893   21.4238 O   0  0  0  0  0  0
  -22.3579  -14.5535   20.6662 O   0  0  0  0  0  0
  -24.6259  -31.8576   23.2020 C   0  0  0  0  0  0
  -25.9089  -32.4772   23.8353 C   0  0  1  0  0  0
  -27.2324  -27.3135   20.1340 C   0  0  0  0  0  0
  -25.5914  -33.8577   24.2271 N   0  0  0  0  0  0
  -23.4207  -30.4735   21.5509 C   0  0  2  0  0  0
  -24.8672  -28.9153   20.1263 C   0  0  0  0  0  0
  -22.7502  -29.4554   22.5034 C   0  0  0  0  0  0
  -18.0308  -28.1370   22.8516 C   0  0  0  0  0  0
  -24.1503  -36.7282   23.2636 C   0  0  0  0  0  0
  -25.9606  -30.7867   21.3729 C   0  0  0  0  0  0
  -26.0356  -29.4101   20.7183 C   0  0  0  0  0  0
  -27.2222  -28.6225   20.7057 C   0  0  0  0  0  0
  -26.0415  -26.8550   19.5381 C   0  0  0  0  0  0
  -24.8697  -27.6412   19.5294 C   0  0  0  0  0  0
  -23.6349  -29.7991   20.1713 C   0  0  0  0  0  0
  -25.4118  -36.3078   24.0335 C   0  0  1  0  0  0
  -20.5917  -28.3619   23.1370 C   0  0  2  0  0  0
  -20.6795  -26.9377   22.5469 C   0  0  0  0  0  0
  -19.5814  -26.6386   21.5245 C   0  0  0  0  0  0
  -18.1957  -26.7940   22.1580 C   0  0  0  0  0  0
  -19.1575  -28.8811   23.2915 C   0  0  0  0  0  0
  -18.9516  -30.1414   23.8917 C   0  0  0  0  0  0
  -17.6533  -30.6610   24.0522 C   0  0  0  0  0  0
  -25.9036  -34.9453   23.5104 C   0  0  0  0  0  0
  -16.5406  -29.9092   23.6365 C   0  0  0  0  0  0
  -16.7294  -28.6495   23.0402 C   0  0  0  0  0  0
  -26.4493  -31.6591   25.0731 C   0  0  0  0  0  0
  -25.3724  -31.3723   26.1457 C   0  0  0  0  0  0
  -27.0348  -30.3019   24.6195 C   0  0  0  0  0  0
  -27.6057  -32.4329   25.7496 C   0  0  0  0  0  0
  -27.5590  -37.1795   24.8469 C   0  0  0  0  0  0
  -21.4210  -29.3014   22.3844 N   0  0  0  0  0  0
  -26.4294  -37.3769   23.9414 N   0  0  0  0  0  0
  -24.6883  -31.0563   22.0980 N   0  0  0  0  0  0
  -23.4248  -28.8053   23.3066 O   0  0  0  0  0  0
  -28.3866  -26.5186   20.0986 O   0  0  0  0  0  0
  -26.5620  -34.8906   22.4677 O   0  0  0  0  0  0
  -23.5418  -32.1377   23.7339 O   0  0  0  0  0  0
  -30.1577  -19.3997   19.8614 C   0  0  0  0  0  0
  -28.0730  -19.0668   20.9887 C   0  0  0  0  0  0
  -30.4891  -18.0091   20.0497 C   0  0  0  0  0  0
  -28.4043  -17.6963   21.1869 C   0  0  0  0  0  0
  -28.9302  -19.9716   20.3141 C   0  0  0  0  0  0
  -29.6028  -17.1083   20.7113 C   0  0  0  0  0  0
  -28.9023  -22.4507   20.3029 C   0  0  0  0  0  0
  -27.6402  -25.0940   22.0040 C   0  0  0  0  0  0
  -28.3025  -23.8418   19.8041 C   0  0  0  0  0  0
  -28.4624  -25.1573   20.7025 C   0  0  1  0  0  0
  -28.4352  -21.2816   19.9606 N   0  0  0  0  0  0
  -29.7632  -15.6636   20.9428 N   0  0  0  0  0  0
  -31.4905  -12.5553   19.1429 H   0  0  0  0  0  0
  -30.4053  -11.4044   19.8731 H   0  0  0  0  0  0
  -29.7828  -11.7863   17.4716 H   0  0  0  0  0  0
  -29.6586  -13.5033   17.7492 H   0  0  0  0  0  0
  -27.8742  -11.3075   18.8483 H   0  0  0  0  0  0
  -27.3867  -12.6138   17.7967 H   0  0  0  0  0  0
  -27.6891  -14.2561   19.5557 H   0  0  0  0  0  0
  -28.7320  -12.0205   21.3658 H   0  0  0  0  0  0
  -28.4560  -13.6605   21.8674 H   0  0  0  0  0  0
  -25.2794   -9.5644   22.4764 H   0  0  0  0  0  0
  -23.9995   -7.4628   22.7484 H   0  0  0  0  0  0
  -21.0858   -8.8825   19.8960 H   0  0  0  0  0  0
  -22.3767  -10.9693   19.6177 H   0  0  0  0  0  0
  -21.2001   -7.6144   23.9714 H   0  0  0  0  0  0
  -21.1480   -6.0516   25.9074 H   0  0  0  0  0  0
  -22.0604   -2.7607   23.2839 H   0  0  0  0  0  0
  -22.4128  -11.9917   22.4803 H   0  0  0  0  0  0
  -21.1137  -13.1298   22.2581 H   0  0  0  0  0  0
  -24.6417  -15.8263   20.4471 H   0  0  0  0  0  0
  -26.2554  -15.6126   19.9965 H   0  0  0  0  0  0
  -26.7162  -32.5464   23.1114 H   0  0  0  0  0  0
  -25.0116  -33.9744   25.0459 H   0  0  0  0  0  0
  -22.7083  -31.2895   21.4028 H   0  0  0  0  0  0
  -23.3774  -35.9613   23.3309 H   0  0  0  0  0  0
  -24.3577  -36.8891   22.2048 H   0  0  0  0  0  0
  -23.7255  -37.6481   23.6657 H   0  0  0  0  0  0
  -26.0928  -31.5527   20.6077 H   0  0  0  0  0  0
  -26.8401  -30.8367   22.0056 H   0  0  0  0  0  0
  -28.1264  -29.0076   21.1576 H   0  0  0  0  0  0
  -26.0203  -25.8783   19.0783 H   0  0  0  0  0  0
  -23.9723  -27.2486   19.0694 H   0  0  0  0  0  0
  -23.7576  -30.5704   19.4102 H   0  0  0  0  0  0
  -22.7539  -29.2261   19.8755 H   0  0  0  0  0  0
  -25.1315  -36.1935   25.0828 H   0  0  0  0  0  0
  -20.9960  -28.3140   24.1517 H   0  0  0  0  0  0
  -20.5679  -26.2218   23.3626 H   0  0  0  0  0  0
  -21.6700  -26.7392   22.1312 H   0  0  0  0  0  0
  -19.6967  -25.6333   21.1213 H   0  0  0  0  0  0
  -19.6832  -27.3228   20.6801 H   0  0  0  0  0  0
  -17.4335  -26.6868   21.3865 H   0  0  0  0  0  0
  -18.0226  -25.9995   22.8834 H   0  0  0  0  0  0
  -19.7990  -30.7208   24.2312 H   0  0  0  0  0  0
  -17.5148  -31.6325   24.5052 H   0  0  0  0  0  0
  -15.5422  -30.3019   23.7761 H   0  0  0  0  0  0
  -15.8671  -28.0797   22.7190 H   0  0  0  0  0  0
  -24.5899  -30.7080   25.7791 H   0  0  0  0  0  0
  -24.8921  -32.2886   26.4887 H   0  0  0  0  0  0
  -25.8027  -30.8900   27.0231 H   0  0  0  0  0  0
  -26.2942  -29.6743   24.1222 H   0  0  0  0  0  0
  -27.4060  -29.7283   25.4690 H   0  0  0  0  0  0
  -27.8796  -30.4318   23.9427 H   0  0  0  0  0  0
  -27.2688  -33.3628   26.2068 H   0  0  0  0  0  0
  -28.3863  -32.6865   25.0325 H   0  0  0  0  0  0
  -28.0736  -31.8461   26.5408 H   0  0  0  0  0  0
  -28.2611  -38.0087   24.7512 H   0  0  0  0  0  0
  -28.1080  -36.2616   24.6317 H   0  0  0  0  0  0
  -27.2293  -37.1472   25.8862 H   0  0  0  0  0  0
  -20.9283  -29.8931   21.7311 H   0  0  0  0  0  0
  -26.0183  -38.2854   24.1377 H   0  0  0  0  0  0
  -30.8470  -20.0231   19.3102 H   0  0  0  0  0  0
  -27.1106  -19.4156   21.3365 H   0  0  0  0  0  0
  -31.4229  -17.6414   19.6536 H   0  0  0  0  0  0
  -27.6836  -17.0723   21.6992 H   0  0  0  0  0  0
  -29.7744  -22.5503   20.9566 H   0  0  0  0  0  0
  -27.8938  -24.2120   22.5915 H   0  0  0  0  0  0
  -26.5704  -25.0578   21.8019 H   0  0  0  0  0  0
  -27.8328  -25.9671   22.6285 H   0  0  0  0  0  0
  -27.2466  -23.6908   19.5852 H   0  0  0  0  0  0
  -28.7724  -24.0428   18.8395 H   0  0  0  0  0  0
  -29.5063  -25.1334   21.0204 H   0  0  0  0  0  0
  -28.9518  -15.2527   21.3760 H   0  0  0  0  0  0
  1 25  1  0  0  0
  1 30  2  0  0  0
  1 82  1  0  0  0
  2  3  1  0  0  0
  2 25  1  0  0  0
  2 83  1  0  0  0
  2 84  1  0  0  0
  3  4  1  0  0  0
  3 85  1  0  0  0
  3 86  1  0  0  0
  4  5  1  0  0  0
  4 87  1  0  0  0
  4 88  1  0  0  0
  5  6  1  0  0  0
  5 26  1  0  0  0
  5 89  1  0  0  0
  6 25  1  0  0  0
  6 90  1  0  0  0
  6 91  1  0  0  0
  7  8  2  0  0  0
  7 26  1  0  0  0
  7 29  1  0  0  0
  8  9  1  0  0  0
  8 22  1  0  0  0
  9 10  1  0  0  0
  9 27  2  0  0  0
 10 11  2  0  0  0
 10 15  1  0  0  0
 11 12  1  0  0  0
 11 92  1  0  0  0
 12 13  2  0  0  0
 12 93  1  0  0  0
 13 14  1  0  0  0
 13 31  1  0  0  0
 14 15  2  0  0  0
 14 94  1  0  0  0
 15 95  1  0  0  0
 16 17  2  0  0  0
 16 21  1  0  0  0
 16 31  1  0  0  0
 17 18  1  0  0  0
 17 96  1  0  0  0
 18 19  2  0  0  0
 18 97  1  0  0  0
 19 20  1  0  0  0
 19 24  1  0  0  0
 20 21  2  0  0  0
 20 98  1  0  0  0
 21 23  1  0  0  0
 22 28  1  0  0  0
 22 32  2  0  0  0
 26 27  1  0  0  0
 28 99  1  0  0  0
 28100  1  0  0  0
 29101  1  0  0  0
 29102  1  0  0  0
 33 34  1  0  0  0
 33 66  1  0  0  0
 33 70  2  0  0  0
 34 36  1  0  0  0
 34 59  1  0  0  0
 34103  1  0  0  0
 35 44  2  0  0  0
 35 45  1  0  0  0
 35 68  1  0  0  0
 36 56  1  0  0  0
 36104  1  0  0  0
 37 39  1  0  0  0
 37 47  1  0  0  0
 37 66  1  0  0  0
 37105  1  0  0  0
 38 43  2  0  0  0
 38 46  1  0  0  0
 38 47  1  0  0  0
 39 64  1  0  0  0
 39 67  2  0  0  0
 40 52  1  0  0  0
 40 53  2  0  0  0
 40 58  1  0  0  0
 41106  1  0  0  0
 41107  1  0  0  0
 41108  1  0  0  0
 41 48  1  0  0  0
 42 43  1  0  0  0
 42 66  1  0  0  0
 42109  1  0  0  0
 42110  1  0  0  0
 43 44  1  0  0  0
 44111  1  0  0  0
 45 46  2  0  0  0
 45112  1  0  0  0
 46113  1  0  0  0
 47114  1  0  0  0
 47115  1  0  0  0
 48 56  1  0  0  0
 48 65  1  0  0  0
 48116  1  0  0  0
 49 50  1  0  0  0
 49 53  1  0  0  0
 49 64  1  0  0  0
 49117  1  0  0  0
 50 51  1  0  0  0
 50118  1  0  0  0
 50119  1  0  0  0
 51 52  1  0  0  0
 51120  1  0  0  0
 51121  1  0  0  0
 52122  1  0  0  0
 52123  1  0  0  0
 53 54  1  0  0  0
 54 55  2  0  0  0
 54124  1  0  0  0
 55 57  1  0  0  0
 55125  1  0  0  0
 56 69  2  0  0  0
 57 58  2  0  0  0
 57126  1  0  0  0
 58127  1  0  0  0
 59 60  1  0  0  0
 59 61  1  0  0  0
 59 62  1  0  0  0
 60128  1  0  0  0
 60129  1  0  0  0
 60130  1  0  0  0
 61131  1  0  0  0
 61132  1  0  0  0
 61133  1  0  0  0
 62134  1  0  0  0
 62135  1  0  0  0
 62136  1  0  0  0
 63 65  1  0  0  0
 63137  1  0  0  0
 63138  1  0  0  0
 63139  1  0  0  0
 64140  1  0  0  0
 65141  1  0  0  0
 68 80  1  0  0  0
 71 73  2  0  0  0
 71 75  1  0  0  0
 71142  1  0  0  0
 72 74  1  0  0  0
 72 75  2  0  0  0
 72143  1  0  0  0
 73 76  1  0  0  0
 73144  1  0  0  0
 74 76  2  0  0  0
 74145  1  0  0  0
 75 81  1  0  0  0
 76 82  1  0  0  0
 77 79  1  0  0  0
 77 81  2  0  0  0
 77146  1  0  0  0
 78147  1  0  0  0
 78148  1  0  0  0
 78149  1  0  0  0
 78 80  1  0  0  0
 79 80  1  0  0  0
 79150  1  0  0  0
 79151  1  0  0  0
 80152  1  0  0  0
 82153  1  0  0  0
M  ISO  4   1 100  68 101  80 101  82 100
M  END
> <chiral flag>
0

> <version>
0

> <s_m_source_file>
/data/baiqing/PycharmProjects/Reinvent-master-3.2/result/LINK_invent/BTK/process_docking_weight1_custom_product_contain_oxygen_bond_distance_aromatic_linkinvent_7_9_3/rearranged_h_0128.sdf

> <i_m_source_file_index>
50

> <r_mmod_Potential_Energy-OPLS-2005>
94.0908432006836

> <r_mmod_Stretch_Energy-OPLS-2005>
89.3478698730469

> <r_mmod_Bend_Energy-OPLS-2005>
180.146667480469

> <r_mmod_Torsional_Energy-OPLS-2005>
249.470993041992

> <r_mmod_Improper_Torsional_Energy-OPLS-2005>
5.40169143676758

> <r_mmod_Van_der_Waal_Energy-OPLS-2005>
130.11865234375

> <r_mmod_Electrostatic_Energy-OPLS-2005>
-401.598876953125

> <r_mmod_Solvation_Energy-OPLS-2005>
-209.228057861328

> <b_mmod_Minimization_Converged-OPLS-2005>
0

> <r_mmod_RMS_Derivative-OPLS-2005>
3.85175085067749

$$$$
50
                    3D
 Structure written by MMmdl.
155163  0  0  1  0            999 V2000
  -30.7693  -14.5926   20.4141 C   0  0  0  0  0  0
  -30.4258  -12.3871   19.3959 C   0  0  0  0  0  0
  -29.4790  -12.5096   18.1868 C   0  0  0  0  0  0
  -28.0235  -12.3160   18.6452 C   0  0  0  0  0  0
  -27.6496  -13.2304   19.8368 C   0  0  2  0  0  0
  -28.7197  -13.1739   20.9511 C   0  0  0  0  0  0
  -25.2558  -13.8209   20.5704 C   0  0  0  0  0  0
  -24.1839  -13.0454   20.9218 C   0  0  0  0  0  0
  -24.6429  -11.6930   20.8738 C   0  0  0  0  0  0
  -23.9091  -10.4301   21.0361 C   0  0  0  0  0  0
  -24.3627   -9.4216   21.9140 C   0  0  0  0  0  0
  -23.6295   -8.2259   22.0738 C   0  0  0  0  0  0
  -22.4276   -8.0281   21.3530 C   0  0  0  0  0  0
  -21.9900   -9.0267   20.4645 C   0  0  0  0  0  0
  -22.7264  -10.2128   20.3028 C   0  0  0  0  0  0
  -21.6862   -6.0734   22.5249 C   0  0  0  0  0  0
  -21.4033   -6.5633   23.8191 C   0  0  0  0  0  0
  -21.3663   -5.6778   24.9145 C   0  0  0  0  0  0
  -21.6020   -4.3041   24.7210 C   0  0  0  0  0  0
  -21.8837   -3.8146   23.4336 C   0  0  0  0  0  0
  -21.9203   -4.6956   22.3380 C   0  0  0  0  0  0
  -22.7857  -13.5237   21.1847 C   0  0  0  0  0  0
  -22.1677   -4.2130   21.0960 F   0  0  0  0  0  0
  -21.5612   -3.4539   25.7742 F   0  0  0  0  0  0
  -30.0339  -13.4432   20.3475 N   0  0  0  0  0  0
  -26.3022  -12.9420   20.3314 N   0  0  0  0  0  0
  -25.9372  -11.6557   20.5765 N   0  0  0  0  0  0
  -22.0430  -12.8245   22.0369 N   0  0  0  0  0  0
  -25.4249  -15.1949   20.4081 N   0  0  0  0  0  0
  -31.9893  -14.5879   20.2958 O   0  0  0  0  0  0
  -21.6652   -6.8872   21.4210 O   0  0  0  0  0  0
  -22.3551  -14.5538   20.6677 O   0  0  0  0  0  0
  -24.6198  -31.8582   23.1977 C   0  0  0  0  0  0
  -25.9055  -32.4762   23.8320 C   0  0  1  0  0  0
  -27.2826  -27.3849   20.0875 C   0  0  0  0  0  0
  -25.5881  -33.8566   24.2259 N   0  0  0  0  0  0
  -23.4163  -30.4725   21.5366 C   0  0  2  0  0  0
  -24.8755  -28.9234   20.1074 C   0  0  0  0  0  0
  -22.7450  -29.4589   22.4918 C   0  0  0  0  0  0
  -18.0281  -28.1346   22.8474 C   0  0  0  0  0  0
  -24.1489  -36.7294   23.2634 C   0  0  0  0  0  0
  -25.9484  -30.8007   21.3692 C   0  0  0  0  0  0
  -26.0296  -29.4299   20.7140 C   0  0  0  0  0  0
  -27.2244  -28.6657   20.7043 C   0  0  0  0  0  0
  -26.1033  -26.9008   19.4780 C   0  0  0  0  0  0
  -24.9111  -27.6607   19.4842 C   0  0  0  0  0  0
  -23.6319  -29.7882   20.1569 C   0  0  0  0  0  0
  -25.4100  -36.3069   24.0327 C   0  0  1  0  0  0
  -20.5868  -28.3661   23.1265 C   0  0  2  0  0  0
  -20.6732  -26.9381   22.5406 C   0  0  0  0  0  0
  -19.5731  -26.6360   21.5187 C   0  0  0  0  0  0
  -18.1914  -26.7896   22.1608 C   0  0  0  0  0  0
  -19.1529  -28.8815   23.2869 C   0  0  0  0  0  0
  -18.9465  -30.1416   23.8885 C   0  0  0  0  0  0
  -17.6467  -30.6565   24.0543 C   0  0  0  0  0  0
  -25.9027  -34.9444   23.5104 C   0  0  0  0  0  0
  -16.5362  -29.9049   23.6319 C   0  0  0  0  0  0
  -16.7275  -28.6464   23.0348 C   0  0  0  0  0  0
  -26.4479  -31.6570   25.0703 C   0  0  0  0  0  0
  -25.3748  -31.3725   26.1473 C   0  0  0  0  0  0
  -27.0321  -30.2974   24.6166 C   0  0  0  0  0  0
  -27.6021  -32.4324   25.7497 C   0  0  0  0  0  0
  -27.5572  -37.1799   24.8445 C   0  0  0  0  0  0
  -21.4160  -29.3032   22.3689 N   0  0  0  0  0  0
  -26.4264  -37.3760   23.9416 N   0  0  0  0  0  0
  -24.6783  -31.0614   22.0912 N   0  0  0  0  0  0
  -23.4184  -28.8123   23.2989 O   0  0  0  0  0  0
  -28.4670  -26.6494   20.1557 O   0  0  0  0  0  0
  -26.5618  -34.8910   22.4688 O   0  0  0  0  0  0
  -23.5381  -32.1361   23.7346 O   0  0  0  0  0  0
  -30.4268  -18.2804   20.3797 C   0  0  0  0  0  0
  -31.5885  -19.3872   18.5932 C   0  0  0  0  0  0
  -30.8542  -19.5130   19.7850 C   0  0  0  0  0  0
  -30.6557  -17.0193   19.7375 C   0  0  0  0  0  0
  -31.3363  -17.0755   18.4814 C   0  0  0  0  0  0
  -30.5266  -20.8898   20.3143 C   0  0  0  0  0  0
  -30.5625  -22.0524   19.5946 C   0  0  0  0  0  0
  -28.9330  -24.1543   19.8521 C   0  0  0  0  0  0
  -31.4805  -15.9099   17.5131 C   0  0  0  0  0  0
  -30.3352  -23.5053   20.0980 C   0  0  0  0  0  0
  -28.8101  -25.5850   19.2166 C   0  0  0  0  0  0
  -31.8213  -18.2221   17.9651 N   0  0  0  0  0  0
  -30.1054  -15.7778   20.2788 N   0  0  0  0  0  0
  -27.9141  -23.5257   20.1503 O   0  0  0  0  0  0
  -31.4607  -12.4863   19.0597 H   0  0  0  0  0  0
  -30.3551  -11.4015   19.8563 H   0  0  0  0  0  0
  -29.7389  -11.7866   17.4095 H   0  0  0  0  0  0
  -29.5827  -13.4936   17.7242 H   0  0  0  0  0  0
  -27.9121  -11.2705   18.9390 H   0  0  0  0  0  0
  -27.3325  -12.4777   17.8181 H   0  0  0  0  0  0
  -27.6443  -14.2467   19.4397 H   0  0  0  0  0  0
  -28.7211  -12.1988   21.4400 H   0  0  0  0  0  0
  -28.5009  -13.9079   21.7262 H   0  0  0  0  0  0
  -25.2766   -9.5753   22.4707 H   0  0  0  0  0  0
  -24.0017   -7.4688   22.7498 H   0  0  0  0  0  0
  -21.0816   -8.8859   19.8952 H   0  0  0  0  0  0
  -22.3749  -10.9678   19.6166 H   0  0  0  0  0  0
  -21.2052   -7.6144   23.9724 H   0  0  0  0  0  0
  -21.1446   -6.0469   25.9040 H   0  0  0  0  0  0
  -22.0613   -2.7611   23.2835 H   0  0  0  0  0  0
  -22.4030  -11.9959   22.4863 H   0  0  0  0  0  0
  -21.1035  -13.1305   22.2486 H   0  0  0  0  0  0
  -24.6688  -15.8605   20.5229 H   0  0  0  0  0  0
  -26.2802  -15.6253   20.0775 H   0  0  0  0  0  0
  -26.7132  -32.5453   23.1086 H   0  0  0  0  0  0
  -25.0034  -33.9699   25.0411 H   0  0  0  0  0  0
  -22.7087  -31.2888   21.3814 H   0  0  0  0  0  0
  -23.3740  -35.9629   23.3271 H   0  0  0  0  0  0
  -24.3575  -36.8950   22.2046 H   0  0  0  0  0  0
  -23.7258  -37.6494   23.6682 H   0  0  0  0  0  0
  -26.0831  -31.5675   20.6049 H   0  0  0  0  0  0
  -26.8259  -30.8467   22.0009 H   0  0  0  0  0  0
  -28.1095  -29.0582   21.1859 H   0  0  0  0  0  0
  -26.0929  -25.9247   19.0186 H   0  0  0  0  0  0
  -24.0267  -27.2563   19.0140 H   0  0  0  0  0  0
  -23.7296  -30.5513   19.3834 H   0  0  0  0  0  0
  -22.7634  -29.1923   19.8714 H   0  0  0  0  0  0
  -25.1293  -36.1906   25.0811 H   0  0  0  0  0  0
  -20.9982  -28.3233   24.1370 H   0  0  0  0  0  0
  -20.5551  -26.2301   23.3613 H   0  0  0  0  0  0
  -21.6620  -26.7331   22.1259 H   0  0  0  0  0  0
  -19.6882  -25.6265   21.1221 H   0  0  0  0  0  0
  -19.6654  -27.3155   20.6697 H   0  0  0  0  0  0
  -17.4178  -26.6640   21.4007 H   0  0  0  0  0  0
  -18.0322  -26.0026   22.8998 H   0  0  0  0  0  0
  -19.7947  -30.7222   24.2249 H   0  0  0  0  0  0
  -17.5033  -31.6246   24.5163 H   0  0  0  0  0  0
  -15.5353  -30.2957   23.7623 H   0  0  0  0  0  0
  -15.8677  -28.0777   22.7071 H   0  0  0  0  0  0
  -24.5847  -30.7151   25.7841 H   0  0  0  0  0  0
  -24.9041  -32.2917   26.4968 H   0  0  0  0  0  0
  -25.8110  -30.8845   27.0203 H   0  0  0  0  0  0
  -26.2891  -29.6734   24.1189 H   0  0  0  0  0  0
  -27.3994  -29.7224   25.4682 H   0  0  0  0  0  0
  -27.8783  -30.4222   23.9403 H   0  0  0  0  0  0
  -27.2585  -33.3619   26.2056 H   0  0  0  0  0  0
  -28.3852  -32.6903   25.0356 H   0  0  0  0  0  0
  -28.0666  -31.8472   26.5445 H   0  0  0  0  0  0
  -28.2562  -38.0125   24.7510 H   0  0  0  0  0  0
  -28.1105  -36.2654   24.6237 H   0  0  0  0  0  0
  -27.2317  -37.1421   25.8856 H   0  0  0  0  0  0
  -20.9325  -29.8808   21.6952 H   0  0  0  0  0  0
  -26.0156  -38.2845   24.1387 H   0  0  0  0  0  0
  -29.8962  -18.3063   21.3194 H   0  0  0  0  0  0
  -31.9830  -20.2588   18.0889 H   0  0  0  0  0  0
  -30.2784  -20.9509   21.3672 H   0  0  0  0  0  0
  -30.8054  -22.0051   18.5380 H   0  0  0  0  0  0
  -31.8479  -14.9945   17.9565 H   0  0  0  0  0  0
  -32.1837  -16.1507   16.7146 H   0  0  0  0  0  0
  -30.5241  -15.6938   17.0384 H   0  0  0  0  0  0
  -31.1117  -24.1383   19.6629 H   0  0  0  0  0  0
  -30.5084  -23.5098   21.1729 H   0  0  0  0  0  0
  -28.1143  -25.5605   18.3773 H   0  0  0  0  0  0
  -29.7784  -25.8430   18.7853 H   0  0  0  0  0  0
  -29.1128  -15.7612   20.4467 H   0  0  0  0  0  0
  1 25  1  0  0  0
  1 30  2  0  0  0
  1 83  1  0  0  0
  2  3  1  0  0  0
  2 25  1  0  0  0
  2 85  1  0  0  0
  2 86  1  0  0  0
  3  4  1  0  0  0
  3 87  1  0  0  0
  3 88  1  0  0  0
  4  5  1  0  0  0
  4 89  1  0  0  0
  4 90  1  0  0  0
  5  6  1  0  0  0
  5 26  1  0  0  0
  5 91  1  0  0  0
  6 25  1  0  0  0
  6 92  1  0  0  0
  6 93  1  0  0  0
  7  8  2  0  0  0
  7 26  1  0  0  0
  7 29  1  0  0  0
  8  9  1  0  0  0
  8 22  1  0  0  0
  9 10  1  0  0  0
  9 27  2  0  0  0
 10 11  2  0  0  0
 10 15  1  0  0  0
 11 12  1  0  0  0
 11 94  1  0  0  0
 12 13  2  0  0  0
 12 95  1  0  0  0
 13 14  1  0  0  0
 13 31  1  0  0  0
 14 15  2  0  0  0
 14 96  1  0  0  0
 15 97  1  0  0  0
 16 17  2  0  0  0
 16 21  1  0  0  0
 16 31  1  0  0  0
 17 18  1  0  0  0
 17 98  1  0  0  0
 18 19  2  0  0  0
 18 99  1  0  0  0
 19 20  1  0  0  0
 19 24  1  0  0  0
 20 21  2  0  0  0
 20100  1  0  0  0
 21 23  1  0  0  0
 22 28  1  0  0  0
 22 32  2  0  0  0
 26 27  1  0  0  0
 28101  1  0  0  0
 28102  1  0  0  0
 29103  1  0  0  0
 29104  1  0  0  0
 33 34  1  0  0  0
 33 66  1  0  0  0
 33 70  2  0  0  0
 34 36  1  0  0  0
 34 59  1  0  0  0
 34105  1  0  0  0
 35 44  2  0  0  0
 35 45  1  0  0  0
 35 68  1  0  0  0
 36 56  1  0  0  0
 36106  1  0  0  0
 37 39  1  0  0  0
 37 47  1  0  0  0
 37 66  1  0  0  0
 37107  1  0  0  0
 38 43  2  0  0  0
 38 46  1  0  0  0
 38 47  1  0  0  0
 39 64  1  0  0  0
 39 67  2  0  0  0
 40 52  1  0  0  0
 40 53  2  0  0  0
 40 58  1  0  0  0
 41108  1  0  0  0
 41109  1  0  0  0
 41110  1  0  0  0
 41 48  1  0  0  0
 42 43  1  0  0  0
 42 66  1  0  0  0
 42111  1  0  0  0
 42112  1  0  0  0
 43 44  1  0  0  0
 44113  1  0  0  0
 45 46  2  0  0  0
 45114  1  0  0  0
 46115  1  0  0  0
 47116  1  0  0  0
 47117  1  0  0  0
 48 56  1  0  0  0
 48 65  1  0  0  0
 48118  1  0  0  0
 49 50  1  0  0  0
 49 53  1  0  0  0
 49 64  1  0  0  0
 49119  1  0  0  0
 50 51  1  0  0  0
 50120  1  0  0  0
 50121  1  0  0  0
 51 52  1  0  0  0
 51122  1  0  0  0
 51123  1  0  0  0
 52124  1  0  0  0
 52125  1  0  0  0
 53 54  1  0  0  0
 54 55  2  0  0  0
 54126  1  0  0  0
 55 57  1  0  0  0
 55127  1  0  0  0
 56 69  2  0  0  0
 57 58  2  0  0  0
 57128  1  0  0  0
 58129  1  0  0  0
 59 60  1  0  0  0
 59 61  1  0  0  0
 59 62  1  0  0  0
 60130  1  0  0  0
 60131  1  0  0  0
 60132  1  0  0  0
 61133  1  0  0  0
 61134  1  0  0  0
 61135  1  0  0  0
 62136  1  0  0  0
 62137  1  0  0  0
 62138  1  0  0  0
 63 65  1  0  0  0
 63139  1  0  0  0
 63140  1  0  0  0
 63141  1  0  0  0
 64142  1  0  0  0
 65143  1  0  0  0
 68 81  1  0  0  0
 71 73  2  0  0  0
 71 74  1  0  0  0
 71144  1  0  0  0
 72 73  1  0  0  0
 72 82  2  0  0  0
 72145  1  0  0  0
 73 76  1  0  0  0
 74 75  2  0  0  0
 74 83  1  0  0  0
 75 79  1  0  0  0
 75 82  1  0  0  0
 76 77  2  0  0  0
 76146  1  0  0  0
 77 80  1  0  0  0
 77147  1  0  0  0
 78 80  1  0  0  0
 78 81  1  0  0  0
 78 84  2  0  0  0
 79148  1  0  0  0
 79149  1  0  0  0
 79150  1  0  0  0
 80151  1  0  0  0
 80152  1  0  0  0
 81153  1  0  0  0
 81154  1  0  0  0
 83155  1  0  0  0
M  ISO  4   1 100  68 101  81 101  83 100
M  END
> <chiral flag>
0

> <version>
0

> <s_m_source_file>
/data/baiqing/PycharmProjects/Reinvent-master-3.2/result/LINK_invent/BTK/process_docking_weight1_custom_product_contain_oxygen_bond_distance_aromatic_linkinvent_7_9_3/rearranged_h_0128.sdf

> <i_m_source_file_index>
51

> <r_mmod_Potential_Energy-OPLS-2005>
-57.9840965270996

> <r_mmod_Stretch_Energy-OPLS-2005>
64.5896606445312

> <r_mmod_Bend_Energy-OPLS-2005>
132.937789916992

> <r_mmod_Torsional_Energy-OPLS-2005>
261.195007324219

> <r_mmod_Improper_Torsional_Energy-OPLS-2005>
9.34826946258545

> <r_mmod_Van_der_Waal_Energy-OPLS-2005>
145.989562988281

> <r_mmod_Electrostatic_Energy-OPLS-2005>
-485.271453857422

> <r_mmod_Solvation_Energy-OPLS-2005>
-238.851440429688

> <b_mmod_Minimization_Converged-OPLS-2005>
0

> <r_mmod_RMS_Derivative-OPLS-2005>
6.37396621704102

$$$$
51
                    3D
 Structure written by MMmdl.
156164  0  0  1  0            999 V2000
  -30.7136  -14.4213   20.5364 C   0  0  0  0  0  0
  -30.4124  -12.2491   19.4412 C   0  0  0  0  0  0
  -29.5051  -12.4712   18.2156 C   0  0  0  0  0  0
  -28.0179  -12.3693   18.6078 C   0  0  0  0  0  0
  -27.6647  -13.2036   19.8690 C   0  0  2  0  0  0
  -28.6986  -12.9755   20.9959 C   0  0  0  0  0  0
  -25.2573  -13.8152   20.5519 C   0  0  0  0  0  0
  -24.1832  -13.0446   20.9080 C   0  0  0  0  0  0
  -24.6369  -11.6903   20.8692 C   0  0  0  0  0  0
  -23.9031  -10.4275   21.0355 C   0  0  0  0  0  0
  -24.3578   -9.4192   21.9132 C   0  0  0  0  0  0
  -23.6263   -8.2229   22.0712 C   0  0  0  0  0  0
  -22.4249   -8.0237   21.3521 C   0  0  0  0  0  0
  -21.9877   -9.0199   20.4622 C   0  0  0  0  0  0
  -22.7193  -10.2089   20.3018 C   0  0  0  0  0  0
  -21.6865   -6.0682   22.5263 C   0  0  0  0  0  0
  -21.4029   -6.5598   23.8198 C   0  0  0  0  0  0
  -21.3665   -5.6739   24.9162 C   0  0  0  0  0  0
  -21.6066   -4.3011   24.7210 C   0  0  0  0  0  0
  -21.8843   -3.8102   23.4340 C   0  0  0  0  0  0
  -21.9199   -4.6914   22.3401 C   0  0  0  0  0  0
  -22.7856  -13.5243   21.1787 C   0  0  0  0  0  0
  -22.1664   -4.2101   21.0987 F   0  0  0  0  0  0
  -21.5632   -3.4499   25.7727 F   0  0  0  0  0  0
  -30.0391  -13.2453   20.4506 N   0  0  0  0  0  0
  -26.3015  -12.9317   20.3255 N   0  0  0  0  0  0
  -25.9307  -11.6479   20.5712 N   0  0  0  0  0  0
  -22.0516  -12.8239   22.0368 N   0  0  0  0  0  0
  -25.4279  -15.1858   20.3819 N   0  0  0  0  0  0
  -31.8595  -14.5844   20.1040 O   0  0  0  0  0  0
  -21.6636   -6.8815   21.4226 O   0  0  0  0  0  0
  -22.3532  -14.5542   20.6634 O   0  0  0  0  0  0
  -24.6128  -31.8693   23.2074 C   0  0  0  0  0  0
  -25.9038  -32.4826   23.8372 C   0  0  1  0  0  0
  -27.2415  -27.4539   20.0970 C   0  0  0  0  0  0
  -25.5920  -33.8618   24.2328 N   0  0  0  0  0  0
  -23.4014  -30.4898   21.5489 C   0  0  2  0  0  0
  -24.8515  -28.9523   20.1162 C   0  0  0  0  0  0
  -22.7415  -29.4647   22.4987 C   0  0  0  0  0  0
  -18.0267  -28.1363   22.8488 C   0  0  0  0  0  0
  -24.1490  -36.7307   23.2623 C   0  0  0  0  0  0
  -25.9256  -30.8395   21.3573 C   0  0  0  0  0  0
  -26.0084  -29.4718   20.7125 C   0  0  0  0  0  0
  -27.2085  -28.7284   20.7032 C   0  0  0  0  0  0
  -26.0727  -26.9406   19.5036 C   0  0  0  0  0  0
  -24.8760  -27.6839   19.5106 C   0  0  0  0  0  0
  -23.6114  -29.8162   20.1646 C   0  0  0  0  0  0
  -25.4104  -36.3101   24.0336 C   0  0  1  0  0  0
  -20.5861  -28.3643   23.1314 C   0  0  2  0  0  0
  -20.6747  -26.9378   22.5410 C   0  0  0  0  0  0
  -19.5734  -26.6371   21.5196 C   0  0  0  0  0  0
  -18.1911  -26.7905   22.1612 C   0  0  0  0  0  0
  -19.1525  -28.8819   23.2892 C   0  0  0  0  0  0
  -18.9456  -30.1429   23.8904 C   0  0  0  0  0  0
  -17.6466  -30.6570   24.0556 C   0  0  0  0  0  0
  -25.9038  -34.9473   23.5119 C   0  0  0  0  0  0
  -16.5353  -29.9077   23.6321 C   0  0  0  0  0  0
  -16.7264  -28.6489   23.0343 C   0  0  0  0  0  0
  -26.4480  -31.6595   25.0694 C   0  0  0  0  0  0
  -25.3764  -31.3747   26.1472 C   0  0  0  0  0  0
  -27.0297  -30.3034   24.6046 C   0  0  0  0  0  0
  -27.6056  -32.4308   25.7473 C   0  0  0  0  0  0
  -27.5589  -37.1797   24.8454 C   0  0  0  0  0  0
  -21.4147  -29.3029   22.3749 N   0  0  0  0  0  0
  -26.4282  -37.3803   23.9425 N   0  0  0  0  0  0
  -24.6648  -31.0799   22.0971 N   0  0  0  0  0  0
  -23.4190  -28.8178   23.3003 O   0  0  0  0  0  0
  -28.3856  -26.6959   20.0961 O   0  0  0  0  0  0
  -26.5588  -34.8928   22.4669 O   0  0  0  0  0  0
  -23.5331  -32.1437   23.7497 O   0  0  0  0  0  0
  -30.5033  -17.8562   21.2438 C   0  0  0  0  0  0
  -30.4624  -19.3487   19.3120 C   0  0  0  0  0  0
  -29.9362  -16.9829   19.0351 C   0  0  0  0  0  0
  -30.6844  -19.1492   20.6915 C   0  0  0  0  0  0
  -30.1415  -16.7697   20.4169 C   0  0  0  0  0  0
  -30.1023  -18.2682   18.4858 C   0  0  0  0  0  0
  -30.5012  -21.5252   21.7787 C   0  0  0  0  0  0
  -29.2936  -21.8777   21.2943 C   0  0  0  0  0  0
  -31.2141  -20.2532   21.5223 C   0  0  0  0  0  0
  -28.7905  -24.3177   20.6389 C   0  0  0  0  0  0
  -28.5976  -23.1849   21.6566 C   0  0  0  0  0  0
  -28.3778  -25.7106   21.1370 C   0  0  0  0  0  0
  -32.3586  -20.1226   22.0423 N   0  0  0  0  0  0
  -29.9946  -15.4666   20.9665 N   0  0  0  0  0  0
  -29.2482  -24.1214   19.5086 O   0  0  0  0  0  0
  -29.9363  -18.4611   17.1555 F   0  0  0  0  0  0
  -31.4623  -12.3135   19.1519 H   0  0  0  0  0  0
  -30.2842  -11.2404   19.8366 H   0  0  0  0  0  0
  -29.7381  -11.7405   17.4383 H   0  0  0  0  0  0
  -29.7077  -13.4505   17.7796 H   0  0  0  0  0  0
  -27.7919  -11.3155   18.7804 H   0  0  0  0  0  0
  -27.3950  -12.6783   17.7685 H   0  0  0  0  0  0
  -27.7153  -14.2523   19.5708 H   0  0  0  0  0  0
  -28.6495  -11.9441   21.3510 H   0  0  0  0  0  0
  -28.4741  -13.5910   21.8671 H   0  0  0  0  0  0
  -25.2686   -9.5692   22.4735 H   0  0  0  0  0  0
  -23.9975   -7.4620   22.7423 H   0  0  0  0  0  0
  -21.0812   -8.8683   19.8908 H   0  0  0  0  0  0
  -22.3593  -10.9609   19.6149 H   0  0  0  0  0  0
  -21.2034   -7.6097   23.9707 H   0  0  0  0  0  0
  -21.1475   -6.0447   25.9062 H   0  0  0  0  0  0
  -22.0645   -2.7556   23.2851 H   0  0  0  0  0  0
  -22.4127  -11.9916   22.4755 H   0  0  0  0  0  0
  -21.1138  -13.1285   22.2550 H   0  0  0  0  0  0
  -24.6559  -15.8398   20.4526 H   0  0  0  0  0  0
  -26.2759  -15.6183   20.0396 H   0  0  0  0  0  0
  -26.7107  -32.5568   23.1144 H   0  0  0  0  0  0
  -25.0153  -33.9778   25.0531 H   0  0  0  0  0  0
  -22.6876  -31.3027   21.4055 H   0  0  0  0  0  0
  -23.3758  -35.9635   23.3283 H   0  0  0  0  0  0
  -24.3592  -36.8918   22.2035 H   0  0  0  0  0  0
  -23.7231  -37.6511   23.6631 H   0  0  0  0  0  0
  -26.0238  -31.5997   20.5809 H   0  0  0  0  0  0
  -26.8171  -30.9068   21.9684 H   0  0  0  0  0  0
  -28.1017  -29.1211   21.1678 H   0  0  0  0  0  0
  -26.0891  -25.9629   19.0426 H   0  0  0  0  0  0
  -23.9868  -27.2759   19.0495 H   0  0  0  0  0  0
  -23.7178  -30.5860   19.3999 H   0  0  0  0  0  0
  -22.7394  -29.2309   19.8700 H   0  0  0  0  0  0
  -25.1265  -36.1956   25.0830 H   0  0  0  0  0  0
  -20.9943  -28.3189   24.1438 H   0  0  0  0  0  0
  -20.5609  -26.2257   23.3598 H   0  0  0  0  0  0
  -21.6624  -26.7388   22.1231 H   0  0  0  0  0  0
  -19.6886  -25.6285   21.1214 H   0  0  0  0  0  0
  -19.6662  -27.3188   20.6734 H   0  0  0  0  0  0
  -17.4177  -26.6655   21.4014 H   0  0  0  0  0  0
  -18.0308  -26.0038   22.8996 H   0  0  0  0  0  0
  -19.7946  -30.7224   24.2271 H   0  0  0  0  0  0
  -17.5036  -31.6252   24.5155 H   0  0  0  0  0  0
  -15.5359  -30.2980   23.7644 H   0  0  0  0  0  0
  -15.8662  -28.0813   22.7052 H   0  0  0  0  0  0
  -24.5902  -30.7116   25.7850 H   0  0  0  0  0  0
  -24.9016  -32.2946   26.4901 H   0  0  0  0  0  0
  -25.8139  -30.8943   27.0236 H   0  0  0  0  0  0
  -26.2837  -29.6817   24.1090 H   0  0  0  0  0  0
  -27.4074  -29.7232   25.4474 H   0  0  0  0  0  0
  -27.8662  -30.4353   23.9179 H   0  0  0  0  0  0
  -27.2657  -33.3581   26.2101 H   0  0  0  0  0  0
  -28.3866  -32.6917   25.0315 H   0  0  0  0  0  0
  -28.0735  -31.8408   26.5371 H   0  0  0  0  0  0
  -28.2576  -38.0126   24.7555 H   0  0  0  0  0  0
  -28.1117  -36.2662   24.6201 H   0  0  0  0  0  0
  -27.2329  -37.1356   25.8862 H   0  0  0  0  0  0
  -20.9294  -29.8834   21.7064 H   0  0  0  0  0  0
  -26.0168  -38.2871   24.1480 H   0  0  0  0  0  0
  -30.6738  -17.6916   22.2990 H   0  0  0  0  0  0
  -30.6185  -20.3221   18.8696 H   0  0  0  0  0  0
  -29.6697  -16.1605   18.3865 H   0  0  0  0  0  0
  -31.0241  -22.2071   22.4352 H   0  0  0  0  0  0
  -28.7546  -21.2249   20.6230 H   0  0  0  0  0  0
  -28.9813  -23.5396   22.6120 H   0  0  0  0  0  0
  -27.5318  -23.0068   21.7974 H   0  0  0  0  0  0
  -29.0711  -26.0161   21.9216 H   0  0  0  0  0  0
  -27.3926  -25.6220   21.5997 H   0  0  0  0  0  0
  -32.7728  -19.2353   21.7781 H   0  0  0  0  0  0
  -29.1057  -15.2504   21.3947 H   0  0  0  0  0  0
  1 25  1  0  0  0
  1 30  2  0  0  0
  1 84  1  0  0  0
  2  3  1  0  0  0
  2 25  1  0  0  0
  2 87  1  0  0  0
  2 88  1  0  0  0
  3  4  1  0  0  0
  3 89  1  0  0  0
  3 90  1  0  0  0
  4  5  1  0  0  0
  4 91  1  0  0  0
  4 92  1  0  0  0
  5  6  1  0  0  0
  5 26  1  0  0  0
  5 93  1  0  0  0
  6 25  1  0  0  0
  6 94  1  0  0  0
  6 95  1  0  0  0
  7  8  2  0  0  0
  7 26  1  0  0  0
  7 29  1  0  0  0
  8  9  1  0  0  0
  8 22  1  0  0  0
  9 10  1  0  0  0
  9 27  2  0  0  0
 10 11  2  0  0  0
 10 15  1  0  0  0
 11 12  1  0  0  0
 11 96  1  0  0  0
 12 13  2  0  0  0
 12 97  1  0  0  0
 13 14  1  0  0  0
 13 31  1  0  0  0
 14 15  2  0  0  0
 14 98  1  0  0  0
 15 99  1  0  0  0
 16 17  2  0  0  0
 16 21  1  0  0  0
 16 31  1  0  0  0
 17 18  1  0  0  0
 17100  1  0  0  0
 18 19  2  0  0  0
 18101  1  0  0  0
 19 20  1  0  0  0
 19 24  1  0  0  0
 20 21  2  0  0  0
 20102  1  0  0  0
 21 23  1  0  0  0
 22 28  1  0  0  0
 22 32  2  0  0  0
 26 27  1  0  0  0
 28103  1  0  0  0
 28104  1  0  0  0
 29105  1  0  0  0
 29106  1  0  0  0
 33 34  1  0  0  0
 33 66  1  0  0  0
 33 70  2  0  0  0
 34 36  1  0  0  0
 34 59  1  0  0  0
 34107  1  0  0  0
 35 44  2  0  0  0
 35 45  1  0  0  0
 35 68  1  0  0  0
 36 56  1  0  0  0
 36108  1  0  0  0
 37 39  1  0  0  0
 37 47  1  0  0  0
 37 66  1  0  0  0
 37109  1  0  0  0
 38 43  2  0  0  0
 38 46  1  0  0  0
 38 47  1  0  0  0
 39 64  1  0  0  0
 39 67  2  0  0  0
 40 52  1  0  0  0
 40 53  2  0  0  0
 40 58  1  0  0  0
 41110  1  0  0  0
 41111  1  0  0  0
 41112  1  0  0  0
 41 48  1  0  0  0
 42 43  1  0  0  0
 42 66  1  0  0  0
 42113  1  0  0  0
 42114  1  0  0  0
 43 44  1  0  0  0
 44115  1  0  0  0
 45 46  2  0  0  0
 45116  1  0  0  0
 46117  1  0  0  0
 47118  1  0  0  0
 47119  1  0  0  0
 48 56  1  0  0  0
 48 65  1  0  0  0
 48120  1  0  0  0
 49 50  1  0  0  0
 49 53  1  0  0  0
 49 64  1  0  0  0
 49121  1  0  0  0
 50 51  1  0  0  0
 50122  1  0  0  0
 50123  1  0  0  0
 51 52  1  0  0  0
 51124  1  0  0  0
 51125  1  0  0  0
 52126  1  0  0  0
 52127  1  0  0  0
 53 54  1  0  0  0
 54 55  2  0  0  0
 54128  1  0  0  0
 55 57  1  0  0  0
 55129  1  0  0  0
 56 69  2  0  0  0
 57 58  2  0  0  0
 57130  1  0  0  0
 58131  1  0  0  0
 59 60  1  0  0  0
 59 61  1  0  0  0
 59 62  1  0  0  0
 60132  1  0  0  0
 60133  1  0  0  0
 60134  1  0  0  0
 61135  1  0  0  0
 61136  1  0  0  0
 61137  1  0  0  0
 62138  1  0  0  0
 62139  1  0  0  0
 62140  1  0  0  0
 63 65  1  0  0  0
 63141  1  0  0  0
 63142  1  0  0  0
 63143  1  0  0  0
 64144  1  0  0  0
 65145  1  0  0  0
 68 82  1  0  0  0
 71 74  2  0  0  0
 71 75  1  0  0  0
 71146  1  0  0  0
 72 74  1  0  0  0
 72 76  2  0  0  0
 72147  1  0  0  0
 73 75  2  0  0  0
 73 76  1  0  0  0
 73148  1  0  0  0
 74 79  1  0  0  0
 75 84  1  0  0  0
 76 86  1  0  0  0
 77 78  2  0  0  0
 77 79  1  0  0  0
 77149  1  0  0  0
 78 81  1  0  0  0
 78150  1  0  0  0
 79 83  2  0  0  0
 80 81  1  0  0  0
 80 82  1  0  0  0
 80 85  2  0  0  0
 81151  1  0  0  0
 81152  1  0  0  0
 82153  1  0  0  0
 82154  1  0  0  0
 83155  1  0  0  0
 84156  1  0  0  0
M  ISO  4   1 100  68 101  82 101  84 100
M  END
> <chiral flag>
0

> <version>
0

> <s_m_source_file>
/data/baiqing/PycharmProjects/Reinvent-master-3.2/result/LINK_invent/BTK/process_docking_weight1_custom_product_contain_oxygen_bond_distance_aromatic_linkinvent_7_9_3/rearranged_h_0128.sdf

> <i_m_source_file_index>
52

> <r_mmod_Potential_Energy-OPLS-2005>
-15.9852161407471

> <r_mmod_Stretch_Energy-OPLS-2005>
33.2150650024414

> <r_mmod_Bend_Energy-OPLS-2005>
92.7360153198242

> <r_mmod_Torsional_Energy-OPLS-2005>
293.846374511719

> <r_mmod_Improper_Torsional_Energy-OPLS-2005>
5.95354604721069

> <r_mmod_Van_der_Waal_Energy-OPLS-2005>
146.211853027344

> <r_mmod_Electrostatic_Energy-OPLS-2005>
-362.495269775391

> <r_mmod_Solvation_Energy-OPLS-2005>
-237.721374511719

> <b_mmod_Minimization_Converged-OPLS-2005>
0

> <r_mmod_RMS_Derivative-OPLS-2005>
4.31474542617798

$$$$
52
                    3D
 Structure written by MMmdl.
158166  0  0  1  0            999 V2000
  -30.6508  -14.5494   20.5160 C   0  0  0  0  0  0
  -30.4287  -12.3367   19.4345 C   0  0  0  0  0  0
  -29.4940  -12.4858   18.2137 C   0  0  0  0  0  0
  -28.0210  -12.3191   18.6349 C   0  0  0  0  0  0
  -27.6559  -13.1795   19.8713 C   0  0  2  0  0  0
  -28.7007  -13.0170   20.9980 C   0  0  0  0  0  0
  -25.2573  -13.8059   20.5662 C   0  0  0  0  0  0
  -24.1820  -13.0394   20.9229 C   0  0  0  0  0  0
  -24.6340  -11.6859   20.8786 C   0  0  0  0  0  0
  -23.8994  -10.4278   21.0437 C   0  0  0  0  0  0
  -24.3571   -9.4200   21.9199 C   0  0  0  0  0  0
  -23.6269   -8.2227   22.0750 C   0  0  0  0  0  0
  -22.4247   -8.0268   21.3540 C   0  0  0  0  0  0
  -21.9875   -9.0234   20.4636 C   0  0  0  0  0  0
  -22.7182  -10.2126   20.3070 C   0  0  0  0  0  0
  -21.6840   -6.0734   22.5281 C   0  0  0  0  0  0
  -21.3998   -6.5633   23.8219 C   0  0  0  0  0  0
  -21.3659   -5.6783   24.9176 C   0  0  0  0  0  0
  -21.6047   -4.3054   24.7224 C   0  0  0  0  0  0
  -21.8819   -3.8145   23.4344 C   0  0  0  0  0  0
  -21.9186   -4.6962   22.3400 C   0  0  0  0  0  0
  -22.7859  -13.5233   21.1880 C   0  0  0  0  0  0
  -22.1662   -4.2155   21.0978 F   0  0  0  0  0  0
  -21.5640   -3.4537   25.7733 F   0  0  0  0  0  0
  -30.0208  -13.3412   20.4310 N   0  0  0  0  0  0
  -26.2978  -12.9184   20.3362 N   0  0  0  0  0  0
  -25.9254  -11.6384   20.5813 N   0  0  0  0  0  0
  -22.0464  -12.8250   22.0431 N   0  0  0  0  0  0
  -25.4297  -15.1733   20.3924 N   0  0  0  0  0  0
  -31.7976  -14.7156   20.0895 O   0  0  0  0  0  0
  -21.6608   -6.8869   21.4239 O   0  0  0  0  0  0
  -22.3577  -14.5541   20.6698 O   0  0  0  0  0  0
  -24.6160  -31.8656   23.2087 C   0  0  0  0  0  0
  -25.9063  -32.4805   23.8372 C   0  0  1  0  0  0
  -27.2437  -27.4169   20.0998 C   0  0  0  0  0  0
  -25.5924  -33.8607   24.2309 N   0  0  0  0  0  0
  -23.4027  -30.4875   21.5488 C   0  0  2  0  0  0
  -24.8509  -28.9445   20.1179 C   0  0  0  0  0  0
  -22.7396  -29.4641   22.4979 C   0  0  0  0  0  0
  -18.0265  -28.1344   22.8481 C   0  0  0  0  0  0
  -24.1492  -36.7312   23.2634 C   0  0  0  0  0  0
  -25.9317  -30.8251   21.3640 C   0  0  0  0  0  0
  -26.0101  -29.4565   20.7125 C   0  0  0  0  0  0
  -27.2061  -28.7007   20.6987 C   0  0  0  0  0  0
  -26.0648  -26.9243   19.4927 C   0  0  0  0  0  0
  -24.8737  -27.6781   19.5061 C   0  0  0  0  0  0
  -23.6135  -29.8146   20.1639 C   0  0  0  0  0  0
  -25.4114  -36.3105   24.0326 C   0  0  1  0  0  0
  -20.5853  -28.3647   23.1301 C   0  0  2  0  0  0
  -20.6763  -26.9381   22.5401 C   0  0  0  0  0  0
  -19.5748  -26.6369   21.5181 C   0  0  0  0  0  0
  -18.1924  -26.7895   22.1592 C   0  0  0  0  0  0
  -19.1514  -28.8807   23.2893 C   0  0  0  0  0  0
  -18.9453  -30.1421   23.8896 C   0  0  0  0  0  0
  -17.6460  -30.6574   24.0541 C   0  0  0  0  0  0
  -25.9038  -34.9467   23.5112 C   0  0  0  0  0  0
  -16.5346  -29.9068   23.6307 C   0  0  0  0  0  0
  -16.7261  -28.6473   23.0340 C   0  0  0  0  0  0
  -26.4497  -31.6593   25.0706 C   0  0  0  0  0  0
  -25.3770  -31.3692   26.1454 C   0  0  0  0  0  0
  -27.0322  -30.3033   24.6081 C   0  0  0  0  0  0
  -27.6066  -32.4314   25.7485 C   0  0  0  0  0  0
  -27.5581  -37.1810   24.8461 C   0  0  0  0  0  0
  -21.4117  -29.3028   22.3714 N   0  0  0  0  0  0
  -26.4303  -37.3783   23.9398 N   0  0  0  0  0  0
  -24.6682  -31.0731   22.0994 N   0  0  0  0  0  0
  -23.4166  -28.8185   23.3032 O   0  0  0  0  0  0
  -28.4377  -26.7163   20.0977 O   0  0  0  0  0  0
  -26.5587  -34.8932   22.4665 O   0  0  0  0  0  0
  -23.5360  -32.1423   23.7482 O   0  0  0  0  0  0
  -29.3337  -19.3159   20.3267 C   0  0  0  0  0  0
  -31.4176  -18.9829   21.4934 C   0  0  0  0  0  0
  -29.1177  -17.9141   20.2808 C   0  0  0  0  0  0
  -30.4727  -19.8693   20.9336 C   0  0  0  0  0  0
  -30.0820  -17.0096   20.8435 C   0  0  0  0  0  0
  -31.2204  -17.5812   21.4762 C   0  0  0  0  0  0
  -30.0624  -23.5790   21.3282 C   0  0  0  0  0  0
  -29.7768  -22.3171   20.9278 C   0  0  0  0  0  0
  -27.8850  -17.4852   19.5612 C   0  0  0  0  0  0
  -29.1203  -24.7304   21.3568 C   0  0  0  0  0  0
  -26.6427  -18.3637   19.7123 C   0  0  0  0  0  0
  -28.4390  -25.2668   20.0796 C   0  0  0  0  0  0
  -30.6978  -21.2611   21.0021 N   0  0  0  0  0  0
  -29.8532  -15.5799   20.8988 N   0  0  0  0  0  0
  -27.8128  -16.4770   18.8600 O   0  0  0  0  0  0
  -28.8944  -25.3127   22.4226 O   0  0  0  0  0  0
  -32.1212  -16.7916   22.1354 O   0  0  0  0  0  0
  -31.4701  -12.4493   19.1301 H   0  0  0  0  0  0
  -30.3477  -11.3347   19.8606 H   0  0  0  0  0  0
  -29.7493  -11.7473   17.4531 H   0  0  0  0  0  0
  -29.6362  -13.4641   17.7509 H   0  0  0  0  0  0
  -27.8624  -11.2654   18.8663 H   0  0  0  0  0  0
  -27.3588  -12.5498   17.7994 H   0  0  0  0  0  0
  -27.6864  -14.2084   19.5403 H   0  0  0  0  0  0
  -28.6999  -11.9933   21.3753 H   0  0  0  0  0  0
  -28.4515  -13.6464   21.8538 H   0  0  0  0  0  0
  -25.2709   -9.5691   22.4777 H   0  0  0  0  0  0
  -23.9983   -7.4613   22.7463 H   0  0  0  0  0  0
  -21.0812   -8.8734   19.8942 H   0  0  0  0  0  0
  -22.3620  -10.9667   19.6195 H   0  0  0  0  0  0
  -21.1980   -7.6140   23.9717 H   0  0  0  0  0  0
  -21.1482   -6.0515   25.9076 H   0  0  0  0  0  0
  -22.0595   -2.7607   23.2831 H   0  0  0  0  0  0
  -22.4032  -11.9904   22.4847 H   0  0  0  0  0  0
  -21.1087  -13.1327   22.2607 H   0  0  0  0  0  0
  -24.6220  -15.7860   20.3945 H   0  0  0  0  0  0
  -26.2052  -15.5355   19.8487 H   0  0  0  0  0  0
  -26.7122  -32.5504   23.1123 H   0  0  0  0  0  0
  -25.0136  -33.9762   25.0499 H   0  0  0  0  0  0
  -22.6928  -31.3047   21.4067 H   0  0  0  0  0  0
  -23.3745  -35.9649   23.3306 H   0  0  0  0  0  0
  -24.3604  -36.8927   22.2049 H   0  0  0  0  0  0
  -23.7252  -37.6524   23.6653 H   0  0  0  0  0  0
  -26.0423  -31.5894   20.5928 H   0  0  0  0  0  0
  -26.8192  -30.8807   21.9826 H   0  0  0  0  0  0
  -28.1029  -29.0973   21.1553 H   0  0  0  0  0  0
  -26.0495  -25.9692   18.9872 H   0  0  0  0  0  0
  -23.9832  -27.2818   19.0378 H   0  0  0  0  0  0
  -23.7218  -30.5881   19.4020 H   0  0  0  0  0  0
  -22.7364  -29.2339   19.8719 H   0  0  0  0  0  0
  -25.1290  -36.1964   25.0814 H   0  0  0  0  0  0
  -20.9938  -28.3228   24.1422 H   0  0  0  0  0  0
  -20.5649  -26.2256   23.3594 H   0  0  0  0  0  0
  -21.6645  -26.7428   22.1201 H   0  0  0  0  0  0
  -19.6926  -25.6272   21.1223 H   0  0  0  0  0  0
  -19.6707  -27.3168   20.6705 H   0  0  0  0  0  0
  -17.4189  -26.6631   21.4003 H   0  0  0  0  0  0
  -18.0345  -26.0037   22.8985 H   0  0  0  0  0  0
  -19.7946  -30.7205   24.2303 H   0  0  0  0  0  0
  -17.5028  -31.6267   24.5126 H   0  0  0  0  0  0
  -15.5346  -30.2969   23.7647 H   0  0  0  0  0  0
  -15.8655  -28.0800   22.7056 H   0  0  0  0  0  0
  -24.5948  -30.7037   25.7793 H   0  0  0  0  0  0
  -24.8962  -32.2837   26.4922 H   0  0  0  0  0  0
  -25.8132  -30.8853   27.0196 H   0  0  0  0  0  0
  -26.2843  -29.6789   24.1179 H   0  0  0  0  0  0
  -27.4131  -29.7286   25.4539 H   0  0  0  0  0  0
  -27.8673  -30.4344   23.9191 H   0  0  0  0  0  0
  -27.2679  -33.3604   26.2084 H   0  0  0  0  0  0
  -28.3881  -32.6894   25.0321 H   0  0  0  0  0  0
  -28.0728  -31.8421   26.5388 H   0  0  0  0  0  0
  -28.2591  -38.0118   24.7510 H   0  0  0  0  0  0
  -28.1089  -36.2646   24.6287 H   0  0  0  0  0  0
  -27.2302  -37.1455   25.8869 H   0  0  0  0  0  0
  -20.9275  -29.8778   21.6957 H   0  0  0  0  0  0
  -26.0192  -38.2854   24.1411 H   0  0  0  0  0  0
  -28.6232  -19.9855   19.8659 H   0  0  0  0  0  0
  -32.2934  -19.3903   21.9774 H   0  0  0  0  0  0
  -31.0534  -23.7950   21.7006 H   0  0  0  0  0  0
  -28.7988  -22.0528   20.5461 H   0  0  0  0  0  0
  -26.6003  -18.8028   20.7087 H   0  0  0  0  0  0
  -25.7350  -17.7828   19.5598 H   0  0  0  0  0  0
  -26.6552  -19.1659   18.9752 H   0  0  0  0  0  0
  -27.4397  -24.8395   20.0401 H   0  0  0  0  0  0
  -28.9829  -24.9164   19.2028 H   0  0  0  0  0  0
  -31.6219  -21.5054   21.3485 H   0  0  0  0  0  0
  -28.9039  -15.2976   21.0847 H   0  0  0  0  0  0
  -32.8524  -17.2797   22.4985 H   0  0  0  0  0  0
  1 25  1  0  0  0
  1 30  2  0  0  0
  1 84  1  0  0  0
  2  3  1  0  0  0
  2 25  1  0  0  0
  2 88  1  0  0  0
  2 89  1  0  0  0
  3  4  1  0  0  0
  3 90  1  0  0  0
  3 91  1  0  0  0
  4  5  1  0  0  0
  4 92  1  0  0  0
  4 93  1  0  0  0
  5  6  1  0  0  0
  5 26  1  0  0  0
  5 94  1  0  0  0
  6 25  1  0  0  0
  6 95  1  0  0  0
  6 96  1  0  0  0
  7  8  2  0  0  0
  7 26  1  0  0  0
  7 29  1  0  0  0
  8  9  1  0  0  0
  8 22  1  0  0  0
  9 10  1  0  0  0
  9 27  2  0  0  0
 10 11  2  0  0  0
 10 15  1  0  0  0
 11 12  1  0  0  0
 11 97  1  0  0  0
 12 13  2  0  0  0
 12 98  1  0  0  0
 13 14  1  0  0  0
 13 31  1  0  0  0
 14 15  2  0  0  0
 14 99  1  0  0  0
 15100  1  0  0  0
 16 17  2  0  0  0
 16 21  1  0  0  0
 16 31  1  0  0  0
 17 18  1  0  0  0
 17101  1  0  0  0
 18 19  2  0  0  0
 18102  1  0  0  0
 19 20  1  0  0  0
 19 24  1  0  0  0
 20 21  2  0  0  0
 20103  1  0  0  0
 21 23  1  0  0  0
 22 28  1  0  0  0
 22 32  2  0  0  0
 26 27  1  0  0  0
 28104  1  0  0  0
 28105  1  0  0  0
 29106  1  0  0  0
 29107  1  0  0  0
 33 34  1  0  0  0
 33 66  1  0  0  0
 33 70  2  0  0  0
 34 36  1  0  0  0
 34 59  1  0  0  0
 34108  1  0  0  0
 35 44  2  0  0  0
 35 45  1  0  0  0
 35 68  1  0  0  0
 36 56  1  0  0  0
 36109  1  0  0  0
 37 39  1  0  0  0
 37 47  1  0  0  0
 37 66  1  0  0  0
 37110  1  0  0  0
 38 43  2  0  0  0
 38 46  1  0  0  0
 38 47  1  0  0  0
 39 64  1  0  0  0
 39 67  2  0  0  0
 40 52  1  0  0  0
 40 53  2  0  0  0
 40 58  1  0  0  0
 41111  1  0  0  0
 41112  1  0  0  0
 41113  1  0  0  0
 41 48  1  0  0  0
 42 43  1  0  0  0
 42 66  1  0  0  0
 42114  1  0  0  0
 42115  1  0  0  0
 43 44  1  0  0  0
 44116  1  0  0  0
 45 46  2  0  0  0
 45117  1  0  0  0
 46118  1  0  0  0
 47119  1  0  0  0
 47120  1  0  0  0
 48 56  1  0  0  0
 48 65  1  0  0  0
 48121  1  0  0  0
 49 50  1  0  0  0
 49 53  1  0  0  0
 49 64  1  0  0  0
 49122  1  0  0  0
 50 51  1  0  0  0
 50123  1  0  0  0
 50124  1  0  0  0
 51 52  1  0  0  0
 51125  1  0  0  0
 51126  1  0  0  0
 52127  1  0  0  0
 52128  1  0  0  0
 53 54  1  0  0  0
 54 55  2  0  0  0
 54129  1  0  0  0
 55 57  1  0  0  0
 55130  1  0  0  0
 56 69  2  0  0  0
 57 58  2  0  0  0
 57131  1  0  0  0
 58132  1  0  0  0
 59 60  1  0  0  0
 59 61  1  0  0  0
 59 62  1  0  0  0
 60133  1  0  0  0
 60134  1  0  0  0
 60135  1  0  0  0
 61136  1  0  0  0
 61137  1  0  0  0
 61138  1  0  0  0
 62139  1  0  0  0
 62140  1  0  0  0
 62141  1  0  0  0
 63 65  1  0  0  0
 63142  1  0  0  0
 63143  1  0  0  0
 63144  1  0  0  0
 64145  1  0  0  0
 65146  1  0  0  0
 68 82  1  0  0  0
 71 73  2  0  0  0
 71 74  1  0  0  0
 71147  1  0  0  0
 72 74  2  0  0  0
 72 76  1  0  0  0
 72148  1  0  0  0
 73 75  1  0  0  0
 73 79  1  0  0  0
 74 83  1  0  0  0
 75 76  2  0  0  0
 75 84  1  0  0  0
 76 87  1  0  0  0
 77 78  2  0  0  0
 77 80  1  0  0  0
 77149  1  0  0  0
 78 83  1  0  0  0
 78150  1  0  0  0
 79 81  1  0  0  0
 79 85  2  0  0  0
 80 82  1  0  0  0
 80 86  2  0  0  0
 81151  1  0  0  0
 81152  1  0  0  0
 81153  1  0  0  0
 82154  1  0  0  0
 82155  1  0  0  0
 83156  1  0  0  0
 84157  1  0  0  0
 87158  1  0  0  0
M  ISO  4   1 100  68 101  82 101  84 100
M  END
> <chiral flag>
0

> <version>
0

> <s_m_source_file>
/data/baiqing/PycharmProjects/Reinvent-master-3.2/result/LINK_invent/BTK/process_docking_weight1_custom_product_contain_oxygen_bond_distance_aromatic_linkinvent_7_9_3/rearranged_h_0128.sdf

> <i_m_source_file_index>
53

> <r_mmod_Potential_Energy-OPLS-2005>
-17.704704284668

> <r_mmod_Stretch_Energy-OPLS-2005>
47.0751991271973

> <r_mmod_Bend_Energy-OPLS-2005>
114.091720581055

> <r_mmod_Torsional_Energy-OPLS-2005>
287.10986328125

> <r_mmod_Improper_Torsional_Energy-OPLS-2005>
8.61273956298828

> <r_mmod_Van_der_Waal_Energy-OPLS-2005>
151.368759155273

> <r_mmod_Electrostatic_Energy-OPLS-2005>
-380.674072265625

> <r_mmod_Solvation_Energy-OPLS-2005>
-265.866668701172

> <b_mmod_Minimization_Converged-OPLS-2005>
0

> <r_mmod_RMS_Derivative-OPLS-2005>
2.24015879631042

$$$$
53
                    3D
 Structure written by MMmdl.
159167  0  0  1  0            999 V2000
  -30.6550  -14.5001   20.5695 C   0  0  0  0  0  0
  -30.4392  -12.3142   19.4290 C   0  0  0  0  0  0
  -29.5045  -12.5048   18.2130 C   0  0  0  0  0  0
  -28.0241  -12.3582   18.6229 C   0  0  0  0  0  0
  -27.6641  -13.2051   19.8728 C   0  0  2  0  0  0
  -28.7063  -12.9905   20.9933 C   0  0  0  0  0  0
  -25.2575  -13.8153   20.5592 C   0  0  0  0  0  0
  -24.1840  -13.0435   20.9139 C   0  0  0  0  0  0
  -24.6410  -11.6902   20.8746 C   0  0  0  0  0  0
  -23.9086  -10.4287   21.0425 C   0  0  0  0  0  0
  -24.3631   -9.4199   21.9206 C   0  0  0  0  0  0
  -23.6295   -8.2241   22.0775 C   0  0  0  0  0  0
  -22.4279   -8.0289   21.3559 C   0  0  0  0  0  0
  -21.9919   -9.0265   20.4662 C   0  0  0  0  0  0
  -22.7256  -10.2135   20.3069 C   0  0  0  0  0  0
  -21.6852   -6.0743   22.5275 C   0  0  0  0  0  0
  -21.4015   -6.5647   23.8210 C   0  0  0  0  0  0
  -21.3651   -5.6799   24.9170 C   0  0  0  0  0  0
  -21.6045   -4.3063   24.7214 C   0  0  0  0  0  0
  -21.8822   -3.8153   23.4334 C   0  0  0  0  0  0
  -21.9188   -4.6973   22.3391 C   0  0  0  0  0  0
  -22.7869  -13.5247   21.1795 C   0  0  0  0  0  0
  -22.1660   -4.2161   21.0970 F   0  0  0  0  0  0
  -21.5622   -3.4539   25.7725 F   0  0  0  0  0  0
  -30.0356  -13.2954   20.4462 N   0  0  0  0  0  0
  -26.3043  -12.9324   20.3352 N   0  0  0  0  0  0
  -25.9340  -11.6492   20.5796 N   0  0  0  0  0  0
  -22.0498  -12.8268   22.0363 N   0  0  0  0  0  0
  -25.4222  -15.1855   20.3858 N   0  0  0  0  0  0
  -31.7753  -14.7207   20.0890 O   0  0  0  0  0  0
  -21.6635   -6.8886   21.4245 O   0  0  0  0  0  0
  -22.3562  -14.5544   20.6633 O   0  0  0  0  0  0
  -24.6148  -31.8676   23.2088 C   0  0  0  0  0  0
  -25.9042  -32.4811   23.8379 C   0  0  1  0  0  0
  -27.2358  -27.4220   20.1013 C   0  0  0  0  0  0
  -25.5893  -33.8613   24.2305 N   0  0  0  0  0  0
  -23.4049  -30.4913   21.5476 C   0  0  2  0  0  0
  -24.8524  -28.9524   20.1143 C   0  0  0  0  0  0
  -22.7402  -29.4674   22.4970 C   0  0  0  0  0  0
  -18.0293  -28.1376   22.8475 C   0  0  0  0  0  0
  -24.1490  -36.7315   23.2645 C   0  0  0  0  0  0
  -25.9343  -30.8296   21.3624 C   0  0  0  0  0  0
  -26.0147  -29.4635   20.7071 C   0  0  0  0  0  0
  -27.2133  -28.7091   20.6914 C   0  0  0  0  0  0
  -26.0576  -26.9247   19.5065 C   0  0  0  0  0  0
  -24.8698  -27.6822   19.5102 C   0  0  0  0  0  0
  -23.6153  -29.8218   20.1632 C   0  0  0  0  0  0
  -25.4108  -36.3104   24.0336 C   0  0  1  0  0  0
  -20.5869  -28.3685   23.1282 C   0  0  2  0  0  0
  -20.6793  -26.9434   22.5362 C   0  0  0  0  0  0
  -19.5776  -26.6420   21.5162 C   0  0  0  0  0  0
  -18.1948  -26.7946   22.1563 C   0  0  0  0  0  0
  -19.1529  -28.8847   23.2897 C   0  0  0  0  0  0
  -18.9443  -30.1455   23.8894 C   0  0  0  0  0  0
  -17.6435  -30.6569   24.0545 C   0  0  0  0  0  0
  -25.9033  -34.9471   23.5116 C   0  0  0  0  0  0
  -16.5341  -29.9040   23.6327 C   0  0  0  0  0  0
  -16.7278  -28.6457   23.0352 C   0  0  0  0  0  0
  -26.4471  -31.6598   25.0713 C   0  0  0  0  0  0
  -25.3744  -31.3692   26.1462 C   0  0  0  0  0  0
  -27.0299  -30.3033   24.6107 C   0  0  0  0  0  0
  -27.6029  -32.4328   25.7487 C   0  0  0  0  0  0
  -27.5573  -37.1816   24.8465 C   0  0  0  0  0  0
  -21.4124  -29.3089   22.3722 N   0  0  0  0  0  0
  -26.4289  -37.3784   23.9406 N   0  0  0  0  0  0
  -24.6690  -31.0780   22.0981 N   0  0  0  0  0  0
  -23.4179  -28.8188   23.2990 O   0  0  0  0  0  0
  -28.3787  -26.6487   20.0970 O   0  0  0  0  0  0
  -26.5597  -34.8924   22.4679 O   0  0  0  0  0  0
  -23.5342  -32.1421   23.7487 O   0  0  0  0  0  0
  -26.9006  -18.8422   21.9554 C   0  0  0  0  0  0
  -29.2876  -19.3736   20.6358 C   0  0  0  0  0  0
  -27.9204  -17.8741   21.9822 C   0  0  0  0  0  0
  -27.0509  -20.0719   21.2887 C   0  0  0  0  0  0
  -29.1158  -18.0931   21.2425 C   0  0  0  0  0  0
  -28.2989  -20.3996   20.6853 C   0  0  0  0  0  0
  -28.6512  -24.1491   20.1436 C   0  0  0  0  0  0
  -27.6641  -16.6428   22.8383 C   0  0  0  0  0  0
  -25.8121  -20.9497   21.2109 C   0  0  0  0  0  0
  -28.2783  -25.4491   20.8974 C   0  0  0  0  0  0
  -28.1580  -22.8329   20.7898 C   0  0  0  0  0  0
  -29.8563  -15.6673   21.2228 C   0  0  0  0  0  0
  -30.1338  -17.1114   21.0883 N   0  0  0  0  0  0
  -29.2980  -24.1650   19.0889 O   0  0  0  0  0  0
  -28.5889  -21.6341   20.1014 O   0  0  0  0  0  0
  -31.4841  -12.4296   19.1346 H   0  0  0  0  0  0
  -30.3504  -11.3038   19.8297 H   0  0  0  0  0  0
  -29.7493  -11.7831   17.4323 H   0  0  0  0  0  0
  -29.6659  -13.4928   17.7770 H   0  0  0  0  0  0
  -27.8419  -11.3025   18.8283 H   0  0  0  0  0  0
  -27.3724  -12.6201   17.7881 H   0  0  0  0  0  0
  -27.7073  -14.2515   19.5710 H   0  0  0  0  0  0
  -28.6846  -11.9562   21.3409 H   0  0  0  0  0  0
  -28.4701  -13.5962   21.8692 H   0  0  0  0  0  0
  -25.2779   -9.5666   22.4775 H   0  0  0  0  0  0
  -23.9993   -7.4637   22.7505 H   0  0  0  0  0  0
  -21.0845   -8.8795   19.8971 H   0  0  0  0  0  0
  -22.3735  -10.9679   19.6170 H   0  0  0  0  0  0
  -21.2019   -7.6155   23.9718 H   0  0  0  0  0  0
  -21.1471   -6.0525   25.9074 H   0  0  0  0  0  0
  -22.0609   -2.7614   23.2826 H   0  0  0  0  0  0
  -22.4109  -11.9936   22.4767 H   0  0  0  0  0  0
  -21.1121  -13.1322   22.2553 H   0  0  0  0  0  0
  -24.6484  -15.8344   20.4755 H   0  0  0  0  0  0
  -26.2750  -15.6285   20.0681 H   0  0  0  0  0  0
  -26.7088  -32.5521   23.1123 H   0  0  0  0  0  0
  -25.0022  -33.9761   25.0436 H   0  0  0  0  0  0
  -22.6943  -31.3076   21.4071 H   0  0  0  0  0  0
  -23.3730  -35.9666   23.3316 H   0  0  0  0  0  0
  -24.3584  -36.8932   22.2058 H   0  0  0  0  0  0
  -23.7266  -37.6536   23.6654 H   0  0  0  0  0  0
  -26.0510  -31.5994   20.5976 H   0  0  0  0  0  0
  -26.8204  -30.8801   21.9838 H   0  0  0  0  0  0
  -28.1116  -29.1034   21.1474 H   0  0  0  0  0  0
  -26.0589  -25.9495   19.0412 H   0  0  0  0  0  0
  -23.9770  -27.2799   19.0519 H   0  0  0  0  0  0
  -23.7223  -30.5974   19.4028 H   0  0  0  0  0  0
  -22.7385  -29.2431   19.8677 H   0  0  0  0  0  0
  -25.1289  -36.1954   25.0824 H   0  0  0  0  0  0
  -20.9973  -28.3244   24.1401 H   0  0  0  0  0  0
  -20.5744  -26.2271   23.3522 H   0  0  0  0  0  0
  -21.6661  -26.7515   22.1113 H   0  0  0  0  0  0
  -19.6929  -25.6340   21.1168 H   0  0  0  0  0  0
  -19.6715  -27.3243   20.6712 H   0  0  0  0  0  0
  -17.4242  -26.6752   21.3941 H   0  0  0  0  0  0
  -18.0330  -26.0065   22.8915 H   0  0  0  0  0  0
  -19.7919  -30.7291   24.2237 H   0  0  0  0  0  0
  -17.4968  -31.6263   24.5125 H   0  0  0  0  0  0
  -15.5335  -30.2926   23.7619 H   0  0  0  0  0  0
  -15.8685  -28.0772   22.7055 H   0  0  0  0  0  0
  -24.5909  -30.7048   25.7805 H   0  0  0  0  0  0
  -24.8942  -32.2843   26.4938 H   0  0  0  0  0  0
  -25.8117  -30.8846   27.0198 H   0  0  0  0  0  0
  -26.2844  -29.6800   24.1157 H   0  0  0  0  0  0
  -27.4047  -29.7274   25.4582 H   0  0  0  0  0  0
  -27.8687  -30.4334   23.9262 H   0  0  0  0  0  0
  -27.2617  -33.3598   26.2093 H   0  0  0  0  0  0
  -28.3824  -32.6942   25.0322 H   0  0  0  0  0  0
  -28.0702  -31.8440   26.5390 H   0  0  0  0  0  0
  -28.2598  -38.0105   24.7488 H   0  0  0  0  0  0
  -28.1058  -36.2637   24.6302 H   0  0  0  0  0  0
  -27.2291  -37.1485   25.8870 H   0  0  0  0  0  0
  -20.9257  -29.8843   21.6993 H   0  0  0  0  0  0
  -26.0171  -38.2859   24.1404 H   0  0  0  0  0  0
  -25.9656  -18.6266   22.4530 H   0  0  0  0  0  0
  -30.2104  -19.5843   20.1148 H   0  0  0  0  0  0
  -27.4035  -15.7859   22.2205 H   0  0  0  0  0  0
  -26.8418  -16.8070   23.5344 H   0  0  0  0  0  0
  -28.5427  -16.4013   23.4372 H   0  0  0  0  0  0
  -25.8273  -21.7207   21.9806 H   0  0  0  0  0  0
  -24.9049  -20.3645   21.3603 H   0  0  0  0  0  0
  -25.7192  -21.4054   20.2244 H   0  0  0  0  0  0
  -28.9597  -25.5521   21.7420 H   0  0  0  0  0  0
  -27.2786  -25.3308   21.3190 H   0  0  0  0  0  0
  -28.4725  -22.7997   21.8335 H   0  0  0  0  0  0
  -27.0794  -22.9334   20.7684 H   0  0  0  0  0  0
  -30.7269  -15.7432   21.8752 H   0  0  0  0  0  0
  -29.6399  -15.8416   20.1664 H   0  0  0  0  0  0
  -30.9261  -17.3362   20.4918 H   0  0  0  0  0  0
  1 25  1  0  0  0
  1 30  2  0  0  0
  1 82  1  0  0  0
  2  3  1  0  0  0
  2 25  1  0  0  0
  2 86  1  0  0  0
  2 87  1  0  0  0
  3  4  1  0  0  0
  3 88  1  0  0  0
  3 89  1  0  0  0
  4  5  1  0  0  0
  4 90  1  0  0  0
  4 91  1  0  0  0
  5  6  1  0  0  0
  5 26  1  0  0  0
  5 92  1  0  0  0
  6 25  1  0  0  0
  6 93  1  0  0  0
  6 94  1  0  0  0
  7  8  2  0  0  0
  7 26  1  0  0  0
  7 29  1  0  0  0
  8  9  1  0  0  0
  8 22  1  0  0  0
  9 10  1  0  0  0
  9 27  2  0  0  0
 10 11  2  0  0  0
 10 15  1  0  0  0
 11 12  1  0  0  0
 11 95  1  0  0  0
 12 13  2  0  0  0
 12 96  1  0  0  0
 13 14  1  0  0  0
 13 31  1  0  0  0
 14 15  2  0  0  0
 14 97  1  0  0  0
 15 98  1  0  0  0
 16 17  2  0  0  0
 16 21  1  0  0  0
 16 31  1  0  0  0
 17 18  1  0  0  0
 17 99  1  0  0  0
 18 19  2  0  0  0
 18100  1  0  0  0
 19 20  1  0  0  0
 19 24  1  0  0  0
 20 21  2  0  0  0
 20101  1  0  0  0
 21 23  1  0  0  0
 22 28  1  0  0  0
 22 32  2  0  0  0
 26 27  1  0  0  0
 28102  1  0  0  0
 28103  1  0  0  0
 29104  1  0  0  0
 29105  1  0  0  0
 33 34  1  0  0  0
 33 66  1  0  0  0
 33 70  2  0  0  0
 34 36  1  0  0  0
 34 59  1  0  0  0
 34106  1  0  0  0
 35 44  2  0  0  0
 35 45  1  0  0  0
 35 68  1  0  0  0
 36 56  1  0  0  0
 36107  1  0  0  0
 37 39  1  0  0  0
 37 47  1  0  0  0
 37 66  1  0  0  0
 37108  1  0  0  0
 38 43  2  0  0  0
 38 46  1  0  0  0
 38 47  1  0  0  0
 39 64  1  0  0  0
 39 67  2  0  0  0
 40 52  1  0  0  0
 40 53  2  0  0  0
 40 58  1  0  0  0
 41109  1  0  0  0
 41110  1  0  0  0
 41111  1  0  0  0
 41 48  1  0  0  0
 42 43  1  0  0  0
 42 66  1  0  0  0
 42112  1  0  0  0
 42113  1  0  0  0
 43 44  1  0  0  0
 44114  1  0  0  0
 45 46  2  0  0  0
 45115  1  0  0  0
 46116  1  0  0  0
 47117  1  0  0  0
 47118  1  0  0  0
 48 56  1  0  0  0
 48 65  1  0  0  0
 48119  1  0  0  0
 49 50  1  0  0  0
 49 53  1  0  0  0
 49 64  1  0  0  0
 49120  1  0  0  0
 50 51  1  0  0  0
 50121  1  0  0  0
 50122  1  0  0  0
 51 52  1  0  0  0
 51123  1  0  0  0
 51124  1  0  0  0
 52125  1  0  0  0
 52126  1  0  0  0
 53 54  1  0  0  0
 54 55  2  0  0  0
 54127  1  0  0  0
 55 57  1  0  0  0
 55128  1  0  0  0
 56 69  2  0  0  0
 57 58  2  0  0  0
 57129  1  0  0  0
 58130  1  0  0  0
 59 60  1  0  0  0
 59 61  1  0  0  0
 59 62  1  0  0  0
 60131  1  0  0  0
 60132  1  0  0  0
 60133  1  0  0  0
 61134  1  0  0  0
 61135  1  0  0  0
 61136  1  0  0  0
 62137  1  0  0  0
 62138  1  0  0  0
 62139  1  0  0  0
 63 65  1  0  0  0
 63140  1  0  0  0
 63141  1  0  0  0
 63142  1  0  0  0
 64143  1  0  0  0
 65144  1  0  0  0
 68 80  1  0  0  0
 71 73  2  0  0  0
 71 74  1  0  0  0
 71145  1  0  0  0
 72 75  2  0  0  0
 72 76  1  0  0  0
 72146  1  0  0  0
 73 75  1  0  0  0
 73 78  1  0  0  0
 74 76  2  0  0  0
 74 79  1  0  0  0
 75 83  1  0  0  0
 76 85  1  0  0  0
 77 80  1  0  0  0
 77 81  1  0  0  0
 77 84  2  0  0  0
 78147  1  0  0  0
 78148  1  0  0  0
 78149  1  0  0  0
 79150  1  0  0  0
 79151  1  0  0  0
 79152  1  0  0  0
 80153  1  0  0  0
 80154  1  0  0  0
 81 85  1  0  0  0
 81155  1  0  0  0
 81156  1  0  0  0
 82 83  1  0  0  0
 82157  1  0  0  0
 82158  1  0  0  0
 83159  1  0  0  0
M  ISO  4   1 100  68 101  80 101  82 100
M  END
> <chiral flag>
0

> <version>
0

> <s_m_source_file>
/data/baiqing/PycharmProjects/Reinvent-master-3.2/result/LINK_invent/BTK/process_docking_weight1_custom_product_contain_oxygen_bond_distance_aromatic_linkinvent_7_9_3/rearranged_h_0128.sdf

> <i_m_source_file_index>
54

> <r_mmod_Potential_Energy-OPLS-2005>
211.989242553711

> <r_mmod_Stretch_Energy-OPLS-2005>
47.7168312072754

> <r_mmod_Bend_Energy-OPLS-2005>
319.685485839844

> <r_mmod_Torsional_Energy-OPLS-2005>
206.776473999023

> <r_mmod_Improper_Torsional_Energy-OPLS-2005>
4.89396047592163

> <r_mmod_Van_der_Waal_Energy-OPLS-2005>
157.345443725586

> <r_mmod_Electrostatic_Energy-OPLS-2005>
-308.745758056641

> <r_mmod_Solvation_Energy-OPLS-2005>
-231.107879638672

> <b_mmod_Minimization_Converged-OPLS-2005>
0

> <r_mmod_RMS_Derivative-OPLS-2005>
2.09095239639282

$$$$
54
                    3D
 Structure written by MMmdl.
150158  0  0  1  0            999 V2000
  -30.6217  -14.7380   20.4236 C   0  0  0  0  0  0
  -30.4218  -12.4444   19.4761 C   0  0  0  0  0  0
  -29.5045  -12.4993   18.2349 C   0  0  0  0  0  0
  -28.0318  -12.3292   18.6505 C   0  0  0  0  0  0
  -27.6384  -13.2364   19.8481 C   0  0  2  0  0  0
  -28.6827  -13.1811   20.9856 C   0  0  0  0  0  0
  -25.2489  -13.8204   20.5689 C   0  0  0  0  0  0
  -24.1789  -13.0445   20.9193 C   0  0  0  0  0  0
  -24.6387  -11.6924   20.8749 C   0  0  0  0  0  0
  -23.9081  -10.4296   21.0412 C   0  0  0  0  0  0
  -24.3618   -9.4213   21.9191 C   0  0  0  0  0  0
  -23.6279   -8.2256   22.0764 C   0  0  0  0  0  0
  -22.4275   -8.0285   21.3543 C   0  0  0  0  0  0
  -21.9928   -9.0267   20.4639 C   0  0  0  0  0  0
  -22.7262  -10.2136   20.3049 C   0  0  0  0  0  0
  -21.6853   -6.0734   22.5273 C   0  0  0  0  0  0
  -21.4019   -6.5633   23.8209 C   0  0  0  0  0  0
  -21.3658   -5.6788   24.9170 C   0  0  0  0  0  0
  -21.6045   -4.3055   24.7222 C   0  0  0  0  0  0
  -21.8822   -3.8148   23.4344 C   0  0  0  0  0  0
  -21.9193   -4.6958   22.3395 C   0  0  0  0  0  0
  -22.7816  -13.5218   21.1858 C   0  0  0  0  0  0
  -22.1656   -4.2147   21.0970 F   0  0  0  0  0  0
  -21.5627   -3.4531   25.7733 F   0  0  0  0  0  0
  -29.9868  -13.5165   20.4024 N   0  0  0  0  0  0
  -26.2918  -12.9428   20.3270 N   0  0  0  0  0  0
  -25.9317  -11.6564   20.5749 N   0  0  0  0  0  0
  -22.0475  -12.8184   22.0403 N   0  0  0  0  0  0
  -25.4180  -15.1924   20.4092 N   0  0  0  0  0  0
  -31.8182  -14.7973   20.1317 O   0  0  0  0  0  0
  -21.6636   -6.8884   21.4244 O   0  0  0  0  0  0
  -22.3502  -14.5544   20.6747 O   0  0  0  0  0  0
  -24.6324  -31.8533   23.1982 C   0  0  0  0  0  0
  -25.9167  -32.4733   23.8312 C   0  0  1  0  0  0
  -27.2278  -27.2716   20.1087 C   0  0  0  0  0  0
  -25.5975  -33.8539   24.2227 N   0  0  0  0  0  0
  -23.4261  -30.4728   21.5439 C   0  0  2  0  0  0
  -24.8719  -28.9167   20.1116 C   0  0  0  0  0  0
  -22.7494  -29.4571   22.4959 C   0  0  0  0  0  0
  -18.0274  -28.1382   22.8506 C   0  0  0  0  0  0
  -24.1469  -36.7249   23.2658 C   0  0  0  0  0  0
  -25.9698  -30.7637   21.3784 C   0  0  0  0  0  0
  -26.0409  -29.3891   20.7170 C   0  0  0  0  0  0
  -27.2174  -28.5770   20.7061 C   0  0  0  0  0  0
  -26.0280  -26.8566   19.4871 C   0  0  0  0  0  0
  -24.8691  -27.6590   19.4888 C   0  0  0  0  0  0
  -23.6400  -29.7989   20.1623 C   0  0  0  0  0  0
  -25.4106  -36.3051   24.0323 C   0  0  1  0  0  0
  -20.5871  -28.3690   23.1287 C   0  0  2  0  0  0
  -20.6750  -26.9408   22.5421 C   0  0  0  0  0  0
  -19.5722  -26.6378   21.5227 C   0  0  0  0  0  0
  -18.1900  -26.7947   22.1607 C   0  0  0  0  0  0
  -19.1528  -28.8862   23.2878 C   0  0  0  0  0  0
  -18.9456  -30.1471   23.8883 C   0  0  0  0  0  0
  -17.6458  -30.6601   24.0562 C   0  0  0  0  0  0
  -25.9055  -34.9429   23.5062 C   0  0  0  0  0  0
  -16.5348  -29.9082   23.6373 C   0  0  0  0  0  0
  -16.7259  -28.6491   23.0409 C   0  0  0  0  0  0
  -26.4560  -31.6610   25.0728 C   0  0  0  0  0  0
  -25.3783  -31.3723   26.1432 C   0  0  0  0  0  0
  -27.0535  -30.3083   24.6245 C   0  0  0  0  0  0
  -27.6030  -32.4449   25.7533 C   0  0  0  0  0  0
  -27.5556  -37.1767   24.8481 C   0  0  0  0  0  0
  -21.4204  -29.3034   22.3700 N   0  0  0  0  0  0
  -26.4273  -37.3750   23.9419 N   0  0  0  0  0  0
  -24.6946  -31.0487   22.0963 N   0  0  0  0  0  0
  -23.4194  -28.8117   23.3061 O   0  0  0  0  0  0
  -28.3531  -26.4215   20.1849 O   0  0  0  0  0  0
  -26.5589  -34.8905   22.4608 O   0  0  0  0  0  0
  -23.5477  -32.1358   23.7280 O   0  0  0  0  0  0
  -29.4255  -18.4911   20.5264 C   0  0  0  0  0  0
  -30.5514  -19.8781   18.8786 C   0  0  0  0  0  0
  -30.9919  -17.4638   18.9783 C   0  0  0  0  0  0
  -29.6406  -19.8231   19.9573 C   0  0  0  0  0  0
  -30.0996  -17.2785   20.0632 C   0  0  0  0  0  0
  -31.2090  -18.7283   18.3999 C   0  0  0  0  0  0
  -28.9903  -21.1562   20.4167 C   0  0  0  0  0  0
  -29.0557  -22.4257   19.8454 C   0  0  0  0  0  0
  -28.4499  -23.7483   20.3744 C   0  0  0  0  0  0
  -28.4593  -25.0903   19.4967 C   0  0  0  0  0  0
  -29.8677  -15.8990   20.5898 N   0  0  0  0  0  0
  -27.9399  -23.8002   21.4977 O   0  0  0  0  0  0
  -32.0692  -18.8404   17.3590 F   0  0  0  0  0  0
  -31.4621  -12.5561   19.1710 H   0  0  0  0  0  0
  -30.3532  -11.4713   19.9659 H   0  0  0  0  0  0
  -29.7838  -11.7214   17.5242 H   0  0  0  0  0  0
  -29.6331  -13.4525   17.7212 H   0  0  0  0  0  0
  -27.8860  -11.2823   18.9162 H   0  0  0  0  0  0
  -27.3788  -12.5241   17.8004 H   0  0  0  0  0  0
  -27.6311  -14.2556   19.4607 H   0  0  0  0  0  0
  -28.7110  -12.1904   21.4414 H   0  0  0  0  0  0
  -28.4269  -13.8801   21.7837 H   0  0  0  0  0  0
  -25.2760   -9.5685   22.4777 H   0  0  0  0  0  0
  -23.9978   -7.4652   22.7497 H   0  0  0  0  0  0
  -21.0870   -8.8791   19.8932 H   0  0  0  0  0  0
  -22.3727  -10.9682   19.6151 H   0  0  0  0  0  0
  -21.2021   -7.6143   23.9705 H   0  0  0  0  0  0
  -21.1471   -6.0521   25.9065 H   0  0  0  0  0  0
  -22.0607   -2.7615   23.2849 H   0  0  0  0  0  0
  -22.4067  -11.9787   22.4718 H   0  0  0  0  0  0
  -21.1114  -13.1227   22.2669 H   0  0  0  0  0  0
  -24.6541  -15.8503   20.5195 H   0  0  0  0  0  0
  -26.2645  -15.6277   20.0657 H   0  0  0  0  0  0
  -26.7218  -32.5375   23.1034 H   0  0  0  0  0  0
  -25.0272  -33.9658   25.0476 H   0  0  0  0  0  0
  -22.7251  -31.2958   21.3927 H   0  0  0  0  0  0
  -23.3766  -35.9548   23.3326 H   0  0  0  0  0  0
  -24.3526  -36.8903   22.2075 H   0  0  0  0  0  0
  -23.7169  -37.6414   23.6705 H   0  0  0  0  0  0
  -26.1076  -31.5222   20.6081 H   0  0  0  0  0  0
  -26.8461  -30.8073   22.0131 H   0  0  0  0  0  0
  -28.1160  -28.9380   21.1883 H   0  0  0  0  0  0
  -25.9432  -25.8858   19.0244 H   0  0  0  0  0  0
  -23.9649  -27.2916   19.0226 H   0  0  0  0  0  0
  -23.7544  -30.5684   19.3984 H   0  0  0  0  0  0
  -22.7611  -29.2233   19.8681 H   0  0  0  0  0  0
  -25.1257  -36.1908   25.0804 H   0  0  0  0  0  0
  -20.9876  -28.3285   24.1442 H   0  0  0  0  0  0
  -20.5696  -26.2282   23.3611 H   0  0  0  0  0  0
  -21.6607  -26.7450   22.1187 H   0  0  0  0  0  0
  -19.6871  -25.6284   21.1275 H   0  0  0  0  0  0
  -19.6700  -27.3166   20.6750 H   0  0  0  0  0  0
  -17.4175  -26.6774   21.4001 H   0  0  0  0  0  0
  -18.0251  -26.0082   22.8967 H   0  0  0  0  0  0
  -19.7935  -30.7293   24.2236 H   0  0  0  0  0  0
  -17.5025  -31.6289   24.5149 H   0  0  0  0  0  0
  -15.5343  -30.2967   23.7731 H   0  0  0  0  0  0
  -15.8659  -28.0781   22.7159 H   0  0  0  0  0  0
  -24.5966  -30.7071   25.7744 H   0  0  0  0  0  0
  -24.8971  -32.2897   26.4848 H   0  0  0  0  0  0
  -25.8128  -30.8916   27.0208 H   0  0  0  0  0  0
  -26.3185  -29.6722   24.1310 H   0  0  0  0  0  0
  -27.4351  -29.7440   25.4764 H   0  0  0  0  0  0
  -27.8955  -30.4468   23.9454 H   0  0  0  0  0  0
  -27.2565  -33.3800   26.1938 H   0  0  0  0  0  0
  -28.3918  -32.6944   25.0431 H   0  0  0  0  0  0
  -28.0603  -31.8720   26.5612 H   0  0  0  0  0  0
  -28.2540  -38.0098   24.7553 H   0  0  0  0  0  0
  -28.1081  -36.2609   24.6291 H   0  0  0  0  0  0
  -27.2259  -37.1386   25.8884 H   0  0  0  0  0  0
  -20.9425  -29.8779   21.6890 H   0  0  0  0  0  0
  -26.0172  -38.2815   24.1481 H   0  0  0  0  0  0
  -28.7275  -18.4038   21.3470 H   0  0  0  0  0  0
  -30.7782  -20.8166   18.3958 H   0  0  0  0  0  0
  -31.5249  -16.6322   18.5426 H   0  0  0  0  0  0
  -28.4208  -21.0760   21.3344 H   0  0  0  0  0  0
  -29.6018  -22.5428   18.9210 H   0  0  0  0  0  0
  -27.7351  -24.9963   18.6896 H   0  0  0  0  0  0
  -29.4255  -25.0986   18.9905 H   0  0  0  0  0  0
  -28.9618  -15.7475   21.0074 H   0  0  0  0  0  0
  1 25  1  0  0  0
  1 30  2  0  0  0
  1 81  1  0  0  0
  2  3  1  0  0  0
  2 25  1  0  0  0
  2 84  1  0  0  0
  2 85  1  0  0  0
  3  4  1  0  0  0
  3 86  1  0  0  0
  3 87  1  0  0  0
  4  5  1  0  0  0
  4 88  1  0  0  0
  4 89  1  0  0  0
  5  6  1  0  0  0
  5 26  1  0  0  0
  5 90  1  0  0  0
  6 25  1  0  0  0
  6 91  1  0  0  0
  6 92  1  0  0  0
  7  8  2  0  0  0
  7 26  1  0  0  0
  7 29  1  0  0  0
  8  9  1  0  0  0
  8 22  1  0  0  0
  9 10  1  0  0  0
  9 27  2  0  0  0
 10 11  2  0  0  0
 10 15  1  0  0  0
 11 12  1  0  0  0
 11 93  1  0  0  0
 12 13  2  0  0  0
 12 94  1  0  0  0
 13 14  1  0  0  0
 13 31  1  0  0  0
 14 15  2  0  0  0
 14 95  1  0  0  0
 15 96  1  0  0  0
 16 17  2  0  0  0
 16 21  1  0  0  0
 16 31  1  0  0  0
 17 18  1  0  0  0
 17 97  1  0  0  0
 18 19  2  0  0  0
 18 98  1  0  0  0
 19 20  1  0  0  0
 19 24  1  0  0  0
 20 21  2  0  0  0
 20 99  1  0  0  0
 21 23  1  0  0  0
 22 28  1  0  0  0
 22 32  2  0  0  0
 26 27  1  0  0  0
 28100  1  0  0  0
 28101  1  0  0  0
 29102  1  0  0  0
 29103  1  0  0  0
 33 34  1  0  0  0
 33 66  1  0  0  0
 33 70  2  0  0  0
 34 36  1  0  0  0
 34 59  1  0  0  0
 34104  1  0  0  0
 35 44  2  0  0  0
 35 45  1  0  0  0
 35 68  1  0  0  0
 36 56  1  0  0  0
 36105  1  0  0  0
 37 39  1  0  0  0
 37 47  1  0  0  0
 37 66  1  0  0  0
 37106  1  0  0  0
 38 43  2  0  0  0
 38 46  1  0  0  0
 38 47  1  0  0  0
 39 64  1  0  0  0
 39 67  2  0  0  0
 40 52  1  0  0  0
 40 53  2  0  0  0
 40 58  1  0  0  0
 41107  1  0  0  0
 41108  1  0  0  0
 41109  1  0  0  0
 41 48  1  0  0  0
 42 43  1  0  0  0
 42 66  1  0  0  0
 42110  1  0  0  0
 42111  1  0  0  0
 43 44  1  0  0  0
 44112  1  0  0  0
 45 46  2  0  0  0
 45113  1  0  0  0
 46114  1  0  0  0
 47115  1  0  0  0
 47116  1  0  0  0
 48 56  1  0  0  0
 48 65  1  0  0  0
 48117  1  0  0  0
 49 50  1  0  0  0
 49 53  1  0  0  0
 49 64  1  0  0  0
 49118  1  0  0  0
 50 51  1  0  0  0
 50119  1  0  0  0
 50120  1  0  0  0
 51 52  1  0  0  0
 51121  1  0  0  0
 51122  1  0  0  0
 52123  1  0  0  0
 52124  1  0  0  0
 53 54  1  0  0  0
 54 55  2  0  0  0
 54125  1  0  0  0
 55 57  1  0  0  0
 55126  1  0  0  0
 56 69  2  0  0  0
 57 58  2  0  0  0
 57127  1  0  0  0
 58128  1  0  0  0
 59 60  1  0  0  0
 59 61  1  0  0  0
 59 62  1  0  0  0
 60129  1  0  0  0
 60130  1  0  0  0
 60131  1  0  0  0
 61132  1  0  0  0
 61133  1  0  0  0
 61134  1  0  0  0
 62135  1  0  0  0
 62136  1  0  0  0
 62137  1  0  0  0
 63 65  1  0  0  0
 63138  1  0  0  0
 63139  1  0  0  0
 63140  1  0  0  0
 64141  1  0  0  0
 65142  1  0  0  0
 68 80  1  0  0  0
 71 74  2  0  0  0
 71 75  1  0  0  0
 71143  1  0  0  0
 72 74  1  0  0  0
 72 76  2  0  0  0
 72144  1  0  0  0
 73 75  2  0  0  0
 73 76  1  0  0  0
 73145  1  0  0  0
 74 77  1  0  0  0
 75 81  1  0  0  0
 76 83  1  0  0  0
 77 78  2  0  0  0
 77146  1  0  0  0
 78 79  1  0  0  0
 78147  1  0  0  0
 79 80  1  0  0  0
 79 82  2  0  0  0
 80148  1  0  0  0
 80149  1  0  0  0
 81150  1  0  0  0
M  ISO  4   1 100  68 101  80 101  81 100
M  END
> <chiral flag>
0

> <version>
0

> <s_m_source_file>
/data/baiqing/PycharmProjects/Reinvent-master-3.2/result/LINK_invent/BTK/process_docking_weight1_custom_product_contain_oxygen_bond_distance_aromatic_linkinvent_7_9_3/rearranged_h_0128.sdf

> <i_m_source_file_index>
55

> <r_mmod_Potential_Energy-OPLS-2005>
171.084747314453

> <r_mmod_Stretch_Energy-OPLS-2005>
126.379364013672

> <r_mmod_Bend_Energy-OPLS-2005>
157.961608886719

> <r_mmod_Torsional_Energy-OPLS-2005>
219.400863647461

> <r_mmod_Improper_Torsional_Energy-OPLS-2005>
4.56625843048096

> <r_mmod_Van_der_Waal_Energy-OPLS-2005>
141.890319824219

> <r_mmod_Electrostatic_Energy-OPLS-2005>
-326.752655029297

> <r_mmod_Solvation_Energy-OPLS-2005>
-232.764099121094

> <b_mmod_Minimization_Converged-OPLS-2005>
0

> <r_mmod_RMS_Derivative-OPLS-2005>
3.17234182357788

$$$$
55
                    3D
 Structure written by MMmdl.
158166  0  0  1  0            999 V2000
  -30.5332  -14.7525   20.4566 C   0  0  0  0  0  0
  -30.3975  -12.4513   19.4904 C   0  0  0  0  0  0
  -29.4999  -12.5148   18.2380 C   0  0  0  0  0  0
  -28.0268  -12.3142   18.6393 C   0  0  0  0  0  0
  -27.6223  -13.2196   19.8376 C   0  0  2  0  0  0
  -28.6434  -13.1730   20.9858 C   0  0  0  0  0  0
  -25.2490  -13.8190   20.5696 C   0  0  0  0  0  0
  -24.1774  -13.0383   20.9219 C   0  0  0  0  0  0
  -24.6370  -11.6888   20.8772 C   0  0  0  0  0  0
  -23.9056  -10.4277   21.0420 C   0  0  0  0  0  0
  -24.3639   -9.4213   21.9181 C   0  0  0  0  0  0
  -23.6315   -8.2246   22.0768 C   0  0  0  0  0  0
  -22.4305   -8.0274   21.3549 C   0  0  0  0  0  0
  -21.9913   -9.0237   20.4670 C   0  0  0  0  0  0
  -22.7219  -10.2131   20.3071 C   0  0  0  0  0  0
  -21.6866   -6.0748   22.5276 C   0  0  0  0  0  0
  -21.3983   -6.5659   23.8196 C   0  0  0  0  0  0
  -21.3665   -5.6817   24.9161 C   0  0  0  0  0  0
  -21.6044   -4.3085   24.7214 C   0  0  0  0  0  0
  -21.8821   -3.8176   23.4335 C   0  0  0  0  0  0
  -21.9206   -4.6979   22.3386 C   0  0  0  0  0  0
  -22.7842  -13.5230   21.1854 C   0  0  0  0  0  0
  -22.1677   -4.2167   21.0964 F   0  0  0  0  0  0
  -21.5640   -3.4575   25.7727 F   0  0  0  0  0  0
  -29.9408  -13.5163   20.4088 N   0  0  0  0  0  0
  -26.2808  -12.9328   20.3172 N   0  0  0  0  0  0
  -25.9256  -11.6487   20.5697 N   0  0  0  0  0  0
  -22.0486  -12.8205   22.0460 N   0  0  0  0  0  0
  -25.4218  -15.1901   20.4100 N   0  0  0  0  0  0
  -31.7188  -14.8748   20.1278 O   0  0  0  0  0  0
  -21.6660   -6.8878   21.4246 O   0  0  0  0  0  0
  -22.3564  -14.5507   20.6695 O   0  0  0  0  0  0
  -24.6405  -31.8553   23.2027 C   0  0  0  0  0  0
  -25.9234  -32.4732   23.8349 C   0  0  1  0  0  0
  -27.1474  -27.2065   20.1020 C   0  0  0  0  0  0
  -25.6012  -33.8537   24.2232 N   0  0  0  0  0  0
  -23.4277  -30.4917   21.5546 C   0  0  2  0  0  0
  -24.8464  -28.9356   20.1097 C   0  0  0  0  0  0
  -22.7508  -29.4646   22.4959 C   0  0  0  0  0  0
  -18.0325  -28.1326   22.8490 C   0  0  0  0  0  0
  -24.1494  -36.7272   23.2625 C   0  0  0  0  0  0
  -25.9834  -30.7460   21.3851 C   0  0  0  0  0  0
  -26.0323  -29.3751   20.7065 C   0  0  0  0  0  0
  -27.1891  -28.5257   20.6868 C   0  0  0  0  0  0
  -25.9302  -26.8397   19.4968 C   0  0  0  0  0  0
  -24.7964  -27.6720   19.5064 C   0  0  0  0  0  0
  -23.6386  -29.8510   20.1613 C   0  0  0  0  0  0
  -25.4125  -36.3046   24.0298 C   0  0  1  0  0  0
  -20.5932  -28.3699   23.1321 C   0  0  2  0  0  0
  -20.6812  -26.9471   22.5345 C   0  0  0  0  0  0
  -19.5895  -26.6766   21.4960 C   0  0  0  0  0  0
  -18.2072  -26.7917   22.1513 C   0  0  0  0  0  0
  -19.1555  -28.8801   23.2906 C   0  0  0  0  0  0
  -18.9440  -30.1348   23.9007 C   0  0  0  0  0  0
  -17.6429  -30.6482   24.0666 C   0  0  0  0  0  0
  -25.9098  -34.9407   23.5061 C   0  0  0  0  0  0
  -16.5344  -29.8966   23.6421 C   0  0  0  0  0  0
  -16.7287  -28.6402   23.0384 C   0  0  0  0  0  0
  -26.4517  -31.6585   25.0769 C   0  0  0  0  0  0
  -25.3735  -31.3725   26.1486 C   0  0  0  0  0  0
  -27.0355  -30.2987   24.6307 C   0  0  0  0  0  0
  -27.6084  -32.4328   25.7528 C   0  0  0  0  0  0
  -27.5580  -37.1801   24.8480 C   0  0  0  0  0  0
  -21.4203  -29.3109   22.3757 N   0  0  0  0  0  0
  -26.4311  -37.3739   23.9401 N   0  0  0  0  0  0
  -24.7056  -31.0484   22.1014 N   0  0  0  0  0  0
  -23.4201  -28.8139   23.3011 O   0  0  0  0  0  0
  -28.2131  -26.2734   20.1402 O   0  0  0  0  0  0
  -26.5669  -34.8919   22.4639 O   0  0  0  0  0  0
  -23.5537  -32.1456   23.7300 O   0  0  0  0  0  0
  -27.9114  -19.0365   18.4410 C   0  0  0  0  0  0
  -28.8154  -18.2473   20.5413 C   0  0  0  0  0  0
  -28.7761  -16.7247   18.6515 C   0  0  0  0  0  0
  -28.2575  -19.3531   19.7766 C   0  0  0  0  0  0
  -28.1648  -17.7518   17.8863 C   0  0  0  0  0  0
  -29.1255  -16.9306   20.0058 C   0  0  0  0  0  0
  -25.7949  -23.9060   21.9297 C   0  0  0  0  0  0
  -28.0685  -20.7985   20.3244 C   0  0  0  0  0  0
  -26.2680  -23.5668   20.7214 C   0  0  0  0  0  0
  -27.9835  -22.0458   19.7032 C   0  0  0  0  0  0
  -27.8115  -17.4794   16.4250 C   0  0  0  0  0  0
  -28.1480  -24.8723   19.5493 C   0  0  0  0  0  0
  -27.7399  -23.5015   20.3550 C   0  0  1  0  0  0
  -29.7707  -15.8593   20.8122 N   0  0  0  0  0  0
  -31.4485  -12.5615   19.2205 H   0  0  0  0  0  0
  -30.3148  -11.4726   19.9716 H   0  0  0  0  0  0
  -29.8147  -11.7581   17.5156 H   0  0  0  0  0  0
  -29.6180  -13.4807   17.7460 H   0  0  0  0  0  0
  -27.9023  -11.2679   18.9110 H   0  0  0  0  0  0
  -27.3758  -12.4876   17.7860 H   0  0  0  0  0  0
  -27.6100  -14.2340   19.4454 H   0  0  0  0  0  0
  -28.6829  -12.1960   21.4680 H   0  0  0  0  0  0
  -28.3498  -13.8813   21.7638 H   0  0  0  0  0  0
  -25.2801   -9.5721   22.4726 H   0  0  0  0  0  0
  -24.0040   -7.4690   22.7509 H   0  0  0  0  0  0
  -21.0835   -8.8747   19.9012 H   0  0  0  0  0  0
  -22.3651  -10.9669   19.6192 H   0  0  0  0  0  0
  -21.1911   -7.6168   23.9706 H   0  0  0  0  0  0
  -21.1507   -6.0537   25.9064 H   0  0  0  0  0  0
  -22.0597   -2.7647   23.2810 H   0  0  0  0  0  0
  -22.4156  -11.9860   22.4760 H   0  0  0  0  0  0
  -21.1119  -13.1239   22.2722 H   0  0  0  0  0  0
  -24.6737  -15.8531   20.5770 H   0  0  0  0  0  0
  -26.2735  -15.6375   20.0931 H   0  0  0  0  0  0
  -26.7317  -32.5265   23.1098 H   0  0  0  0  0  0
  -25.0110  -33.9666   25.0323 H   0  0  0  0  0  0
  -22.7360  -31.3285   21.4281 H   0  0  0  0  0  0
  -23.3753  -35.9619   23.3313 H   0  0  0  0  0  0
  -24.3569  -36.8877   22.2045 H   0  0  0  0  0  0
  -23.7289  -37.6479   23.6661 H   0  0  0  0  0  0
  -26.1597  -31.5217   20.6401 H   0  0  0  0  0  0
  -26.8508  -30.7516   22.0311 H   0  0  0  0  0  0
  -28.0949  -28.8746   21.1594 H   0  0  0  0  0  0
  -25.7916  -25.8668   19.0523 H   0  0  0  0  0  0
  -23.8715  -27.3175   19.0670 H   0  0  0  0  0  0
  -23.8034  -30.6540   19.4414 H   0  0  0  0  0  0
  -22.7388  -29.3349   19.8207 H   0  0  0  0  0  0
  -25.1302  -36.1851   25.0785 H   0  0  0  0  0  0
  -20.9992  -28.3243   24.1430 H   0  0  0  0  0  0
  -20.5456  -26.2253   23.3409 H   0  0  0  0  0  0
  -21.6683  -26.7473   22.1216 H   0  0  0  0  0  0
  -19.7189  -25.6979   21.0324 H   0  0  0  0  0  0
  -19.6687  -27.4104   20.6946 H   0  0  0  0  0  0
  -17.4352  -26.6596   21.3899 H   0  0  0  0  0  0
  -18.0702  -25.9882   22.8801 H   0  0  0  0  0  0
  -19.7879  -30.7172   24.2477 H   0  0  0  0  0  0
  -17.4985  -31.6086   24.5422 H   0  0  0  0  0  0
  -15.5356  -30.2847   23.7811 H   0  0  0  0  0  0
  -15.8691  -28.0694   22.7101 H   0  0  0  0  0  0
  -24.5947  -30.7027   25.7814 H   0  0  0  0  0  0
  -24.8887  -32.2882   26.4895 H   0  0  0  0  0  0
  -25.8044  -30.8923   27.0291 H   0  0  0  0  0  0
  -26.2921  -29.6774   24.1312 H   0  0  0  0  0  0
  -27.3989  -29.7193   25.4810 H   0  0  0  0  0  0
  -27.8846  -30.4249   23.9590 H   0  0  0  0  0  0
  -27.2711  -33.3653   26.2080 H   0  0  0  0  0  0
  -28.3896  -32.6868   25.0345 H   0  0  0  0  0  0
  -28.0804  -31.8503   26.5466 H   0  0  0  0  0  0
  -28.2597  -38.0078   24.7456 H   0  0  0  0  0  0
  -28.1063  -36.2609   24.6379 H   0  0  0  0  0  0
  -27.2309  -37.1535   25.8881 H   0  0  0  0  0  0
  -20.9357  -29.8919   21.7060 H   0  0  0  0  0  0
  -26.0164  -38.2803   24.1367 H   0  0  0  0  0  0
  -27.4304  -19.7911   17.8308 H   0  0  0  0  0  0
  -29.0224  -18.4153   21.5880 H   0  0  0  0  0  0
  -28.9895  -15.7771   18.1839 H   0  0  0  0  0  0
  -24.7313  -23.9269   22.1220 H   0  0  0  0  0  0
  -26.4505  -24.1638   22.7472 H   0  0  0  0  0  0
  -27.9456  -20.8162   21.3978 H   0  0  0  0  0  0
  -25.5626  -23.3142   19.9409 H   0  0  0  0  0  0
  -28.0743  -22.0489   18.6264 H   0  0  0  0  0  0
  -26.7756  -17.1482   16.3168 H   0  0  0  0  0  0
  -28.4520  -16.7054   15.9921 H   0  0  0  0  0  0
  -27.9396  -18.3810   15.8187 H   0  0  0  0  0  0
  -29.1759  -24.6893   19.2345 H   0  0  0  0  0  0
  -27.6076  -24.9108   18.6024 H   0  0  0  0  0  0
  -28.3088  -23.4990   21.2858 H   0  0  0  0  0  0
  -30.1233  -16.2307   21.6834 H   0  0  0  0  0  0
  1 25  1  0  0  0
  1 30  2  0  0  0
  1 84  1  0  0  0
  2  3  1  0  0  0
  2 25  1  0  0  0
  2 85  1  0  0  0
  2 86  1  0  0  0
  3  4  1  0  0  0
  3 87  1  0  0  0
  3 88  1  0  0  0
  4  5  1  0  0  0
  4 89  1  0  0  0
  4 90  1  0  0  0
  5  6  1  0  0  0
  5 26  1  0  0  0
  5 91  1  0  0  0
  6 25  1  0  0  0
  6 92  1  0  0  0
  6 93  1  0  0  0
  7  8  2  0  0  0
  7 26  1  0  0  0
  7 29  1  0  0  0
  8  9  1  0  0  0
  8 22  1  0  0  0
  9 10  1  0  0  0
  9 27  2  0  0  0
 10 11  2  0  0  0
 10 15  1  0  0  0
 11 12  1  0  0  0
 11 94  1  0  0  0
 12 13  2  0  0  0
 12 95  1  0  0  0
 13 14  1  0  0  0
 13 31  1  0  0  0
 14 15  2  0  0  0
 14 96  1  0  0  0
 15 97  1  0  0  0
 16 17  2  0  0  0
 16 21  1  0  0  0
 16 31  1  0  0  0
 17 18  1  0  0  0
 17 98  1  0  0  0
 18 19  2  0  0  0
 18 99  1  0  0  0
 19 20  1  0  0  0
 19 24  1  0  0  0
 20 21  2  0  0  0
 20100  1  0  0  0
 21 23  1  0  0  0
 22 28  1  0  0  0
 22 32  2  0  0  0
 26 27  1  0  0  0
 28101  1  0  0  0
 28102  1  0  0  0
 29103  1  0  0  0
 29104  1  0  0  0
 33 34  1  0  0  0
 33 66  1  0  0  0
 33 70  2  0  0  0
 34 36  1  0  0  0
 34 59  1  0  0  0
 34105  1  0  0  0
 35 44  2  0  0  0
 35 45  1  0  0  0
 35 68  1  0  0  0
 36 56  1  0  0  0
 36106  1  0  0  0
 37 39  1  0  0  0
 37 47  1  0  0  0
 37 66  1  0  0  0
 37107  1  0  0  0
 38 43  2  0  0  0
 38 46  1  0  0  0
 38 47  1  0  0  0
 39 64  1  0  0  0
 39 67  2  0  0  0
 40 52  1  0  0  0
 40 53  2  0  0  0
 40 58  1  0  0  0
 41108  1  0  0  0
 41109  1  0  0  0
 41110  1  0  0  0
 41 48  1  0  0  0
 42 43  1  0  0  0
 42 66  1  0  0  0
 42111  1  0  0  0
 42112  1  0  0  0
 43 44  1  0  0  0
 44113  1  0  0  0
 45 46  2  0  0  0
 45114  1  0  0  0
 46115  1  0  0  0
 47116  1  0  0  0
 47117  1  0  0  0
 48 56  1  0  0  0
 48 65  1  0  0  0
 48118  1  0  0  0
 49 50  1  0  0  0
 49 53  1  0  0  0
 49 64  1  0  0  0
 49119  1  0  0  0
 50 51  1  0  0  0
 50120  1  0  0  0
 50121  1  0  0  0
 51 52  1  0  0  0
 51122  1  0  0  0
 51123  1  0  0  0
 52124  1  0  0  0
 52125  1  0  0  0
 53 54  1  0  0  0
 54 55  2  0  0  0
 54126  1  0  0  0
 55 57  1  0  0  0
 55127  1  0  0  0
 56 69  2  0  0  0
 57 58  2  0  0  0
 57128  1  0  0  0
 58129  1  0  0  0
 59 60  1  0  0  0
 59 61  1  0  0  0
 59 62  1  0  0  0
 60130  1  0  0  0
 60131  1  0  0  0
 60132  1  0  0  0
 61133  1  0  0  0
 61134  1  0  0  0
 61135  1  0  0  0
 62136  1  0  0  0
 62137  1  0  0  0
 62138  1  0  0  0
 63 65  1  0  0  0
 63139  1  0  0  0
 63140  1  0  0  0
 63141  1  0  0  0
 64142  1  0  0  0
 65143  1  0  0  0
 68 82  1  0  0  0
 71 74  2  0  0  0
 71 75  1  0  0  0
 71144  1  0  0  0
 72 74  1  0  0  0
 72 76  2  0  0  0
 72145  1  0  0  0
 73 75  2  0  0  0
 73 76  1  0  0  0
 73146  1  0  0  0
 74 78  1  0  0  0
 75 81  1  0  0  0
 76 84  1  0  0  0
 77 79  2  0  0  0
 77147  1  0  0  0
 77148  1  0  0  0
 78 80  2  0  0  0
 78149  1  0  0  0
 79 83  1  0  0  0
 79150  1  0  0  0
 80 83  1  0  0  0
 80151  1  0  0  0
 81152  1  0  0  0
 81153  1  0  0  0
 81154  1  0  0  0
 82155  1  0  0  0
 82156  1  0  0  0
 82 83  1  0  0  0
 83157  1  0  0  0
 84158  1  0  0  0
M  ISO  4   1 100  68 101  82 101  84 100
M  END
> <chiral flag>
0

> <version>
0

> <s_m_source_file>
/data/baiqing/PycharmProjects/Reinvent-master-3.2/result/LINK_invent/BTK/process_docking_weight1_custom_product_contain_oxygen_bond_distance_aromatic_linkinvent_7_9_3/rearranged_h_0128.sdf

> <i_m_source_file_index>
56

> <r_mmod_Potential_Energy-OPLS-2005>
280.834899902344

> <r_mmod_Stretch_Energy-OPLS-2005>
139.621475219727

> <r_mmod_Bend_Energy-OPLS-2005>
183.60791015625

> <r_mmod_Torsional_Energy-OPLS-2005>
258.098236083984

> <r_mmod_Improper_Torsional_Energy-OPLS-2005>
5.22930479049683

> <r_mmod_Van_der_Waal_Energy-OPLS-2005>
124.753082275391

> <r_mmod_Electrostatic_Energy-OPLS-2005>
-347.480621337891

> <r_mmod_Solvation_Energy-OPLS-2005>
-195.735107421875

> <b_mmod_Minimization_Converged-OPLS-2005>
0

> <r_mmod_RMS_Derivative-OPLS-2005>
8.9092321395874

$$$$
56
                    3D
 Structure written by MMmdl.
163171  0  0  1  0            999 V2000
  -30.7186  -14.4617   20.6034 C   0  0  0  0  0  0
  -30.4250  -12.3101   19.4253 C   0  0  0  0  0  0
  -29.4969  -12.5124   18.2093 C   0  0  0  0  0  0
  -28.0178  -12.3718   18.6198 C   0  0  0  0  0  0
  -27.6643  -13.2096   19.8783 C   0  0  2  0  0  0
  -28.7049  -12.9798   20.9988 C   0  0  0  0  0  0
  -25.2537  -13.8135   20.5566 C   0  0  0  0  0  0
  -24.1821  -13.0420   20.9163 C   0  0  0  0  0  0
  -24.6396  -11.6900   20.8747 C   0  0  0  0  0  0
  -23.9065  -10.4288   21.0417 C   0  0  0  0  0  0
  -24.3615   -9.4203   21.9191 C   0  0  0  0  0  0
  -23.6291   -8.2238   22.0751 C   0  0  0  0  0  0
  -22.4277   -8.0280   21.3543 C   0  0  0  0  0  0
  -21.9913   -9.0259   20.4647 C   0  0  0  0  0  0
  -22.7240  -10.2139   20.3058 C   0  0  0  0  0  0
  -21.6848   -6.0735   22.5281 C   0  0  0  0  0  0
  -21.4002   -6.5631   23.8212 C   0  0  0  0  0  0
  -21.3653   -5.6786   24.9174 C   0  0  0  0  0  0
  -21.6041   -4.3048   24.7228 C   0  0  0  0  0  0
  -21.8825   -3.8145   23.4343 C   0  0  0  0  0  0
  -21.9196   -4.6966   22.3401 C   0  0  0  0  0  0
  -22.7847  -13.5227   21.1850 C   0  0  0  0  0  0
  -22.1668   -4.2151   21.0979 F   0  0  0  0  0  0
  -21.5632   -3.4530   25.7734 F   0  0  0  0  0  0
  -30.0434  -13.2864   20.4591 N   0  0  0  0  0  0
  -26.3026  -12.9345   20.3366 N   0  0  0  0  0  0
  -25.9333  -11.6502   20.5802 N   0  0  0  0  0  0
  -22.0490  -12.8223   22.0406 N   0  0  0  0  0  0
  -25.4124  -15.1825   20.3752 N   0  0  0  0  0  0
  -31.8151  -14.6589   20.0729 O   0  0  0  0  0  0
  -21.6638   -6.8880   21.4238 O   0  0  0  0  0  0
  -22.3535  -14.5537   20.6706 O   0  0  0  0  0  0
  -24.6132  -31.8678   23.2104 C   0  0  0  0  0  0
  -25.9021  -32.4826   23.8410 C   0  0  1  0  0  0
  -27.2413  -27.4410   20.1015 C   0  0  0  0  0  0
  -25.5893  -33.8616   24.2352 N   0  0  0  0  0  0
  -23.4041  -30.4898   21.5492 C   0  0  2  0  0  0
  -24.8542  -28.9514   20.1207 C   0  0  0  0  0  0
  -22.7411  -29.4651   22.4982 C   0  0  0  0  0  0
  -18.0281  -28.1378   22.8505 C   0  0  0  0  0  0
  -24.1475  -36.7301   23.2632 C   0  0  0  0  0  0
  -25.9309  -30.8344   21.3642 C   0  0  0  0  0  0
  -26.0116  -29.4649   20.7205 C   0  0  0  0  0  0
  -27.2092  -28.7158   20.7117 C   0  0  0  0  0  0
  -26.0726  -26.9382   19.4969 C   0  0  0  0  0  0
  -24.8777  -27.6853   19.5087 C   0  0  0  0  0  0
  -23.6159  -29.8188   20.1658 C   0  0  0  0  0  0
  -25.4091  -36.3115   24.0358 C   0  0  1  0  0  0
  -20.5871  -28.3653   23.1318 C   0  0  2  0  0  0
  -20.6766  -26.9391   22.5423 C   0  0  0  0  0  0
  -19.5750  -26.6389   21.5216 C   0  0  0  0  0  0
  -18.1927  -26.7927   22.1626 C   0  0  0  0  0  0
  -19.1526  -28.8835   23.2910 C   0  0  0  0  0  0
  -18.9457  -30.1446   23.8915 C   0  0  0  0  0  0
  -17.6461  -30.6590   24.0582 C   0  0  0  0  0  0
  -25.9033  -34.9472   23.5155 C   0  0  0  0  0  0
  -16.5345  -29.9106   23.6328 C   0  0  0  0  0  0
  -16.7273  -28.6513   23.0356 C   0  0  0  0  0  0
  -26.4454  -31.6598   25.0730 C   0  0  0  0  0  0
  -25.3732  -31.3723   26.1487 C   0  0  0  0  0  0
  -27.0265  -30.3045   24.6070 C   0  0  0  0  0  0
  -27.6055  -32.4302   25.7472 C   0  0  0  0  0  0
  -27.5586  -37.1788   24.8459 C   0  0  0  0  0  0
  -21.4141  -29.3023   22.3721 N   0  0  0  0  0  0
  -26.4276  -37.3814   23.9437 N   0  0  0  0  0  0
  -24.6675  -31.0782   22.1006 N   0  0  0  0  0  0
  -23.4170  -28.8186   23.3030 O   0  0  0  0  0  0
  -28.3988  -26.7007   20.0440 O   0  0  0  0  0  0
  -26.5577  -34.8924   22.4703 O   0  0  0  0  0  0
  -23.5324  -32.1414   23.7495 O   0  0  0  0  0  0
  -31.2532  -17.5397   20.7225 C   0  0  0  0  0  0
  -29.0115  -19.0064   21.5522 C   0  0  0  0  0  0
  -31.2495  -18.9479   20.6176 C   0  0  0  0  0  0
  -29.0139  -17.5909   21.6806 C   0  0  0  0  0  0
  -30.1334  -16.8380   21.2321 C   0  0  0  0  0  0
  -30.1225  -19.7013   21.0141 C   0  0  0  0  0  0
  -32.4706  -19.6605   20.0641 C   0  0  0  0  0  0
  -26.5691  -17.6880   22.5960 C   0  0  0  0  0  0
  -27.8263  -16.8540   22.3053 C   0  0  0  0  0  0
  -28.2438  -24.3767   20.9507 C   0  0  0  0  0  0
  -29.4299  -23.3799   20.9060 C   0  0  0  0  0  0
  -28.6477  -25.8590   21.1753 C   0  0  0  0  0  0
  -29.0285  -21.8885   21.0166 C   0  0  0  0  0  0
  -30.0768  -15.4043   21.3257 N   0  0  0  0  0  0
  -30.1991  -21.0783   20.8721 O   0  0  0  0  0  0
  -31.4699  -12.4037   19.1242 H   0  0  0  0  0  0
  -30.3223  -11.2970   19.8177 H   0  0  0  0  0  0
  -29.7370  -11.7882   17.4293 H   0  0  0  0  0  0
  -29.6665  -13.4984   17.7724 H   0  0  0  0  0  0
  -27.8285  -11.3163   18.8173 H   0  0  0  0  0  0
  -27.3664  -12.6458   17.7885 H   0  0  0  0  0  0
  -27.7112  -14.2597   19.5886 H   0  0  0  0  0  0
  -28.6782  -11.9385   21.3241 H   0  0  0  0  0  0
  -28.4566  -13.5623   21.8865 H   0  0  0  0  0  0
  -25.2764   -9.5672   22.4768 H   0  0  0  0  0  0
  -23.9999   -7.4621   22.7462 H   0  0  0  0  0  0
  -21.0850   -8.8783   19.8953 H   0  0  0  0  0  0
  -22.3708  -10.9677   19.6164 H   0  0  0  0  0  0
  -21.1977   -7.6141   23.9710 H   0  0  0  0  0  0
  -21.1467   -6.0516   25.9076 H   0  0  0  0  0  0
  -22.0607   -2.7611   23.2842 H   0  0  0  0  0  0
  -22.4087  -11.9883   22.4805 H   0  0  0  0  0  0
  -21.1113  -13.1269   22.2621 H   0  0  0  0  0  0
  -24.6379  -15.8292   20.4706 H   0  0  0  0  0  0
  -26.2544  -15.6192   20.0245 H   0  0  0  0  0  0
  -26.7083  -32.5548   23.1181 H   0  0  0  0  0  0
  -25.0082  -33.9786   25.0525 H   0  0  0  0  0  0
  -22.6950  -31.3069   21.4075 H   0  0  0  0  0  0
  -23.3761  -35.9609   23.3285 H   0  0  0  0  0  0
  -24.3579  -36.8928   22.2050 H   0  0  0  0  0  0
  -23.7182  -37.6485   23.6639 H   0  0  0  0  0  0
  -26.0372  -31.5970   20.5907 H   0  0  0  0  0  0
  -26.8203  -30.8934   21.9797 H   0  0  0  0  0  0
  -28.1071  -29.1149   21.1636 H   0  0  0  0  0  0
  -26.0914  -25.9714   19.0138 H   0  0  0  0  0  0
  -23.9888  -27.2879   19.0395 H   0  0  0  0  0  0
  -23.7270  -30.5908   19.4032 H   0  0  0  0  0  0
  -22.7412  -29.2378   19.8700 H   0  0  0  0  0  0
  -25.1264  -36.1986   25.0852 H   0  0  0  0  0  0
  -20.9982  -28.3215   24.1428 H   0  0  0  0  0  0
  -20.5664  -26.2260   23.3609 H   0  0  0  0  0  0
  -21.6631  -26.7437   22.1205 H   0  0  0  0  0  0
  -19.6903  -25.6308   21.1236 H   0  0  0  0  0  0
  -19.6693  -27.3206   20.6753 H   0  0  0  0  0  0
  -17.4202  -26.6698   21.4020 H   0  0  0  0  0  0
  -18.0325  -26.0065   22.9017 H   0  0  0  0  0  0
  -19.7929  -30.7268   24.2279 H   0  0  0  0  0  0
  -17.5016  -31.6268   24.5193 H   0  0  0  0  0  0
  -15.5351  -30.3017   23.7630 H   0  0  0  0  0  0
  -15.8676  -28.0851   22.7048 H   0  0  0  0  0  0
  -24.5883  -30.7087   25.7834 H   0  0  0  0  0  0
  -24.8931  -32.2889   26.4935 H   0  0  0  0  0  0
  -25.8093  -30.8885   27.0240 H   0  0  0  0  0  0
  -26.2791  -29.6820   24.1129 H   0  0  0  0  0  0
  -27.4055  -29.7260   25.4507 H   0  0  0  0  0  0
  -27.8628  -30.4383   23.9204 H   0  0  0  0  0  0
  -27.2716  -33.3618   26.2056 H   0  0  0  0  0  0
  -28.3856  -32.6832   25.0282 H   0  0  0  0  0  0
  -28.0719  -31.8401   26.5379 H   0  0  0  0  0  0
  -28.2582  -38.0111   24.7572 H   0  0  0  0  0  0
  -28.1119  -36.2653   24.6213 H   0  0  0  0  0  0
  -27.2326  -37.1351   25.8866 H   0  0  0  0  0  0
  -20.9295  -29.8750   21.6950 H   0  0  0  0  0  0
  -26.0181  -38.2887   24.1486 H   0  0  0  0  0  0
  -32.1398  -17.0126   20.4052 H   0  0  0  0  0  0
  -28.1507  -19.5639   21.8833 H   0  0  0  0  0  0
  -33.2606  -18.9594   19.7943 H   0  0  0  0  0  0
  -32.8732  -20.3515   20.8047 H   0  0  0  0  0  0
  -32.2066  -20.2322   19.1740 H   0  0  0  0  0  0
  -25.7715  -17.0464   22.9724 H   0  0  0  0  0  0
  -26.1948  -18.1757   21.6956 H   0  0  0  0  0  0
  -26.7562  -18.4495   23.3535 H   0  0  0  0  0  0
  -28.1646  -16.3924   23.2339 H   0  0  0  0  0  0
  -27.5478  -16.0356   21.6455 H   0  0  0  0  0  0
  -27.5792  -24.0847   21.7655 H   0  0  0  0  0  0
  -27.6495  -24.2808   20.0422 H   0  0  0  0  0  0
  -30.1173  -23.6018   21.7235 H   0  0  0  0  0  0
  -29.9948  -23.5421   19.9865 H   0  0  0  0  0  0
  -29.7125  -25.9249   21.4012 H   0  0  0  0  0  0
  -28.1425  -26.2497   22.0620 H   0  0  0  0  0  0
  -28.3033  -21.6279   20.2443 H   0  0  0  0  0  0
  -28.5607  -21.7231   21.9874 H   0  0  0  0  0  0
  -29.2528  -15.0452   21.7799 H   0  0  0  0  0  0
  1 25  1  0  0  0
  1 30  2  0  0  0
  1 84  1  0  0  0
  2  3  1  0  0  0
  2 25  1  0  0  0
  2 86  1  0  0  0
  2 87  1  0  0  0
  3  4  1  0  0  0
  3 88  1  0  0  0
  3 89  1  0  0  0
  4  5  1  0  0  0
  4 90  1  0  0  0
  4 91  1  0  0  0
  5  6  1  0  0  0
  5 26  1  0  0  0
  5 92  1  0  0  0
  6 25  1  0  0  0
  6 93  1  0  0  0
  6 94  1  0  0  0
  7  8  2  0  0  0
  7 26  1  0  0  0
  7 29  1  0  0  0
  8  9  1  0  0  0
  8 22  1  0  0  0
  9 10  1  0  0  0
  9 27  2  0  0  0
 10 11  2  0  0  0
 10 15  1  0  0  0
 11 12  1  0  0  0
 11 95  1  0  0  0
 12 13  2  0  0  0
 12 96  1  0  0  0
 13 14  1  0  0  0
 13 31  1  0  0  0
 14 15  2  0  0  0
 14 97  1  0  0  0
 15 98  1  0  0  0
 16 17  2  0  0  0
 16 21  1  0  0  0
 16 31  1  0  0  0
 17 18  1  0  0  0
 17 99  1  0  0  0
 18 19  2  0  0  0
 18100  1  0  0  0
 19 20  1  0  0  0
 19 24  1  0  0  0
 20 21  2  0  0  0
 20101  1  0  0  0
 21 23  1  0  0  0
 22 28  1  0  0  0
 22 32  2  0  0  0
 26 27  1  0  0  0
 28102  1  0  0  0
 28103  1  0  0  0
 29104  1  0  0  0
 29105  1  0  0  0
 33 34  1  0  0  0
 33 66  1  0  0  0
 33 70  2  0  0  0
 34 36  1  0  0  0
 34 59  1  0  0  0
 34106  1  0  0  0
 35 44  2  0  0  0
 35 45  1  0  0  0
 35 68  1  0  0  0
 36 56  1  0  0  0
 36107  1  0  0  0
 37 39  1  0  0  0
 37 47  1  0  0  0
 37 66  1  0  0  0
 37108  1  0  0  0
 38 43  2  0  0  0
 38 46  1  0  0  0
 38 47  1  0  0  0
 39 64  1  0  0  0
 39 67  2  0  0  0
 40 52  1  0  0  0
 40 53  2  0  0  0
 40 58  1  0  0  0
 41109  1  0  0  0
 41110  1  0  0  0
 41111  1  0  0  0
 41 48  1  0  0  0
 42 43  1  0  0  0
 42 66  1  0  0  0
 42112  1  0  0  0
 42113  1  0  0  0
 43 44  1  0  0  0
 44114  1  0  0  0
 45 46  2  0  0  0
 45115  1  0  0  0
 46116  1  0  0  0
 47117  1  0  0  0
 47118  1  0  0  0
 48 56  1  0  0  0
 48 65  1  0  0  0
 48119  1  0  0  0
 49 50  1  0  0  0
 49 53  1  0  0  0
 49 64  1  0  0  0
 49120  1  0  0  0
 50 51  1  0  0  0
 50121  1  0  0  0
 50122  1  0  0  0
 51 52  1  0  0  0
 51123  1  0  0  0
 51124  1  0  0  0
 52125  1  0  0  0
 52126  1  0  0  0
 53 54  1  0  0  0
 54 55  2  0  0  0
 54127  1  0  0  0
 55 57  1  0  0  0
 55128  1  0  0  0
 56 69  2  0  0  0
 57 58  2  0  0  0
 57129  1  0  0  0
 58130  1  0  0  0
 59 60  1  0  0  0
 59 61  1  0  0  0
 59 62  1  0  0  0
 60131  1  0  0  0
 60132  1  0  0  0
 60133  1  0  0  0
 61134  1  0  0  0
 61135  1  0  0  0
 61136  1  0  0  0
 62137  1  0  0  0
 62138  1  0  0  0
 62139  1  0  0  0
 63 65  1  0  0  0
 63140  1  0  0  0
 63141  1  0  0  0
 63142  1  0  0  0
 64143  1  0  0  0
 65144  1  0  0  0
 68 82  1  0  0  0
 71 73  2  0  0  0
 71 75  1  0  0  0
 71145  1  0  0  0
 72 74  1  0  0  0
 72 76  2  0  0  0
 72146  1  0  0  0
 73 76  1  0  0  0
 73 77  1  0  0  0
 74 75  2  0  0  0
 74 79  1  0  0  0
 75 84  1  0  0  0
 76 85  1  0  0  0
 77147  1  0  0  0
 77148  1  0  0  0
 77149  1  0  0  0
 78 79  1  0  0  0
 78150  1  0  0  0
 78151  1  0  0  0
 78152  1  0  0  0
 79153  1  0  0  0
 79154  1  0  0  0
 80 81  1  0  0  0
 80 82  1  0  0  0
 80155  1  0  0  0
 80156  1  0  0  0
 81 83  1  0  0  0
 81157  1  0  0  0
 81158  1  0  0  0
 82159  1  0  0  0
 82160  1  0  0  0
 83 85  1  0  0  0
 83161  1  0  0  0
 83162  1  0  0  0
 84163  1  0  0  0
M  ISO  4   1 100  68 101  82 101  84 100
M  END
> <chiral flag>
0

> <version>
0

> <s_m_source_file>
/data/baiqing/PycharmProjects/Reinvent-master-3.2/result/LINK_invent/BTK/process_docking_weight1_custom_product_contain_oxygen_bond_distance_aromatic_linkinvent_7_9_3/rearranged_h_0128.sdf

> <i_m_source_file_index>
57

> <r_mmod_Potential_Energy-OPLS-2005>
-46.3262214660645

> <r_mmod_Stretch_Energy-OPLS-2005>
39.9344177246094

> <r_mmod_Bend_Energy-OPLS-2005>
107.752838134766

> <r_mmod_Torsional_Energy-OPLS-2005>
246.456359863281

> <r_mmod_Improper_Torsional_Energy-OPLS-2005>
3.29490280151367

> <r_mmod_Van_der_Waal_Energy-OPLS-2005>
154.271011352539

> <r_mmod_Electrostatic_Energy-OPLS-2005>
-408.487518310547

> <r_mmod_Solvation_Energy-OPLS-2005>
-199.756698608398

> <b_mmod_Minimization_Converged-OPLS-2005>
0

> <r_mmod_RMS_Derivative-OPLS-2005>
2.04008507728577

$$$$
57
                    3D
 Structure written by MMmdl.
160168  0  0  1  0            999 V2000
  -30.6366  -14.7198   20.4697 C   0  0  0  0  0  0
  -30.4212  -12.4392   19.4767 C   0  0  0  0  0  0
  -29.5030  -12.4965   18.2375 C   0  0  0  0  0  0
  -28.0292  -12.3303   18.6521 C   0  0  0  0  0  0
  -27.6384  -13.2326   19.8530 C   0  0  2  0  0  0
  -28.6822  -13.1676   20.9898 C   0  0  0  0  0  0
  -25.2493  -13.8208   20.5706 C   0  0  0  0  0  0
  -24.1787  -13.0447   20.9225 C   0  0  0  0  0  0
  -24.6375  -11.6923   20.8758 C   0  0  0  0  0  0
  -23.9054  -10.4295   21.0410 C   0  0  0  0  0  0
  -24.3607   -9.4209   21.9184 C   0  0  0  0  0  0
  -23.6289   -8.2240   22.0747 C   0  0  0  0  0  0
  -22.4273   -8.0275   21.3538 C   0  0  0  0  0  0
  -21.9903   -9.0249   20.4639 C   0  0  0  0  0  0
  -22.7226  -10.2135   20.3057 C   0  0  0  0  0  0
  -21.6850   -6.0731   22.5274 C   0  0  0  0  0  0
  -21.4010   -6.5636   23.8208 C   0  0  0  0  0  0
  -21.3660   -5.6789   24.9171 C   0  0  0  0  0  0
  -21.6043   -4.3050   24.7220 C   0  0  0  0  0  0
  -21.8825   -3.8142   23.4340 C   0  0  0  0  0  0
  -21.9195   -4.6960   22.3396 C   0  0  0  0  0  0
  -22.7811  -13.5230   21.1885 C   0  0  0  0  0  0
  -22.1666   -4.2144   21.0975 F   0  0  0  0  0  0
  -21.5631   -3.4535   25.7734 F   0  0  0  0  0  0
  -29.9834  -13.5093   20.4043 N   0  0  0  0  0  0
  -26.2910  -12.9410   20.3296 N   0  0  0  0  0  0
  -25.9303  -11.6551   20.5765 N   0  0  0  0  0  0
  -22.0460  -12.8205   22.0433 N   0  0  0  0  0  0
  -25.4194  -15.1930   20.4109 N   0  0  0  0  0  0
  -31.8226  -14.7621   20.1333 O   0  0  0  0  0  0
  -21.6639   -6.8872   21.4235 O   0  0  0  0  0  0
  -22.3489  -14.5537   20.6738 O   0  0  0  0  0  0
  -24.6288  -31.8550   23.1976 C   0  0  0  0  0  0
  -25.9120  -32.4752   23.8311 C   0  0  1  0  0  0
  -27.2237  -27.2716   20.1278 C   0  0  0  0  0  0
  -25.5932  -33.8558   24.2231 N   0  0  0  0  0  0
  -23.4237  -30.4743   21.5409 C   0  0  2  0  0  0
  -24.8705  -28.9156   20.1080 C   0  0  0  0  0  0
  -22.7490  -29.4578   22.4923 C   0  0  0  0  0  0
  -18.0293  -28.1373   22.8467 C   0  0  0  0  0  0
  -24.1504  -36.7294   23.2634 C   0  0  0  0  0  0
  -25.9659  -30.7696   21.3735 C   0  0  0  0  0  0
  -26.0383  -29.3914   20.7169 C   0  0  0  0  0  0
  -27.2133  -28.5791   20.7171 C   0  0  0  0  0  0
  -26.0338  -26.8528   19.4943 C   0  0  0  0  0  0
  -24.8724  -27.6539   19.4873 C   0  0  0  0  0  0
  -23.6412  -29.8035   20.1573 C   0  0  0  0  0  0
  -25.4127  -36.3063   24.0310 C   0  0  1  0  0  0
  -20.5887  -28.3680   23.1287 C   0  0  2  0  0  0
  -20.6781  -26.9399   22.5414 C   0  0  0  0  0  0
  -19.5760  -26.6363   21.5214 C   0  0  0  0  0  0
  -18.1935  -26.7913   22.1612 C   0  0  0  0  0  0
  -19.1540  -28.8842   23.2871 C   0  0  0  0  0  0
  -18.9459  -30.1446   23.8882 C   0  0  0  0  0  0
  -17.6457  -30.6573   24.0558 C   0  0  0  0  0  0
  -25.9054  -34.9439   23.5068 C   0  0  0  0  0  0
  -16.5350  -29.9062   23.6324 C   0  0  0  0  0  0
  -16.7281  -28.6489   23.0323 C   0  0  0  0  0  0
  -26.4495  -31.6601   25.0717 C   0  0  0  0  0  0
  -25.3720  -31.3753   26.1448 C   0  0  0  0  0  0
  -27.0347  -30.3027   24.6187 C   0  0  0  0  0  0
  -27.6034  -32.4358   25.7500 C   0  0  0  0  0  0
  -27.5587  -37.1800   24.8450 C   0  0  0  0  0  0
  -21.4196  -29.3035   22.3689 N   0  0  0  0  0  0
  -26.4299  -37.3760   23.9387 N   0  0  0  0  0  0
  -24.6917  -31.0518   22.0944 N   0  0  0  0  0  0
  -23.4212  -28.8117   23.3002 O   0  0  0  0  0  0
  -28.3557  -26.4376   20.2104 O   0  0  0  0  0  0
  -26.5628  -34.8915   22.4638 O   0  0  0  0  0  0
  -23.5445  -32.1367   23.7288 O   0  0  0  0  0  0
  -32.1437  -18.9618   20.8544 C   0  0  0  0  0  0
  -31.6896  -17.6359   20.8186 C   0  0  0  0  0  0
  -29.4228  -18.4737   20.6491 C   0  0  0  0  0  0
  -29.8562  -19.8723   20.7028 C   0  0  0  0  0  0
  -31.2669  -20.0639   20.8093 C   0  0  0  0  0  0
  -30.3186  -17.3191   20.7041 C   0  0  0  0  0  0
  -28.8992  -21.0995   20.7443 C   0  0  0  0  0  0
  -29.0820  -22.4344   20.3892 C   0  0  0  0  0  0
  -31.9223  -21.4296   20.9690 C   0  0  0  0  0  0
  -26.6999  -23.3574   20.6325 C   0  0  0  0  0  0
  -28.5453  -24.1730   22.1087 C   0  0  0  0  0  0
  -28.4417  -25.0211   19.7248 C   0  0  0  0  0  0
  -28.1939  -23.7304   20.6774 C   0  0  0  0  0  0
  -29.9014  -15.8833   20.6942 N   0  0  0  0  0  0
  -31.4640  -12.5446   19.1723 H   0  0  0  0  0  0
  -30.3533  -11.4655   19.9637 H   0  0  0  0  0  0
  -29.7793  -11.7180   17.5250 H   0  0  0  0  0  0
  -29.6355  -13.4478   17.7201 H   0  0  0  0  0  0
  -27.8809  -11.2829   18.9158 H   0  0  0  0  0  0
  -27.3717  -12.5223   17.8035 H   0  0  0  0  0  0
  -27.6340  -14.2536   19.4719 H   0  0  0  0  0  0
  -28.7123  -12.1704   21.4309 H   0  0  0  0  0  0
  -28.4219  -13.8528   21.7983 H   0  0  0  0  0  0
  -25.2745   -9.5690   22.4764 H   0  0  0  0  0  0
  -24.0000   -7.4630   22.7460 H   0  0  0  0  0  0
  -21.0836   -8.8760   19.8938 H   0  0  0  0  0  0
  -22.3672  -10.9677   19.6171 H   0  0  0  0  0  0
  -21.1999   -7.6142   23.9705 H   0  0  0  0  0  0
  -21.1479   -6.0519   25.9074 H   0  0  0  0  0  0
  -22.0606   -2.7603   23.2840 H   0  0  0  0  0  0
  -22.4086  -11.9865   22.4811 H   0  0  0  0  0  0
  -21.1078  -13.1215   22.2659 H   0  0  0  0  0  0
  -24.6525  -15.8475   20.5216 H   0  0  0  0  0  0
  -26.2574  -15.6249   20.0441 H   0  0  0  0  0  0
  -26.7195  -32.5402   23.1053 H   0  0  0  0  0  0
  -25.0110  -33.9693   25.0398 H   0  0  0  0  0  0
  -22.7195  -31.2956   21.3942 H   0  0  0  0  0  0
  -23.3758  -35.9637   23.3274 H   0  0  0  0  0  0
  -24.3597  -36.8948   22.2056 H   0  0  0  0  0  0
  -23.7277  -37.6486   23.6695 H   0  0  0  0  0  0
  -26.1021  -31.5296   20.6031 H   0  0  0  0  0  0
  -26.8444  -30.8203   22.0048 H   0  0  0  0  0  0
  -28.1094  -28.9348   21.2070 H   0  0  0  0  0  0
  -25.9737  -25.8839   19.0238 H   0  0  0  0  0  0
  -23.9766  -27.2802   19.0096 H   0  0  0  0  0  0
  -23.7674  -30.5788   19.4007 H   0  0  0  0  0  0
  -22.7592  -29.2361   19.8555 H   0  0  0  0  0  0
  -25.1322  -36.1901   25.0802 H   0  0  0  0  0  0
  -20.9978  -28.3261   24.1410 H   0  0  0  0  0  0
  -20.5695  -26.2277   23.3608 H   0  0  0  0  0  0
  -21.6651  -26.7433   22.1206 H   0  0  0  0  0  0
  -19.6920  -25.6268   21.1256 H   0  0  0  0  0  0
  -19.6716  -27.3167   20.6742 H   0  0  0  0  0  0
  -17.4211  -26.6661   21.4009 H   0  0  0  0  0  0
  -18.0319  -26.0068   22.9021 H   0  0  0  0  0  0
  -19.7944  -30.7261   24.2252 H   0  0  0  0  0  0
  -17.5016  -31.6259   24.5152 H   0  0  0  0  0  0
  -15.5347  -30.2950   23.7662 H   0  0  0  0  0  0
  -15.8686  -28.0829   22.6996 H   0  0  0  0  0  0
  -24.5884  -30.7108   25.7783 H   0  0  0  0  0  0
  -24.8925  -32.2930   26.4875 H   0  0  0  0  0  0
  -25.8044  -30.8937   27.0230 H   0  0  0  0  0  0
  -26.2936  -29.6771   24.1199 H   0  0  0  0  0  0
  -27.4029  -29.7290   25.4700 H   0  0  0  0  0  0
  -27.8810  -30.4298   23.9429 H   0  0  0  0  0  0
  -27.2624  -33.3666   26.2047 H   0  0  0  0  0  0
  -28.3869  -32.6913   25.0351 H   0  0  0  0  0  0
  -28.0679  -31.8511   26.5450 H   0  0  0  0  0  0
  -28.2572  -38.0130   24.7527 H   0  0  0  0  0  0
  -28.1123  -36.2659   24.6251 H   0  0  0  0  0  0
  -27.2308  -37.1411   25.8853 H   0  0  0  0  0  0
  -20.9360  -29.8810   21.6956 H   0  0  0  0  0  0
  -26.0175  -38.2829   24.1401 H   0  0  0  0  0  0
  -33.2077  -19.1259   20.9579 H   0  0  0  0  0  0
  -32.4468  -16.8739   20.9083 H   0  0  0  0  0  0
  -28.3601  -18.2867   20.5838 H   0  0  0  0  0  0
  -27.9591  -20.8702   21.2244 H   0  0  0  0  0  0
  -29.9893  -22.6869   19.8658 H   0  0  0  0  0  0
  -32.9267  -21.3400   21.3828 H   0  0  0  0  0  0
  -31.3715  -22.0665   21.6604 H   0  0  0  0  0  0
  -32.0199  -21.9271   20.0039 H   0  0  0  0  0  0
  -26.4530  -22.5730   21.3477 H   0  0  0  0  0  0
  -26.4109  -23.0028   19.6420 H   0  0  0  0  0  0
  -26.0698  -24.2151   20.8704 H   0  0  0  0  0  0
  -28.3434  -23.3835   22.8341 H   0  0  0  0  0  0
  -27.9667  -25.0468   22.4119 H   0  0  0  0  0  0
  -29.6021  -24.4338   22.1902 H   0  0  0  0  0  0
  -27.8990  -24.9058   18.7880 H   0  0  0  0  0  0
  -29.4843  -24.9514   19.4134 H   0  0  0  0  0  0
  -28.9175  -15.7196   20.8425 H   0  0  0  0  0  0
  1 25  1  0  0  0
  1 30  2  0  0  0
  1 84  1  0  0  0
  2  3  1  0  0  0
  2 25  1  0  0  0
  2 85  1  0  0  0
  2 86  1  0  0  0
  3  4  1  0  0  0
  3 87  1  0  0  0
  3 88  1  0  0  0
  4  5  1  0  0  0
  4 89  1  0  0  0
  4 90  1  0  0  0
  5  6  1  0  0  0
  5 26  1  0  0  0
  5 91  1  0  0  0
  6 25  1  0  0  0
  6 92  1  0  0  0
  6 93  1  0  0  0
  7  8  2  0  0  0
  7 26  1  0  0  0
  7 29  1  0  0  0
  8  9  1  0  0  0
  8 22  1  0  0  0
  9 10  1  0  0  0
  9 27  2  0  0  0
 10 11  2  0  0  0
 10 15  1  0  0  0
 11 12  1  0  0  0
 11 94  1  0  0  0
 12 13  2  0  0  0
 12 95  1  0  0  0
 13 14  1  0  0  0
 13 31  1  0  0  0
 14 15  2  0  0  0
 14 96  1  0  0  0
 15 97  1  0  0  0
 16 17  2  0  0  0
 16 21  1  0  0  0
 16 31  1  0  0  0
 17 18  1  0  0  0
 17 98  1  0  0  0
 18 19  2  0  0  0
 18 99  1  0  0  0
 19 20  1  0  0  0
 19 24  1  0  0  0
 20 21  2  0  0  0
 20100  1  0  0  0
 21 23  1  0  0  0
 22 28  1  0  0  0
 22 32  2  0  0  0
 26 27  1  0  0  0
 28101  1  0  0  0
 28102  1  0  0  0
 29103  1  0  0  0
 29104  1  0  0  0
 33 34  1  0  0  0
 33 66  1  0  0  0
 33 70  2  0  0  0
 34 36  1  0  0  0
 34 59  1  0  0  0
 34105  1  0  0  0
 35 44  2  0  0  0
 35 45  1  0  0  0
 35 68  1  0  0  0
 36 56  1  0  0  0
 36106  1  0  0  0
 37 39  1  0  0  0
 37 47  1  0  0  0
 37 66  1  0  0  0
 37107  1  0  0  0
 38 43  2  0  0  0
 38 46  1  0  0  0
 38 47  1  0  0  0
 39 64  1  0  0  0
 39 67  2  0  0  0
 40 52  1  0  0  0
 40 53  2  0  0  0
 40 58  1  0  0  0
 41108  1  0  0  0
 41109  1  0  0  0
 41110  1  0  0  0
 41 48  1  0  0  0
 42 43  1  0  0  0
 42 66  1  0  0  0
 42111  1  0  0  0
 42112  1  0  0  0
 43 44  1  0  0  0
 44113  1  0  0  0
 45 46  2  0  0  0
 45114  1  0  0  0
 46115  1  0  0  0
 47116  1  0  0  0
 47117  1  0  0  0
 48 56  1  0  0  0
 48 65  1  0  0  0
 48118  1  0  0  0
 49 50  1  0  0  0
 49 53  1  0  0  0
 49 64  1  0  0  0
 49119  1  0  0  0
 50 51  1  0  0  0
 50120  1  0  0  0
 50121  1  0  0  0
 51 52  1  0  0  0
 51122  1  0  0  0
 51123  1  0  0  0
 52124  1  0  0  0
 52125  1  0  0  0
 53 54  1  0  0  0
 54 55  2  0  0  0
 54126  1  0  0  0
 55 57  1  0  0  0
 55127  1  0  0  0
 56 69  2  0  0  0
 57 58  2  0  0  0
 57128  1  0  0  0
 58129  1  0  0  0
 59 60  1  0  0  0
 59 61  1  0  0  0
 59 62  1  0  0  0
 60130  1  0  0  0
 60131  1  0  0  0
 60132  1  0  0  0
 61133  1  0  0  0
 61134  1  0  0  0
 61135  1  0  0  0
 62136  1  0  0  0
 62137  1  0  0  0
 62138  1  0  0  0
 63 65  1  0  0  0
 63139  1  0  0  0
 63140  1  0  0  0
 63141  1  0  0  0
 64142  1  0  0  0
 65143  1  0  0  0
 68 82  1  0  0  0
 71 72  2  0  0  0
 71 75  1  0  0  0
 71144  1  0  0  0
 72 76  1  0  0  0
 72145  1  0  0  0
 73 74  1  0  0  0
 73 76  2  0  0  0
 73146  1  0  0  0
 74 75  2  0  0  0
 74 77  1  0  0  0
 75 79  1  0  0  0
 76 84  1  0  0  0
 77 78  2  0  0  0
 77147  1  0  0  0
 78 83  1  0  0  0
 78148  1  0  0  0
 79149  1  0  0  0
 79150  1  0  0  0
 79151  1  0  0  0
 80152  1  0  0  0
 80153  1  0  0  0
 80154  1  0  0  0
 80 83  1  0  0  0
 81 83  1  0  0  0
 81155  1  0  0  0
 81156  1  0  0  0
 81157  1  0  0  0
 82 83  1  0  0  0
 82158  1  0  0  0
 82159  1  0  0  0
 84160  1  0  0  0
M  ISO  4   1 100  68 101  82 101  84 100
M  END
> <chiral flag>
0

> <version>
0

> <s_m_source_file>
/data/baiqing/PycharmProjects/Reinvent-master-3.2/result/LINK_invent/BTK/process_docking_weight1_custom_product_contain_oxygen_bond_distance_aromatic_linkinvent_7_9_3/rearranged_h_0128.sdf

> <i_m_source_file_index>
58

> <r_mmod_Potential_Energy-OPLS-2005>
188.353729248047

> <r_mmod_Stretch_Energy-OPLS-2005>
128.905807495117

> <r_mmod_Bend_Energy-OPLS-2005>
179.199172973633

> <r_mmod_Torsional_Energy-OPLS-2005>
223.902786254883

> <r_mmod_Improper_Torsional_Energy-OPLS-2005>
6.63412046432495

> <r_mmod_Van_der_Waal_Energy-OPLS-2005>
150.641845703125

> <r_mmod_Electrostatic_Energy-OPLS-2005>
-377.990295410156

> <r_mmod_Solvation_Energy-OPLS-2005>
-197.110305786133

> <b_mmod_Minimization_Converged-OPLS-2005>
0

> <r_mmod_RMS_Derivative-OPLS-2005>
1.66072583198547

$$$$
58
                    3D
 Structure written by MMmdl.
176185  0  0  1  0            999 V2000
  -31.6558  -13.4587   20.6886 C   0  0  0  0  0  0
  -31.0442  -13.1770   18.6940 C   0  0  0  0  0  0
  -29.6834  -12.1076   18.1043 C   0  0  0  0  0  0
  -27.9498  -12.0448   18.6555 C   0  0  0  0  0  0
  -27.1409  -13.1623   19.8105 C   0  0  2  0  0  0
  -28.0052  -14.2570   20.9580 C   0  0  0  0  0  0
  -25.0125  -13.7837   20.6234 C   0  0  0  0  0  0
  -23.9941  -12.9976   20.9974 C   0  0  0  0  0  0
  -24.4843  -11.6529   20.9567 C   0  0  0  0  0  0
  -23.8079  -10.3953   21.0888 C   0  0  0  0  0  0
  -24.3057   -9.3940   21.9453 C   0  0  0  0  0  0
  -23.5998   -8.1864   22.0785 C   0  0  0  0  0  0
  -22.4031   -7.9925   21.3494 C   0  0  0  0  0  0
  -21.9474   -8.9814   20.4613 C   0  0  0  0  0  0
  -22.6521  -10.1813   20.3212 C   0  0  0  0  0  0
  -21.6726   -6.0532   22.5274 C   0  0  0  0  0  0
  -21.3948   -6.5532   23.8174 C   0  0  0  0  0  0
  -21.3627   -5.6742   24.9174 C   0  0  0  0  0  0
  -21.6005   -4.2994   24.7270 C   0  0  0  0  0  0
  -21.8835   -3.8034   23.4414 C   0  0  0  0  0  0
  -21.9150   -4.6798   22.3437 C   0  0  0  0  0  0
  -22.6176  -13.4869   21.2383 C   0  0  0  0  0  0
  -22.1657   -4.1998   21.1010 F   0  0  0  0  0  0
  -21.5621   -3.4505   25.7797 F   0  0  0  0  0  0
  -30.8073  -14.1875   20.2142 N   0  0  0  0  0  0
  -25.9833  -12.8569   20.3665 N   0  0  0  0  0  0
  -25.7502  -11.5900   20.6427 N   0  0  0  0  0  0
  -21.8918  -12.8005   22.1049 N   0  0  0  0  0  0
  -25.1609  -15.1631   20.4107 N   0  0  0  0  0  0
  -32.7989  -13.8469   20.6959 O   0  0  0  0  0  0
  -21.6448   -6.8555   21.4193 O   0  0  0  0  0  0
  -22.2106  -14.5156   20.7001 O   0  0  0  0  0  0
  -24.6104  -31.8707   23.2120 C   0  0  0  0  0  0
  -25.9014  -32.4833   23.8405 C   0  0  1  0  0  0
  -27.2450  -27.4705   20.0736 C   0  0  0  0  0  0
  -25.5886  -33.8632   24.2340 N   0  0  0  0  0  0
  -23.3968  -30.4935   21.5521 C   0  0  2  0  0  0
  -24.8423  -28.9603   20.1185 C   0  0  0  0  0  0
  -22.7383  -29.4674   22.5015 C   0  0  0  0  0  0
  -18.0265  -28.1372   22.8498 C   0  0  0  0  0  0
  -24.1488  -36.7321   23.2637 C   0  0  0  0  0  0
  -25.9225  -30.8427   21.3633 C   0  0  0  0  0  0
  -25.9990  -29.4792   20.7115 C   0  0  0  0  0  0
  -27.1986  -28.7382   20.6919 C   0  0  0  0  0  0
  -26.0636  -26.9513   19.4913 C   0  0  0  0  0  0
  -24.8669  -27.6924   19.5123 C   0  0  0  0  0  0
  -23.6025  -29.8223   20.1679 C   0  0  0  0  0  0
  -25.4106  -36.3122   24.0342 C   0  0  1  0  0  0
  -20.5850  -28.3654   23.1330 C   0  0  2  0  0  0
  -20.6757  -26.9396   22.5417 C   0  0  0  0  0  0
  -19.5736  -26.6382   21.5214 C   0  0  0  0  0  0
  -18.1915  -26.7919   22.1626 C   0  0  0  0  0  0
  -19.1513  -28.8831   23.2910 C   0  0  0  0  0  0
  -18.9443  -30.1441   23.8910 C   0  0  0  0  0  0
  -17.6447  -30.6585   24.0559 C   0  0  0  0  0  0
  -25.9031  -34.9485   23.5138 C   0  0  0  0  0  0
  -16.5337  -29.9085   23.6328 C   0  0  0  0  0  0
  -16.7254  -28.6499   23.0352 C   0  0  0  0  0  0
  -26.4460  -31.6605   25.0722 C   0  0  0  0  0  0
  -25.3739  -31.3702   26.1481 C   0  0  0  0  0  0
  -27.0286  -30.3049   24.6085 C   0  0  0  0  0  0
  -27.6051  -32.4316   25.7467 C   0  0  0  0  0  0
  -27.5588  -37.1807   24.8460 C   0  0  0  0  0  0
  -21.4115  -29.3029   22.3745 N   0  0  0  0  0  0
  -26.4296  -37.3801   23.9413 N   0  0  0  0  0  0
  -24.6612  -31.0827   22.1010 N   0  0  0  0  0  0
  -23.4168  -28.8217   23.3050 O   0  0  0  0  0  0
  -28.4517  -26.8074   20.0579 O   0  0  0  0  0  0
  -26.5594  -34.8930   22.4701 O   0  0  0  0  0  0
  -23.5308  -32.1451   23.7536 O   0  0  0  0  0  0
  -29.8414  -14.8100   22.3967 C   0  0  0  0  0  0
  -29.6728  -13.1889   22.1414 C   0  0  0  0  0  0
  -29.2359  -15.8652   19.7039 C   0  0  0  0  0  0
  -33.9184  -17.6753   21.6577 C   0  0  0  0  0  0
  -34.7737  -19.9046   21.1554 C   0  0  0  0  0  0
  -32.3870  -19.5596   21.5083 C   0  0  0  0  0  0
  -29.6676  -16.0160   21.2888 C   0  0  0  0  0  0
  -29.0060  -14.3592   19.0076 C   0  0  0  0  0  0
  -35.0004  -18.5261   21.3587 C   0  0  0  0  0  0
  -29.4521  -12.6640   20.5261 C   0  0  0  0  0  0
  -32.6030  -18.1786   21.7117 C   0  0  0  0  0  0
  -33.4662  -20.4334   21.2313 C   0  0  0  0  0  0
  -30.2438  -17.3387   21.6595 C   0  0  0  0  0  0
  -31.8270  -23.8391   20.7192 C   0  0  0  0  0  0
  -29.9632  -25.0462   19.4472 C   0  0  0  0  0  0
  -28.6200  -14.5575   17.5061 C   0  0  0  0  0  0
  -36.3957  -17.9467   21.2226 C   0  0  0  0  0  0
  -30.4101  -24.4139   20.7694 C   0  0  0  0  0  0
  -31.9384  -22.3114   20.6814 C   0  0  0  0  0  0
  -28.5193  -25.5413   19.4115 C   0  0  0  0  0  0
  -31.5611  -17.2301   21.8979 N   0  0  0  0  0  0
  -30.8785  -12.3425   20.8879 N   0  0  0  0  0  0
  -33.2744  -21.8060   21.0106 N   0  0  0  0  0  0
  -29.5645  -18.3674   21.6827 O   0  0  0  0  0  0
  -32.8330  -24.5577   20.7701 O   0  0  0  0  0  0
  -30.6994  -25.1716   18.4608 O   0  0  0  0  0  0
  -31.2489  -13.9117   17.9156 H   0  0  0  0  0  0
  -31.9622  -12.5805   18.5780 H   0  0  0  0  0  0
  -30.0460  -11.1037   18.3124 H   0  0  0  0  0  0
  -29.7040  -12.1203   17.0129 H   0  0  0  0  0  0
  -27.8450  -11.0543   19.0979 H   0  0  0  0  0  0
  -27.3052  -11.9381   17.7825 H   0  0  0  0  0  0
  -26.7421  -13.8229   19.0360 H   0  0  0  0  0  0
  -27.5919  -13.9480   21.9322 H   0  0  0  0  0  0
  -27.4674  -15.2096   20.9833 H   0  0  0  0  0  0
  -25.2114   -9.5604   22.5097 H   0  0  0  0  0  0
  -23.9748   -7.4226   22.7427 H   0  0  0  0  0  0
  -21.0433   -8.8190   19.8911 H   0  0  0  0  0  0
  -22.2871  -10.9408   19.6417 H   0  0  0  0  0  0
  -21.1987   -7.6049   23.9649 H   0  0  0  0  0  0
  -21.1436   -6.0493   25.9069 H   0  0  0  0  0  0
  -22.0681   -2.7499   23.2930 H   0  0  0  0  0  0
  -22.2531  -11.9689   22.5466 H   0  0  0  0  0  0
  -20.9608  -13.1119   22.3396 H   0  0  0  0  0  0
  -24.3861  -15.8123   20.5105 H   0  0  0  0  0  0
  -26.0032  -15.6074   20.0660 H   0  0  0  0  0  0
  -26.7085  -32.5556   23.1173 H   0  0  0  0  0  0
  -25.0040  -33.9801   25.0485 H   0  0  0  0  0  0
  -22.6839  -31.3092   21.4135 H   0  0  0  0  0  0
  -23.3757  -35.9646   23.3290 H   0  0  0  0  0  0
  -24.3591  -36.8943   22.2054 H   0  0  0  0  0  0
  -23.7229  -37.6518   23.6654 H   0  0  0  0  0  0
  -26.0350  -31.6109   20.5974 H   0  0  0  0  0  0
  -26.8099  -30.8929   21.9821 H   0  0  0  0  0  0
  -28.0957  -29.1416   21.1409 H   0  0  0  0  0  0
  -26.0433  -25.9848   19.0095 H   0  0  0  0  0  0
  -23.9748  -27.2849   19.0561 H   0  0  0  0  0  0
  -23.7041  -30.5942   19.4047 H   0  0  0  0  0  0
  -22.7288  -29.2364   19.8779 H   0  0  0  0  0  0
  -25.1282  -36.1992   25.0835 H   0  0  0  0  0  0
  -20.9944  -28.3217   24.1450 H   0  0  0  0  0  0
  -20.5668  -26.2263   23.3600 H   0  0  0  0  0  0
  -21.6628  -26.7450   22.1206 H   0  0  0  0  0  0
  -19.6898  -25.6297   21.1235 H   0  0  0  0  0  0
  -19.6676  -27.3201   20.6753 H   0  0  0  0  0  0
  -17.4187  -26.6673   21.4024 H   0  0  0  0  0  0
  -18.0312  -26.0052   22.9014 H   0  0  0  0  0  0
  -19.7919  -30.7253   24.2280 H   0  0  0  0  0  0
  -17.5003  -31.6271   24.5148 H   0  0  0  0  0  0
  -15.5338  -30.2990   23.7640 H   0  0  0  0  0  0
  -15.8653  -28.0818   22.7063 H   0  0  0  0  0  0
  -24.5884  -30.7087   25.7810 H   0  0  0  0  0  0
  -24.8967  -32.2859   26.4981 H   0  0  0  0  0  0
  -25.8096  -30.8817   27.0205 H   0  0  0  0  0  0
  -26.2820  -29.6809   24.1156 H   0  0  0  0  0  0
  -27.4079  -29.7285   25.4534 H   0  0  0  0  0  0
  -27.8647  -30.4371   23.9213 H   0  0  0  0  0  0
  -27.2686  -33.3610   26.2071 H   0  0  0  0  0  0
  -28.3833  -32.6882   25.0268 H   0  0  0  0  0  0
  -28.0745  -31.8422   26.5352 H   0  0  0  0  0  0
  -28.2599  -38.0113   24.7537 H   0  0  0  0  0  0
  -28.1094  -36.2650   24.6251 H   0  0  0  0  0  0
  -27.2311  -37.1413   25.8863 H   0  0  0  0  0  0
  -20.9269  -29.8751   21.6971 H   0  0  0  0  0  0
  -26.0194  -38.2881   24.1416 H   0  0  0  0  0  0
  -30.1446  -15.1134   23.3914 H   0  0  0  0  0  0
  -29.8702  -12.5101   22.9681 H   0  0  0  0  0  0
  -29.1868  -16.7563   19.0910 H   0  0  0  0  0  0
  -34.0970  -16.6165   21.7987 H   0  0  0  0  0  0
  -35.6124  -20.5510   20.9330 H   0  0  0  0  0  0
  -31.3797  -19.9305   21.5495 H   0  0  0  0  0  0
  -27.9949  -15.4478   17.4441 H   0  0  0  0  0  0
  -28.0603  -13.7836   16.9889 H   0  0  0  0  0  0
  -29.5079  -14.7730   16.9153 H   0  0  0  0  0  0
  -36.3602  -16.8641   21.1047 H   0  0  0  0  0  0
  -37.0025  -18.1667   22.1002 H   0  0  0  0  0  0
  -36.8956  -18.3520   20.3445 H   0  0  0  0  0  0
  -30.3468  -25.1555   21.5640 H   0  0  0  0  0  0
  -29.7084  -23.6181   21.0199 H   0  0  0  0  0  0
  -31.6469  -21.9601   19.6903 H   0  0  0  0  0  0
  -31.2005  -21.9421   21.3911 H   0  0  0  0  0  0
  -27.8791  -24.8250   19.9259 H   0  0  0  0  0  0
  -28.1884  -25.6159   18.3757 H   0  0  0  0  0  0
  -31.8681  -16.2678   21.9262 H   0  0  0  0  0  0
  -31.1800  -11.4416   21.2215 H   0  0  0  0  0  0
  -34.0503  -22.3642   20.6641 H   0  0  0  0  0  0
  1 25  1  0  0  0
  1 30  2  0  0  0
  1 92  1  0  0  0
  2  3  1  0  0  0
  2 25  1  0  0  0
  2 97  1  0  0  0
  2 98  1  0  0  0
  3  4  1  0  0  0
  3 99  1  0  0  0
  3100  1  0  0  0
  4  5  1  0  0  0
  4101  1  0  0  0
  4102  1  0  0  0
  5  6  1  0  0  0
  5 26  1  0  0  0
  5103  1  0  0  0
  6 25  1  0  0  0
  6104  1  0  0  0
  6105  1  0  0  0
  7  8  2  0  0  0
  7 26  1  0  0  0
  7 29  1  0  0  0
  8  9  1  0  0  0
  8 22  1  0  0  0
  9 10  1  0  0  0
  9 27  2  0  0  0
 10 11  2  0  0  0
 10 15  1  0  0  0
 11 12  1  0  0  0
 11106  1  0  0  0
 12 13  2  0  0  0
 12107  1  0  0  0
 13 14  1  0  0  0
 13 31  1  0  0  0
 14 15  2  0  0  0
 14108  1  0  0  0
 15109  1  0  0  0
 16 17  2  0  0  0
 16 21  1  0  0  0
 16 31  1  0  0  0
 17 18  1  0  0  0
 17110  1  0  0  0
 18 19  2  0  0  0
 18111  1  0  0  0
 19 20  1  0  0  0
 19 24  1  0  0  0
 20 21  2  0  0  0
 20112  1  0  0  0
 21 23  1  0  0  0
 22 28  1  0  0  0
 22 32  2  0  0  0
 26 27  1  0  0  0
 28113  1  0  0  0
 28114  1  0  0  0
 29115  1  0  0  0
 29116  1  0  0  0
 33 34  1  0  0  0
 33 66  1  0  0  0
 33 70  2  0  0  0
 34 36  1  0  0  0
 34 59  1  0  0  0
 34117  1  0  0  0
 35 44  2  0  0  0
 35 45  1  0  0  0
 35 68  1  0  0  0
 36 56  1  0  0  0
 36118  1  0  0  0
 37 39  1  0  0  0
 37 47  1  0  0  0
 37 66  1  0  0  0
 37119  1  0  0  0
 38 43  2  0  0  0
 38 46  1  0  0  0
 38 47  1  0  0  0
 39 64  1  0  0  0
 39 67  2  0  0  0
 40 52  1  0  0  0
 40 53  2  0  0  0
 40 58  1  0  0  0
 41120  1  0  0  0
 41121  1  0  0  0
 41122  1  0  0  0
 41 48  1  0  0  0
 42 43  1  0  0  0
 42 66  1  0  0  0
 42123  1  0  0  0
 42124  1  0  0  0
 43 44  1  0  0  0
 44125  1  0  0  0
 45 46  2  0  0  0
 45126  1  0  0  0
 46127  1  0  0  0
 47128  1  0  0  0
 47129  1  0  0  0
 48 56  1  0  0  0
 48 65  1  0  0  0
 48130  1  0  0  0
 49 50  1  0  0  0
 49 53  1  0  0  0
 49 64  1  0  0  0
 49131  1  0  0  0
 50 51  1  0  0  0
 50132  1  0  0  0
 50133  1  0  0  0
 51 52  1  0  0  0
 51134  1  0  0  0
 51135  1  0  0  0
 52136  1  0  0  0
 52137  1  0  0  0
 53 54  1  0  0  0
 54 55  2  0  0  0
 54138  1  0  0  0
 55 57  1  0  0  0
 55139  1  0  0  0
 56 69  2  0  0  0
 57 58  2  0  0  0
 57140  1  0  0  0
 58141  1  0  0  0
 59 60  1  0  0  0
 59 61  1  0  0  0
 59 62  1  0  0  0
 60142  1  0  0  0
 60143  1  0  0  0
 60144  1  0  0  0
 61145  1  0  0  0
 61146  1  0  0  0
 61147  1  0  0  0
 62148  1  0  0  0
 62149  1  0  0  0
 62150  1  0  0  0
 63 65  1  0  0  0
 63151  1  0  0  0
 63152  1  0  0  0
 63153  1  0  0  0
 64154  1  0  0  0
 65155  1  0  0  0
 68 90  1  0  0  0
 71 72  2  0  0  0
 71 77  1  0  0  0
 71156  1  0  0  0
 72 80  1  0  0  0
 72157  1  0  0  0
 73 77  2  0  0  0
 73 78  1  0  0  0
 73158  1  0  0  0
 74 79  2  0  0  0
 74 81  1  0  0  0
 74159  1  0  0  0
 75 79  1  0  0  0
 75 82  2  0  0  0
 75160  1  0  0  0
 76 81  2  0  0  0
 76 82  1  0  0  0
 76161  1  0  0  0
 77 83  1  0  0  0
 78 80  2  0  0  0
 78 86  1  0  0  0
 79 87  1  0  0  0
 80 92  1  0  0  0
 81 91  1  0  0  0
 82 93  1  0  0  0
 83 91  1  0  0  0
 83 94  2  0  0  0
 84 88  1  0  0  0
 84 89  1  0  0  0
 84 95  2  0  0  0
 85 88  1  0  0  0
 85 90  1  0  0  0
 85 96  2  0  0  0
 86162  1  0  0  0
 86163  1  0  0  0
 86164  1  0  0  0
 87165  1  0  0  0
 87166  1  0  0  0
 87167  1  0  0  0
 88168  1  0  0  0
 88169  1  0  0  0
 89 93  1  0  0  0
 89170  1  0  0  0
 89171  1  0  0  0
 90172  1  0  0  0
 90173  1  0  0  0
 91174  1  0  0  0
 92175  1  0  0  0
 93176  1  0  0  0
M  ISO  4   1 100  68 101  90 101  92 100
M  END
> <chiral flag>
0

> <version>
0

> <s_m_source_file>
/data/baiqing/PycharmProjects/Reinvent-master-3.2/result/LINK_invent/BTK/process_docking_weight1_custom_product_contain_oxygen_bond_distance_aromatic_linkinvent_7_9_3/rearranged_h_0128.sdf

> <i_m_source_file_index>
59

> <r_mmod_Potential_Energy-OPLS-2005>
10853.94921875

> <r_mmod_Stretch_Energy-OPLS-2005>
6017.4951171875

> <r_mmod_Bend_Energy-OPLS-2005>
696.462280273438

> <r_mmod_Torsional_Energy-OPLS-2005>
497.995635986328

> <r_mmod_Improper_Torsional_Energy-OPLS-2005>
47.7323265075684

> <r_mmod_Van_der_Waal_Energy-OPLS-2005>
3237.94262695312

> <r_mmod_Electrostatic_Energy-OPLS-2005>
-431.573974609375

> <r_mmod_Solvation_Energy-OPLS-2005>
-252.104415893555

> <b_mmod_Minimization_Converged-OPLS-2005>
0

> <r_mmod_RMS_Derivative-OPLS-2005>
6.26094770431519

$$$$
59
                    3D
 Structure written by MMmdl.
164172  0  0  1  0            999 V2000
  -30.6156  -14.7287   20.4420 C   0  0  0  0  0  0
  -30.4419  -12.4180   19.5058 C   0  0  0  0  0  0
  -29.5231  -12.4120   18.2621 C   0  0  0  0  0  0
  -28.0331  -12.3337   18.6564 C   0  0  0  0  0  0
  -27.6491  -13.2263   19.8703 C   0  0  2  0  0  0
  -28.6952  -13.1499   21.0027 C   0  0  0  0  0  0
  -25.2540  -13.8184   20.5729 C   0  0  0  0  0  0
  -24.1813  -13.0439   20.9211 C   0  0  0  0  0  0
  -24.6403  -11.6909   20.8793 C   0  0  0  0  0  0
  -23.9089  -10.4282   21.0435 C   0  0  0  0  0  0
  -24.3627   -9.4191   21.9206 C   0  0  0  0  0  0
  -23.6292   -8.2231   22.0750 C   0  0  0  0  0  0
  -22.4273   -8.0285   21.3545 C   0  0  0  0  0  0
  -21.9925   -9.0267   20.4651 C   0  0  0  0  0  0
  -22.7271  -10.2136   20.3072 C   0  0  0  0  0  0
  -21.6856   -6.0745   22.5264 C   0  0  0  0  0  0
  -21.4028   -6.5630   23.8209 C   0  0  0  0  0  0
  -21.3653   -5.6771   24.9164 C   0  0  0  0  0  0
  -21.6043   -4.3040   24.7202 C   0  0  0  0  0  0
  -21.8830   -3.8148   23.4322 C   0  0  0  0  0  0
  -21.9194   -4.6976   22.3385 C   0  0  0  0  0  0
  -22.7837  -13.5238   21.1841 C   0  0  0  0  0  0
  -22.1673   -4.2166   21.0963 F   0  0  0  0  0  0
  -21.5612   -3.4516   25.7717 F   0  0  0  0  0  0
  -29.9987  -13.4975   20.4202 N   0  0  0  0  0  0
  -26.2986  -12.9378   20.3426 N   0  0  0  0  0  0
  -25.9341  -11.6535   20.5870 N   0  0  0  0  0  0
  -22.0459  -12.8251   22.0394 N   0  0  0  0  0  0
  -25.4243  -15.1909   20.4136 N   0  0  0  0  0  0
  -31.7906  -14.8356   20.0767 O   0  0  0  0  0  0
  -21.6645   -6.8878   21.4228 O   0  0  0  0  0  0
  -22.3532  -14.5547   20.6693 O   0  0  0  0  0  0
  -24.6326  -31.8548   23.2010 C   0  0  0  0  0  0
  -25.9163  -32.4747   23.8356 C   0  0  1  0  0  0
  -27.2226  -27.2705   20.1319 C   0  0  0  0  0  0
  -25.5983  -33.8543   24.2296 N   0  0  0  0  0  0
  -23.4304  -30.4797   21.5398 C   0  0  2  0  0  0
  -24.8796  -28.9345   20.1034 C   0  0  0  0  0  0
  -22.7536  -29.4592   22.4867 C   0  0  0  0  0  0
  -18.0302  -28.1391   22.8459 C   0  0  0  0  0  0
  -24.1472  -36.7278   23.2625 C   0  0  0  0  0  0
  -25.9743  -30.7717   21.3796 C   0  0  0  0  0  0
  -26.0474  -29.3940   20.7259 C   0  0  0  0  0  0
  -27.2196  -28.5731   20.7344 C   0  0  0  0  0  0
  -26.0406  -26.8908   19.4546 C   0  0  0  0  0  0
  -24.8837  -27.6934   19.4502 C   0  0  0  0  0  0
  -23.6519  -29.8218   20.1513 C   0  0  0  0  0  0
  -25.4082  -36.3055   24.0327 C   0  0  1  0  0  0
  -20.5910  -28.3697   23.1239 C   0  0  2  0  0  0
  -20.6782  -26.9405   22.5392 C   0  0  0  0  0  0
  -19.5757  -26.6369   21.5195 C   0  0  0  0  0  0
  -18.1939  -26.7923   22.1609 C   0  0  0  0  0  0
  -19.1562  -28.8859   23.2844 C   0  0  0  0  0  0
  -18.9473  -30.1456   23.8861 C   0  0  0  0  0  0
  -17.6467  -30.6560   24.0573 C   0  0  0  0  0  0
  -25.9035  -34.9429   23.5098 C   0  0  0  0  0  0
  -16.5361  -29.9056   23.6330 C   0  0  0  0  0  0
  -16.7288  -28.6501   23.0304 C   0  0  0  0  0  0
  -26.4529  -31.6548   25.0732 C   0  0  0  0  0  0
  -25.3760  -31.3734   26.1467 C   0  0  0  0  0  0
  -27.0349  -30.2953   24.6210 C   0  0  0  0  0  0
  -27.6077  -32.4270   25.7536 C   0  0  0  0  0  0
  -27.5575  -37.1763   24.8439 C   0  0  0  0  0  0
  -21.4240  -29.3047   22.3640 N   0  0  0  0  0  0
  -26.4242  -37.3771   23.9446 N   0  0  0  0  0  0
  -24.6980  -31.0527   22.0982 N   0  0  0  0  0  0
  -23.4233  -28.8085   23.2930 O   0  0  0  0  0  0
  -28.3084  -26.3678   20.2229 O   0  0  0  0  0  0
  -26.5573  -34.8919   22.4646 O   0  0  0  0  0  0
  -23.5477  -32.1356   23.7304 O   0  0  0  0  0  0
  -29.6544  -18.4560   20.7190 C   0  0  0  0  0  0
  -29.0953  -19.6359   18.6812 C   0  0  0  0  0  0
  -29.5384  -17.2150   18.6155 C   0  0  0  0  0  0
  -29.7452  -17.1708   20.0279 C   0  0  0  0  0  0
  -29.3577  -19.7261   20.0637 C   0  0  0  0  0  0
  -29.1777  -18.4208   17.9662 C   0  0  0  0  0  0
  -29.6222  -15.9634   17.7497 C   0  0  0  0  0  0
  -27.4959  -18.7173   14.7196 C   0  0  0  0  0  0
  -28.7964  -23.7678   22.1655 C   0  0  0  0  0  0
  -27.9362  -19.2552   16.0839 C   0  0  0  0  0  0
  -28.0642  -24.9023   19.9934 C   0  0  0  0  0  0
  -28.7398  -22.2273   20.0789 C   0  0  0  0  0  0
  -28.9712  -23.7313   20.6418 C   0  0  2  0  0  0
  -29.8532  -15.8551   20.7244 N   0  0  0  0  0  0
  -29.3316  -21.0017   20.7175 O   0  0  0  0  0  0
  -28.9145  -18.3692   16.6135 O   0  0  0  0  0  0
  -31.4843  -12.5317   19.2026 H   0  0  0  0  0  0
  -30.3902  -11.4578   20.0207 H   0  0  0  0  0  0
  -29.7668  -11.5531   17.6339 H   0  0  0  0  0  0
  -29.7194  -13.2796   17.6392 H   0  0  0  0  0  0
  -27.8218  -11.2910   18.8964 H   0  0  0  0  0  0
  -27.4024  -12.5821   17.8012 H   0  0  0  0  0  0
  -27.6383  -14.2543   19.5173 H   0  0  0  0  0  0
  -28.7245  -12.1488   21.4350 H   0  0  0  0  0  0
  -28.4350  -13.8243   21.8206 H   0  0  0  0  0  0
  -25.2764   -9.5680   22.4801 H   0  0  0  0  0  0
  -24.0015   -7.4617   22.7465 H   0  0  0  0  0  0
  -21.0857   -8.8819   19.8940 H   0  0  0  0  0  0
  -22.3752  -10.9696   19.6197 H   0  0  0  0  0  0
  -21.2050   -7.6142   23.9719 H   0  0  0  0  0  0
  -21.1460   -6.0495   25.9061 H   0  0  0  0  0  0
  -22.0625   -2.7617   23.2809 H   0  0  0  0  0  0
  -22.4045  -11.9932   22.4851 H   0  0  0  0  0  0
  -21.1069  -13.1313   22.2530 H   0  0  0  0  0  0
  -24.6590  -15.8453   20.5311 H   0  0  0  0  0  0
  -26.2825  -15.6356   20.1127 H   0  0  0  0  0  0
  -26.7238  -32.5419   23.1107 H   0  0  0  0  0  0
  -25.0244  -33.9678   25.0527 H   0  0  0  0  0  0
  -22.7266  -31.3016   21.3959 H   0  0  0  0  0  0
  -23.3756  -35.9583   23.3198 H   0  0  0  0  0  0
  -24.3600  -36.8995   22.2064 H   0  0  0  0  0  0
  -23.7194  -37.6439   23.6708 H   0  0  0  0  0  0
  -26.1039  -31.5253   20.6018 H   0  0  0  0  0  0
  -26.8573  -30.8311   22.0039 H   0  0  0  0  0  0
  -28.1072  -28.9130   21.2496 H   0  0  0  0  0  0
  -25.9795  -25.9513   18.9271 H   0  0  0  0  0  0
  -23.9993  -27.3471   18.9327 H   0  0  0  0  0  0
  -23.7873  -30.6022   19.4014 H   0  0  0  0  0  0
  -22.7711  -29.2613   19.8338 H   0  0  0  0  0  0
  -25.1241  -36.1880   25.0811 H   0  0  0  0  0  0
  -20.9999  -28.3280   24.1361 H   0  0  0  0  0  0
  -20.5662  -26.2308   23.3603 H   0  0  0  0  0  0
  -21.6653  -26.7404   22.1208 H   0  0  0  0  0  0
  -19.6914  -25.6272   21.1237 H   0  0  0  0  0  0
  -19.6690  -27.3163   20.6712 H   0  0  0  0  0  0
  -17.4203  -26.6645   21.4022 H   0  0  0  0  0  0
  -18.0353  -26.0089   22.9033 H   0  0  0  0  0  0
  -19.7951  -30.7290   24.2207 H   0  0  0  0  0  0
  -17.5011  -31.6219   24.5218 H   0  0  0  0  0  0
  -15.5351  -30.2922   23.7683 H   0  0  0  0  0  0
  -15.8706  -28.0822   22.6977 H   0  0  0  0  0  0
  -24.5906  -30.7102   25.7846 H   0  0  0  0  0  0
  -24.8989  -32.2920   26.4883 H   0  0  0  0  0  0
  -25.8079  -30.8937   27.0255 H   0  0  0  0  0  0
  -26.2915  -29.6705   24.1247 H   0  0  0  0  0  0
  -27.4045  -29.7217   25.4722 H   0  0  0  0  0  0
  -27.8800  -30.4218   23.9438 H   0  0  0  0  0  0
  -27.2687  -33.3576   26.2103 H   0  0  0  0  0  0
  -28.3923  -32.6796   25.0394 H   0  0  0  0  0  0
  -28.0697  -31.8390   26.5481 H   0  0  0  0  0  0
  -28.2477  -38.0169   24.7605 H   0  0  0  0  0  0
  -28.1174  -36.2698   24.6067 H   0  0  0  0  0  0
  -27.2333  -37.1196   25.8849 H   0  0  0  0  0  0
  -20.9420  -29.8837   21.6913 H   0  0  0  0  0  0
  -26.0102  -38.2818   24.1550 H   0  0  0  0  0  0
  -29.8119  -18.4643   21.7869 H   0  0  0  0  0  0
  -28.8489  -20.5177   18.1200 H   0  0  0  0  0  0
  -30.6004  -15.4951   17.8301 H   0  0  0  0  0  0
  -29.4826  -16.1441   16.6849 H   0  0  0  0  0  0
  -28.8469  -15.2634   18.0392 H   0  0  0  0  0  0
  -26.7336  -19.3572   14.2750 H   0  0  0  0  0  0
  -27.0720  -17.7153   14.8044 H   0  0  0  0  0  0
  -28.3371  -18.6678   14.0280 H   0  0  0  0  0  0
  -28.9026  -24.7860   22.5440 H   0  0  0  0  0  0
  -29.5440  -23.1471   22.6604 H   0  0  0  0  0  0
  -27.8087  -23.4063   22.4559 H   0  0  0  0  0  0
  -27.0711  -19.3207   16.7466 H   0  0  0  0  0  0
  -28.3553  -20.2550   15.9676 H   0  0  0  0  0  0
  -27.0538  -24.6717   20.3341 H   0  0  0  0  0  0
  -28.0551  -24.7534   18.9126 H   0  0  0  0  0  0
  -29.0731  -22.2938   19.0461 H   0  0  0  0  0  0
  -27.6646  -22.0505   20.0371 H   0  0  0  0  0  0
  -30.0102  -23.9853   20.4286 H   0  0  0  0  0  0
  -29.0520  -15.6402   21.2987 H   0  0  0  0  0  0
  1 25  1  0  0  0
  1 30  2  0  0  0
  1 84  1  0  0  0
  2  3  1  0  0  0
  2 25  1  0  0  0
  2 87  1  0  0  0
  2 88  1  0  0  0
  3  4  1  0  0  0
  3 89  1  0  0  0
  3 90  1  0  0  0
  4  5  1  0  0  0
  4 91  1  0  0  0
  4 92  1  0  0  0
  5  6  1  0  0  0
  5 26  1  0  0  0
  5 93  1  0  0  0
  6 25  1  0  0  0
  6 94  1  0  0  0
  6 95  1  0  0  0
  7  8  2  0  0  0
  7 26  1  0  0  0
  7 29  1  0  0  0
  8  9  1  0  0  0
  8 22  1  0  0  0
  9 10  1  0  0  0
  9 27  2  0  0  0
 10 11  2  0  0  0
 10 15  1  0  0  0
 11 12  1  0  0  0
 11 96  1  0  0  0
 12 13  2  0  0  0
 12 97  1  0  0  0
 13 14  1  0  0  0
 13 31  1  0  0  0
 14 15  2  0  0  0
 14 98  1  0  0  0
 15 99  1  0  0  0
 16 17  2  0  0  0
 16 21  1  0  0  0
 16 31  1  0  0  0
 17 18  1  0  0  0
 17100  1  0  0  0
 18 19  2  0  0  0
 18101  1  0  0  0
 19 20  1  0  0  0
 19 24  1  0  0  0
 20 21  2  0  0  0
 20102  1  0  0  0
 21 23  1  0  0  0
 22 28  1  0  0  0
 22 32  2  0  0  0
 26 27  1  0  0  0
 28103  1  0  0  0
 28104  1  0  0  0
 29105  1  0  0  0
 29106  1  0  0  0
 33 34  1  0  0  0
 33 66  1  0  0  0
 33 70  2  0  0  0
 34 36  1  0  0  0
 34 59  1  0  0  0
 34107  1  0  0  0
 35 44  2  0  0  0
 35 45  1  0  0  0
 35 68  1  0  0  0
 36 56  1  0  0  0
 36108  1  0  0  0
 37 39  1  0  0  0
 37 47  1  0  0  0
 37 66  1  0  0  0
 37109  1  0  0  0
 38 43  2  0  0  0
 38 46  1  0  0  0
 38 47  1  0  0  0
 39 64  1  0  0  0
 39 67  2  0  0  0
 40 52  1  0  0  0
 40 53  2  0  0  0
 40 58  1  0  0  0
 41110  1  0  0  0
 41111  1  0  0  0
 41112  1  0  0  0
 41 48  1  0  0  0
 42 43  1  0  0  0
 42 66  1  0  0  0
 42113  1  0  0  0
 42114  1  0  0  0
 43 44  1  0  0  0
 44115  1  0  0  0
 45 46  2  0  0  0
 45116  1  0  0  0
 46117  1  0  0  0
 47118  1  0  0  0
 47119  1  0  0  0
 48 56  1  0  0  0
 48 65  1  0  0  0
 48120  1  0  0  0
 49 50  1  0  0  0
 49 53  1  0  0  0
 49 64  1  0  0  0
 49121  1  0  0  0
 50 51  1  0  0  0
 50122  1  0  0  0
 50123  1  0  0  0
 51 52  1  0  0  0
 51124  1  0  0  0
 51125  1  0  0  0
 52126  1  0  0  0
 52127  1  0  0  0
 53 54  1  0  0  0
 54 55  2  0  0  0
 54128  1  0  0  0
 55 57  1  0  0  0
 55129  1  0  0  0
 56 69  2  0  0  0
 57 58  2  0  0  0
 57130  1  0  0  0
 58131  1  0  0  0
 59 60  1  0  0  0
 59 61  1  0  0  0
 59 62  1  0  0  0
 60132  1  0  0  0
 60133  1  0  0  0
 60134  1  0  0  0
 61135  1  0  0  0
 61136  1  0  0  0
 61137  1  0  0  0
 62138  1  0  0  0
 62139  1  0  0  0
 62140  1  0  0  0
 63 65  1  0  0  0
 63141  1  0  0  0
 63142  1  0  0  0
 63143  1  0  0  0
 64144  1  0  0  0
 65145  1  0  0  0
 68 81  1  0  0  0
 71 74  2  0  0  0
 71 75  1  0  0  0
 71146  1  0  0  0
 72 75  2  0  0  0
 72 76  1  0  0  0
 72147  1  0  0  0
 73 74  1  0  0  0
 73 76  2  0  0  0
 73 77  1  0  0  0
 74 84  1  0  0  0
 75 85  1  0  0  0
 76 86  1  0  0  0
 77148  1  0  0  0
 77149  1  0  0  0
 77150  1  0  0  0
 78 80  1  0  0  0
 78151  1  0  0  0
 78152  1  0  0  0
 78153  1  0  0  0
 79154  1  0  0  0
 79155  1  0  0  0
 79156  1  0  0  0
 79 83  1  0  0  0
 80 86  1  0  0  0
 80157  1  0  0  0
 80158  1  0  0  0
 81 83  1  0  0  0
 81159  1  0  0  0
 81160  1  0  0  0
 82 83  1  0  0  0
 82 85  1  0  0  0
 82161  1  0  0  0
 82162  1  0  0  0
 83163  1  0  0  0
 84164  1  0  0  0
M  ISO  4   1 100  68 101  81 101  84 100
M  END
> <chiral flag>
0

> <version>
0

> <s_m_source_file>
/data/baiqing/PycharmProjects/Reinvent-master-3.2/result/LINK_invent/BTK/process_docking_weight1_custom_product_contain_oxygen_bond_distance_aromatic_linkinvent_7_9_3/rearranged_h_0128.sdf

> <i_m_source_file_index>
60

> <r_mmod_Potential_Energy-OPLS-2005>
227.074447631836

> <r_mmod_Stretch_Energy-OPLS-2005>
129.631057739258

> <r_mmod_Bend_Energy-OPLS-2005>
175.877166748047

> <r_mmod_Torsional_Energy-OPLS-2005>
267.341766357422

> <r_mmod_Improper_Torsional_Energy-OPLS-2005>
5.36750364303589

> <r_mmod_Van_der_Waal_Energy-OPLS-2005>
158.5966796875

> <r_mmod_Electrostatic_Energy-OPLS-2005>
-377.482513427734

> <r_mmod_Solvation_Energy-OPLS-2005>
-215.850463867188

> <b_mmod_Minimization_Converged-OPLS-2005>
0

> <r_mmod_RMS_Derivative-OPLS-2005>
3.17512822151184

$$$$
60
                    3D
 Structure written by MMmdl.
160168  0  0  1  0            999 V2000
  -30.6664  -14.5792   20.5146 C   0  0  0  0  0  0
  -30.4246  -12.3587   19.4465 C   0  0  0  0  0  0
  -29.5000  -12.4966   18.2191 C   0  0  0  0  0  0
  -28.0227  -12.3456   18.6313 C   0  0  0  0  0  0
  -27.6510  -13.2160   19.8615 C   0  0  2  0  0  0
  -28.6943  -13.0693   20.9918 C   0  0  0  0  0  0
  -25.2547  -13.8173   20.5683 C   0  0  0  0  0  0
  -24.1817  -13.0439   20.9195 C   0  0  0  0  0  0
  -24.6383  -11.6909   20.8742 C   0  0  0  0  0  0
  -23.9054  -10.4291   21.0405 C   0  0  0  0  0  0
  -24.3606   -9.4207   21.9184 C   0  0  0  0  0  0
  -23.6284   -8.2242   22.0754 C   0  0  0  0  0  0
  -22.4268   -8.0276   21.3545 C   0  0  0  0  0  0
  -21.9904   -9.0246   20.4643 C   0  0  0  0  0  0
  -22.7229  -10.2128   20.3054 C   0  0  0  0  0  0
  -21.6853   -6.0733   22.5277 C   0  0  0  0  0  0
  -21.4014   -6.5636   23.8207 C   0  0  0  0  0  0
  -21.3659   -5.6790   24.9170 C   0  0  0  0  0  0
  -21.6046   -4.3054   24.7225 C   0  0  0  0  0  0
  -21.8820   -3.8145   23.4345 C   0  0  0  0  0  0
  -21.9192   -4.6960   22.3402 C   0  0  0  0  0  0
  -22.7840  -13.5234   21.1856 C   0  0  0  0  0  0
  -22.1662   -4.2146   21.0979 F   0  0  0  0  0  0
  -21.5627   -3.4540   25.7736 F   0  0  0  0  0  0
  -30.0134  -13.3831   20.4243 N   0  0  0  0  0  0
  -26.2973  -12.9353   20.3313 N   0  0  0  0  0  0
  -25.9310  -11.6510   20.5757 N   0  0  0  0  0  0
  -22.0480  -12.8222   22.0407 N   0  0  0  0  0  0
  -25.4259  -15.1894   20.4083 N   0  0  0  0  0  0
  -31.8309  -14.7037   20.1304 O   0  0  0  0  0  0
  -21.6639   -6.8874   21.4239 O   0  0  0  0  0  0
  -22.3523  -14.5540   20.6708 O   0  0  0  0  0  0
  -24.6216  -31.8631   23.2044 C   0  0  0  0  0  0
  -25.9085  -32.4793   23.8360 C   0  0  1  0  0  0
  -27.2267  -27.3575   20.1054 C   0  0  0  0  0  0
  -25.5921  -33.8590   24.2291 N   0  0  0  0  0  0
  -23.4117  -30.4873   21.5469 C   0  0  2  0  0  0
  -24.8550  -28.9429   20.1151 C   0  0  0  0  0  0
  -22.7442  -29.4639   22.4954 C   0  0  0  0  0  0
  -18.0275  -28.1388   22.8487 C   0  0  0  0  0  0
  -24.1484  -36.7292   23.2635 C   0  0  0  0  0  0
  -25.9483  -30.8057   21.3672 C   0  0  0  0  0  0
  -26.0211  -29.4353   20.7112 C   0  0  0  0  0  0
  -27.2073  -28.6526   20.6965 C   0  0  0  0  0  0
  -26.0312  -26.8963   19.5062 C   0  0  0  0  0  0
  -24.8594  -27.6768   19.5085 C   0  0  0  0  0  0
  -23.6219  -29.8195   20.1625 C   0  0  0  0  0  0
  -25.4110  -36.3087   24.0330 C   0  0  1  0  0  0
  -20.5871  -28.3678   23.1300 C   0  0  2  0  0  0
  -20.6763  -26.9406   22.5414 C   0  0  0  0  0  0
  -19.5745  -26.6382   21.5213 C   0  0  0  0  0  0
  -18.1922  -26.7933   22.1623 C   0  0  0  0  0  0
  -19.1528  -28.8848   23.2891 C   0  0  0  0  0  0
  -18.9457  -30.1449   23.8904 C   0  0  0  0  0  0
  -17.6463  -30.6591   24.0565 C   0  0  0  0  0  0
  -25.9048  -34.9457   23.5108 C   0  0  0  0  0  0
  -16.5352  -29.9090   23.6341 C   0  0  0  0  0  0
  -16.7265  -28.6511   23.0356 C   0  0  0  0  0  0
  -26.4484  -31.6594   25.0717 C   0  0  0  0  0  0
  -25.3726  -31.3730   26.1452 C   0  0  0  0  0  0
  -27.0325  -30.3028   24.6141 C   0  0  0  0  0  0
  -27.6041  -32.4326   25.7493 C   0  0  0  0  0  0
  -27.5575  -37.1796   24.8468 C   0  0  0  0  0  0
  -21.4161  -29.3040   22.3701 N   0  0  0  0  0  0
  -26.4288  -37.3782   23.9412 N   0  0  0  0  0  0
  -24.6797  -31.0678   22.0972 N   0  0  0  0  0  0
  -23.4185  -28.8177   23.3021 O   0  0  0  0  0  0
  -28.3994  -26.6011   20.1232 O   0  0  0  0  0  0
  -26.5613  -34.8921   22.4671 O   0  0  0  0  0  0
  -23.5398  -32.1404   23.7411 O   0  0  0  0  0  0
  -29.3444  -18.1356   20.6929 C   0  0  0  0  0  0
  -31.6227  -17.4781   21.0702 C   0  0  0  0  0  0
  -30.2899  -17.0757   20.8520 C   0  0  0  0  0  0
  -29.7264  -19.5177   20.7335 C   0  0  0  0  0  0
  -31.1094  -19.7612   20.9831 C   0  0  0  0  0  0
  -28.2848  -24.2678   21.0663 C   0  0  0  0  0  0
  -28.4866  -22.9250   21.2490 C   0  0  0  0  0  0
  -31.7286  -21.1350   21.1746 C   0  0  0  0  0  0
  -26.8798  -21.7600   22.8468 C   0  0  0  0  0  0
  -28.4199  -25.1655   19.8231 C   0  0  0  0  0  0
  -28.2806  -22.3561   22.6493 C   0  0  0  0  0  0
  -28.8920  -21.8744   20.1784 C   0  0  0  0  0  0
  -32.0127  -18.7670   21.1328 N   0  0  0  0  0  0
  -29.9055  -15.6685   20.8334 N   0  0  0  0  0  0
  -28.7115  -20.4798   20.5862 O   0  0  0  0  0  0
  -31.4681  -12.4626   19.1452 H   0  0  0  0  0  0
  -30.3389  -11.3631   19.8850 H   0  0  0  0  0  0
  -29.7559  -11.7480   17.4684 H   0  0  0  0  0  0
  -29.6528  -13.4682   17.7465 H   0  0  0  0  0  0
  -27.8520  -11.2929   18.8596 H   0  0  0  0  0  0
  -27.3692  -12.5828   17.7910 H   0  0  0  0  0  0
  -27.6713  -14.2515   19.5217 H   0  0  0  0  0  0
  -28.6906  -12.0531   21.3886 H   0  0  0  0  0  0
  -28.4511  -13.7202   21.8334 H   0  0  0  0  0  0
  -25.2751   -9.5690   22.4758 H   0  0  0  0  0  0
  -23.9997   -7.4637   22.7475 H   0  0  0  0  0  0
  -21.0839   -8.8760   19.8943 H   0  0  0  0  0  0
  -22.3685  -10.9666   19.6162 H   0  0  0  0  0  0
  -21.2009   -7.6143   23.9713 H   0  0  0  0  0  0
  -21.1480   -6.0520   25.9073 H   0  0  0  0  0  0
  -22.0600   -2.7606   23.2846 H   0  0  0  0  0  0
  -22.4092  -11.9881   22.4798 H   0  0  0  0  0  0
  -21.1097  -13.1246   22.2614 H   0  0  0  0  0  0
  -24.6566  -15.8426   20.5112 H   0  0  0  0  0  0
  -26.2675  -15.6251   20.0544 H   0  0  0  0  0  0
  -26.7145  -32.5480   23.1105 H   0  0  0  0  0  0
  -25.0078  -33.9744   25.0440 H   0  0  0  0  0  0
  -22.7039  -31.3065   21.4047 H   0  0  0  0  0  0
  -23.3753  -35.9617   23.3312 H   0  0  0  0  0  0
  -24.3569  -36.8912   22.2045 H   0  0  0  0  0  0
  -23.7232  -37.6494   23.6656 H   0  0  0  0  0  0
  -26.0728  -31.5708   20.6001 H   0  0  0  0  0  0
  -26.8311  -30.8549   21.9926 H   0  0  0  0  0  0
  -28.1081  -29.0313   21.1584 H   0  0  0  0  0  0
  -25.9647  -25.9324   19.0289 H   0  0  0  0  0  0
  -23.9615  -27.2918   19.0462 H   0  0  0  0  0  0
  -23.7365  -30.5941   19.4041 H   0  0  0  0  0  0
  -22.7434  -29.2457   19.8624 H   0  0  0  0  0  0
  -25.1287  -36.1936   25.0824 H   0  0  0  0  0  0
  -20.9959  -28.3243   24.1424 H   0  0  0  0  0  0
  -20.5685  -26.2271   23.3601 H   0  0  0  0  0  0
  -21.6628  -26.7449   22.1192 H   0  0  0  0  0  0
  -19.6911  -25.6294   21.1241 H   0  0  0  0  0  0
  -19.6695  -27.3188   20.6744 H   0  0  0  0  0  0
  -17.4187  -26.6677   21.4029 H   0  0  0  0  0  0
  -18.0328  -26.0073   22.9017 H   0  0  0  0  0  0
  -19.7936  -30.7263   24.2266 H   0  0  0  0  0  0
  -17.5021  -31.6274   24.5157 H   0  0  0  0  0  0
  -15.5354  -30.2999   23.7669 H   0  0  0  0  0  0
  -15.8660  -28.0839   22.7071 H   0  0  0  0  0  0
  -24.5898  -30.7082   25.7787 H   0  0  0  0  0  0
  -24.8913  -32.2896   26.4871 H   0  0  0  0  0  0
  -25.8048  -30.8914   27.0232 H   0  0  0  0  0  0
  -26.2886  -29.6788   24.1174 H   0  0  0  0  0  0
  -27.4059  -29.7275   25.4624 H   0  0  0  0  0  0
  -27.8738  -30.4347   23.9333 H   0  0  0  0  0  0
  -27.2650  -33.3629   26.2066 H   0  0  0  0  0  0
  -28.3853  -32.6890   25.0322 H   0  0  0  0  0  0
  -28.0702  -31.8457   26.5419 H   0  0  0  0  0  0
  -28.2591  -38.0094   24.7514 H   0  0  0  0  0  0
  -28.1076  -36.2625   24.6298 H   0  0  0  0  0  0
  -27.2295  -37.1448   25.8873 H   0  0  0  0  0  0
  -20.9318  -29.8765   21.6928 H   0  0  0  0  0  0
  -26.0180  -38.2862   24.1419 H   0  0  0  0  0  0
  -28.3040  -17.8925   20.5342 H   0  0  0  0  0  0
  -32.4152  -16.7682   21.2478 H   0  0  0  0  0  0
  -27.9755  -24.8325   21.9338 H   0  0  0  0  0  0
  -31.0772  -21.8019   21.7342 H   0  0  0  0  0  0
  -31.9714  -21.5848   20.2122 H   0  0  0  0  0  0
  -32.6594  -21.0712   21.7391 H   0  0  0  0  0  0
  -26.7603  -21.3777   23.8609 H   0  0  0  0  0  0
  -26.6922  -20.9335   22.1613 H   0  0  0  0  0  0
  -26.1049  -22.5105   22.6840 H   0  0  0  0  0  0
  -27.7109  -24.8595   19.0578 H   0  0  0  0  0  0
  -29.3962  -24.9509   19.3881 H   0  0  0  0  0  0
  -28.4332  -23.1446   23.3880 H   0  0  0  0  0  0
  -29.0427  -21.6069   22.8655 H   0  0  0  0  0  0
  -29.8711  -22.0916   19.7630 H   0  0  0  0  0  0
  -28.2165  -22.0276   19.3362 H   0  0  0  0  0  0
  -28.9310  -15.4652   20.9984 H   0  0  0  0  0  0
  1 25  1  0  0  0
  1 30  2  0  0  0
  1 84  1  0  0  0
  2  3  1  0  0  0
  2 25  1  0  0  0
  2 86  1  0  0  0
  2 87  1  0  0  0
  3  4  1  0  0  0
  3 88  1  0  0  0
  3 89  1  0  0  0
  4  5  1  0  0  0
  4 90  1  0  0  0
  4 91  1  0  0  0
  5  6  1  0  0  0
  5 26  1  0  0  0
  5 92  1  0  0  0
  6 25  1  0  0  0
  6 93  1  0  0  0
  6 94  1  0  0  0
  7  8  2  0  0  0
  7 26  1  0  0  0
  7 29  1  0  0  0
  8  9  1  0  0  0
  8 22  1  0  0  0
  9 10  1  0  0  0
  9 27  2  0  0  0
 10 11  2  0  0  0
 10 15  1  0  0  0
 11 12  1  0  0  0
 11 95  1  0  0  0
 12 13  2  0  0  0
 12 96  1  0  0  0
 13 14  1  0  0  0
 13 31  1  0  0  0
 14 15  2  0  0  0
 14 97  1  0  0  0
 15 98  1  0  0  0
 16 17  2  0  0  0
 16 21  1  0  0  0
 16 31  1  0  0  0
 17 18  1  0  0  0
 17 99  1  0  0  0
 18 19  2  0  0  0
 18100  1  0  0  0
 19 20  1  0  0  0
 19 24  1  0  0  0
 20 21  2  0  0  0
 20101  1  0  0  0
 21 23  1  0  0  0
 22 28  1  0  0  0
 22 32  2  0  0  0
 26 27  1  0  0  0
 28102  1  0  0  0
 28103  1  0  0  0
 29104  1  0  0  0
 29105  1  0  0  0
 33 34  1  0  0  0
 33 66  1  0  0  0
 33 70  2  0  0  0
 34 36  1  0  0  0
 34 59  1  0  0  0
 34106  1  0  0  0
 35 44  2  0  0  0
 35 45  1  0  0  0
 35 68  1  0  0  0
 36 56  1  0  0  0
 36107  1  0  0  0
 37 39  1  0  0  0
 37 47  1  0  0  0
 37 66  1  0  0  0
 37108  1  0  0  0
 38 43  2  0  0  0
 38 46  1  0  0  0
 38 47  1  0  0  0
 39 64  1  0  0  0
 39 67  2  0  0  0
 40 52  1  0  0  0
 40 53  2  0  0  0
 40 58  1  0  0  0
 41109  1  0  0  0
 41110  1  0  0  0
 41111  1  0  0  0
 41 48  1  0  0  0
 42 43  1  0  0  0
 42 66  1  0  0  0
 42112  1  0  0  0
 42113  1  0  0  0
 43 44  1  0  0  0
 44114  1  0  0  0
 45 46  2  0  0  0
 45115  1  0  0  0
 46116  1  0  0  0
 47117  1  0  0  0
 47118  1  0  0  0
 48 56  1  0  0  0
 48 65  1  0  0  0
 48119  1  0  0  0
 49 50  1  0  0  0
 49 53  1  0  0  0
 49 64  1  0  0  0
 49120  1  0  0  0
 50 51  1  0  0  0
 50121  1  0  0  0
 50122  1  0  0  0
 51 52  1  0  0  0
 51123  1  0  0  0
 51124  1  0  0  0
 52125  1  0  0  0
 52126  1  0  0  0
 53 54  1  0  0  0
 54 55  2  0  0  0
 54127  1  0  0  0
 55 57  1  0  0  0
 55128  1  0  0  0
 56 69  2  0  0  0
 57 58  2  0  0  0
 57129  1  0  0  0
 58130  1  0  0  0
 59 60  1  0  0  0
 59 61  1  0  0  0
 59 62  1  0  0  0
 60131  1  0  0  0
 60132  1  0  0  0
 60133  1  0  0  0
 61134  1  0  0  0
 61135  1  0  0  0
 61136  1  0  0  0
 62137  1  0  0  0
 62138  1  0  0  0
 62139  1  0  0  0
 63 65  1  0  0  0
 63140  1  0  0  0
 63141  1  0  0  0
 63142  1  0  0  0
 64143  1  0  0  0
 65144  1  0  0  0
 68 80  1  0  0  0
 71 73  2  0  0  0
 71 74  1  0  0  0
 71145  1  0  0  0
 72 73  1  0  0  0
 72 83  2  0  0  0
 72146  1  0  0  0
 73 84  1  0  0  0
 74 75  2  0  0  0
 74 85  1  0  0  0
 75 78  1  0  0  0
 75 83  1  0  0  0
 76 77  2  0  0  0
 76 80  1  0  0  0
 76147  1  0  0  0
 77 81  1  0  0  0
 77 82  1  0  0  0
 78148  1  0  0  0
 78149  1  0  0  0
 78150  1  0  0  0
 79 81  1  0  0  0
 79151  1  0  0  0
 79152  1  0  0  0
 79153  1  0  0  0
 80154  1  0  0  0
 80155  1  0  0  0
 81156  1  0  0  0
 81157  1  0  0  0
 82 85  1  0  0  0
 82158  1  0  0  0
 82159  1  0  0  0
 84160  1  0  0  0
M  ISO  4   1 100  68 101  80 101  84 100
M  END
> <chiral flag>
0

> <version>
0

> <s_m_source_file>
/data/baiqing/PycharmProjects/Reinvent-master-3.2/result/LINK_invent/BTK/process_docking_weight1_custom_product_contain_oxygen_bond_distance_aromatic_linkinvent_7_9_3/rearranged_h_0128.sdf

> <i_m_source_file_index>
61

> <r_mmod_Potential_Energy-OPLS-2005>
-84.5642166137695

> <r_mmod_Stretch_Energy-OPLS-2005>
64.0558547973633

> <r_mmod_Bend_Energy-OPLS-2005>
157.090393066406

> <r_mmod_Torsional_Energy-OPLS-2005>
218.694000244141

> <r_mmod_Improper_Torsional_Energy-OPLS-2005>
5.2948956489563

> <r_mmod_Van_der_Waal_Energy-OPLS-2005>
156.675323486328

> <r_mmod_Electrostatic_Energy-OPLS-2005>
-501.098602294922

> <r_mmod_Solvation_Energy-OPLS-2005>
-215.867004394531

> <b_mmod_Minimization_Converged-OPLS-2005>
0

> <r_mmod_RMS_Derivative-OPLS-2005>
1.01225483417511

$$$$
61
                    3D
 Structure written by MMmdl.
164172  0  0  1  0            999 V2000
  -30.7274  -14.4319   20.6853 C   0  0  0  0  0  0
  -30.4311  -12.3266   19.4067 C   0  0  0  0  0  0
  -29.4950  -12.5380   18.2013 C   0  0  0  0  0  0
  -28.0166  -12.3906   18.6100 C   0  0  0  0  0  0
  -27.6681  -13.2094   19.8796 C   0  0  2  0  0  0
  -28.7049  -12.9556   20.9949 C   0  0  0  0  0  0
  -25.2656  -13.8134   20.5750 C   0  0  0  0  0  0
  -24.1924  -13.0427   20.9208 C   0  0  0  0  0  0
  -24.6441  -11.6877   20.8721 C   0  0  0  0  0  0
  -23.9066  -10.4296   21.0376 C   0  0  0  0  0  0
  -24.3620   -9.4234   21.9172 C   0  0  0  0  0  0
  -23.6321   -8.2251   22.0721 C   0  0  0  0  0  0
  -22.4291   -8.0273   21.3528 C   0  0  0  0  0  0
  -21.9926   -9.0235   20.4623 C   0  0  0  0  0  0
  -22.7217  -10.2133   20.3055 C   0  0  0  0  0  0
  -21.6845   -6.0773   22.5290 C   0  0  0  0  0  0
  -21.3997   -6.5678   23.8230 C   0  0  0  0  0  0
  -21.3659   -5.6809   24.9184 C   0  0  0  0  0  0
  -21.6053   -4.3072   24.7211 C   0  0  0  0  0  0
  -21.8809   -3.8185   23.4323 C   0  0  0  0  0  0
  -21.9201   -4.7014   22.3401 C   0  0  0  0  0  0
  -22.7950  -13.5229   21.1876 C   0  0  0  0  0  0
  -22.1685   -4.2242   21.0963 F   0  0  0  0  0  0
  -21.5643   -3.4526   25.7704 F   0  0  0  0  0  0
  -30.0398  -13.2769   20.4625 N   0  0  0  0  0  0
  -26.3101  -12.9330   20.3402 N   0  0  0  0  0  0
  -25.9372  -11.6478   20.5748 N   0  0  0  0  0  0
  -22.0573  -12.8215   22.0393 N   0  0  0  0  0  0
  -25.4358  -15.1870   20.4218 N   0  0  0  0  0  0
  -31.7524  -14.7124   20.0582 O   0  0  0  0  0  0
  -21.6637   -6.8887   21.4232 O   0  0  0  0  0  0
  -22.3631  -14.5523   20.6665 O   0  0  0  0  0  0
  -24.6241  -31.8612   23.2024 C   0  0  0  0  0  0
  -25.9087  -32.4798   23.8370 C   0  0  1  0  0  0
  -27.2439  -27.3955   20.1080 C   0  0  0  0  0  0
  -25.5882  -33.8595   24.2289 N   0  0  0  0  0  0
  -23.4165  -30.4803   21.5445 C   0  0  2  0  0  0
  -24.8612  -28.9390   20.1136 C   0  0  0  0  0  0
  -22.7475  -29.4605   22.4971 C   0  0  0  0  0  0
  -18.0289  -28.1380   22.8479 C   0  0  0  0  0  0
  -24.1459  -36.7343   23.2638 C   0  0  0  0  0  0
  -25.9477  -30.8146   21.3572 C   0  0  0  0  0  0
  -26.0236  -29.4470   20.7066 C   0  0  0  0  0  0
  -27.2191  -28.6875   20.6879 C   0  0  0  0  0  0
  -26.0668  -26.9183   19.4855 C   0  0  0  0  0  0
  -24.8812  -27.6782   19.4926 C   0  0  0  0  0  0
  -23.6262  -29.8093   20.1600 C   0  0  0  0  0  0
  -25.4079  -36.3118   24.0337 C   0  0  1  0  0  0
  -20.5882  -28.3677   23.1274 C   0  0  2  0  0  0
  -20.6754  -26.9405   22.5395 C   0  0  0  0  0  0
  -19.5725  -26.6371   21.5200 C   0  0  0  0  0  0
  -18.1915  -26.7914   22.1628 C   0  0  0  0  0  0
  -19.1541  -28.8849   23.2865 C   0  0  0  0  0  0
  -18.9468  -30.1444   23.8895 C   0  0  0  0  0  0
  -17.6467  -30.6583   24.0556 C   0  0  0  0  0  0
  -25.9015  -34.9477   23.5124 C   0  0  0  0  0  0
  -16.5356  -29.9085   23.6315 C   0  0  0  0  0  0
  -16.7273  -28.6495   23.0344 C   0  0  0  0  0  0
  -26.4461  -31.6619   25.0761 C   0  0  0  0  0  0
  -25.3711  -31.3762   26.1517 C   0  0  0  0  0  0
  -27.0268  -30.3047   24.6167 C   0  0  0  0  0  0
  -27.6028  -32.4351   25.7536 C   0  0  0  0  0  0
  -27.5569  -37.1818   24.8461 C   0  0  0  0  0  0
  -21.4192  -29.3031   22.3695 N   0  0  0  0  0  0
  -26.4271  -37.3809   23.9415 N   0  0  0  0  0  0
  -24.6824  -31.0682   22.0934 N   0  0  0  0  0  0
  -23.4209  -28.8165   23.3060 O   0  0  0  0  0  0
  -28.4008  -26.6310   20.1769 O   0  0  0  0  0  0
  -26.5612  -34.8945   22.4709 O   0  0  0  0  0  0
  -23.5405  -32.1379   23.7367 O   0  0  0  0  0  0
  -29.6357  -17.3044   19.3467 C   0  0  0  0  0  0
  -29.7781  -18.2822   18.3455 C   0  0  0  0  0  0
  -30.4675  -18.9013   20.9698 C   0  0  0  0  0  0
  -30.0062  -17.5964   20.6725 C   0  0  0  0  0  0
  -30.3163  -19.5648   18.6252 C   0  0  0  0  0  0
  -30.6400  -19.8977   19.9754 C   0  0  0  0  0  0
  -29.9618  -16.5894   21.7591 C   0  0  0  0  0  0
  -30.2142  -15.2563   21.7803 C   0  0  0  0  0  0
  -31.0569  -22.2679   20.4372 C   0  0  0  0  0  0
  -32.2047  -23.2130   20.7821 C   0  0  0  0  0  0
  -32.0665  -20.8590   17.2275 C   0  0  0  0  0  0
  -30.5865  -20.4761   17.4239 C   0  0  0  0  0  0
  -29.6696  -22.9292   20.2058 C   0  0  0  0  0  0
  -29.5112  -24.4285   20.6775 C   0  0  0  0  0  0
  -28.2577  -25.1877   20.1444 C   0  0  0  0  0  0
  -31.3893  -21.0297   20.3523 N   0  0  0  0  0  0
  -31.4710  -12.4456   19.0932 H   0  0  0  0  0  0
  -30.3515  -11.3047   19.7842 H   0  0  0  0  0  0
  -29.7435  -11.8309   17.4106 H   0  0  0  0  0  0
  -29.6563  -13.5305   17.7791 H   0  0  0  0  0  0
  -27.8106  -11.3333   18.7795 H   0  0  0  0  0  0
  -27.3757  -12.7021   17.7851 H   0  0  0  0  0  0
  -27.7130  -14.2646   19.6074 H   0  0  0  0  0  0
  -28.6877  -11.9089   21.2986 H   0  0  0  0  0  0
  -28.4285  -13.5160   21.8867 H   0  0  0  0  0  0
  -25.2769   -9.5760   22.4742 H   0  0  0  0  0  0
  -24.0066   -7.4655   22.7423 H   0  0  0  0  0  0
  -21.0873   -8.8716   19.8930 H   0  0  0  0  0  0
  -22.3639  -10.9663   19.6190 H   0  0  0  0  0  0
  -21.1931   -7.6178   23.9753 H   0  0  0  0  0  0
  -21.1521   -6.0536   25.9096 H   0  0  0  0  0  0
  -22.0576   -2.7657   23.2780 H   0  0  0  0  0  0
  -22.4163  -11.9882   22.4850 H   0  0  0  0  0  0
  -21.1182  -13.1266   22.2551 H   0  0  0  0  0  0
  -24.6698  -15.8382   20.5442 H   0  0  0  0  0  0
  -26.2932  -15.6295   20.1169 H   0  0  0  0  0  0
  -26.7191  -32.5469   23.1151 H   0  0  0  0  0  0
  -24.9985  -33.9724   25.0405 H   0  0  0  0  0  0
  -22.7108  -31.2998   21.3986 H   0  0  0  0  0  0
  -23.3710  -35.9688   23.3296 H   0  0  0  0  0  0
  -24.3547  -36.8975   22.2054 H   0  0  0  0  0  0
  -23.7218  -37.6551   23.6659 H   0  0  0  0  0  0
  -26.0647  -31.5687   20.5780 H   0  0  0  0  0  0
  -26.8352  -30.8670   21.9758 H   0  0  0  0  0  0
  -28.1224  -29.0774   21.1362 H   0  0  0  0  0  0
  -26.0466  -25.9607   18.9848 H   0  0  0  0  0  0
  -23.9928  -27.2868   19.0132 H   0  0  0  0  0  0
  -23.7493  -30.5817   19.4010 H   0  0  0  0  0  0
  -22.7500  -29.2345   19.8569 H   0  0  0  0  0  0
  -25.1247  -36.1981   25.0831 H   0  0  0  0  0  0
  -20.9964  -28.3232   24.1392 H   0  0  0  0  0  0
  -20.5604  -26.2319   23.3605 H   0  0  0  0  0  0
  -21.6625  -26.7388   22.1216 H   0  0  0  0  0  0
  -19.6876  -25.6276   21.1238 H   0  0  0  0  0  0
  -19.6640  -27.3171   20.6716 H   0  0  0  0  0  0
  -17.4170  -26.6644   21.4044 H   0  0  0  0  0  0
  -18.0331  -26.0067   22.9039 H   0  0  0  0  0  0
  -19.7944  -30.7245   24.2276 H   0  0  0  0  0  0
  -17.5024  -31.6255   24.5171 H   0  0  0  0  0  0
  -15.5355  -30.2987   23.7632 H   0  0  0  0  0  0
  -15.8671  -28.0800   22.7075 H   0  0  0  0  0  0
  -24.5875  -30.7102   25.7894 H   0  0  0  0  0  0
  -24.8909  -32.2925   26.4963 H   0  0  0  0  0  0
  -25.8061  -30.8965   27.0292 H   0  0  0  0  0  0
  -26.2812  -29.6867   24.1150 H   0  0  0  0  0  0
  -27.3933  -29.7244   25.4643 H   0  0  0  0  0  0
  -27.8701  -30.4363   23.9386 H   0  0  0  0  0  0
  -27.2633  -33.3644   26.2120 H   0  0  0  0  0  0
  -28.3837  -32.6920   25.0374 H   0  0  0  0  0  0
  -28.0692  -31.8481   26.5455 H   0  0  0  0  0  0
  -28.2597  -38.0107   24.7508 H   0  0  0  0  0  0
  -28.1049  -36.2645   24.6259 H   0  0  0  0  0  0
  -27.2308  -37.1458   25.8871 H   0  0  0  0  0  0
  -20.9418  -29.8787   21.6904 H   0  0  0  0  0  0
  -26.0163  -38.2893   24.1412 H   0  0  0  0  0  0
  -29.2508  -16.3281   19.0798 H   0  0  0  0  0  0
  -29.5125  -18.0018   17.3358 H   0  0  0  0  0  0
  -30.7662  -19.1166   21.9862 H   0  0  0  0  0  0
  -29.6346  -16.9975   22.7045 H   0  0  0  0  0  0
  -30.0575  -14.7613   22.7272 H   0  0  0  0  0  0
  -32.1119  -23.5955   21.7992 H   0  0  0  0  0  0
  -32.2606  -24.0481   20.0856 H   0  0  0  0  0  0
  -33.1630  -22.6958   20.7041 H   0  0  0  0  0  0
  -32.2485  -21.2960   16.2426 H   0  0  0  0  0  0
  -32.7088  -19.9843   17.3183 H   0  0  0  0  0  0
  -32.4033  -21.5887   17.9620 H   0  0  0  0  0  0
  -29.9551  -21.3611   17.4737 H   0  0  0  0  0  0
  -30.2615  -19.9505   16.5243 H   0  0  0  0  0  0
  -28.9016  -22.3103   20.6735 H   0  0  0  0  0  0
  -29.4778  -22.8890   19.1359 H   0  0  0  0  0  0
  -30.3679  -25.0098   20.3488 H   0  0  0  0  0  0
  -29.5259  -24.4828   21.7694 H   0  0  0  0  0  0
  -27.3946  -24.8780   20.7389 H   0  0  0  0  0  0
  -28.0676  -24.8898   19.1135 H   0  0  0  0  0  0
  1 25  1  0  0  0
  1 30  2  0  0  0
  1 78  1  0  0  0
  2  3  1  0  0  0
  2 25  1  0  0  0
  2 87  1  0  0  0
  2 88  1  0  0  0
  3  4  1  0  0  0
  3 89  1  0  0  0
  3 90  1  0  0  0
  4  5  1  0  0  0
  4 91  1  0  0  0
  4 92  1  0  0  0
  5  6  1  0  0  0
  5 26  1  0  0  0
  5 93  1  0  0  0
  6 25  1  0  0  0
  6 94  1  0  0  0
  6 95  1  0  0  0
  7  8  2  0  0  0
  7 26  1  0  0  0
  7 29  1  0  0  0
  8  9  1  0  0  0
  8 22  1  0  0  0
  9 10  1  0  0  0
  9 27  2  0  0  0
 10 11  2  0  0  0
 10 15  1  0  0  0
 11 12  1  0  0  0
 11 96  1  0  0  0
 12 13  2  0  0  0
 12 97  1  0  0  0
 13 14  1  0  0  0
 13 31  1  0  0  0
 14 15  2  0  0  0
 14 98  1  0  0  0
 15 99  1  0  0  0
 16 17  2  0  0  0
 16 21  1  0  0  0
 16 31  1  0  0  0
 17 18  1  0  0  0
 17100  1  0  0  0
 18 19  2  0  0  0
 18101  1  0  0  0
 19 20  1  0  0  0
 19 24  1  0  0  0
 20 21  2  0  0  0
 20102  1  0  0  0
 21 23  1  0  0  0
 22 28  1  0  0  0
 22 32  2  0  0  0
 26 27  1  0  0  0
 28103  1  0  0  0
 28104  1  0  0  0
 29105  1  0  0  0
 29106  1  0  0  0
 33 34  1  0  0  0
 33 66  1  0  0  0
 33 70  2  0  0  0
 34 36  1  0  0  0
 34 59  1  0  0  0
 34107  1  0  0  0
 35 44  2  0  0  0
 35 45  1  0  0  0
 35 68  1  0  0  0
 36 56  1  0  0  0
 36108  1  0  0  0
 37 39  1  0  0  0
 37 47  1  0  0  0
 37 66  1  0  0  0
 37109  1  0  0  0
 38 43  2  0  0  0
 38 46  1  0  0  0
 38 47  1  0  0  0
 39 64  1  0  0  0
 39 67  2  0  0  0
 40 52  1  0  0  0
 40 53  2  0  0  0
 40 58  1  0  0  0
 41110  1  0  0  0
 41111  1  0  0  0
 41112  1  0  0  0
 41 48  1  0  0  0
 42 43  1  0  0  0
 42 66  1  0  0  0
 42113  1  0  0  0
 42114  1  0  0  0
 43 44  1  0  0  0
 44115  1  0  0  0
 45 46  2  0  0  0
 45116  1  0  0  0
 46117  1  0  0  0
 47118  1  0  0  0
 47119  1  0  0  0
 48 56  1  0  0  0
 48 65  1  0  0  0
 48120  1  0  0  0
 49 50  1  0  0  0
 49 53  1  0  0  0
 49 64  1  0  0  0
 49121  1  0  0  0
 50 51  1  0  0  0
 50122  1  0  0  0
 50123  1  0  0  0
 51 52  1  0  0  0
 51124  1  0  0  0
 51125  1  0  0  0
 52126  1  0  0  0
 52127  1  0  0  0
 53 54  1  0  0  0
 54 55  2  0  0  0
 54128  1  0  0  0
 55 57  1  0  0  0
 55129  1  0  0  0
 56 69  2  0  0  0
 57 58  2  0  0  0
 57130  1  0  0  0
 58131  1  0  0  0
 59 60  1  0  0  0
 59 61  1  0  0  0
 59 62  1  0  0  0
 60132  1  0  0  0
 60133  1  0  0  0
 60134  1  0  0  0
 61135  1  0  0  0
 61136  1  0  0  0
 61137  1  0  0  0
 62138  1  0  0  0
 62139  1  0  0  0
 62140  1  0  0  0
 63 65  1  0  0  0
 63141  1  0  0  0
 63142  1  0  0  0
 63143  1  0  0  0
 64144  1  0  0  0
 65145  1  0  0  0
 68 85  1  0  0  0
 71 72  2  0  0  0
 71 74  1  0  0  0
 71146  1  0  0  0
 72 75  1  0  0  0
 72147  1  0  0  0
 73 74  2  0  0  0
 73 76  1  0  0  0
 73148  1  0  0  0
 74 77  1  0  0  0
 75 76  2  0  0  0
 75 82  1  0  0  0
 76 86  1  0  0  0
 77 78  2  0  0  0
 77149  1  0  0  0
 78150  1  0  0  0
 79 80  1  0  0  0
 79 83  1  0  0  0
 79 86  2  0  0  0
 80151  1  0  0  0
 80152  1  0  0  0
 80153  1  0  0  0
 81 82  1  0  0  0
 81154  1  0  0  0
 81155  1  0  0  0
 81156  1  0  0  0
 82157  1  0  0  0
 82158  1  0  0  0
 83 84  1  0  0  0
 83159  1  0  0  0
 83160  1  0  0  0
 84 85  1  0  0  0
 84161  1  0  0  0
 84162  1  0  0  0
 85163  1  0  0  0
 85164  1  0  0  0
M  ISO  4   1 100  68 101  78 100  85 101
M  END
> <chiral flag>
0

> <version>
0

> <s_m_source_file>
/data/baiqing/PycharmProjects/Reinvent-master-3.2/result/LINK_invent/BTK/process_docking_weight1_custom_product_contain_oxygen_bond_distance_aromatic_linkinvent_7_9_3/rearranged_h_0128.sdf

> <i_m_source_file_index>
62

> <r_mmod_Potential_Energy-OPLS-2005>
21.5260429382324

> <r_mmod_Stretch_Energy-OPLS-2005>
49.3295402526855

> <r_mmod_Bend_Energy-OPLS-2005>
150.384857177734

> <r_mmod_Torsional_Energy-OPLS-2005>
229.589599609375

> <r_mmod_Improper_Torsional_Energy-OPLS-2005>
4.82578277587891

> <r_mmod_Van_der_Waal_Energy-OPLS-2005>
151.407989501953

> <r_mmod_Electrostatic_Energy-OPLS-2005>
-380.728088378906

> <r_mmod_Solvation_Energy-OPLS-2005>
-198.656982421875

> <b_mmod_Minimization_Converged-OPLS-2005>
0

> <r_mmod_RMS_Derivative-OPLS-2005>
5.32375812530518

$$$$
62
                    3D
 Structure written by MMmdl.
150158  0  0  1  0            999 V2000
  -30.6248  -14.6240   20.5057 C   0  0  0  0  0  0
  -30.4355  -12.3844   19.4462 C   0  0  0  0  0  0
  -29.5063  -12.5139   18.2185 C   0  0  0  0  0  0
  -28.0249  -12.3644   18.6237 C   0  0  0  0  0  0
  -27.6536  -13.2179   19.8663 C   0  0  2  0  0  0
  -28.6991  -13.0537   20.9922 C   0  0  0  0  0  0
  -25.2553  -13.8179   20.5683 C   0  0  0  0  0  0
  -24.1825  -13.0438   20.9183 C   0  0  0  0  0  0
  -24.6394  -11.6912   20.8731 C   0  0  0  0  0  0
  -23.9056  -10.4298   21.0404 C   0  0  0  0  0  0
  -24.3617   -9.4214   21.9180 C   0  0  0  0  0  0
  -23.6289   -8.2249   22.0746 C   0  0  0  0  0  0
  -22.4272   -8.0285   21.3541 C   0  0  0  0  0  0
  -21.9900   -9.0259   20.4645 C   0  0  0  0  0  0
  -22.7222  -10.2144   20.3060 C   0  0  0  0  0  0
  -21.6861   -6.0734   22.5275 C   0  0  0  0  0  0
  -21.4024   -6.5644   23.8209 C   0  0  0  0  0  0
  -21.3655   -5.6791   24.9169 C   0  0  0  0  0  0
  -21.6044   -4.3054   24.7219 C   0  0  0  0  0  0
  -21.8819   -3.8141   23.4341 C   0  0  0  0  0  0
  -21.9196   -4.6961   22.3399 C   0  0  0  0  0  0
  -22.7844  -13.5233   21.1853 C   0  0  0  0  0  0
  -22.1660   -4.2147   21.0977 F   0  0  0  0  0  0
  -21.5622   -3.4537   25.7727 F   0  0  0  0  0  0
  -30.0158  -13.3988   20.4326 N   0  0  0  0  0  0
  -26.2986  -12.9360   20.3324 N   0  0  0  0  0  0
  -25.9323  -11.6510   20.5753 N   0  0  0  0  0  0
  -22.0493  -12.8236   22.0418 N   0  0  0  0  0  0
  -25.4248  -15.1902   20.4115 N   0  0  0  0  0  0
  -31.7829  -14.7881   20.1127 O   0  0  0  0  0  0
  -21.6644   -6.8875   21.4237 O   0  0  0  0  0  0
  -22.3528  -14.5540   20.6693 O   0  0  0  0  0  0
  -24.6253  -31.8617   23.2054 C   0  0  0  0  0  0
  -25.9103  -32.4786   23.8380 C   0  0  1  0  0  0
  -27.2125  -27.3195   20.1117 C   0  0  0  0  0  0
  -25.5925  -33.8589   24.2300 N   0  0  0  0  0  0
  -23.4184  -30.4876   21.5486 C   0  0  2  0  0  0
  -24.8624  -28.9491   20.1100 C   0  0  0  0  0  0
  -22.7470  -29.4626   22.4935 C   0  0  0  0  0  0
  -18.0292  -28.1375   22.8485 C   0  0  0  0  0  0
  -24.1483  -36.7296   23.2631 C   0  0  0  0  0  0
  -25.9614  -30.7915   21.3792 C   0  0  0  0  0  0
  -26.0333  -29.4211   20.7172 C   0  0  0  0  0  0
  -27.2126  -28.6176   20.7097 C   0  0  0  0  0  0
  -26.0168  -26.9052   19.4780 C   0  0  0  0  0  0
  -24.8562  -27.6971   19.4817 C   0  0  0  0  0  0
  -23.6330  -29.8310   20.1615 C   0  0  0  0  0  0
  -25.4100  -36.3082   24.0332 C   0  0  1  0  0  0
  -20.5890  -28.3679   23.1277 C   0  0  2  0  0  0
  -20.6775  -26.9400   22.5403 C   0  0  0  0  0  0
  -19.5752  -26.6371   21.5204 C   0  0  0  0  0  0
  -18.1940  -26.7912   22.1632 C   0  0  0  0  0  0
  -19.1543  -28.8842   23.2879 C   0  0  0  0  0  0
  -18.9465  -30.1442   23.8901 C   0  0  0  0  0  0
  -17.6465  -30.6576   24.0560 C   0  0  0  0  0  0
  -25.9048  -34.9454   23.5111 C   0  0  0  0  0  0
  -16.5357  -29.9077   23.6322 C   0  0  0  0  0  0
  -16.7280  -28.6493   23.0348 C   0  0  0  0  0  0
  -26.4484  -31.6596   25.0749 C   0  0  0  0  0  0
  -25.3723  -31.3766   26.1490 C   0  0  0  0  0  0
  -27.0319  -30.3012   24.6211 C   0  0  0  0  0  0
  -27.6057  -32.4325   25.7504 C   0  0  0  0  0  0
  -27.5597  -37.1768   24.8438 C   0  0  0  0  0  0
  -21.4186  -29.3036   22.3674 N   0  0  0  0  0  0
  -26.4268  -37.3790   23.9445 N   0  0  0  0  0  0
  -24.6872  -31.0624   22.1012 N   0  0  0  0  0  0
  -23.4197  -28.8154   23.3003 O   0  0  0  0  0  0
  -28.3192  -26.4577   20.1575 O   0  0  0  0  0  0
  -26.5612  -34.8917   22.4677 O   0  0  0  0  0  0
  -23.5415  -32.1428   23.7371 O   0  0  0  0  0  0
  -28.8122  -19.3407   21.0473 C   0  0  0  0  0  0
  -30.9590  -19.2343   19.9844 C   0  0  0  0  0  0
  -28.8259  -17.9210   21.1885 C   0  0  0  0  0  0
  -30.9744  -17.8140   20.1178 C   0  0  0  0  0  0
  -29.8861  -20.0458   20.4472 C   0  0  0  0  0  0
  -29.9036  -17.1132   20.7306 C   0  0  0  0  0  0
  -29.9400  -21.5577   20.2740 C   0  0  0  0  0  0
  -28.9945  -22.5278   20.4891 C   0  0  0  0  0  0
  -29.2331  -24.0184   20.2852 C   0  0  0  0  0  0
  -28.0194  -25.0045   20.1193 C   0  0  0  0  0  0
  -29.8201  -15.6619   20.8963 N   0  0  0  0  0  0
  -30.3764  -24.4855   20.2260 O   0  0  0  0  0  0
  -31.4766  -12.5100   19.1445 H   0  0  0  0  0  0
  -30.3686  -11.3850   19.8793 H   0  0  0  0  0  0
  -29.7643  -11.7635   17.4693 H   0  0  0  0  0  0
  -29.6604  -13.4842   17.7439 H   0  0  0  0  0  0
  -27.8402  -11.3100   18.8270 H   0  0  0  0  0  0
  -27.3810  -12.6285   17.7837 H   0  0  0  0  0  0
  -27.6750  -14.2580   19.5422 H   0  0  0  0  0  0
  -28.7076  -12.0256   21.3575 H   0  0  0  0  0  0
  -28.4484  -13.6720   21.8552 H   0  0  0  0  0  0
  -25.2773   -9.5686   22.4739 H   0  0  0  0  0  0
  -23.9999   -7.4647   22.7474 H   0  0  0  0  0  0
  -21.0821   -8.8781   19.8965 H   0  0  0  0  0  0
  -22.3677  -10.9683   19.6169 H   0  0  0  0  0  0
  -21.2030   -7.6153   23.9711 H   0  0  0  0  0  0
  -21.1471   -6.0523   25.9070 H   0  0  0  0  0  0
  -22.0603   -2.7600   23.2848 H   0  0  0  0  0  0
  -22.4122  -11.9913   22.4825 H   0  0  0  0  0  0
  -21.1115  -13.1272   22.2633 H   0  0  0  0  0  0
  -24.6548  -15.8417   20.5169 H   0  0  0  0  0  0
  -26.2663  -15.6300   20.0590 H   0  0  0  0  0  0
  -26.7174  -32.5453   23.1136 H   0  0  0  0  0  0
  -25.0070  -33.9744   25.0439 H   0  0  0  0  0  0
  -22.7112  -31.3078   21.4099 H   0  0  0  0  0  0
  -23.3758  -35.9611   23.3224 H   0  0  0  0  0  0
  -24.3606  -36.8986   22.2063 H   0  0  0  0  0  0
  -23.7201  -37.6465   23.6690 H   0  0  0  0  0  0
  -26.0976  -31.5578   20.6146 H   0  0  0  0  0  0
  -26.8398  -30.8354   22.0119 H   0  0  0  0  0  0
  -28.1095  -28.9710   21.1995 H   0  0  0  0  0  0
  -25.9408  -25.9572   18.9685 H   0  0  0  0  0  0
  -23.9601  -27.3350   18.9967 H   0  0  0  0  0  0
  -23.7542  -30.6133   19.4114 H   0  0  0  0  0  0
  -22.7521  -29.2652   19.8532 H   0  0  0  0  0  0
  -25.1259  -36.1928   25.0818 H   0  0  0  0  0  0
  -20.9986  -28.3252   24.1394 H   0  0  0  0  0  0
  -20.5664  -26.2289   23.3603 H   0  0  0  0  0  0
  -21.6644  -26.7419   22.1203 H   0  0  0  0  0  0
  -19.6908  -25.6276   21.1238 H   0  0  0  0  0  0
  -19.6682  -27.3178   20.6728 H   0  0  0  0  0  0
  -17.4193  -26.6632   21.4059 H   0  0  0  0  0  0
  -18.0369  -26.0066   22.9047 H   0  0  0  0  0  0
  -19.7941  -30.7252   24.2280 H   0  0  0  0  0  0
  -17.5020  -31.6255   24.5162 H   0  0  0  0  0  0
  -15.5357  -30.2981   23.7633 H   0  0  0  0  0  0
  -15.8687  -28.0806   22.7065 H   0  0  0  0  0  0
  -24.5843  -30.7177   25.7824 H   0  0  0  0  0  0
  -24.8988  -32.2958   26.4952 H   0  0  0  0  0  0
  -25.8036  -30.8899   27.0247 H   0  0  0  0  0  0
  -26.2900  -29.6774   24.1214 H   0  0  0  0  0  0
  -27.3986  -29.7259   25.4722 H   0  0  0  0  0  0
  -27.8784  -30.4291   23.9462 H   0  0  0  0  0  0
  -27.2680  -33.3629   26.2083 H   0  0  0  0  0  0
  -28.3861  -32.6881   25.0321 H   0  0  0  0  0  0
  -28.0731  -31.8454   26.5421 H   0  0  0  0  0  0
  -28.2503  -38.0173   24.7638 H   0  0  0  0  0  0
  -28.1201  -36.2717   24.6043 H   0  0  0  0  0  0
  -27.2354  -37.1147   25.8841 H   0  0  0  0  0  0
  -20.9345  -29.8794   21.6927 H   0  0  0  0  0  0
  -26.0138  -38.2837   24.1551 H   0  0  0  0  0  0
  -27.9585  -19.8896   21.4184 H   0  0  0  0  0  0
  -31.8060  -19.7071   19.5070 H   0  0  0  0  0  0
  -27.9741  -17.4517   21.6606 H   0  0  0  0  0  0
  -31.8288  -17.2760   19.7341 H   0  0  0  0  0  0
  -30.9012  -21.9145   19.9279 H   0  0  0  0  0  0
  -28.0103  -22.2418   20.8288 H   0  0  0  0  0  0
  -27.2730  -24.7659   20.8795 H   0  0  0  0  0  0
  -27.5773  -24.7511   19.1556 H   0  0  0  0  0  0
  -28.9371  -15.3372   21.2593 H   0  0  0  0  0  0
  1 25  1  0  0  0
  1 30  2  0  0  0
  1 81  1  0  0  0
  2  3  1  0  0  0
  2 25  1  0  0  0
  2 83  1  0  0  0
  2 84  1  0  0  0
  3  4  1  0  0  0
  3 85  1  0  0  0
  3 86  1  0  0  0
  4  5  1  0  0  0
  4 87  1  0  0  0
  4 88  1  0  0  0
  5  6  1  0  0  0
  5 26  1  0  0  0
  5 89  1  0  0  0
  6 25  1  0  0  0
  6 90  1  0  0  0
  6 91  1  0  0  0
  7  8  2  0  0  0
  7 26  1  0  0  0
  7 29  1  0  0  0
  8  9  1  0  0  0
  8 22  1  0  0  0
  9 10  1  0  0  0
  9 27  2  0  0  0
 10 11  2  0  0  0
 10 15  1  0  0  0
 11 12  1  0  0  0
 11 92  1  0  0  0
 12 13  2  0  0  0
 12 93  1  0  0  0
 13 14  1  0  0  0
 13 31  1  0  0  0
 14 15  2  0  0  0
 14 94  1  0  0  0
 15 95  1  0  0  0
 16 17  2  0  0  0
 16 21  1  0  0  0
 16 31  1  0  0  0
 17 18  1  0  0  0
 17 96  1  0  0  0
 18 19  2  0  0  0
 18 97  1  0  0  0
 19 20  1  0  0  0
 19 24  1  0  0  0
 20 21  2  0  0  0
 20 98  1  0  0  0
 21 23  1  0  0  0
 22 28  1  0  0  0
 22 32  2  0  0  0
 26 27  1  0  0  0
 28 99  1  0  0  0
 28100  1  0  0  0
 29101  1  0  0  0
 29102  1  0  0  0
 33 34  1  0  0  0
 33 66  1  0  0  0
 33 70  2  0  0  0
 34 36  1  0  0  0
 34 59  1  0  0  0
 34103  1  0  0  0
 35 44  2  0  0  0
 35 45  1  0  0  0
 35 68  1  0  0  0
 36 56  1  0  0  0
 36104  1  0  0  0
 37 39  1  0  0  0
 37 47  1  0  0  0
 37 66  1  0  0  0
 37105  1  0  0  0
 38 43  2  0  0  0
 38 46  1  0  0  0
 38 47  1  0  0  0
 39 64  1  0  0  0
 39 67  2  0  0  0
 40 52  1  0  0  0
 40 53  2  0  0  0
 40 58  1  0  0  0
 41106  1  0  0  0
 41107  1  0  0  0
 41108  1  0  0  0
 41 48  1  0  0  0
 42 43  1  0  0  0
 42 66  1  0  0  0
 42109  1  0  0  0
 42110  1  0  0  0
 43 44  1  0  0  0
 44111  1  0  0  0
 45 46  2  0  0  0
 45112  1  0  0  0
 46113  1  0  0  0
 47114  1  0  0  0
 47115  1  0  0  0
 48 56  1  0  0  0
 48 65  1  0  0  0
 48116  1  0  0  0
 49 50  1  0  0  0
 49 53  1  0  0  0
 49 64  1  0  0  0
 49117  1  0  0  0
 50 51  1  0  0  0
 50118  1  0  0  0
 50119  1  0  0  0
 51 52  1  0  0  0
 51120  1  0  0  0
 51121  1  0  0  0
 52122  1  0  0  0
 52123  1  0  0  0
 53 54  1  0  0  0
 54 55  2  0  0  0
 54124  1  0  0  0
 55 57  1  0  0  0
 55125  1  0  0  0
 56 69  2  0  0  0
 57 58  2  0  0  0
 57126  1  0  0  0
 58127  1  0  0  0
 59 60  1  0  0  0
 59 61  1  0  0  0
 59 62  1  0  0  0
 60128  1  0  0  0
 60129  1  0  0  0
 60130  1  0  0  0
 61131  1  0  0  0
 61132  1  0  0  0
 61133  1  0  0  0
 62134  1  0  0  0
 62135  1  0  0  0
 62136  1  0  0  0
 63 65  1  0  0  0
 63137  1  0  0  0
 63138  1  0  0  0
 63139  1  0  0  0
 64140  1  0  0  0
 65141  1  0  0  0
 68 80  1  0  0  0
 71 73  2  0  0  0
 71 75  1  0  0  0
 71142  1  0  0  0
 72 74  1  0  0  0
 72 75  2  0  0  0
 72143  1  0  0  0
 73 76  1  0  0  0
 73144  1  0  0  0
 74 76  2  0  0  0
 74145  1  0  0  0
 75 77  1  0  0  0
 76 81  1  0  0  0
 77 78  2  0  0  0
 77146  1  0  0  0
 78 79  1  0  0  0
 78147  1  0  0  0
 79 80  1  0  0  0
 79 82  2  0  0  0
 80148  1  0  0  0
 80149  1  0  0  0
 81150  1  0  0  0
M  ISO  4   1 100  68 101  80 101  81 100
M  END
> <chiral flag>
0

> <version>
0

> <s_m_source_file>
/data/baiqing/PycharmProjects/Reinvent-master-3.2/result/LINK_invent/BTK/process_docking_weight1_custom_product_contain_oxygen_bond_distance_aromatic_linkinvent_7_9_3/rearranged_h_0128.sdf

> <i_m_source_file_index>
63

> <r_mmod_Potential_Energy-OPLS-2005>
23.8420696258545

> <r_mmod_Stretch_Energy-OPLS-2005>
74.4892730712891

> <r_mmod_Bend_Energy-OPLS-2005>
126.707992553711

> <r_mmod_Torsional_Energy-OPLS-2005>
212.977691650391

> <r_mmod_Improper_Torsional_Energy-OPLS-2005>
3.77723622322083

> <r_mmod_Van_der_Waal_Energy-OPLS-2005>
147.550506591797

> <r_mmod_Electrostatic_Energy-OPLS-2005>
-355.719909667969

> <r_mmod_Solvation_Energy-OPLS-2005>
-232.577606201172

> <b_mmod_Minimization_Converged-OPLS-2005>
0

> <r_mmod_RMS_Derivative-OPLS-2005>
1.78848600387573

$$$$
63
                    3D
 Structure written by MMmdl.
155163  0  0  1  0            999 V2000
  -30.6419  -14.5742   20.4948 C   0  0  0  0  0  0
  -30.4290  -12.3463   19.4492 C   0  0  0  0  0  0
  -29.5085  -12.5050   18.2183 C   0  0  0  0  0  0
  -28.0236  -12.3585   18.6152 C   0  0  0  0  0  0
  -27.6523  -13.2091   19.8593 C   0  0  2  0  0  0
  -28.6930  -13.0276   20.9866 C   0  0  0  0  0  0
  -25.2561  -13.8161   20.5627 C   0  0  0  0  0  0
  -24.1834  -13.0432   20.9187 C   0  0  0  0  0  0
  -24.6399  -11.6903   20.8744 C   0  0  0  0  0  0
  -23.9065  -10.4296   21.0426 C   0  0  0  0  0  0
  -24.3630   -9.4203   21.9189 C   0  0  0  0  0  0
  -23.6306   -8.2238   22.0753 C   0  0  0  0  0  0
  -22.4279   -8.0291   21.3551 C   0  0  0  0  0  0
  -21.9919   -9.0264   20.4645 C   0  0  0  0  0  0
  -22.7252  -10.2140   20.3059 C   0  0  0  0  0  0
  -21.6842   -6.0745   22.5288 C   0  0  0  0  0  0
  -21.4004   -6.5641   23.8225 C   0  0  0  0  0  0
  -21.3657   -5.6793   24.9183 C   0  0  0  0  0  0
  -21.6052   -4.3056   24.7231 C   0  0  0  0  0  0
  -21.8813   -3.8151   23.4346 C   0  0  0  0  0  0
  -21.9183   -4.6974   22.3405 C   0  0  0  0  0  0
  -22.7855  -13.5231   21.1855 C   0  0  0  0  0  0
  -22.1651   -4.2163   21.0984 F   0  0  0  0  0  0
  -21.5634   -3.4531   25.7738 F   0  0  0  0  0  0
  -30.0157  -13.3586   20.4375 N   0  0  0  0  0  0
  -26.2974  -12.9320   20.3256 N   0  0  0  0  0  0
  -25.9319  -11.6482   20.5741 N   0  0  0  0  0  0
  -22.0493  -12.8234   22.0419 N   0  0  0  0  0  0
  -25.4257  -15.1872   20.3985 N   0  0  0  0  0  0
  -31.8216  -14.6913   20.1477 O   0  0  0  0  0  0
  -21.6628   -6.8896   21.4254 O   0  0  0  0  0  0
  -22.3536  -14.5526   20.6689 O   0  0  0  0  0  0
  -24.6191  -31.8633   23.2042 C   0  0  0  0  0  0
  -25.9058  -32.4800   23.8357 C   0  0  1  0  0  0
  -27.2287  -27.3880   20.1150 C   0  0  0  0  0  0
  -25.5881  -33.8600   24.2277 N   0  0  0  0  0  0
  -23.4100  -30.4842   21.5471 C   0  0  2  0  0  0
  -24.8573  -28.9429   20.1144 C   0  0  0  0  0  0
  -22.7438  -29.4623   22.4971 C   0  0  0  0  0  0
  -18.0274  -28.1383   22.8491 C   0  0  0  0  0  0
  -24.1486  -36.7322   23.2639 C   0  0  0  0  0  0
  -25.9426  -30.8174   21.3615 C   0  0  0  0  0  0
  -26.0209  -29.4484   20.7096 C   0  0  0  0  0  0
  -27.2150  -28.6822   20.6977 C   0  0  0  0  0  0
  -26.0498  -26.9085   19.5078 C   0  0  0  0  0  0
  -24.8685  -27.6752   19.5067 C   0  0  0  0  0  0
  -23.6200  -29.8132   20.1636 C   0  0  0  0  0  0
  -25.4109  -36.3099   24.0325 C   0  0  1  0  0  0
  -20.5869  -28.3666   23.1313 C   0  0  2  0  0  0
  -20.6762  -26.9398   22.5422 C   0  0  0  0  0  0
  -19.5742  -26.6382   21.5218 C   0  0  0  0  0  0
  -18.1920  -26.7932   22.1627 C   0  0  0  0  0  0
  -19.1524  -28.8844   23.2898 C   0  0  0  0  0  0
  -18.9454  -30.1452   23.8907 C   0  0  0  0  0  0
  -17.6454  -30.6589   24.0571 C   0  0  0  0  0  0
  -25.9037  -34.9469   23.5105 C   0  0  0  0  0  0
  -16.5344  -29.9091   23.6332 C   0  0  0  0  0  0
  -16.7263  -28.6510   23.0347 C   0  0  0  0  0  0
  -26.4456  -31.6594   25.0709 C   0  0  0  0  0  0
  -25.3695  -31.3726   26.1436 C   0  0  0  0  0  0
  -27.0279  -30.3023   24.6112 C   0  0  0  0  0  0
  -27.6013  -32.4319   25.7493 C   0  0  0  0  0  0
  -27.5577  -37.1818   24.8459 C   0  0  0  0  0  0
  -21.4157  -29.3030   22.3720 N   0  0  0  0  0  0
  -26.4295  -37.3782   23.9395 N   0  0  0  0  0  0
  -24.6759  -31.0696   22.0962 N   0  0  0  0  0  0
  -23.4187  -28.8170   23.3037 O   0  0  0  0  0  0
  -28.3598  -26.5888   20.1171 O   0  0  0  0  0  0
  -26.5624  -34.8930   22.4683 O   0  0  0  0  0  0
  -23.5370  -32.1398   23.7404 O   0  0  0  0  0  0
  -27.9913  -18.2849   20.5685 C   0  0  0  0  0  0
  -30.0247  -19.5692   20.8374 C   0  0  0  0  0  0
  -27.8869  -20.7262   20.8260 C   0  0  0  0  0  0
  -29.4006  -18.3013   20.6576 C   0  0  0  0  0  0
  -27.2425  -19.4815   20.6428 C   0  0  0  0  0  0
  -29.2943  -20.7937   20.9234 C   0  0  0  0  0  0
  -30.2071  -17.0351   20.5796 C   0  0  0  0  0  0
  -29.7732  -15.7505   20.7426 C   0  0  0  0  0  0
  -29.7751  -23.2267   21.0396 C   0  0  0  0  0  0
  -25.7305  -19.4203   20.5438 C   0  0  0  0  0  0
  -28.7479  -24.0298   20.2062 C   0  0  0  0  0  0
  -28.2630  -25.3612   20.8957 C   0  0  0  0  0  0
  -30.0080  -21.9707   21.2561 N   0  0  0  0  0  0
  -31.4760  -12.4465   19.1571 H   0  0  0  0  0  0
  -30.3346  -11.3453   19.8730 H   0  0  0  0  0  0
  -29.7688  -11.7694   17.4561 H   0  0  0  0  0  0
  -29.6715  -13.4839   17.7642 H   0  0  0  0  0  0
  -27.8350  -11.3031   18.8144 H   0  0  0  0  0  0
  -27.3839  -12.6268   17.7735 H   0  0  0  0  0  0
  -27.6770  -14.2481   19.5337 H   0  0  0  0  0  0
  -28.6884  -11.9957   21.3416 H   0  0  0  0  0  0
  -28.4488  -13.6306   21.8615 H   0  0  0  0  0  0
  -25.2790   -9.5653   22.4746 H   0  0  0  0  0  0
  -24.0003   -7.4618   22.7463 H   0  0  0  0  0  0
  -21.0847   -8.8809   19.8951 H   0  0  0  0  0  0
  -22.3747  -10.9684   19.6156 H   0  0  0  0  0  0
  -21.1990   -7.6146   23.9733 H   0  0  0  0  0  0
  -21.1486   -6.0517   25.9089 H   0  0  0  0  0  0
  -22.0592   -2.7614   23.2844 H   0  0  0  0  0  0
  -22.4101  -11.9900   22.4818 H   0  0  0  0  0  0
  -21.1115  -13.1273   22.2612 H   0  0  0  0  0  0
  -24.6544  -15.8385   20.4922 H   0  0  0  0  0  0
  -26.2615  -15.6126   20.0226 H   0  0  0  0  0  0
  -26.7137  -32.5488   23.1127 H   0  0  0  0  0  0
  -24.9981  -33.9757   25.0385 H   0  0  0  0  0  0
  -22.7013  -31.3028   21.4051 H   0  0  0  0  0  0
  -23.3729  -35.9675   23.3314 H   0  0  0  0  0  0
  -24.3572  -36.8929   22.2051 H   0  0  0  0  0  0
  -23.7269  -37.6543   23.6654 H   0  0  0  0  0  0
  -26.0575  -31.5796   20.5898 H   0  0  0  0  0  0
  -26.8307  -30.8730   21.9798 H   0  0  0  0  0  0
  -28.1162  -29.0697   21.1520 H   0  0  0  0  0  0
  -26.0446  -25.9335   19.0404 H   0  0  0  0  0  0
  -23.9746  -27.2800   19.0427 H   0  0  0  0  0  0
  -23.7300  -30.5865   19.4028 H   0  0  0  0  0  0
  -22.7438  -29.2330   19.8688 H   0  0  0  0  0  0
  -25.1294  -36.1957   25.0819 H   0  0  0  0  0  0
  -20.9957  -28.3235   24.1433 H   0  0  0  0  0  0
  -20.5659  -26.2276   23.3612 H   0  0  0  0  0  0
  -21.6635  -26.7436   22.1220 H   0  0  0  0  0  0
  -19.6899  -25.6294   21.1245 H   0  0  0  0  0  0
  -19.6687  -27.3198   20.6754 H   0  0  0  0  0  0
  -17.4190  -26.6675   21.4029 H   0  0  0  0  0  0
  -18.0322  -26.0079   22.9028 H   0  0  0  0  0  0
  -19.7928  -30.7268   24.2275 H   0  0  0  0  0  0
  -17.5010  -31.6272   24.5173 H   0  0  0  0  0  0
  -15.5346  -30.2997   23.7655 H   0  0  0  0  0  0
  -15.8659  -28.0840   22.7047 H   0  0  0  0  0  0
  -24.5867  -30.7078   25.7765 H   0  0  0  0  0  0
  -24.8892  -32.2901   26.4852 H   0  0  0  0  0  0
  -25.8019  -30.8910   27.0213 H   0  0  0  0  0  0
  -26.2845  -29.6821   24.1089 H   0  0  0  0  0  0
  -27.3947  -29.7220   25.4588 H   0  0  0  0  0  0
  -27.8721  -30.4324   23.9334 H   0  0  0  0  0  0
  -27.2606  -33.3605   26.2087 H   0  0  0  0  0  0
  -28.3825  -32.6898   25.0331 H   0  0  0  0  0  0
  -28.0674  -31.8431   26.5404 H   0  0  0  0  0  0
  -28.2598  -38.0108   24.7480 H   0  0  0  0  0  0
  -28.1066  -36.2638   24.6310 H   0  0  0  0  0  0
  -27.2294  -37.1504   25.8861 H   0  0  0  0  0  0
  -20.9320  -29.8759   21.6945 H   0  0  0  0  0  0
  -26.0176  -38.2860   24.1378 H   0  0  0  0  0  0
  -27.4688  -17.3509   20.4301 H   0  0  0  0  0  0
  -31.1005  -19.5992   20.9397 H   0  0  0  0  0  0
  -27.2827  -21.6132   20.9422 H   0  0  0  0  0  0
  -31.2467  -17.1833   20.3169 H   0  0  0  0  0  0
  -28.7458  -15.6116   21.0279 H   0  0  0  0  0  0
  -30.4776  -23.9247   21.5028 H   0  0  0  0  0  0
  -25.4255  -18.8406   19.6712 H   0  0  0  0  0  0
  -25.2988  -20.4179   20.4504 H   0  0  0  0  0  0
  -25.3082  -18.9495   21.4326 H   0  0  0  0  0  0
  -27.8971  -23.4124   19.9286 H   0  0  0  0  0  0
  -29.2388  -24.2902   19.2687 H   0  0  0  0  0  0
  -28.8503  -25.5475   21.7962 H   0  0  0  0  0  0
  -27.2481  -25.2054   21.2673 H   0  0  0  0  0  0
  1 25  1  0  0  0
  1 30  2  0  0  0
  1 78  1  0  0  0
  2  3  1  0  0  0
  2 25  1  0  0  0
  2 84  1  0  0  0
  2 85  1  0  0  0
  3  4  1  0  0  0
  3 86  1  0  0  0
  3 87  1  0  0  0
  4  5  1  0  0  0
  4 88  1  0  0  0
  4 89  1  0  0  0
  5  6  1  0  0  0
  5 26  1  0  0  0
  5 90  1  0  0  0
  6 25  1  0  0  0
  6 91  1  0  0  0
  6 92  1  0  0  0
  7  8  2  0  0  0
  7 26  1  0  0  0
  7 29  1  0  0  0
  8  9  1  0  0  0
  8 22  1  0  0  0
  9 10  1  0  0  0
  9 27  2  0  0  0
 10 11  2  0  0  0
 10 15  1  0  0  0
 11 12  1  0  0  0
 11 93  1  0  0  0
 12 13  2  0  0  0
 12 94  1  0  0  0
 13 14  1  0  0  0
 13 31  1  0  0  0
 14 15  2  0  0  0
 14 95  1  0  0  0
 15 96  1  0  0  0
 16 17  2  0  0  0
 16 21  1  0  0  0
 16 31  1  0  0  0
 17 18  1  0  0  0
 17 97  1  0  0  0
 18 19  2  0  0  0
 18 98  1  0  0  0
 19 20  1  0  0  0
 19 24  1  0  0  0
 20 21  2  0  0  0
 20 99  1  0  0  0
 21 23  1  0  0  0
 22 28  1  0  0  0
 22 32  2  0  0  0
 26 27  1  0  0  0
 28100  1  0  0  0
 28101  1  0  0  0
 29102  1  0  0  0
 29103  1  0  0  0
 33 34  1  0  0  0
 33 66  1  0  0  0
 33 70  2  0  0  0
 34 36  1  0  0  0
 34 59  1  0  0  0
 34104  1  0  0  0
 35 44  2  0  0  0
 35 45  1  0  0  0
 35 68  1  0  0  0
 36 56  1  0  0  0
 36105  1  0  0  0
 37 39  1  0  0  0
 37 47  1  0  0  0
 37 66  1  0  0  0
 37106  1  0  0  0
 38 43  2  0  0  0
 38 46  1  0  0  0
 38 47  1  0  0  0
 39 64  1  0  0  0
 39 67  2  0  0  0
 40 52  1  0  0  0
 40 53  2  0  0  0
 40 58  1  0  0  0
 41107  1  0  0  0
 41108  1  0  0  0
 41109  1  0  0  0
 41 48  1  0  0  0
 42 43  1  0  0  0
 42 66  1  0  0  0
 42110  1  0  0  0
 42111  1  0  0  0
 43 44  1  0  0  0
 44112  1  0  0  0
 45 46  2  0  0  0
 45113  1  0  0  0
 46114  1  0  0  0
 47115  1  0  0  0
 47116  1  0  0  0
 48 56  1  0  0  0
 48 65  1  0  0  0
 48117  1  0  0  0
 49 50  1  0  0  0
 49 53  1  0  0  0
 49 64  1  0  0  0
 49118  1  0  0  0
 50 51  1  0  0  0
 50119  1  0  0  0
 50120  1  0  0  0
 51 52  1  0  0  0
 51121  1  0  0  0
 51122  1  0  0  0
 52123  1  0  0  0
 52124  1  0  0  0
 53 54  1  0  0  0
 54 55  2  0  0  0
 54125  1  0  0  0
 55 57  1  0  0  0
 55126  1  0  0  0
 56 69  2  0  0  0
 57 58  2  0  0  0
 57127  1  0  0  0
 58128  1  0  0  0
 59 60  1  0  0  0
 59 61  1  0  0  0
 59 62  1  0  0  0
 60129  1  0  0  0
 60130  1  0  0  0
 60131  1  0  0  0
 61132  1  0  0  0
 61133  1  0  0  0
 61134  1  0  0  0
 62135  1  0  0  0
 62136  1  0  0  0
 62137  1  0  0  0
 63 65  1  0  0  0
 63138  1  0  0  0
 63139  1  0  0  0
 63140  1  0  0  0
 64141  1  0  0  0
 65142  1  0  0  0
 68 82  1  0  0  0
 71 74  2  0  0  0
 71 75  1  0  0  0
 71143  1  0  0  0
 72 74  1  0  0  0
 72 76  2  0  0  0
 72144  1  0  0  0
 73 75  2  0  0  0
 73 76  1  0  0  0
 73145  1  0  0  0
 74 77  1  0  0  0
 75 80  1  0  0  0
 76 83  1  0  0  0
 77 78  2  0  0  0
 77146  1  0  0  0
 78147  1  0  0  0
 79 81  1  0  0  0
 79 83  2  0  0  0
 79148  1  0  0  0
 80149  1  0  0  0
 80150  1  0  0  0
 80151  1  0  0  0
 81 82  1  0  0  0
 81152  1  0  0  0
 81153  1  0  0  0
 82154  1  0  0  0
 82155  1  0  0  0
M  ISO  4   1 100  68 101  78 100  82 101
M  END
> <chiral flag>
0

> <version>
0

> <s_m_source_file>
/data/baiqing/PycharmProjects/Reinvent-master-3.2/result/LINK_invent/BTK/process_docking_weight1_custom_product_contain_oxygen_bond_distance_aromatic_linkinvent_7_9_3/rearranged_h_0128.sdf

> <i_m_source_file_index>
64

> <r_mmod_Potential_Energy-OPLS-2005>
57.8297958374023

> <r_mmod_Stretch_Energy-OPLS-2005>
54.1774024963379

> <r_mmod_Bend_Energy-OPLS-2005>
145.82958984375

> <r_mmod_Torsional_Energy-OPLS-2005>
223.15299987793

> <r_mmod_Improper_Torsional_Energy-OPLS-2005>
6.9485182762146

> <r_mmod_Van_der_Waal_Energy-OPLS-2005>
147.889205932617

> <r_mmod_Electrostatic_Energy-OPLS-2005>
-345.614349365234

> <r_mmod_Solvation_Energy-OPLS-2005>
-202.219024658203

> <b_mmod_Minimization_Converged-OPLS-2005>
0

> <r_mmod_RMS_Derivative-OPLS-2005>
1.70975744724274

$$$$
64
                    3D
 Structure written by MMmdl.
158166  0  0  1  0            999 V2000
  -30.5332  -14.7525   20.4566 C   0  0  0  0  0  0
  -30.3975  -12.4513   19.4904 C   0  0  0  0  0  0
  -29.4999  -12.5148   18.2380 C   0  0  0  0  0  0
  -28.0268  -12.3142   18.6393 C   0  0  0  0  0  0
  -27.6223  -13.2196   19.8376 C   0  0  2  0  0  0
  -28.6434  -13.1730   20.9858 C   0  0  0  0  0  0
  -25.2490  -13.8190   20.5696 C   0  0  0  0  0  0
  -24.1774  -13.0383   20.9219 C   0  0  0  0  0  0
  -24.6370  -11.6888   20.8772 C   0  0  0  0  0  0
  -23.9056  -10.4277   21.0420 C   0  0  0  0  0  0
  -24.3639   -9.4213   21.9181 C   0  0  0  0  0  0
  -23.6315   -8.2246   22.0768 C   0  0  0  0  0  0
  -22.4305   -8.0274   21.3549 C   0  0  0  0  0  0
  -21.9913   -9.0237   20.4670 C   0  0  0  0  0  0
  -22.7219  -10.2131   20.3071 C   0  0  0  0  0  0
  -21.6866   -6.0748   22.5276 C   0  0  0  0  0  0
  -21.3983   -6.5659   23.8196 C   0  0  0  0  0  0
  -21.3665   -5.6817   24.9161 C   0  0  0  0  0  0
  -21.6044   -4.3085   24.7214 C   0  0  0  0  0  0
  -21.8821   -3.8176   23.4335 C   0  0  0  0  0  0
  -21.9206   -4.6979   22.3386 C   0  0  0  0  0  0
  -22.7842  -13.5230   21.1854 C   0  0  0  0  0  0
  -22.1677   -4.2167   21.0964 F   0  0  0  0  0  0
  -21.5640   -3.4575   25.7727 F   0  0  0  0  0  0
  -29.9408  -13.5163   20.4088 N   0  0  0  0  0  0
  -26.2808  -12.9328   20.3172 N   0  0  0  0  0  0
  -25.9256  -11.6487   20.5697 N   0  0  0  0  0  0
  -22.0486  -12.8205   22.0460 N   0  0  0  0  0  0
  -25.4218  -15.1901   20.4100 N   0  0  0  0  0  0
  -31.7188  -14.8748   20.1278 O   0  0  0  0  0  0
  -21.6660   -6.8878   21.4246 O   0  0  0  0  0  0
  -22.3564  -14.5507   20.6695 O   0  0  0  0  0  0
  -24.6405  -31.8553   23.2027 C   0  0  0  0  0  0
  -25.9234  -32.4732   23.8349 C   0  0  1  0  0  0
  -27.1474  -27.2065   20.1020 C   0  0  0  0  0  0
  -25.6012  -33.8537   24.2232 N   0  0  0  0  0  0
  -23.4277  -30.4917   21.5546 C   0  0  2  0  0  0
  -24.8464  -28.9356   20.1097 C   0  0  0  0  0  0
  -22.7508  -29.4646   22.4959 C   0  0  0  0  0  0
  -18.0325  -28.1326   22.8490 C   0  0  0  0  0  0
  -24.1494  -36.7272   23.2625 C   0  0  0  0  0  0
  -25.9834  -30.7460   21.3851 C   0  0  0  0  0  0
  -26.0323  -29.3751   20.7065 C   0  0  0  0  0  0
  -27.1891  -28.5257   20.6868 C   0  0  0  0  0  0
  -25.9302  -26.8397   19.4968 C   0  0  0  0  0  0
  -24.7964  -27.6720   19.5064 C   0  0  0  0  0  0
  -23.6386  -29.8510   20.1613 C   0  0  0  0  0  0
  -25.4125  -36.3046   24.0298 C   0  0  1  0  0  0
  -20.5932  -28.3699   23.1321 C   0  0  2  0  0  0
  -20.6812  -26.9471   22.5345 C   0  0  0  0  0  0
  -19.5895  -26.6766   21.4960 C   0  0  0  0  0  0
  -18.2072  -26.7917   22.1513 C   0  0  0  0  0  0
  -19.1555  -28.8801   23.2906 C   0  0  0  0  0  0
  -18.9440  -30.1348   23.9007 C   0  0  0  0  0  0
  -17.6429  -30.6482   24.0666 C   0  0  0  0  0  0
  -25.9098  -34.9407   23.5061 C   0  0  0  0  0  0
  -16.5344  -29.8966   23.6421 C   0  0  0  0  0  0
  -16.7287  -28.6402   23.0384 C   0  0  0  0  0  0
  -26.4517  -31.6585   25.0769 C   0  0  0  0  0  0
  -25.3735  -31.3725   26.1486 C   0  0  0  0  0  0
  -27.0355  -30.2987   24.6307 C   0  0  0  0  0  0
  -27.6084  -32.4328   25.7528 C   0  0  0  0  0  0
  -27.5580  -37.1801   24.8480 C   0  0  0  0  0  0
  -21.4203  -29.3109   22.3757 N   0  0  0  0  0  0
  -26.4311  -37.3739   23.9401 N   0  0  0  0  0  0
  -24.7056  -31.0484   22.1014 N   0  0  0  0  0  0
  -23.4201  -28.8139   23.3011 O   0  0  0  0  0  0
  -28.2131  -26.2734   20.1402 O   0  0  0  0  0  0
  -26.5669  -34.8919   22.4639 O   0  0  0  0  0  0
  -23.5537  -32.1456   23.7300 O   0  0  0  0  0  0
  -27.9114  -19.0365   18.4410 C   0  0  0  0  0  0
  -28.8154  -18.2473   20.5413 C   0  0  0  0  0  0
  -28.7761  -16.7247   18.6515 C   0  0  0  0  0  0
  -28.2575  -19.3531   19.7766 C   0  0  0  0  0  0
  -28.1648  -17.7518   17.8863 C   0  0  0  0  0  0
  -29.1255  -16.9306   20.0058 C   0  0  0  0  0  0
  -25.7949  -23.9060   21.9297 C   0  0  0  0  0  0
  -28.0685  -20.7985   20.3244 C   0  0  0  0  0  0
  -26.2680  -23.5668   20.7214 C   0  0  0  0  0  0
  -27.9835  -22.0458   19.7032 C   0  0  0  0  0  0
  -27.8115  -17.4794   16.4250 C   0  0  0  0  0  0
  -28.1480  -24.8723   19.5493 C   0  0  0  0  0  0
  -27.7399  -23.5015   20.3550 C   0  0  1  0  0  0
  -29.7707  -15.8593   20.8122 N   0  0  0  0  0  0
  -31.4485  -12.5615   19.2205 H   0  0  0  0  0  0
  -30.3148  -11.4726   19.9716 H   0  0  0  0  0  0
  -29.8147  -11.7581   17.5156 H   0  0  0  0  0  0
  -29.6180  -13.4807   17.7460 H   0  0  0  0  0  0
  -27.9023  -11.2679   18.9110 H   0  0  0  0  0  0
  -27.3758  -12.4876   17.7860 H   0  0  0  0  0  0
  -27.6100  -14.2340   19.4454 H   0  0  0  0  0  0
  -28.6829  -12.1960   21.4680 H   0  0  0  0  0  0
  -28.3498  -13.8813   21.7638 H   0  0  0  0  0  0
  -25.2801   -9.5721   22.4726 H   0  0  0  0  0  0
  -24.0040   -7.4690   22.7509 H   0  0  0  0  0  0
  -21.0835   -8.8747   19.9012 H   0  0  0  0  0  0
  -22.3651  -10.9669   19.6192 H   0  0  0  0  0  0
  -21.1911   -7.6168   23.9706 H   0  0  0  0  0  0
  -21.1507   -6.0537   25.9064 H   0  0  0  0  0  0
  -22.0597   -2.7647   23.2810 H   0  0  0  0  0  0
  -22.4156  -11.9860   22.4760 H   0  0  0  0  0  0
  -21.1119  -13.1239   22.2722 H   0  0  0  0  0  0
  -24.6737  -15.8531   20.5770 H   0  0  0  0  0  0
  -26.2735  -15.6375   20.0931 H   0  0  0  0  0  0
  -26.7317  -32.5265   23.1098 H   0  0  0  0  0  0
  -25.0110  -33.9666   25.0323 H   0  0  0  0  0  0
  -22.7360  -31.3285   21.4281 H   0  0  0  0  0  0
  -23.3753  -35.9619   23.3313 H   0  0  0  0  0  0
  -24.3569  -36.8877   22.2045 H   0  0  0  0  0  0
  -23.7289  -37.6479   23.6661 H   0  0  0  0  0  0
  -26.1597  -31.5217   20.6401 H   0  0  0  0  0  0
  -26.8508  -30.7516   22.0311 H   0  0  0  0  0  0
  -28.0949  -28.8746   21.1594 H   0  0  0  0  0  0
  -25.7916  -25.8668   19.0523 H   0  0  0  0  0  0
  -23.8715  -27.3175   19.0670 H   0  0  0  0  0  0
  -23.8034  -30.6540   19.4414 H   0  0  0  0  0  0
  -22.7388  -29.3349   19.8207 H   0  0  0  0  0  0
  -25.1302  -36.1851   25.0785 H   0  0  0  0  0  0
  -20.9992  -28.3243   24.1430 H   0  0  0  0  0  0
  -20.5456  -26.2253   23.3409 H   0  0  0  0  0  0
  -21.6683  -26.7473   22.1216 H   0  0  0  0  0  0
  -19.7189  -25.6979   21.0324 H   0  0  0  0  0  0
  -19.6687  -27.4104   20.6946 H   0  0  0  0  0  0
  -17.4352  -26.6596   21.3899 H   0  0  0  0  0  0
  -18.0702  -25.9882   22.8801 H   0  0  0  0  0  0
  -19.7879  -30.7172   24.2477 H   0  0  0  0  0  0
  -17.4985  -31.6086   24.5422 H   0  0  0  0  0  0
  -15.5356  -30.2847   23.7811 H   0  0  0  0  0  0
  -15.8691  -28.0694   22.7101 H   0  0  0  0  0  0
  -24.5947  -30.7027   25.7814 H   0  0  0  0  0  0
  -24.8887  -32.2882   26.4895 H   0  0  0  0  0  0
  -25.8044  -30.8923   27.0291 H   0  0  0  0  0  0
  -26.2921  -29.6774   24.1312 H   0  0  0  0  0  0
  -27.3989  -29.7193   25.4810 H   0  0  0  0  0  0
  -27.8846  -30.4249   23.9590 H   0  0  0  0  0  0
  -27.2711  -33.3653   26.2080 H   0  0  0  0  0  0
  -28.3896  -32.6868   25.0345 H   0  0  0  0  0  0
  -28.0804  -31.8503   26.5466 H   0  0  0  0  0  0
  -28.2597  -38.0078   24.7456 H   0  0  0  0  0  0
  -28.1063  -36.2609   24.6379 H   0  0  0  0  0  0
  -27.2309  -37.1535   25.8881 H   0  0  0  0  0  0
  -20.9357  -29.8919   21.7060 H   0  0  0  0  0  0
  -26.0164  -38.2803   24.1367 H   0  0  0  0  0  0
  -27.4304  -19.7911   17.8308 H   0  0  0  0  0  0
  -29.0224  -18.4153   21.5880 H   0  0  0  0  0  0
  -28.9895  -15.7771   18.1839 H   0  0  0  0  0  0
  -24.7313  -23.9269   22.1220 H   0  0  0  0  0  0
  -26.4505  -24.1638   22.7472 H   0  0  0  0  0  0
  -27.9456  -20.8162   21.3978 H   0  0  0  0  0  0
  -25.5626  -23.3142   19.9409 H   0  0  0  0  0  0
  -28.0743  -22.0489   18.6264 H   0  0  0  0  0  0
  -26.7756  -17.1482   16.3168 H   0  0  0  0  0  0
  -28.4520  -16.7054   15.9921 H   0  0  0  0  0  0
  -27.9396  -18.3810   15.8187 H   0  0  0  0  0  0
  -29.1759  -24.6893   19.2345 H   0  0  0  0  0  0
  -27.6076  -24.9108   18.6024 H   0  0  0  0  0  0
  -28.3088  -23.4990   21.2858 H   0  0  0  0  0  0
  -30.1233  -16.2307   21.6834 H   0  0  0  0  0  0
  1 25  1  0  0  0
  1 30  2  0  0  0
  1 84  1  0  0  0
  2  3  1  0  0  0
  2 25  1  0  0  0
  2 85  1  0  0  0
  2 86  1  0  0  0
  3  4  1  0  0  0
  3 87  1  0  0  0
  3 88  1  0  0  0
  4  5  1  0  0  0
  4 89  1  0  0  0
  4 90  1  0  0  0
  5  6  1  0  0  0
  5 26  1  0  0  0
  5 91  1  0  0  0
  6 25  1  0  0  0
  6 92  1  0  0  0
  6 93  1  0  0  0
  7  8  2  0  0  0
  7 26  1  0  0  0
  7 29  1  0  0  0
  8  9  1  0  0  0
  8 22  1  0  0  0
  9 10  1  0  0  0
  9 27  2  0  0  0
 10 11  2  0  0  0
 10 15  1  0  0  0
 11 12  1  0  0  0
 11 94  1  0  0  0
 12 13  2  0  0  0
 12 95  1  0  0  0
 13 14  1  0  0  0
 13 31  1  0  0  0
 14 15  2  0  0  0
 14 96  1  0  0  0
 15 97  1  0  0  0
 16 17  2  0  0  0
 16 21  1  0  0  0
 16 31  1  0  0  0
 17 18  1  0  0  0
 17 98  1  0  0  0
 18 19  2  0  0  0
 18 99  1  0  0  0
 19 20  1  0  0  0
 19 24  1  0  0  0
 20 21  2  0  0  0
 20100  1  0  0  0
 21 23  1  0  0  0
 22 28  1  0  0  0
 22 32  2  0  0  0
 26 27  1  0  0  0
 28101  1  0  0  0
 28102  1  0  0  0
 29103  1  0  0  0
 29104  1  0  0  0
 33 34  1  0  0  0
 33 66  1  0  0  0
 33 70  2  0  0  0
 34 36  1  0  0  0
 34 59  1  0  0  0
 34105  1  0  0  0
 35 44  2  0  0  0
 35 45  1  0  0  0
 35 68  1  0  0  0
 36 56  1  0  0  0
 36106  1  0  0  0
 37 39  1  0  0  0
 37 47  1  0  0  0
 37 66  1  0  0  0
 37107  1  0  0  0
 38 43  2  0  0  0
 38 46  1  0  0  0
 38 47  1  0  0  0
 39 64  1  0  0  0
 39 67  2  0  0  0
 40 52  1  0  0  0
 40 53  2  0  0  0
 40 58  1  0  0  0
 41108  1  0  0  0
 41109  1  0  0  0
 41110  1  0  0  0
 41 48  1  0  0  0
 42 43  1  0  0  0
 42 66  1  0  0  0
 42111  1  0  0  0
 42112  1  0  0  0
 43 44  1  0  0  0
 44113  1  0  0  0
 45 46  2  0  0  0
 45114  1  0  0  0
 46115  1  0  0  0
 47116  1  0  0  0
 47117  1  0  0  0
 48 56  1  0  0  0
 48 65  1  0  0  0
 48118  1  0  0  0
 49 50  1  0  0  0
 49 53  1  0  0  0
 49 64  1  0  0  0
 49119  1  0  0  0
 50 51  1  0  0  0
 50120  1  0  0  0
 50121  1  0  0  0
 51 52  1  0  0  0
 51122  1  0  0  0
 51123  1  0  0  0
 52124  1  0  0  0
 52125  1  0  0  0
 53 54  1  0  0  0
 54 55  2  0  0  0
 54126  1  0  0  0
 55 57  1  0  0  0
 55127  1  0  0  0
 56 69  2  0  0  0
 57 58  2  0  0  0
 57128  1  0  0  0
 58129  1  0  0  0
 59 60  1  0  0  0
 59 61  1  0  0  0
 59 62  1  0  0  0
 60130  1  0  0  0
 60131  1  0  0  0
 60132  1  0  0  0
 61133  1  0  0  0
 61134  1  0  0  0
 61135  1  0  0  0
 62136  1  0  0  0
 62137  1  0  0  0
 62138  1  0  0  0
 63 65  1  0  0  0
 63139  1  0  0  0
 63140  1  0  0  0
 63141  1  0  0  0
 64142  1  0  0  0
 65143  1  0  0  0
 68 82  1  0  0  0
 71 74  2  0  0  0
 71 75  1  0  0  0
 71144  1  0  0  0
 72 74  1  0  0  0
 72 76  2  0  0  0
 72145  1  0  0  0
 73 75  2  0  0  0
 73 76  1  0  0  0
 73146  1  0  0  0
 74 78  1  0  0  0
 75 81  1  0  0  0
 76 84  1  0  0  0
 77 79  2  0  0  0
 77147  1  0  0  0
 77148  1  0  0  0
 78 80  2  0  0  0
 78149  1  0  0  0
 79 83  1  0  0  0
 79150  1  0  0  0
 80 83  1  0  0  0
 80151  1  0  0  0
 81152  1  0  0  0
 81153  1  0  0  0
 81154  1  0  0  0
 82155  1  0  0  0
 82156  1  0  0  0
 82 83  1  0  0  0
 83157  1  0  0  0
 84158  1  0  0  0
M  ISO  4   1 100  68 101  82 101  84 100
M  END
> <chiral flag>
0

> <version>
0

> <s_m_source_file>
/data/baiqing/PycharmProjects/Reinvent-master-3.2/result/LINK_invent/BTK/process_docking_weight1_custom_product_contain_oxygen_bond_distance_aromatic_linkinvent_7_9_3/rearranged_h_0128.sdf

> <i_m_source_file_index>
65

> <r_mmod_Potential_Energy-OPLS-2005>
280.834899902344

> <r_mmod_Stretch_Energy-OPLS-2005>
139.621475219727

> <r_mmod_Bend_Energy-OPLS-2005>
183.60791015625

> <r_mmod_Torsional_Energy-OPLS-2005>
258.098236083984

> <r_mmod_Improper_Torsional_Energy-OPLS-2005>
5.22930479049683

> <r_mmod_Van_der_Waal_Energy-OPLS-2005>
124.753082275391

> <r_mmod_Electrostatic_Energy-OPLS-2005>
-347.480621337891

> <r_mmod_Solvation_Energy-OPLS-2005>
-195.735107421875

> <b_mmod_Minimization_Converged-OPLS-2005>
0

> <r_mmod_RMS_Derivative-OPLS-2005>
8.9092321395874

$$$$
65
                    3D
 Structure written by MMmdl.
160168  0  0  1  0            999 V2000
  -30.6511  -14.6474   20.5727 C   0  0  0  0  0  0
  -30.4410  -12.4192   19.4616 C   0  0  0  0  0  0
  -29.5088  -12.5207   18.2324 C   0  0  0  0  0  0
  -28.0314  -12.3514   18.6377 C   0  0  0  0  0  0
  -27.6548  -13.2162   19.8676 C   0  0  2  0  0  0
  -28.6924  -13.0429   20.9950 C   0  0  0  0  0  0
  -25.2572  -13.8172   20.5705 C   0  0  0  0  0  0
  -24.1831  -13.0443   20.9197 C   0  0  0  0  0  0
  -24.6387  -11.6910   20.8743 C   0  0  0  0  0  0
  -23.9059  -10.4297   21.0410 C   0  0  0  0  0  0
  -24.3617   -9.4208   21.9185 C   0  0  0  0  0  0
  -23.6297   -8.2242   22.0750 C   0  0  0  0  0  0
  -22.4281   -8.0283   21.3543 C   0  0  0  0  0  0
  -21.9917   -9.0252   20.4646 C   0  0  0  0  0  0
  -22.7234  -10.2133   20.3053 C   0  0  0  0  0  0
  -21.6853   -6.0741   22.5279 C   0  0  0  0  0  0
  -21.4009   -6.5648   23.8208 C   0  0  0  0  0  0
  -21.3657   -5.6805   24.9182 C   0  0  0  0  0  0
  -21.6049   -4.3071   24.7229 C   0  0  0  0  0  0
  -21.8816   -3.8157   23.4357 C   0  0  0  0  0  0
  -21.9189   -4.6971   22.3405 C   0  0  0  0  0  0
  -22.7851  -13.5237   21.1850 C   0  0  0  0  0  0
  -22.1663   -4.2153   21.0986 F   0  0  0  0  0  0
  -21.5631   -3.4547   25.7741 F   0  0  0  0  0  0
  -30.0115  -13.4273   20.4599 N   0  0  0  0  0  0
  -26.2992  -12.9354   20.3317 N   0  0  0  0  0  0
  -25.9313  -11.6506   20.5740 N   0  0  0  0  0  0
  -22.0478  -12.8225   22.0399 N   0  0  0  0  0  0
  -25.4290  -15.1889   20.4147 N   0  0  0  0  0  0
  -31.7379  -14.8365   20.0149 O   0  0  0  0  0  0
  -21.6646   -6.8879   21.4238 O   0  0  0  0  0  0
  -22.3541  -14.5536   20.6693 O   0  0  0  0  0  0
  -24.6226  -31.8628   23.2006 C   0  0  0  0  0  0
  -25.9114  -32.4771   23.8327 C   0  0  1  0  0  0
  -27.2288  -27.3364   20.1240 C   0  0  0  0  0  0
  -25.5982  -33.8566   24.2279 N   0  0  0  0  0  0
  -23.4136  -30.4827   21.5419 C   0  0  2  0  0  0
  -24.8614  -28.9321   20.1178 C   0  0  0  0  0  0
  -22.7465  -29.4617   22.4918 C   0  0  0  0  0  0
  -18.0294  -28.1332   22.8471 C   0  0  0  0  0  0
  -24.1510  -36.7278   23.2610 C   0  0  0  0  0  0
  -25.9501  -30.7960   21.3700 C   0  0  0  0  0  0
  -26.0275  -29.4203   20.7233 C   0  0  0  0  0  0
  -27.2142  -28.6340   20.7195 C   0  0  0  0  0  0
  -26.0441  -26.8904   19.5021 C   0  0  0  0  0  0
  -24.8690  -27.6695   19.5014 C   0  0  0  0  0  0
  -23.6287  -29.8116   20.1600 C   0  0  0  0  0  0
  -25.4126  -36.3061   24.0313 C   0  0  1  0  0  0
  -20.5891  -28.3647   23.1256 C   0  0  2  0  0  0
  -20.6747  -26.9362   22.5392 C   0  0  0  0  0  0
  -19.5736  -26.6346   21.5174 C   0  0  0  0  0  0
  -18.1925  -26.7872   22.1604 C   0  0  0  0  0  0
  -19.1547  -28.8815   23.2850 C   0  0  0  0  0  0
  -18.9478  -30.1423   23.8850 C   0  0  0  0  0  0
  -17.6474  -30.6530   24.0560 C   0  0  0  0  0  0
  -25.9065  -34.9445   23.5084 C   0  0  0  0  0  0
  -16.5361  -29.9029   23.6317 C   0  0  0  0  0  0
  -16.7296  -28.6460   23.0321 C   0  0  0  0  0  0
  -26.4521  -31.6539   25.0668 C   0  0  0  0  0  0
  -25.3762  -31.3733   26.1415 C   0  0  0  0  0  0
  -27.0312  -30.2934   24.6104 C   0  0  0  0  0  0
  -27.6108  -32.4229   25.7455 C   0  0  0  0  0  0
  -27.5598  -37.1789   24.8444 C   0  0  0  0  0  0
  -21.4186  -29.3014   22.3677 N   0  0  0  0  0  0
  -26.4301  -37.3764   23.9416 N   0  0  0  0  0  0
  -24.6797  -31.0665   22.0932 N   0  0  0  0  0  0
  -23.4227  -28.8154   23.2969 O   0  0  0  0  0  0
  -28.3587  -26.5167   20.1077 O   0  0  0  0  0  0
  -26.5634  -34.8925   22.4637 O   0  0  0  0  0  0
  -23.5407  -32.1434   23.7356 O   0  0  0  0  0  0
  -30.6056  -19.2748   19.7096 C   0  0  0  0  0  0
  -30.6819  -17.8871   20.0427 C   0  0  0  0  0  0
  -28.7434  -19.5447   21.1673 C   0  0  0  0  0  0
  -29.6539  -20.1595   20.2819 C   0  0  0  0  0  0
  -29.8150  -17.2611   20.9822 C   0  0  0  0  0  0
  -28.8066  -18.1567   21.5160 C   0  0  0  0  0  0
  -30.2585  -23.8670   17.7113 C   0  0  0  0  0  0
  -29.6708  -21.6456   19.9386 C   0  0  0  0  0  0
  -29.9135  -24.5631   18.8099 C   0  0  0  0  0  0
  -28.8294  -22.6887   20.2487 C   0  0  0  0  0  0
  -28.2395  -25.1456   20.4120 C   0  0  0  0  0  0
  -30.0227  -15.7890   21.4725 C   0  0  0  0  0  0
  -28.9728  -24.1356   19.8422 C   0  0  0  0  0  0
  -28.0709  -18.0790   23.9534 C   0  0  0  0  0  0
  -27.7237  -17.7189   22.4997 C   0  0  0  0  0  0
  -29.7464  -15.5077   22.6777 N   0  0  0  0  0  0
  -31.4788  -12.5568   19.1537 H   0  0  0  0  0  0
  -30.4018  -11.4191   19.8968 H   0  0  0  0  0  0
  -29.7799  -11.7671   17.4919 H   0  0  0  0  0  0
  -29.6460  -13.4897   17.7498 H   0  0  0  0  0  0
  -27.8694  -11.2969   18.8656 H   0  0  0  0  0  0
  -27.3785  -12.5855   17.7960 H   0  0  0  0  0  0
  -27.6827  -14.2576   19.5439 H   0  0  0  0  0  0
  -28.7164  -12.0039   21.3276 H   0  0  0  0  0  0
  -28.3870  -13.6086   21.8710 H   0  0  0  0  0  0
  -25.2755   -9.5690   22.4774 H   0  0  0  0  0  0
  -24.0009   -7.4624   22.7456 H   0  0  0  0  0  0
  -21.0857   -8.8764   19.8946 H   0  0  0  0  0  0
  -22.3690  -10.9681   19.6175 H   0  0  0  0  0  0
  -21.1999   -7.6148   23.9719 H   0  0  0  0  0  0
  -21.1487   -6.0539   25.9081 H   0  0  0  0  0  0
  -22.0599   -2.7621   23.2856 H   0  0  0  0  0  0
  -22.4100  -11.9900   22.4807 H   0  0  0  0  0  0
  -21.1080  -13.1247   22.2570 H   0  0  0  0  0  0
  -24.6633  -15.8430   20.5280 H   0  0  0  0  0  0
  -26.2794  -15.6273   20.0860 H   0  0  0  0  0  0
  -26.7158  -32.5464   23.1052 H   0  0  0  0  0  0
  -25.0208  -33.9713   25.0495 H   0  0  0  0  0  0
  -22.7026  -31.2971   21.3931 H   0  0  0  0  0  0
  -23.3779  -35.9595   23.3244 H   0  0  0  0  0  0
  -24.3593  -36.8942   22.2025 H   0  0  0  0  0  0
  -23.7282  -37.6479   23.6653 H   0  0  0  0  0  0
  -26.0789  -31.5533   20.5958 H   0  0  0  0  0  0
  -26.8339  -30.8459   21.9951 H   0  0  0  0  0  0
  -28.1142  -29.0094   21.1871 H   0  0  0  0  0  0
  -26.0264  -25.9220   19.0203 H   0  0  0  0  0  0
  -23.9768  -27.2933   19.0199 H   0  0  0  0  0  0
  -23.7459  -30.5845   19.3990 H   0  0  0  0  0  0
  -22.7488  -29.2375   19.8604 H   0  0  0  0  0  0
  -25.1280  -36.1871   25.0801 H   0  0  0  0  0  0
  -20.9997  -28.3213   24.1369 H   0  0  0  0  0  0
  -20.5573  -26.2278   23.3605 H   0  0  0  0  0  0
  -21.6612  -26.7286   22.1240 H   0  0  0  0  0  0
  -19.6901  -25.6265   21.1170 H   0  0  0  0  0  0
  -19.6662  -27.3170   20.6717 H   0  0  0  0  0  0
  -17.4181  -26.6648   21.4014 H   0  0  0  0  0  0
  -18.0333  -25.9981   22.8974 H   0  0  0  0  0  0
  -19.7959  -30.7251   24.2202 H   0  0  0  0  0  0
  -17.5016  -31.6203   24.5161 H   0  0  0  0  0  0
  -15.5358  -30.2922   23.7625 H   0  0  0  0  0  0
  -15.8709  -28.0770   22.7015 H   0  0  0  0  0  0
  -24.5985  -30.6984   25.7817 H   0  0  0  0  0  0
  -24.8891  -32.2913   26.4696 H   0  0  0  0  0  0
  -25.8116  -30.9076   27.0265 H   0  0  0  0  0  0
  -26.2858  -29.6718   24.1125 H   0  0  0  0  0  0
  -27.3984  -29.7139   25.4585 H   0  0  0  0  0  0
  -27.8744  -30.4160   23.9302 H   0  0  0  0  0  0
  -27.2750  -33.3550   26.1999 H   0  0  0  0  0  0
  -28.3983  -32.6743   25.0333 H   0  0  0  0  0  0
  -28.0686  -31.8339   26.5413 H   0  0  0  0  0  0
  -28.2562  -38.0138   24.7531 H   0  0  0  0  0  0
  -28.1159  -36.2677   24.6189 H   0  0  0  0  0  0
  -27.2333  -37.1312   25.8848 H   0  0  0  0  0  0
  -20.9361  -29.8805   21.6945 H   0  0  0  0  0  0
  -26.0163  -38.2821   24.1463 H   0  0  0  0  0  0
  -31.3272  -19.6703   19.0083 H   0  0  0  0  0  0
  -31.4699  -17.3112   19.5796 H   0  0  0  0  0  0
  -27.9817  -20.1622   21.6230 H   0  0  0  0  0  0
  -30.9834  -24.2588   17.0120 H   0  0  0  0  0  0
  -29.8237  -22.9042   17.4821 H   0  0  0  0  0  0
  -30.5409  -21.9092   19.3579 H   0  0  0  0  0  0
  -30.3958  -25.5231   18.9435 H   0  0  0  0  0  0
  -27.9601  -22.4435   20.8455 H   0  0  0  0  0  0
  -27.4940  -24.9691   21.1773 H   0  0  0  0  0  0
  -27.2547  -17.8142   24.6275 H   0  0  0  0  0  0
  -28.2484  -19.1500   24.0616 H   0  0  0  0  0  0
  -28.9667  -17.5654   24.3013 H   0  0  0  0  0  0
  -27.4744  -16.6642   22.3952 H   0  0  0  0  0  0
  -26.8002  -18.2361   22.2364 H   0  0  0  0  0  0
  -29.3823  -16.3269   23.1493 H   0  0  0  0  0  0
  1 25  1  0  0  0
  1 30  2  0  0  0
  1 82  1  0  0  0
  2  3  1  0  0  0
  2 25  1  0  0  0
  2 87  1  0  0  0
  2 88  1  0  0  0
  3  4  1  0  0  0
  3 89  1  0  0  0
  3 90  1  0  0  0
  4  5  1  0  0  0
  4 91  1  0  0  0
  4 92  1  0  0  0
  5  6  1  0  0  0
  5 26  1  0  0  0
  5 93  1  0  0  0
  6 25  1  0  0  0
  6 94  1  0  0  0
  6 95  1  0  0  0
  7  8  2  0  0  0
  7 26  1  0  0  0
  7 29  1  0  0  0
  8  9  1  0  0  0
  8 22  1  0  0  0
  9 10  1  0  0  0
  9 27  2  0  0  0
 10 11  2  0  0  0
 10 15  1  0  0  0
 11 12  1  0  0  0
 11 96  1  0  0  0
 12 13  2  0  0  0
 12 97  1  0  0  0
 13 14  1  0  0  0
 13 31  1  0  0  0
 14 15  2  0  0  0
 14 98  1  0  0  0
 15 99  1  0  0  0
 16 17  2  0  0  0
 16 21  1  0  0  0
 16 31  1  0  0  0
 17 18  1  0  0  0
 17100  1  0  0  0
 18 19  2  0  0  0
 18101  1  0  0  0
 19 20  1  0  0  0
 19 24  1  0  0  0
 20 21  2  0  0  0
 20102  1  0  0  0
 21 23  1  0  0  0
 22 28  1  0  0  0
 22 32  2  0  0  0
 26 27  1  0  0  0
 28103  1  0  0  0
 28104  1  0  0  0
 29105  1  0  0  0
 29106  1  0  0  0
 33 34  1  0  0  0
 33 66  1  0  0  0
 33 70  2  0  0  0
 34 36  1  0  0  0
 34 59  1  0  0  0
 34107  1  0  0  0
 35 44  2  0  0  0
 35 45  1  0  0  0
 35 68  1  0  0  0
 36 56  1  0  0  0
 36108  1  0  0  0
 37 39  1  0  0  0
 37 47  1  0  0  0
 37 66  1  0  0  0
 37109  1  0  0  0
 38 43  2  0  0  0
 38 46  1  0  0  0
 38 47  1  0  0  0
 39 64  1  0  0  0
 39 67  2  0  0  0
 40 52  1  0  0  0
 40 53  2  0  0  0
 40 58  1  0  0  0
 41110  1  0  0  0
 41111  1  0  0  0
 41112  1  0  0  0
 41 48  1  0  0  0
 42 43  1  0  0  0
 42 66  1  0  0  0
 42113  1  0  0  0
 42114  1  0  0  0
 43 44  1  0  0  0
 44115  1  0  0  0
 45 46  2  0  0  0
 45116  1  0  0  0
 46117  1  0  0  0
 47118  1  0  0  0
 47119  1  0  0  0
 48 56  1  0  0  0
 48 65  1  0  0  0
 48120  1  0  0  0
 49 50  1  0  0  0
 49 53  1  0  0  0
 49 64  1  0  0  0
 49121  1  0  0  0
 50 51  1  0  0  0
 50122  1  0  0  0
 50123  1  0  0  0
 51 52  1  0  0  0
 51124  1  0  0  0
 51125  1  0  0  0
 52126  1  0  0  0
 52127  1  0  0  0
 53 54  1  0  0  0
 54 55  2  0  0  0
 54128  1  0  0  0
 55 57  1  0  0  0
 55129  1  0  0  0
 56 69  2  0  0  0
 57 58  2  0  0  0
 57130  1  0  0  0
 58131  1  0  0  0
 59 60  1  0  0  0
 59 61  1  0  0  0
 59 62  1  0  0  0
 60132  1  0  0  0
 60133  1  0  0  0
 60134  1  0  0  0
 61135  1  0  0  0
 61136  1  0  0  0
 61137  1  0  0  0
 62138  1  0  0  0
 62139  1  0  0  0
 62140  1  0  0  0
 63 65  1  0  0  0
 63141  1  0  0  0
 63142  1  0  0  0
 63143  1  0  0  0
 64144  1  0  0  0
 65145  1  0  0  0
 68 81  1  0  0  0
 71 72  2  0  0  0
 71 74  1  0  0  0
 71146  1  0  0  0
 72 75  1  0  0  0
 72147  1  0  0  0
 73 74  2  0  0  0
 73 76  1  0  0  0
 73148  1  0  0  0
 74 78  1  0  0  0
 75 76  2  0  0  0
 75 82  1  0  0  0
 76 85  1  0  0  0
 77 79  2  0  0  0
 77149  1  0  0  0
 77150  1  0  0  0
 78 80  2  0  0  0
 78151  1  0  0  0
 79 83  1  0  0  0
 79152  1  0  0  0
 80 83  1  0  0  0
 80153  1  0  0  0
 81 83  2  0  0  0
 81154  1  0  0  0
 82 86  2  0  0  0
 84 85  1  0  0  0
 84155  1  0  0  0
 84156  1  0  0  0
 84157  1  0  0  0
 85158  1  0  0  0
 85159  1  0  0  0
 86160  1  0  0  0
M  ISO  4   1 100  68 101  81 101  82 100
M  END
> <chiral flag>
0

> <version>
0

> <s_m_source_file>
/data/baiqing/PycharmProjects/Reinvent-master-3.2/result/LINK_invent/BTK/process_docking_weight1_custom_product_contain_oxygen_bond_distance_aromatic_linkinvent_7_9_3/rearranged_h_0128.sdf

> <i_m_source_file_index>
66

> <r_mmod_Potential_Energy-OPLS-2005>
283.934997558594

> <r_mmod_Stretch_Energy-OPLS-2005>
95.6441192626953

> <r_mmod_Bend_Energy-OPLS-2005>
151.589813232422

> <r_mmod_Torsional_Energy-OPLS-2005>
235.645751953125

> <r_mmod_Improper_Torsional_Energy-OPLS-2005>
3.05884695053101

> <r_mmod_Van_der_Waal_Energy-OPLS-2005>
156.615447998047

> <r_mmod_Electrostatic_Energy-OPLS-2005>
-220.348876953125

> <r_mmod_Solvation_Energy-OPLS-2005>
-181.028564453125

> <b_mmod_Minimization_Converged-OPLS-2005>
0

> <r_mmod_RMS_Derivative-OPLS-2005>
3.41318321228027

$$$$
66
                    3D
 Structure written by MMmdl.
161169  0  0  1  0            999 V2000
  -30.7201  -14.5114   20.5437 C   0  0  0  0  0  0
  -30.4069  -12.3215   19.4458 C   0  0  0  0  0  0
  -29.4902  -12.4909   18.2177 C   0  0  0  0  0  0
  -28.0144  -12.3468   18.6316 C   0  0  0  0  0  0
  -27.6520  -13.2155   19.8661 C   0  0  2  0  0  0
  -28.6934  -13.0600   20.9981 C   0  0  0  0  0  0
  -25.2551  -13.8198   20.5681 C   0  0  0  0  0  0
  -24.1820  -13.0459   20.9192 C   0  0  0  0  0  0
  -24.6391  -11.6929   20.8757 C   0  0  0  0  0  0
  -23.9075  -10.4303   21.0420 C   0  0  0  0  0  0
  -24.3625   -9.4212   21.9193 C   0  0  0  0  0  0
  -23.6291   -8.2251   22.0763 C   0  0  0  0  0  0
  -22.4277   -8.0289   21.3552 C   0  0  0  0  0  0
  -21.9915   -9.0268   20.4658 C   0  0  0  0  0  0
  -22.7249  -10.2145   20.3066 C   0  0  0  0  0  0
  -21.6853   -6.0746   22.5280 C   0  0  0  0  0  0
  -21.4011   -6.5647   23.8213 C   0  0  0  0  0  0
  -21.3651   -5.6797   24.9175 C   0  0  0  0  0  0
  -21.6042   -4.3063   24.7224 C   0  0  0  0  0  0
  -21.8819   -3.8154   23.4344 C   0  0  0  0  0  0
  -21.9190   -4.6973   22.3402 C   0  0  0  0  0  0
  -22.7839  -13.5243   21.1852 C   0  0  0  0  0  0
  -22.1659   -4.2165   21.0978 F   0  0  0  0  0  0
  -21.5626   -3.4544   25.7733 F   0  0  0  0  0  0
  -30.0182  -13.3468   20.4325 N   0  0  0  0  0  0
  -26.2977  -12.9373   20.3345 N   0  0  0  0  0  0
  -25.9316  -11.6533   20.5785 N   0  0  0  0  0  0
  -22.0481  -12.8232   22.0404 N   0  0  0  0  0  0
  -25.4283  -15.1909   20.4062 N   0  0  0  0  0  0
  -31.8586  -14.6001   20.0727 O   0  0  0  0  0  0
  -21.6638   -6.8890   21.4245 O   0  0  0  0  0  0
  -22.3518  -14.5547   20.6696 O   0  0  0  0  0  0
  -24.6159  -31.8656   23.2086 C   0  0  0  0  0  0
  -25.9056  -32.4812   23.8374 C   0  0  1  0  0  0
  -27.2324  -27.4160   20.1035 C   0  0  0  0  0  0
  -25.5913  -33.8604   24.2304 N   0  0  0  0  0  0
  -23.4058  -30.4878   21.5486 C   0  0  2  0  0  0
  -24.8556  -28.9533   20.1115 C   0  0  0  0  0  0
  -22.7411  -29.4641   22.4980 C   0  0  0  0  0  0
  -18.0264  -28.1392   22.8478 C   0  0  0  0  0  0
  -24.1496  -36.7312   23.2636 C   0  0  0  0  0  0
  -25.9356  -30.8274   21.3643 C   0  0  0  0  0  0
  -26.0165  -29.4612   20.7095 C   0  0  0  0  0  0
  -27.2124  -28.7013   20.7002 C   0  0  0  0  0  0
  -26.0579  -26.9324   19.4908 C   0  0  0  0  0  0
  -24.8707  -27.6885   19.4998 C   0  0  0  0  0  0
  -23.6157  -29.8194   20.1638 C   0  0  0  0  0  0
  -25.4119  -36.3104   24.0337 C   0  0  1  0  0  0
  -20.5851  -28.3671   23.1323 C   0  0  2  0  0  0
  -20.6760  -26.9411   22.5426 C   0  0  0  0  0  0
  -19.5743  -26.6381   21.5223 C   0  0  0  0  0  0
  -18.1915  -26.7928   22.1612 C   0  0  0  0  0  0
  -19.1513  -28.8846   23.2889 C   0  0  0  0  0  0
  -18.9449  -30.1441   23.8913 C   0  0  0  0  0  0
  -17.6459  -30.6591   24.0571 C   0  0  0  0  0  0
  -25.9053  -34.9464   23.5122 C   0  0  0  0  0  0
  -16.5348  -29.9099   23.6339 C   0  0  0  0  0  0
  -16.7254  -28.6522   23.0347 C   0  0  0  0  0  0
  -26.4474  -31.6599   25.0714 C   0  0  0  0  0  0
  -25.3741  -31.3738   26.1471 C   0  0  0  0  0  0
  -27.0298  -30.3039   24.6111 C   0  0  0  0  0  0
  -27.6052  -32.4321   25.7473 C   0  0  0  0  0  0
  -27.5585  -37.1795   24.8452 C   0  0  0  0  0  0
  -21.4135  -29.3031   22.3729 N   0  0  0  0  0  0
  -26.4295  -37.3788   23.9411 N   0  0  0  0  0  0
  -24.6708  -31.0745   22.0992 N   0  0  0  0  0  0
  -23.4179  -28.8198   23.3038 O   0  0  0  0  0  0
  -28.3622  -26.6213   20.1114 O   0  0  0  0  0  0
  -26.5599  -34.8916   22.4669 O   0  0  0  0  0  0
  -23.5352  -32.1413   23.7475 O   0  0  0  0  0  0
  -29.8080  -18.0871   21.1503 C   0  0  0  0  0  0
  -32.4654  -18.2481   21.7480 C   0  0  0  0  0  0
  -30.3660  -19.3905   21.3510 C   0  0  0  0  0  0
  -31.7467  -19.4545   21.6902 C   0  0  0  0  0  0
  -30.6185  -16.9146   21.2384 C   0  0  0  0  0  0
  -29.5234  -20.6372   21.3047 C   0  0  0  0  0  0
  -32.4499  -20.7209   21.9909 C   0  0  0  0  0  0
  -28.8866  -22.9822   20.9465 C   0  0  0  0  0  0
  -33.7781  -20.9271   21.9049 C   0  0  0  0  0  0
  -29.1258  -24.2688   20.5769 C   0  0  0  0  0  0
  -29.7398  -21.8186   20.6493 C   0  0  0  0  0  0
  -34.4596  -22.2330   22.2465 C   0  0  0  0  0  0
  -30.8517  -21.9728   19.6220 C   0  0  0  0  0  0
  -28.2490  -25.4651   20.9711 C   0  0  0  0  0  0
  -31.9227  -17.0373   21.5583 N   0  0  0  0  0  0
  -30.0590  -15.6047   21.0146 N   0  0  0  0  0  0
  -31.4538  -12.3907   19.1452 H   0  0  0  0  0  0
  -30.2923  -11.3251   19.8758 H   0  0  0  0  0  0
  -29.7393  -11.7503   17.4561 H   0  0  0  0  0  0
  -29.6541  -13.4683   17.7610 H   0  0  0  0  0  0
  -27.8389  -11.2940   18.8556 H   0  0  0  0  0  0
  -27.3606  -12.5901   17.7937 H   0  0  0  0  0  0
  -27.6796  -14.2524   19.5315 H   0  0  0  0  0  0
  -28.6747  -12.0467   21.4019 H   0  0  0  0  0  0
  -28.4548  -13.7167   21.8356 H   0  0  0  0  0  0
  -25.2769   -9.5681   22.4765 H   0  0  0  0  0  0
  -24.0003   -7.4640   22.7480 H   0  0  0  0  0  0
  -21.0848   -8.8792   19.8955 H   0  0  0  0  0  0
  -22.3718  -10.9686   19.6175 H   0  0  0  0  0  0
  -21.2007   -7.6156   23.9722 H   0  0  0  0  0  0
  -21.1468   -6.0527   25.9074 H   0  0  0  0  0  0
  -22.0602   -2.7620   23.2838 H   0  0  0  0  0  0
  -22.4080  -11.9876   22.4778 H   0  0  0  0  0  0
  -21.1106  -13.1272   22.2636 H   0  0  0  0  0  0
  -24.6633  -15.8485   20.5102 H   0  0  0  0  0  0
  -26.2742  -15.6241   20.0586 H   0  0  0  0  0  0
  -26.7123  -32.5528   23.1135 H   0  0  0  0  0  0
  -25.0086  -33.9773   25.0459 H   0  0  0  0  0  0
  -22.6962  -31.3059   21.4077 H   0  0  0  0  0  0
  -23.3762  -35.9643   23.3299 H   0  0  0  0  0  0
  -24.3583  -36.8942   22.2050 H   0  0  0  0  0  0
  -23.7249  -37.6514   23.6655 H   0  0  0  0  0  0
  -26.0492  -31.5960   20.5985 H   0  0  0  0  0  0
  -26.8216  -30.8788   21.9847 H   0  0  0  0  0  0
  -28.1072  -29.0852   21.1698 H   0  0  0  0  0  0
  -26.0584  -25.9603   19.0175 H   0  0  0  0  0  0
  -23.9777  -27.2920   19.0362 H   0  0  0  0  0  0
  -23.7153  -30.5924   19.4008 H   0  0  0  0  0  0
  -22.7408  -29.2344   19.8737 H   0  0  0  0  0  0
  -25.1291  -36.1960   25.0836 H   0  0  0  0  0  0
  -20.9920  -28.3241   24.1451 H   0  0  0  0  0  0
  -20.5683  -26.2282   23.3614 H   0  0  0  0  0  0
  -21.6627  -26.7460   22.1219 H   0  0  0  0  0  0
  -19.6926  -25.6295   21.1245 H   0  0  0  0  0  0
  -19.6712  -27.3197   20.6766 H   0  0  0  0  0  0
  -17.4194  -26.6687   21.3998 H   0  0  0  0  0  0
  -18.0301  -26.0067   22.9009 H   0  0  0  0  0  0
  -19.7932  -30.7236   24.2294 H   0  0  0  0  0  0
  -17.5026  -31.6279   24.5161 H   0  0  0  0  0  0
  -15.5352  -30.3014   23.7659 H   0  0  0  0  0  0
  -15.8650  -28.0853   22.7060 H   0  0  0  0  0  0
  -24.5909  -30.7090   25.7814 H   0  0  0  0  0  0
  -24.8951  -32.2911   26.4898 H   0  0  0  0  0  0
  -25.8093  -30.8912   27.0236 H   0  0  0  0  0  0
  -26.2832  -29.6808   24.1172 H   0  0  0  0  0  0
  -27.4060  -29.7274   25.4577 H   0  0  0  0  0  0
  -27.8677  -30.4345   23.9261 H   0  0  0  0  0  0
  -27.2669  -33.3617   26.2059 H   0  0  0  0  0  0
  -28.3851  -32.6890   25.0290 H   0  0  0  0  0  0
  -28.0728  -31.8443   26.5389 H   0  0  0  0  0  0
  -28.2578  -38.0107   24.7511 H   0  0  0  0  0  0
  -28.1097  -36.2636   24.6249 H   0  0  0  0  0  0
  -27.2297  -37.1419   25.8849 H   0  0  0  0  0  0
  -20.9299  -29.8776   21.6971 H   0  0  0  0  0  0
  -26.0190  -38.2868   24.1429 H   0  0  0  0  0  0
  -28.7558  -17.9956   20.9151 H   0  0  0  0  0  0
  -33.5133  -18.2276   22.0044 H   0  0  0  0  0  0
  -28.6674  -20.5946   21.9623 H   0  0  0  0  0  0
  -31.8347  -21.5410   22.3318 H   0  0  0  0  0  0
  -27.9950  -22.8085   21.5335 H   0  0  0  0  0  0
  -34.4434  -20.1407   21.5769 H   0  0  0  0  0  0
  -30.0060  -24.5135   19.9997 H   0  0  0  0  0  0
  -33.7371  -23.0284   22.4306 H   0  0  0  0  0  0
  -35.1068  -22.5420   21.4254 H   0  0  0  0  0  0
  -35.0752  -22.1138   23.1385 H   0  0  0  0  0  0
  -31.2436  -21.0098   19.2957 H   0  0  0  0  0  0
  -31.6749  -22.5623   20.0267 H   0  0  0  0  0  0
  -30.4809  -22.4848   18.7342 H   0  0  0  0  0  0
  -28.5552  -25.7817   21.9696 H   0  0  0  0  0  0
  -27.2192  -25.1160   21.0631 H   0  0  0  0  0  0
  -29.0808  -15.4857   21.2221 H   0  0  0  0  0  0
  1 25  1  0  0  0
  1 30  2  0  0  0
  1 86  1  0  0  0
  2  3  1  0  0  0
  2 25  1  0  0  0
  2 87  1  0  0  0
  2 88  1  0  0  0
  3  4  1  0  0  0
  3 89  1  0  0  0
  3 90  1  0  0  0
  4  5  1  0  0  0
  4 91  1  0  0  0
  4 92  1  0  0  0
  5  6  1  0  0  0
  5 26  1  0  0  0
  5 93  1  0  0  0
  6 25  1  0  0  0
  6 94  1  0  0  0
  6 95  1  0  0  0
  7  8  2  0  0  0
  7 26  1  0  0  0
  7 29  1  0  0  0
  8  9  1  0  0  0
  8 22  1  0  0  0
  9 10  1  0  0  0
  9 27  2  0  0  0
 10 11  2  0  0  0
 10 15  1  0  0  0
 11 12  1  0  0  0
 11 96  1  0  0  0
 12 13  2  0  0  0
 12 97  1  0  0  0
 13 14  1  0  0  0
 13 31  1  0  0  0
 14 15  2  0  0  0
 14 98  1  0  0  0
 15 99  1  0  0  0
 16 17  2  0  0  0
 16 21  1  0  0  0
 16 31  1  0  0  0
 17 18  1  0  0  0
 17100  1  0  0  0
 18 19  2  0  0  0
 18101  1  0  0  0
 19 20  1  0  0  0
 19 24  1  0  0  0
 20 21  2  0  0  0
 20102  1  0  0  0
 21 23  1  0  0  0
 22 28  1  0  0  0
 22 32  2  0  0  0
 26 27  1  0  0  0
 28103  1  0  0  0
 28104  1  0  0  0
 29105  1  0  0  0
 29106  1  0  0  0
 33 34  1  0  0  0
 33 66  1  0  0  0
 33 70  2  0  0  0
 34 36  1  0  0  0
 34 59  1  0  0  0
 34107  1  0  0  0
 35 44  2  0  0  0
 35 45  1  0  0  0
 35 68  1  0  0  0
 36 56  1  0  0  0
 36108  1  0  0  0
 37 39  1  0  0  0
 37 47  1  0  0  0
 37 66  1  0  0  0
 37109  1  0  0  0
 38 43  2  0  0  0
 38 46  1  0  0  0
 38 47  1  0  0  0
 39 64  1  0  0  0
 39 67  2  0  0  0
 40 52  1  0  0  0
 40 53  2  0  0  0
 40 58  1  0  0  0
 41110  1  0  0  0
 41111  1  0  0  0
 41112  1  0  0  0
 41 48  1  0  0  0
 42 43  1  0  0  0
 42 66  1  0  0  0
 42113  1  0  0  0
 42114  1  0  0  0
 43 44  1  0  0  0
 44115  1  0  0  0
 45 46  2  0  0  0
 45116  1  0  0  0
 46117  1  0  0  0
 47118  1  0  0  0
 47119  1  0  0  0
 48 56  1  0  0  0
 48 65  1  0  0  0
 48120  1  0  0  0
 49 50  1  0  0  0
 49 53  1  0  0  0
 49 64  1  0  0  0
 49121  1  0  0  0
 50 51  1  0  0  0
 50122  1  0  0  0
 50123  1  0  0  0
 51 52  1  0  0  0
 51124  1  0  0  0
 51125  1  0  0  0
 52126  1  0  0  0
 52127  1  0  0  0
 53 54  1  0  0  0
 54 55  2  0  0  0
 54128  1  0  0  0
 55 57  1  0  0  0
 55129  1  0  0  0
 56 69  2  0  0  0
 57 58  2  0  0  0
 57130  1  0  0  0
 58131  1  0  0  0
 59 60  1  0  0  0
 59 61  1  0  0  0
 59 62  1  0  0  0
 60132  1  0  0  0
 60133  1  0  0  0
 60134  1  0  0  0
 61135  1  0  0  0
 61136  1  0  0  0
 61137  1  0  0  0
 62138  1  0  0  0
 62139  1  0  0  0
 62140  1  0  0  0
 63 65  1  0  0  0
 63141  1  0  0  0
 63142  1  0  0  0
 63143  1  0  0  0
 64144  1  0  0  0
 65145  1  0  0  0
 68 84  1  0  0  0
 71 73  2  0  0  0
 71 75  1  0  0  0
 71146  1  0  0  0
 72 74  2  0  0  0
 72 85  1  0  0  0
 72147  1  0  0  0
 73 74  1  0  0  0
 73 76  1  0  0  0
 74 77  1  0  0  0
 75 85  2  0  0  0
 75 86  1  0  0  0
 76 81  2  0  0  0
 76148  1  0  0  0
 77 79  2  0  0  0
 77149  1  0  0  0
 78 80  2  0  0  0
 78 81  1  0  0  0
 78150  1  0  0  0
 79 82  1  0  0  0
 79151  1  0  0  0
 80 84  1  0  0  0
 80152  1  0  0  0
 81 83  1  0  0  0
 82153  1  0  0  0
 82154  1  0  0  0
 82155  1  0  0  0
 83156  1  0  0  0
 83157  1  0  0  0
 83158  1  0  0  0
 84159  1  0  0  0
 84160  1  0  0  0
 86161  1  0  0  0
M  ISO  4   1 100  68 101  84 101  86 100
M  END
> <chiral flag>
0

> <version>
0

> <s_m_source_file>
/data/baiqing/PycharmProjects/Reinvent-master-3.2/result/LINK_invent/BTK/process_docking_weight1_custom_product_contain_oxygen_bond_distance_aromatic_linkinvent_7_9_3/rearranged_h_0128.sdf

> <i_m_source_file_index>
67

> <r_mmod_Potential_Energy-OPLS-2005>
-69.5420150756836

> <r_mmod_Stretch_Energy-OPLS-2005>
48.9979591369629

> <r_mmod_Bend_Energy-OPLS-2005>
105.523696899414

> <r_mmod_Torsional_Energy-OPLS-2005>
257.240051269531

> <r_mmod_Improper_Torsional_Energy-OPLS-2005>
5.48240184783936

> <r_mmod_Van_der_Waal_Energy-OPLS-2005>
166.990036010742

> <r_mmod_Electrostatic_Energy-OPLS-2005>
-451.331176757812

> <r_mmod_Solvation_Energy-OPLS-2005>
-222.427429199219

> <b_mmod_Minimization_Converged-OPLS-2005>
0

> <r_mmod_RMS_Derivative-OPLS-2005>
2.19112658500671

$$$$
67
                    3D
 Structure written by MMmdl.
168176  0  0  1  0            999 V2000
  -30.7647  -14.3546   20.6687 C   0  0  0  0  0  0
  -30.4127  -12.2755   19.3961 C   0  0  0  0  0  0
  -29.4822  -12.5197   18.1929 C   0  0  0  0  0  0
  -28.0068  -12.3781   18.6089 C   0  0  0  0  0  0
  -27.6673  -13.1997   19.8810 C   0  0  2  0  0  0
  -28.7036  -12.9365   20.9967 C   0  0  0  0  0  0
  -25.2611  -13.8148   20.5676 C   0  0  0  0  0  0
  -24.1845  -13.0438   20.9152 C   0  0  0  0  0  0
  -24.6389  -11.6904   20.8725 C   0  0  0  0  0  0
  -23.9055  -10.4289   21.0403 C   0  0  0  0  0  0
  -24.3606   -9.4214   21.9193 C   0  0  0  0  0  0
  -23.6286   -8.2252   22.0760 C   0  0  0  0  0  0
  -22.4273   -8.0279   21.3540 C   0  0  0  0  0  0
  -21.9912   -9.0239   20.4637 C   0  0  0  0  0  0
  -22.7235  -10.2125   20.3038 C   0  0  0  0  0  0
  -21.6851   -6.0735   22.5276 C   0  0  0  0  0  0
  -21.4002   -6.5638   23.8209 C   0  0  0  0  0  0
  -21.3654   -5.6790   24.9170 C   0  0  0  0  0  0
  -21.6048   -4.3055   24.7223 C   0  0  0  0  0  0
  -21.8821   -3.8144   23.4346 C   0  0  0  0  0  0
  -21.9196   -4.6963   22.3399 C   0  0  0  0  0  0
  -22.7869  -13.5238   21.1824 C   0  0  0  0  0  0
  -22.1665   -4.2146   21.0982 F   0  0  0  0  0  0
  -21.5635   -3.4542   25.7740 F   0  0  0  0  0  0
  -30.0484  -13.2206   20.4617 N   0  0  0  0  0  0
  -26.3049  -12.9309   20.3387 N   0  0  0  0  0  0
  -25.9313  -11.6476   20.5763 N   0  0  0  0  0  0
  -22.0492  -12.8209   22.0352 N   0  0  0  0  0  0
  -25.4364  -15.1858   20.4077 N   0  0  0  0  0  0
  -31.7910  -14.6172   20.0333 O   0  0  0  0  0  0
  -21.6633   -6.8879   21.4241 O   0  0  0  0  0  0
  -22.3570  -14.5573   20.6714 O   0  0  0  0  0  0
  -24.6119  -31.8708   23.2121 C   0  0  0  0  0  0
  -25.9023  -32.4837   23.8410 C   0  0  1  0  0  0
  -27.2341  -27.4637   20.0815 C   0  0  0  0  0  0
  -25.5876  -33.8638   24.2331 N   0  0  0  0  0  0
  -23.3968  -30.4937   21.5545 C   0  0  2  0  0  0
  -24.8396  -28.9643   20.1160 C   0  0  0  0  0  0
  -22.7390  -29.4663   22.5027 C   0  0  0  0  0  0
  -18.0251  -28.1357   22.8492 C   0  0  0  0  0  0
  -24.1470  -36.7313   23.2636 C   0  0  0  0  0  0
  -25.9218  -30.8450   21.3590 C   0  0  0  0  0  0
  -25.9983  -29.4813   20.7075 C   0  0  0  0  0  0
  -27.1961  -28.7373   20.6870 C   0  0  0  0  0  0
  -26.0534  -26.9523   19.4908 C   0  0  0  0  0  0
  -24.8607  -27.6977   19.5085 C   0  0  0  0  0  0
  -23.6005  -29.8268   20.1682 C   0  0  0  0  0  0
  -25.4092  -36.3129   24.0334 C   0  0  1  0  0  0
  -20.5843  -28.3635   23.1321 C   0  0  2  0  0  0
  -20.6757  -26.9375   22.5405 C   0  0  0  0  0  0
  -19.5726  -26.6375   21.5203 C   0  0  0  0  0  0
  -18.1896  -26.7898   22.1612 C   0  0  0  0  0  0
  -19.1506  -28.8809   23.2902 C   0  0  0  0  0  0
  -18.9446  -30.1418   23.8901 C   0  0  0  0  0  0
  -17.6455  -30.6570   24.0570 C   0  0  0  0  0  0
  -25.9026  -34.9488   23.5136 C   0  0  0  0  0  0
  -16.5341  -29.9074   23.6336 C   0  0  0  0  0  0
  -16.7243  -28.6496   23.0341 C   0  0  0  0  0  0
  -26.4454  -31.6607   25.0736 C   0  0  0  0  0  0
  -25.3714  -31.3636   26.1472 C   0  0  0  0  0  0
  -27.0345  -30.3089   24.6065 C   0  0  0  0  0  0
  -27.6007  -32.4330   25.7534 C   0  0  0  0  0  0
  -27.5557  -37.1825   24.8455 C   0  0  0  0  0  0
  -21.4121  -29.3026   22.3769 N   0  0  0  0  0  0
  -26.4268  -37.3822   23.9406 N   0  0  0  0  0  0
  -24.6628  -31.0824   22.1015 N   0  0  0  0  0  0
  -23.4178  -28.8208   23.3066 O   0  0  0  0  0  0
  -28.4341  -26.7880   20.0968 O   0  0  0  0  0  0
  -26.5623  -34.8930   22.4713 O   0  0  0  0  0  0
  -23.5320  -32.1452   23.7527 O   0  0  0  0  0  0
  -31.3319  -19.2323   22.1975 C   0  0  0  0  0  0
  -32.0107  -16.9444   21.7600 C   0  0  0  0  0  0
  -29.6581  -17.4497   22.1741 C   0  0  0  0  0  0
  -32.3537  -18.3050   21.9135 C   0  0  0  0  0  0
  -29.9904  -18.8114   22.3254 C   0  0  0  0  0  0
  -30.6642  -16.5144   21.8551 C   0  0  0  0  0  0
  -33.7259  -18.7994   21.6994 C   0  0  0  0  0  0
  -34.7214  -18.1299   21.0896 C   0  0  0  0  0  0
  -28.9502  -19.8074   22.5488 C   0  0  0  0  0  0
  -28.0284  -24.5291   20.9619 C   0  0  0  0  0  0
  -36.4851  -18.7383   19.3921 C   0  0  0  0  0  0
  -36.1156  -18.6803   20.8791 C   0  0  0  0  0  0
  -28.9016  -23.3201   21.2852 C   0  0  0  0  0  0
  -28.4780  -25.3959   19.7738 C   0  0  0  0  0  0
  -28.1307  -22.1245   21.8660 C   0  0  0  0  0  0
  -28.0031  -19.6206   23.4631 N   0  0  0  0  0  0
  -30.2825  -15.1658   21.6242 N   0  0  0  0  0  0
  -28.9795  -20.9217   21.8090 N   0  3  0  0  0  0
  -27.0238  -24.7912   21.6310 O   0  0  0  0  0  0
  -31.4569  -12.3659   19.0904 H   0  0  0  0  0  0
  -30.3034  -11.2527   19.7589 H   0  0  0  0  0  0
  -29.7112  -11.8169   17.3911 H   0  0  0  0  0  0
  -29.6542  -13.5176   17.7868 H   0  0  0  0  0  0
  -27.8141  -11.3196   18.7895 H   0  0  0  0  0  0
  -27.3517  -12.6703   17.7869 H   0  0  0  0  0  0
  -27.7259  -14.2543   19.6097 H   0  0  0  0  0  0
  -28.6608  -11.8921   21.3089 H   0  0  0  0  0  0
  -28.4511  -13.5083   21.8897 H   0  0  0  0  0  0
  -25.2751   -9.5699   22.4768 H   0  0  0  0  0  0
  -23.9992   -7.4649   22.7492 H   0  0  0  0  0  0
  -21.0853   -8.8746   19.8932 H   0  0  0  0  0  0
  -22.3702  -10.9654   19.6130 H   0  0  0  0  0  0
  -21.1978   -7.6141   23.9712 H   0  0  0  0  0  0
  -21.1472   -6.0518   25.9074 H   0  0  0  0  0  0
  -22.0607   -2.7606   23.2847 H   0  0  0  0  0  0
  -22.4077  -11.9817   22.4670 H   0  0  0  0  0  0
  -21.1096  -13.1216   22.2537 H   0  0  0  0  0  0
  -24.6714  -15.8451   20.5073 H   0  0  0  0  0  0
  -26.2938  -15.6206   20.0904 H   0  0  0  0  0  0
  -26.7112  -32.5545   23.1194 H   0  0  0  0  0  0
  -25.0021  -33.9830   25.0471 H   0  0  0  0  0  0
  -22.6842  -31.3095   21.4168 H   0  0  0  0  0  0
  -23.3751  -35.9630   23.3303 H   0  0  0  0  0  0
  -24.3553  -36.8933   22.2051 H   0  0  0  0  0  0
  -23.7205  -37.6499   23.6665 H   0  0  0  0  0  0
  -26.0245  -31.6096   20.5874 H   0  0  0  0  0  0
  -26.8156  -30.9029   21.9705 H   0  0  0  0  0  0
  -28.0942  -29.1353   21.1377 H   0  0  0  0  0  0
  -26.0251  -25.9837   19.0168 H   0  0  0  0  0  0
  -23.9685  -27.2918   19.0537 H   0  0  0  0  0  0
  -23.7037  -30.6021   19.4082 H   0  0  0  0  0  0
  -22.7254  -29.2453   19.8723 H   0  0  0  0  0  0
  -25.1265  -36.2009   25.0829 H   0  0  0  0  0  0
  -20.9920  -28.3194   24.1445 H   0  0  0  0  0  0
  -20.5667  -26.2235   23.3586 H   0  0  0  0  0  0
  -21.6619  -26.7437   22.1170 H   0  0  0  0  0  0
  -19.6897  -25.6308   21.1182 H   0  0  0  0  0  0
  -19.6647  -27.3236   20.6777 H   0  0  0  0  0  0
  -17.4167  -26.6648   21.4013 H   0  0  0  0  0  0
  -18.0280  -26.0008   22.8969 H   0  0  0  0  0  0
  -19.7940  -30.7224   24.2252 H   0  0  0  0  0  0
  -17.5022  -31.6245   24.5178 H   0  0  0  0  0  0
  -15.5349  -30.2997   23.7661 H   0  0  0  0  0  0
  -15.8622  -28.0848   22.7049 H   0  0  0  0  0  0
  -24.5898  -30.7001   25.7751 H   0  0  0  0  0  0
  -24.8904  -32.2765   26.5002 H   0  0  0  0  0  0
  -25.8055  -30.8721   27.0191 H   0  0  0  0  0  0
  -26.2929  -29.6829   24.1105 H   0  0  0  0  0  0
  -27.4177  -29.7325   25.4491 H   0  0  0  0  0  0
  -27.8696  -30.4487   23.9197 H   0  0  0  0  0  0
  -27.2625  -33.3640   26.2107 H   0  0  0  0  0  0
  -28.3850  -32.6880   25.0391 H   0  0  0  0  0  0
  -28.0640  -31.8449   26.5469 H   0  0  0  0  0  0
  -28.2557  -38.0145   24.7556 H   0  0  0  0  0  0
  -28.1078  -36.2677   24.6241 H   0  0  0  0  0  0
  -27.2264  -37.1412   25.8853 H   0  0  0  0  0  0
  -20.9282  -29.8779   21.7018 H   0  0  0  0  0  0
  -26.0153  -38.2894   24.1435 H   0  0  0  0  0  0
  -31.5788  -20.2804   22.3010 H   0  0  0  0  0  0
  -32.7904  -16.2272   21.5557 H   0  0  0  0  0  0
  -28.6241  -17.1392   22.2438 H   0  0  0  0  0  0
  -33.9331  -19.7924   22.0735 H   0  0  0  0  0  0
  -34.5580  -17.1349   20.7005 H   0  0  0  0  0  0
  -37.4961  -19.1245   19.2582 H   0  0  0  0  0  0
  -35.8073  -19.3910   18.8396 H   0  0  0  0  0  0
  -36.4448  -17.7493   18.9329 H   0  0  0  0  0  0
  -36.8242  -18.0467   21.4144 H   0  0  0  0  0  0
  -36.1931  -19.6767   21.3180 H   0  0  0  0  0  0
  -29.6660  -23.6440   21.9917 H   0  0  0  0  0  0
  -29.4204  -23.0242   20.3727 H   0  0  0  0  0  0
  -27.9090  -25.1578   18.8774 H   0  0  0  0  0  0
  -29.5129  -25.1461   19.5402 H   0  0  0  0  0  0
  -27.2134  -21.9439   21.3021 H   0  0  0  0  0  0
  -27.8351  -22.3389   22.8948 H   0  0  0  0  0  0
  -28.0505  -18.8069   24.0581 H   0  0  0  0  0  0
  -27.2400  -20.2621   23.5952 H   0  0  0  0  0  0
  -29.4271  -14.8531   22.0574 H   0  0  0  0  0  0
  -29.6311  -20.8794   21.0353 H   0  0  0  0  0  0
  1 25  1  0  0  0
  1 30  2  0  0  0
  1 87  1  0  0  0
  2  3  1  0  0  0
  2 25  1  0  0  0
  2 90  1  0  0  0
  2 91  1  0  0  0
  3  4  1  0  0  0
  3 92  1  0  0  0
  3 93  1  0  0  0
  4  5  1  0  0  0
  4 94  1  0  0  0
  4 95  1  0  0  0
  5  6  1  0  0  0
  5 26  1  0  0  0
  5 96  1  0  0  0
  6 25  1  0  0  0
  6 97  1  0  0  0
  6 98  1  0  0  0
  7  8  2  0  0  0
  7 26  1  0  0  0
  7 29  1  0  0  0
  8  9  1  0  0  0
  8 22  1  0  0  0
  9 10  1  0  0  0
  9 27  2  0  0  0
 10 11  2  0  0  0
 10 15  1  0  0  0
 11 12  1  0  0  0
 11 99  1  0  0  0
 12 13  2  0  0  0
 12100  1  0  0  0
 13 14  1  0  0  0
 13 31  1  0  0  0
 14 15  2  0  0  0
 14101  1  0  0  0
 15102  1  0  0  0
 16 17  2  0  0  0
 16 21  1  0  0  0
 16 31  1  0  0  0
 17 18  1  0  0  0
 17103  1  0  0  0
 18 19  2  0  0  0
 18104  1  0  0  0
 19 20  1  0  0  0
 19 24  1  0  0  0
 20 21  2  0  0  0
 20105  1  0  0  0
 21 23  1  0  0  0
 22 28  1  0  0  0
 22 32  2  0  0  0
 26 27  1  0  0  0
 28106  1  0  0  0
 28107  1  0  0  0
 29108  1  0  0  0
 29109  1  0  0  0
 33 34  1  0  0  0
 33 66  1  0  0  0
 33 70  2  0  0  0
 34 36  1  0  0  0
 34 59  1  0  0  0
 34110  1  0  0  0
 35 44  2  0  0  0
 35 45  1  0  0  0
 35 68  1  0  0  0
 36 56  1  0  0  0
 36111  1  0  0  0
 37 39  1  0  0  0
 37 47  1  0  0  0
 37 66  1  0  0  0
 37112  1  0  0  0
 38 43  2  0  0  0
 38 46  1  0  0  0
 38 47  1  0  0  0
 39 64  1  0  0  0
 39 67  2  0  0  0
 40 52  1  0  0  0
 40 53  2  0  0  0
 40 58  1  0  0  0
 41113  1  0  0  0
 41114  1  0  0  0
 41115  1  0  0  0
 41 48  1  0  0  0
 42 43  1  0  0  0
 42 66  1  0  0  0
 42116  1  0  0  0
 42117  1  0  0  0
 43 44  1  0  0  0
 44118  1  0  0  0
 45 46  2  0  0  0
 45119  1  0  0  0
 46120  1  0  0  0
 47121  1  0  0  0
 47122  1  0  0  0
 48 56  1  0  0  0
 48 65  1  0  0  0
 48123  1  0  0  0
 49 50  1  0  0  0
 49 53  1  0  0  0
 49 64  1  0  0  0
 49124  1  0  0  0
 50 51  1  0  0  0
 50125  1  0  0  0
 50126  1  0  0  0
 51 52  1  0  0  0
 51127  1  0  0  0
 51128  1  0  0  0
 52129  1  0  0  0
 52130  1  0  0  0
 53 54  1  0  0  0
 54 55  2  0  0  0
 54131  1  0  0  0
 55 57  1  0  0  0
 55132  1  0  0  0
 56 69  2  0  0  0
 57 58  2  0  0  0
 57133  1  0  0  0
 58134  1  0  0  0
 59 60  1  0  0  0
 59 61  1  0  0  0
 59 62  1  0  0  0
 60135  1  0  0  0
 60136  1  0  0  0
 60137  1  0  0  0
 61138  1  0  0  0
 61139  1  0  0  0
 61140  1  0  0  0
 62141  1  0  0  0
 62142  1  0  0  0
 62143  1  0  0  0
 63 65  1  0  0  0
 63144  1  0  0  0
 63145  1  0  0  0
 63146  1  0  0  0
 64147  1  0  0  0
 65148  1  0  0  0
 68 84  1  0  0  0
 71 74  2  0  0  0
 71 75  1  0  0  0
 71149  1  0  0  0
 72 74  1  0  0  0
 72 76  2  0  0  0
 72150  1  0  0  0
 73 75  2  0  0  0
 73 76  1  0  0  0
 73151  1  0  0  0
 74 77  1  0  0  0
 75 79  1  0  0  0
 76 87  1  0  0  0
 77 78  2  0  0  0
 77152  1  0  0  0
 78 82  1  0  0  0
 78153  1  0  0  0
 79 86  1  0  0  0
 79 88  2  0  0  0
 80 83  1  0  0  0
 80 84  1  0  0  0
 80 89  2  0  0  0
 81 82  1  0  0  0
 81154  1  0  0  0
 81155  1  0  0  0
 81156  1  0  0  0
 82157  1  0  0  0
 82158  1  0  0  0
 83 85  1  0  0  0
 83159  1  0  0  0
 83160  1  0  0  0
 84161  1  0  0  0
 84162  1  0  0  0
 85 88  1  0  0  0
 85163  1  0  0  0
 85164  1  0  0  0
 86165  1  0  0  0
 86166  1  0  0  0
 87167  1  0  0  0
 88168  1  0  0  0
M  CHG  1  88   1
M  ISO  4   1 100  68 101  84 101  87 100
M  END
> <chiral flag>
0

> <version>
0

> <s_m_source_file>
/data/baiqing/PycharmProjects/Reinvent-master-3.2/result/LINK_invent/BTK/process_docking_weight1_custom_product_contain_oxygen_bond_distance_aromatic_linkinvent_7_9_3/rearranged_h_0128.sdf

> <i_m_source_file_index>
68

> <r_mmod_Potential_Energy-OPLS-2005>
-292.11962890625

> <r_mmod_Stretch_Energy-OPLS-2005>
32.8187980651855

> <r_mmod_Bend_Energy-OPLS-2005>
102.836837768555

> <r_mmod_Torsional_Energy-OPLS-2005>
211.049713134766

> <r_mmod_Improper_Torsional_Energy-OPLS-2005>
2.79088044166565

> <r_mmod_Van_der_Waal_Energy-OPLS-2005>
167.318481445312

> <r_mmod_Electrostatic_Energy-OPLS-2005>
-377.167755126953

> <r_mmod_Solvation_Energy-OPLS-2005>
-439.548583984375

> <b_mmod_Minimization_Converged-OPLS-2005>
0

> <r_mmod_RMS_Derivative-OPLS-2005>
1.83390390872955

$$$$
68
                    3D
 Structure written by MMmdl.
157165  0  0  1  0            999 V2000
  -30.7607  -14.3959   20.6467 C   0  0  0  0  0  0
  -30.4171  -12.2836   19.4206 C   0  0  0  0  0  0
  -29.4958  -12.5157   18.2083 C   0  0  0  0  0  0
  -28.0143  -12.3852   18.6123 C   0  0  0  0  0  0
  -27.6681  -13.2099   19.8803 C   0  0  2  0  0  0
  -28.7032  -12.9621   20.9993 C   0  0  0  0  0  0
  -25.2618  -13.8195   20.5705 C   0  0  0  0  0  0
  -24.1854  -13.0462   20.9177 C   0  0  0  0  0  0
  -24.6416  -11.6931   20.8718 C   0  0  0  0  0  0
  -23.9086  -10.4301   21.0385 C   0  0  0  0  0  0
  -24.3632   -9.4217   21.9178 C   0  0  0  0  0  0
  -23.6308   -8.2245   22.0763 C   0  0  0  0  0  0
  -22.4289   -8.0279   21.3556 C   0  0  0  0  0  0
  -21.9926   -9.0257   20.4663 C   0  0  0  0  0  0
  -22.7247  -10.2138   20.3052 C   0  0  0  0  0  0
  -21.6854   -6.0738   22.5289 C   0  0  0  0  0  0
  -21.3993   -6.5644   23.8221 C   0  0  0  0  0  0
  -21.3669   -5.6800   24.9184 C   0  0  0  0  0  0
  -21.6060   -4.3064   24.7231 C   0  0  0  0  0  0
  -21.8812   -3.8155   23.4344 C   0  0  0  0  0  0
  -21.9186   -4.6971   22.3400 C   0  0  0  0  0  0
  -22.7869  -13.5264   21.1840 C   0  0  0  0  0  0
  -22.1665   -4.2166   21.0972 F   0  0  0  0  0  0
  -21.5641   -3.4541   25.7739 F   0  0  0  0  0  0
  -30.0458  -13.2504   20.4648 N   0  0  0  0  0  0
  -26.3061  -12.9375   20.3385 N   0  0  0  0  0  0
  -25.9349  -11.6532   20.5763 N   0  0  0  0  0  0
  -22.0485  -12.8257   22.0391 N   0  0  0  0  0  0
  -25.4350  -15.1908   20.4129 N   0  0  0  0  0  0
  -31.8293  -14.6011   20.0633 O   0  0  0  0  0  0
  -21.6645   -6.8881   21.4253 O   0  0  0  0  0  0
  -22.3552  -14.5562   20.6683 O   0  0  0  0  0  0
  -24.6108  -31.8722   23.2137 C   0  0  0  0  0  0
  -25.9026  -32.4835   23.8417 C   0  0  1  0  0  0
  -27.2308  -27.4622   20.0752 C   0  0  0  0  0  0
  -25.5908  -33.8639   24.2351 N   0  0  0  0  0  0
  -23.3973  -30.4962   21.5549 C   0  0  2  0  0  0
  -24.8422  -28.9657   20.1196 C   0  0  0  0  0  0
  -22.7391  -29.4679   22.5020 C   0  0  0  0  0  0
  -18.0272  -28.1375   22.8488 C   0  0  0  0  0  0
  -24.1498  -36.7317   23.2639 C   0  0  0  0  0  0
  -25.9257  -30.8394   21.3691 C   0  0  0  0  0  0
  -25.9998  -29.4752   20.7180 C   0  0  0  0  0  0
  -27.1955  -28.7233   20.7080 C   0  0  0  0  0  0
  -26.0482  -26.9548   19.4914 C   0  0  0  0  0  0
  -24.8569  -27.7001   19.5118 C   0  0  0  0  0  0
  -23.6064  -29.8326   20.1683 C   0  0  0  0  0  0
  -25.4112  -36.3119   24.0346 C   0  0  1  0  0  0
  -20.5855  -28.3651   23.1329 C   0  0  2  0  0  0
  -20.6761  -26.9398   22.5411 C   0  0  0  0  0  0
  -19.5747  -26.6386   21.5206 C   0  0  0  0  0  0
  -18.1922  -26.7920   22.1613 C   0  0  0  0  0  0
  -19.1514  -28.8835   23.2900 C   0  0  0  0  0  0
  -18.9442  -30.1439   23.8918 C   0  0  0  0  0  0
  -17.6442  -30.6581   24.0558 C   0  0  0  0  0  0
  -25.9036  -34.9486   23.5135 C   0  0  0  0  0  0
  -16.5338  -29.9084   23.6324 C   0  0  0  0  0  0
  -16.7255  -28.6497   23.0351 C   0  0  0  0  0  0
  -26.4464  -31.6599   25.0731 C   0  0  0  0  0  0
  -25.3738  -31.3684   26.1481 C   0  0  0  0  0  0
  -27.0280  -30.3047   24.6075 C   0  0  0  0  0  0
  -27.6056  -32.4306   25.7474 C   0  0  0  0  0  0
  -27.5582  -37.1820   24.8464 C   0  0  0  0  0  0
  -21.4129  -29.3019   22.3748 N   0  0  0  0  0  0
  -26.4296  -37.3796   23.9408 N   0  0  0  0  0  0
  -24.6618  -31.0852   22.1024 N   0  0  0  0  0  0
  -23.4174  -28.8216   23.3040 O   0  0  0  0  0  0
  -28.4115  -26.7569   20.0547 O   0  0  0  0  0  0
  -26.5585  -34.8918   22.4694 O   0  0  0  0  0  0
  -23.5313  -32.1468   23.7553 O   0  0  0  0  0  0
  -30.7137  -18.1672   17.9443 C   0  0  0  0  0  0
  -30.4303  -16.9964   18.6954 C   0  0  0  0  0  0
  -30.7352  -19.1995   18.8363 C   0  0  0  0  0  0
  -30.2848  -17.3872   20.0002 C   0  0  0  0  0  0
  -30.9184  -20.5990   18.6419 C   0  0  0  0  0  0
  -30.0456  -16.6815   21.2278 C   0  0  0  0  0  0
  -30.6495  -21.6302   19.4607 C   0  0  0  0  0  0
  -30.1874  -15.3768   21.5571 C   0  0  0  0  0  0
  -30.0151  -23.9562   19.4024 C   0  0  0  0  0  0
  -30.9038  -23.0029   19.0632 C   0  0  0  0  0  0
  -32.1642  -23.3544   18.2891 C   0  0  0  0  0  0
  -30.0884  -25.4087   18.9598 C   0  0  0  0  0  0
  -28.7062  -26.0606   18.8476 C   0  0  0  0  0  0
  -30.4556  -18.7409   20.0929 O   0  0  0  0  0  0
  -31.4628  -12.3633   19.1190 H   0  0  0  0  0  0
  -30.3013  -11.2679   19.8005 H   0  0  0  0  0  0
  -29.7344  -11.8024   17.4182 H   0  0  0  0  0  0
  -29.6780  -13.5079   17.7929 H   0  0  0  0  0  0
  -27.8042  -11.3291   18.7854 H   0  0  0  0  0  0
  -27.3734  -12.6880   17.7840 H   0  0  0  0  0  0
  -27.7267  -14.2637   19.6031 H   0  0  0  0  0  0
  -28.6602  -11.9245   21.3316 H   0  0  0  0  0  0
  -28.4506  -13.5475   21.8812 H   0  0  0  0  0  0
  -25.2768   -9.5705   22.4773 H   0  0  0  0  0  0
  -24.0032   -7.4636   22.7472 H   0  0  0  0  0  0
  -21.0864   -8.8765   19.8976 H   0  0  0  0  0  0
  -22.3690  -10.9678   19.6171 H   0  0  0  0  0  0
  -21.1961   -7.6149   23.9730 H   0  0  0  0  0  0
  -21.1520   -6.0522   25.9096 H   0  0  0  0  0  0
  -22.0582   -2.7616   23.2828 H   0  0  0  0  0  0
  -22.4097  -11.9914   22.4775 H   0  0  0  0  0  0
  -21.1114  -13.1325   22.2602 H   0  0  0  0  0  0
  -24.6734  -15.8507   20.5312 H   0  0  0  0  0  0
  -26.3033  -15.6294   20.1302 H   0  0  0  0  0  0
  -26.7101  -32.5564   23.1185 H   0  0  0  0  0  0
  -25.0087  -33.9808   25.0514 H   0  0  0  0  0  0
  -22.6840  -31.3114   21.4174 H   0  0  0  0  0  0
  -23.3753  -35.9656   23.3313 H   0  0  0  0  0  0
  -24.3594  -36.8914   22.2049 H   0  0  0  0  0  0
  -23.7252  -37.6533   23.6634 H   0  0  0  0  0  0
  -26.0421  -31.6058   20.6012 H   0  0  0  0  0  0
  -26.8117  -30.8908   21.9894 H   0  0  0  0  0  0
  -28.0918  -29.1163   21.1672 H   0  0  0  0  0  0
  -26.0211  -25.9819   19.0269 H   0  0  0  0  0  0
  -23.9631  -27.2967   19.0566 H   0  0  0  0  0  0
  -23.7207  -30.6074   19.4098 H   0  0  0  0  0  0
  -22.7308  -29.2553   19.8684 H   0  0  0  0  0  0
  -25.1288  -36.1988   25.0836 H   0  0  0  0  0  0
  -20.9942  -28.3211   24.1450 H   0  0  0  0  0  0
  -20.5685  -26.2261   23.3585 H   0  0  0  0  0  0
  -21.6632  -26.7460   22.1196 H   0  0  0  0  0  0
  -19.6908  -25.6305   21.1223 H   0  0  0  0  0  0
  -19.6685  -27.3207   20.6743 H   0  0  0  0  0  0
  -17.4193  -26.6676   21.4008 H   0  0  0  0  0  0
  -18.0317  -26.0055   22.9002 H   0  0  0  0  0  0
  -19.7920  -30.7240   24.2304 H   0  0  0  0  0  0
  -17.5003  -31.6264   24.5152 H   0  0  0  0  0  0
  -15.5342  -30.2987   23.7638 H   0  0  0  0  0  0
  -15.8656  -28.0817   22.7065 H   0  0  0  0  0  0
  -24.5908  -30.7036   25.7803 H   0  0  0  0  0  0
  -24.8927  -32.2836   26.4954 H   0  0  0  0  0  0
  -25.8105  -30.8825   27.0220 H   0  0  0  0  0  0
  -26.2807  -29.6822   24.1136 H   0  0  0  0  0  0
  -27.4073  -29.7256   25.4506 H   0  0  0  0  0  0
  -27.8641  -30.4366   23.9197 H   0  0  0  0  0  0
  -27.2692  -33.3599   26.2079 H   0  0  0  0  0  0
  -28.3840  -32.6883   25.0280 H   0  0  0  0  0  0
  -28.0750  -31.8415   26.5359 H   0  0  0  0  0  0
  -28.2608  -38.0108   24.7509 H   0  0  0  0  0  0
  -28.1074  -36.2647   24.6300 H   0  0  0  0  0  0
  -27.2303  -37.1481   25.8866 H   0  0  0  0  0  0
  -20.9304  -29.8750   21.6971 H   0  0  0  0  0  0
  -26.0194  -38.2881   24.1396 H   0  0  0  0  0  0
  -30.8747  -18.2462   16.8777 H   0  0  0  0  0  0
  -30.3383  -15.9889   18.3170 H   0  0  0  0  0  0
  -31.3340  -20.8441   17.6745 H   0  0  0  0  0  0
  -29.6548  -17.3147   22.0111 H   0  0  0  0  0  0
  -30.2340  -21.4301   20.4394 H   0  0  0  0  0  0
  -29.9008  -15.0581   22.5475 H   0  0  0  0  0  0
  -29.1578  -23.6958   20.0084 H   0  0  0  0  0  0
  -32.9245  -22.5781   18.3924 H   0  0  0  0  0  0
  -32.6027  -24.2771   18.6737 H   0  0  0  0  0  0
  -31.9469  -23.4837   17.2286 H   0  0  0  0  0  0
  -30.5419  -25.4364   17.9689 H   0  0  0  0  0  0
  -30.7359  -25.9792   19.6244 H   0  0  0  0  0  0
  -27.9658  -25.3000   18.5983 H   0  0  0  0  0  0
  -28.7056  -26.7820   18.0289 H   0  0  0  0  0  0
  1 25  1  0  0  0
  1 30  2  0  0  0
  1 78  1  0  0  0
  2  3  1  0  0  0
  2 25  1  0  0  0
  2 85  1  0  0  0
  2 86  1  0  0  0
  3  4  1  0  0  0
  3 87  1  0  0  0
  3 88  1  0  0  0
  4  5  1  0  0  0
  4 89  1  0  0  0
  4 90  1  0  0  0
  5  6  1  0  0  0
  5 26  1  0  0  0
  5 91  1  0  0  0
  6 25  1  0  0  0
  6 92  1  0  0  0
  6 93  1  0  0  0
  7  8  2  0  0  0
  7 26  1  0  0  0
  7 29  1  0  0  0
  8  9  1  0  0  0
  8 22  1  0  0  0
  9 10  1  0  0  0
  9 27  2  0  0  0
 10 11  2  0  0  0
 10 15  1  0  0  0
 11 12  1  0  0  0
 11 94  1  0  0  0
 12 13  2  0  0  0
 12 95  1  0  0  0
 13 14  1  0  0  0
 13 31  1  0  0  0
 14 15  2  0  0  0
 14 96  1  0  0  0
 15 97  1  0  0  0
 16 17  2  0  0  0
 16 21  1  0  0  0
 16 31  1  0  0  0
 17 18  1  0  0  0
 17 98  1  0  0  0
 18 19  2  0  0  0
 18 99  1  0  0  0
 19 20  1  0  0  0
 19 24  1  0  0  0
 20 21  2  0  0  0
 20100  1  0  0  0
 21 23  1  0  0  0
 22 28  1  0  0  0
 22 32  2  0  0  0
 26 27  1  0  0  0
 28101  1  0  0  0
 28102  1  0  0  0
 29103  1  0  0  0
 29104  1  0  0  0
 33 34  1  0  0  0
 33 66  1  0  0  0
 33 70  2  0  0  0
 34 36  1  0  0  0
 34 59  1  0  0  0
 34105  1  0  0  0
 35 44  2  0  0  0
 35 45  1  0  0  0
 35 68  1  0  0  0
 36 56  1  0  0  0
 36106  1  0  0  0
 37 39  1  0  0  0
 37 47  1  0  0  0
 37 66  1  0  0  0
 37107  1  0  0  0
 38 43  2  0  0  0
 38 46  1  0  0  0
 38 47  1  0  0  0
 39 64  1  0  0  0
 39 67  2  0  0  0
 40 52  1  0  0  0
 40 53  2  0  0  0
 40 58  1  0  0  0
 41108  1  0  0  0
 41109  1  0  0  0
 41110  1  0  0  0
 41 48  1  0  0  0
 42 43  1  0  0  0
 42 66  1  0  0  0
 42111  1  0  0  0
 42112  1  0  0  0
 43 44  1  0  0  0
 44113  1  0  0  0
 45 46  2  0  0  0
 45114  1  0  0  0
 46115  1  0  0  0
 47116  1  0  0  0
 47117  1  0  0  0
 48 56  1  0  0  0
 48 65  1  0  0  0
 48118  1  0  0  0
 49 50  1  0  0  0
 49 53  1  0  0  0
 49 64  1  0  0  0
 49119  1  0  0  0
 50 51  1  0  0  0
 50120  1  0  0  0
 50121  1  0  0  0
 51 52  1  0  0  0
 51122  1  0  0  0
 51123  1  0  0  0
 52124  1  0  0  0
 52125  1  0  0  0
 53 54  1  0  0  0
 54 55  2  0  0  0
 54126  1  0  0  0
 55 57  1  0  0  0
 55127  1  0  0  0
 56 69  2  0  0  0
 57 58  2  0  0  0
 57128  1  0  0  0
 58129  1  0  0  0
 59 60  1  0  0  0
 59 61  1  0  0  0
 59 62  1  0  0  0
 60130  1  0  0  0
 60131  1  0  0  0
 60132  1  0  0  0
 61133  1  0  0  0
 61134  1  0  0  0
 61135  1  0  0  0
 62136  1  0  0  0
 62137  1  0  0  0
 62138  1  0  0  0
 63 65  1  0  0  0
 63139  1  0  0  0
 63140  1  0  0  0
 63141  1  0  0  0
 64142  1  0  0  0
 65143  1  0  0  0
 68 83  1  0  0  0
 71 72  1  0  0  0
 71 73  2  0  0  0
 71144  1  0  0  0
 72 74  2  0  0  0
 72145  1  0  0  0
 73 75  1  0  0  0
 73 84  1  0  0  0
 74 76  1  0  0  0
 74 84  1  0  0  0
 75 77  2  0  0  0
 75146  1  0  0  0
 76 78  2  0  0  0
 76147  1  0  0  0
 77 80  1  0  0  0
 77148  1  0  0  0
 78149  1  0  0  0
 79 80  2  0  0  0
 79 82  1  0  0  0
 79150  1  0  0  0
 80 81  1  0  0  0
 81151  1  0  0  0
 81152  1  0  0  0
 81153  1  0  0  0
 82 83  1  0  0  0
 82154  1  0  0  0
 82155  1  0  0  0
 83156  1  0  0  0
 83157  1  0  0  0
M  ISO  4   1 100  68 101  78 100  83 101
M  END
> <chiral flag>
0

> <version>
0

> <s_m_source_file>
/data/baiqing/PycharmProjects/Reinvent-master-3.2/result/LINK_invent/BTK/process_docking_weight1_custom_product_contain_oxygen_bond_distance_aromatic_linkinvent_7_9_3/rearranged_h_0128.sdf

> <i_m_source_file_index>
69

> <r_mmod_Potential_Energy-OPLS-2005>
-59.4625816345215

> <r_mmod_Stretch_Energy-OPLS-2005>
30.8898105621338

> <r_mmod_Bend_Energy-OPLS-2005>
94.3736572265625

> <r_mmod_Torsional_Energy-OPLS-2005>
217.178466796875

> <r_mmod_Improper_Torsional_Energy-OPLS-2005>
2.32035160064697

> <r_mmod_Van_der_Waal_Energy-OPLS-2005>
142.465866088867

> <r_mmod_Electrostatic_Energy-OPLS-2005>
-363.975952148438

> <r_mmod_Solvation_Energy-OPLS-2005>
-190.877624511719

> <b_mmod_Minimization_Converged-OPLS-2005>
0

> <r_mmod_RMS_Derivative-OPLS-2005>
2.70091223716736

$$$$
69
                    3D
 Structure written by MMmdl.
163171  0  0  1  0            999 V2000
  -30.6867  -14.4952   20.5510 C   0  0  0  0  0  0
  -30.4174  -12.3137   19.4418 C   0  0  0  0  0  0
  -29.4952  -12.5056   18.2171 C   0  0  0  0  0  0
  -28.0119  -12.3799   18.6179 C   0  0  0  0  0  0
  -27.6582  -13.2150   19.8780 C   0  0  2  0  0  0
  -28.6938  -13.0092   21.0053 C   0  0  0  0  0  0
  -25.2571  -13.8198   20.5699 C   0  0  0  0  0  0
  -24.1818  -13.0470   20.9172 C   0  0  0  0  0  0
  -24.6368  -11.6922   20.8724 C   0  0  0  0  0  0
  -23.9045  -10.4305   21.0390 C   0  0  0  0  0  0
  -24.3606   -9.4217   21.9161 C   0  0  0  0  0  0
  -23.6282   -8.2247   22.0739 C   0  0  0  0  0  0
  -22.4258   -8.0288   21.3535 C   0  0  0  0  0  0
  -21.9882   -9.0267   20.4635 C   0  0  0  0  0  0
  -22.7219  -10.2145   20.3041 C   0  0  0  0  0  0
  -21.6856   -6.0734   22.5261 C   0  0  0  0  0  0
  -21.4025   -6.5630   23.8193 C   0  0  0  0  0  0
  -21.3664   -5.6775   24.9156 C   0  0  0  0  0  0
  -21.6051   -4.3046   24.7190 C   0  0  0  0  0  0
  -21.8828   -3.8145   23.4312 C   0  0  0  0  0  0
  -21.9203   -4.6969   22.3370 C   0  0  0  0  0  0
  -22.7847  -13.5274   21.1858 C   0  0  0  0  0  0
  -22.1681   -4.2160   21.0951 F   0  0  0  0  0  0
  -21.5615   -3.4523   25.7702 F   0  0  0  0  0  0
  -30.0301  -13.3054   20.4587 N   0  0  0  0  0  0
  -26.2993  -12.9368   20.3361 N   0  0  0  0  0  0
  -25.9296  -11.6517   20.5734 N   0  0  0  0  0  0
  -22.0495  -12.8259   22.0418 N   0  0  0  0  0  0
  -25.4375  -15.1903   20.4136 N   0  0  0  0  0  0
  -31.8138  -14.6750   20.0801 O   0  0  0  0  0  0
  -21.6637   -6.8879   21.4216 O   0  0  0  0  0  0
  -22.3535  -14.5607   20.6755 O   0  0  0  0  0  0
  -24.6225  -31.8648   23.2063 C   0  0  0  0  0  0
  -25.9096  -32.4806   23.8364 C   0  0  1  0  0  0
  -27.2289  -27.3907   20.1094 C   0  0  0  0  0  0
  -25.5936  -33.8593   24.2304 N   0  0  0  0  0  0
  -23.4096  -30.4887   21.5494 C   0  0  2  0  0  0
  -24.8534  -28.9552   20.1095 C   0  0  0  0  0  0
  -22.7453  -29.4650   22.4983 C   0  0  0  0  0  0
  -18.0283  -28.1386   22.8497 C   0  0  0  0  0  0
  -24.1476  -36.7312   23.2637 C   0  0  0  0  0  0
  -25.9417  -30.8205   21.3583 C   0  0  0  0  0  0
  -26.0177  -29.4507   20.7098 C   0  0  0  0  0  0
  -27.2082  -28.6788   20.7036 C   0  0  0  0  0  0
  -26.0462  -26.9368   19.4742 C   0  0  0  0  0  0
  -24.8668  -27.7010   19.4812 C   0  0  0  0  0  0
  -23.6161  -29.8230   20.1634 C   0  0  0  0  0  0
  -25.4096  -36.3090   24.0329 C   0  0  1  0  0  0
  -20.5880  -28.3679   23.1322 C   0  0  2  0  0  0
  -20.6775  -26.9409   22.5426 C   0  0  0  0  0  0
  -19.5737  -26.6388   21.5230 C   0  0  0  0  0  0
  -18.1914  -26.7940   22.1631 C   0  0  0  0  0  0
  -19.1540  -28.8850   23.2900 C   0  0  0  0  0  0
  -18.9459  -30.1466   23.8899 C   0  0  0  0  0  0
  -17.6457  -30.6592   24.0563 C   0  0  0  0  0  0
  -25.9041  -34.9470   23.5109 C   0  0  0  0  0  0
  -16.5352  -29.9090   23.6335 C   0  0  0  0  0  0
  -16.7275  -28.6512   23.0359 C   0  0  0  0  0  0
  -26.4502  -31.6589   25.0704 C   0  0  0  0  0  0
  -25.3775  -31.3708   26.1464 C   0  0  0  0  0  0
  -27.0328  -30.3038   24.6056 C   0  0  0  0  0  0
  -27.6050  -32.4316   25.7495 C   0  0  0  0  0  0
  -27.5568  -37.1806   24.8465 C   0  0  0  0  0  0
  -21.4176  -29.3039   22.3736 N   0  0  0  0  0  0
  -26.4276  -37.3785   23.9415 N   0  0  0  0  0  0
  -24.6773  -31.0729   22.0963 N   0  0  0  0  0  0
  -23.4223  -28.8198   23.3034 O   0  0  0  0  0  0
  -28.3630  -26.5855   20.1748 O   0  0  0  0  0  0
  -26.5589  -34.8934   22.4662 O   0  0  0  0  0  0
  -23.5410  -32.1399   23.7440 O   0  0  0  0  0  0
  -29.4958  -16.7249   18.9443 C   0  0  0  0  0  0
  -29.5491  -17.9876   21.0156 C   0  0  0  0  0  0
  -29.0322  -17.8616   18.2555 C   0  0  0  0  0  0
  -28.8482  -19.0942   18.9430 C   0  0  0  0  0  0
  -29.7205  -16.7541   20.3373 C   0  0  0  0  0  0
  -29.1572  -19.1745   20.3353 C   0  0  0  0  0  0
  -28.6534  -17.6731   16.7915 C   0  0  0  0  0  0
  -29.0747  -21.0899   17.2999 C   0  0  0  0  0  0
  -28.1672  -20.2564   18.2202 C   0  0  0  0  0  0
  -29.2550  -24.1922   20.6786 C   0  0  0  0  0  0
  -28.6985  -22.7541   20.9513 C   0  0  0  0  0  0
  -28.0840  -25.1730   20.3745 C   0  0  0  0  0  0
  -29.6580  -21.5257   20.8728 C   0  0  0  0  0  0
  -29.9768  -15.5315   21.0459 N   0  0  0  0  0  0
  -28.9137  -20.3092   21.1014 O   0  0  0  0  0  0
  -31.4661  -12.4019   19.1473 H   0  0  0  0  0  0
  -30.3123  -11.3070   19.8478 H   0  0  0  0  0  0
  -29.7320  -11.7725   17.4450 H   0  0  0  0  0  0
  -29.6698  -13.4838   17.7676 H   0  0  0  0  0  0
  -27.8053  -11.3261   18.8018 H   0  0  0  0  0  0
  -27.3720  -12.6765   17.7852 H   0  0  0  0  0  0
  -27.7008  -14.2623   19.5792 H   0  0  0  0  0  0
  -28.6585  -11.9802   21.3635 H   0  0  0  0  0  0
  -28.4476  -13.6277   21.8716 H   0  0  0  0  0  0
  -25.2747   -9.5710   22.4754 H   0  0  0  0  0  0
  -24.0012   -7.4632   22.7447 H   0  0  0  0  0  0
  -21.0825   -8.8798   19.8930 H   0  0  0  0  0  0
  -22.3678  -10.9699   19.6167 H   0  0  0  0  0  0
  -21.2040   -7.6139   23.9709 H   0  0  0  0  0  0
  -21.1481   -6.0491   25.9061 H   0  0  0  0  0  0
  -22.0621   -2.7611   23.2782 H   0  0  0  0  0  0
  -22.4098  -11.9866   22.4718 H   0  0  0  0  0  0
  -21.1156  -13.1341   22.2721 H   0  0  0  0  0  0
  -24.6833  -15.8609   20.5155 H   0  0  0  0  0  0
  -26.3111  -15.6165   20.1300 H   0  0  0  0  0  0
  -26.7177  -32.5517   23.1133 H   0  0  0  0  0  0
  -25.0123  -33.9723   25.0477 H   0  0  0  0  0  0
  -22.7003  -31.3076   21.4126 H   0  0  0  0  0  0
  -23.3723  -35.9662   23.3305 H   0  0  0  0  0  0
  -24.3572  -36.8925   22.2052 H   0  0  0  0  0  0
  -23.7255  -37.6527   23.6653 H   0  0  0  0  0  0
  -26.0463  -31.5755   20.5774 H   0  0  0  0  0  0
  -26.8357  -30.8864   21.9670 H   0  0  0  0  0  0
  -28.1006  -29.0517   21.1861 H   0  0  0  0  0  0
  -26.0056  -25.9861   18.9649 H   0  0  0  0  0  0
  -23.9781  -27.3169   18.9987 H   0  0  0  0  0  0
  -23.7209  -30.5967   19.4019 H   0  0  0  0  0  0
  -22.7393  -29.2415   19.8724 H   0  0  0  0  0  0
  -25.1270  -36.1931   25.0821 H   0  0  0  0  0  0
  -20.9966  -28.3239   24.1446 H   0  0  0  0  0  0
  -20.5703  -26.2278   23.3620 H   0  0  0  0  0  0
  -21.6643  -26.7464   22.1200 H   0  0  0  0  0  0
  -19.6892  -25.6298   21.1261 H   0  0  0  0  0  0
  -19.6677  -27.3209   20.6766 H   0  0  0  0  0  0
  -17.4196  -26.6725   21.4011 H   0  0  0  0  0  0
  -18.0277  -26.0084   22.9023 H   0  0  0  0  0  0
  -19.7937  -30.7290   24.2260 H   0  0  0  0  0  0
  -17.5014  -31.6278   24.5161 H   0  0  0  0  0  0
  -15.5346  -30.2990   23.7661 H   0  0  0  0  0  0
  -15.8677  -28.0838   22.7060 H   0  0  0  0  0  0
  -24.5918  -30.7076   25.7832 H   0  0  0  0  0  0
  -24.9012  -32.2880   26.4939 H   0  0  0  0  0  0
  -25.8151  -30.8871   27.0208 H   0  0  0  0  0  0
  -26.2860  -29.6804   24.1129 H   0  0  0  0  0  0
  -27.4150  -29.7256   25.4479 H   0  0  0  0  0  0
  -27.8669  -30.4373   23.9161 H   0  0  0  0  0  0
  -27.2628  -33.3589   26.2103 H   0  0  0  0  0  0
  -28.3863  -32.6925   25.0345 H   0  0  0  0  0  0
  -28.0721  -31.8435   26.5407 H   0  0  0  0  0  0
  -28.2584  -38.0103   24.7495 H   0  0  0  0  0  0
  -28.1058  -36.2632   24.6286 H   0  0  0  0  0  0
  -27.2301  -37.1467   25.8874 H   0  0  0  0  0  0
  -20.9357  -29.8770   21.6954 H   0  0  0  0  0  0
  -26.0153  -38.2857   24.1415 H   0  0  0  0  0  0
  -29.5930  -15.7990   18.3965 H   0  0  0  0  0  0
  -29.6863  -18.0215   22.0873 H   0  0  0  0  0  0
  -28.9925  -16.7068   16.4140 H   0  0  0  0  0  0
  -29.1000  -18.4235   16.1441 H   0  0  0  0  0  0
  -27.5697  -17.7050   16.6684 H   0  0  0  0  0  0
  -28.5022  -21.8991   16.8439 H   0  0  0  0  0  0
  -29.4941  -20.5043   16.4850 H   0  0  0  0  0  0
  -29.9120  -21.5404   17.8276 H   0  0  0  0  0  0
  -27.6922  -20.9051   18.9490 H   0  0  0  0  0  0
  -27.3323  -19.8658   17.6389 H   0  0  0  0  0  0
  -29.9403  -24.1765   19.8320 H   0  0  0  0  0  0
  -29.8280  -24.5432   21.5387 H   0  0  0  0  0  0
  -27.8851  -22.5847   20.2505 H   0  0  0  0  0  0
  -28.2196  -22.7534   21.9306 H   0  0  0  0  0  0
  -27.3580  -25.0859   21.1871 H   0  0  0  0  0  0
  -27.6071  -24.7737   19.4807 H   0  0  0  0  0  0
  -30.4142  -21.6003   21.6568 H   0  0  0  0  0  0
  -30.2085  -21.5003   19.9381 H   0  0  0  0  0  0
  -29.2474  -15.2647   21.6923 H   0  0  0  0  0  0
  1 25  1  0  0  0
  1 30  2  0  0  0
  1 84  1  0  0  0
  2  3  1  0  0  0
  2 25  1  0  0  0
  2 86  1  0  0  0
  2 87  1  0  0  0
  3  4  1  0  0  0
  3 88  1  0  0  0
  3 89  1  0  0  0
  4  5  1  0  0  0
  4 90  1  0  0  0
  4 91  1  0  0  0
  5  6  1  0  0  0
  5 26  1  0  0  0
  5 92  1  0  0  0
  6 25  1  0  0  0
  6 93  1  0  0  0
  6 94  1  0  0  0
  7  8  2  0  0  0
  7 26  1  0  0  0
  7 29  1  0  0  0
  8  9  1  0  0  0
  8 22  1  0  0  0
  9 10  1  0  0  0
  9 27  2  0  0  0
 10 11  2  0  0  0
 10 15  1  0  0  0
 11 12  1  0  0  0
 11 95  1  0  0  0
 12 13  2  0  0  0
 12 96  1  0  0  0
 13 14  1  0  0  0
 13 31  1  0  0  0
 14 15  2  0  0  0
 14 97  1  0  0  0
 15 98  1  0  0  0
 16 17  2  0  0  0
 16 21  1  0  0  0
 16 31  1  0  0  0
 17 18  1  0  0  0
 17 99  1  0  0  0
 18 19  2  0  0  0
 18100  1  0  0  0
 19 20  1  0  0  0
 19 24  1  0  0  0
 20 21  2  0  0  0
 20101  1  0  0  0
 21 23  1  0  0  0
 22 28  1  0  0  0
 22 32  2  0  0  0
 26 27  1  0  0  0
 28102  1  0  0  0
 28103  1  0  0  0
 29104  1  0  0  0
 29105  1  0  0  0
 33 34  1  0  0  0
 33 66  1  0  0  0
 33 70  2  0  0  0
 34 36  1  0  0  0
 34 59  1  0  0  0
 34106  1  0  0  0
 35 44  2  0  0  0
 35 45  1  0  0  0
 35 68  1  0  0  0
 36 56  1  0  0  0
 36107  1  0  0  0
 37 39  1  0  0  0
 37 47  1  0  0  0
 37 66  1  0  0  0
 37108  1  0  0  0
 38 43  2  0  0  0
 38 46  1  0  0  0
 38 47  1  0  0  0
 39 64  1  0  0  0
 39 67  2  0  0  0
 40 52  1  0  0  0
 40 53  2  0  0  0
 40 58  1  0  0  0
 41109  1  0  0  0
 41110  1  0  0  0
 41111  1  0  0  0
 41 48  1  0  0  0
 42 43  1  0  0  0
 42 66  1  0  0  0
 42112  1  0  0  0
 42113  1  0  0  0
 43 44  1  0  0  0
 44114  1  0  0  0
 45 46  2  0  0  0
 45115  1  0  0  0
 46116  1  0  0  0
 47117  1  0  0  0
 47118  1  0  0  0
 48 56  1  0  0  0
 48 65  1  0  0  0
 48119  1  0  0  0
 49 50  1  0  0  0
 49 53  1  0  0  0
 49 64  1  0  0  0
 49120  1  0  0  0
 50 51  1  0  0  0
 50121  1  0  0  0
 50122  1  0  0  0
 51 52  1  0  0  0
 51123  1  0  0  0
 51124  1  0  0  0
 52125  1  0  0  0
 52126  1  0  0  0
 53 54  1  0  0  0
 54 55  2  0  0  0
 54127  1  0  0  0
 55 57  1  0  0  0
 55128  1  0  0  0
 56 69  2  0  0  0
 57 58  2  0  0  0
 57129  1  0  0  0
 58130  1  0  0  0
 59 60  1  0  0  0
 59 61  1  0  0  0
 59 62  1  0  0  0
 60131  1  0  0  0
 60132  1  0  0  0
 60133  1  0  0  0
 61134  1  0  0  0
 61135  1  0  0  0
 61136  1  0  0  0
 62137  1  0  0  0
 62138  1  0  0  0
 62139  1  0  0  0
 63 65  1  0  0  0
 63140  1  0  0  0
 63141  1  0  0  0
 63142  1  0  0  0
 64143  1  0  0  0
 65144  1  0  0  0
 68 82  1  0  0  0
 71 73  2  0  0  0
 71 75  1  0  0  0
 71145  1  0  0  0
 72 75  2  0  0  0
 72 76  1  0  0  0
 72146  1  0  0  0
 73 74  1  0  0  0
 73 77  1  0  0  0
 74 76  2  0  0  0
 74 79  1  0  0  0
 75 84  1  0  0  0
 76 85  1  0  0  0
 77147  1  0  0  0
 77148  1  0  0  0
 77149  1  0  0  0
 78 79  1  0  0  0
 78150  1  0  0  0
 78151  1  0  0  0
 78152  1  0  0  0
 79153  1  0  0  0
 79154  1  0  0  0
 80 81  1  0  0  0
 80 82  1  0  0  0
 80155  1  0  0  0
 80156  1  0  0  0
 81 83  1  0  0  0
 81157  1  0  0  0
 81158  1  0  0  0
 82159  1  0  0  0
 82160  1  0  0  0
 83 85  1  0  0  0
 83161  1  0  0  0
 83162  1  0  0  0
 84163  1  0  0  0
M  ISO  4   1 100  68 101  82 101  84 100
M  END
> <chiral flag>
0

> <version>
0

> <s_m_source_file>
/data/baiqing/PycharmProjects/Reinvent-master-3.2/result/LINK_invent/BTK/process_docking_weight1_custom_product_contain_oxygen_bond_distance_aromatic_linkinvent_7_9_3/rearranged_h_0128.sdf

> <i_m_source_file_index>
70

> <r_mmod_Potential_Energy-OPLS-2005>
48.9138946533203

> <r_mmod_Stretch_Energy-OPLS-2005>
48.8983421325684

> <r_mmod_Bend_Energy-OPLS-2005>
114.847076416016

> <r_mmod_Torsional_Energy-OPLS-2005>
282.489685058594

> <r_mmod_Improper_Torsional_Energy-OPLS-2005>
7.96054410934448

> <r_mmod_Van_der_Waal_Energy-OPLS-2005>
152.548782348633

> <r_mmod_Electrostatic_Energy-OPLS-2005>
-371.438232421875

> <r_mmod_Solvation_Energy-OPLS-2005>
-206.766143798828

> <b_mmod_Minimization_Converged-OPLS-2005>
0

> <r_mmod_RMS_Derivative-OPLS-2005>
3.24518036842346

$$$$
70
                    3D
 Structure written by MMmdl.
173181  0  0  1  0            999 V2000
  -30.7093  -14.4614   20.3885 C   0  0  0  0  0  0
  -30.4206  -12.2519   19.4257 C   0  0  0  0  0  0
  -29.4834  -12.3983   18.2060 C   0  0  0  0  0  0
  -28.0022  -12.2964   18.6240 C   0  0  0  0  0  0
  -27.6425  -13.1832   19.8449 C   0  0  2  0  0  0
  -28.7038  -13.0696   20.9647 C   0  0  0  0  0  0
  -25.2576  -13.8088   20.5724 C   0  0  0  0  0  0
  -24.1819  -13.0392   20.9206 C   0  0  0  0  0  0
  -24.6340  -11.6844   20.8775 C   0  0  0  0  0  0
  -23.8970  -10.4291   21.0437 C   0  0  0  0  0  0
  -24.3534   -9.4245   21.9227 C   0  0  0  0  0  0
  -23.6262   -8.2249   22.0786 C   0  0  0  0  0  0
  -22.4263   -8.0277   21.3553 C   0  0  0  0  0  0
  -21.9865   -9.0217   20.4647 C   0  0  0  0  0  0
  -22.7164  -10.2112   20.3062 C   0  0  0  0  0  0
  -21.6848   -6.0732   22.5241 C   0  0  0  0  0  0
  -21.4026   -6.5633   23.8181 C   0  0  0  0  0  0
  -21.3676   -5.6794   24.9148 C   0  0  0  0  0  0
  -21.6038   -4.3043   24.7207 C   0  0  0  0  0  0
  -21.8813   -3.8146   23.4315 C   0  0  0  0  0  0
  -21.9181   -4.6955   22.3377 C   0  0  0  0  0  0
  -22.7863  -13.5189   21.1884 C   0  0  0  0  0  0
  -22.1615   -4.2145   21.0936 F   0  0  0  0  0  0
  -21.5676   -3.4537   25.7719 F   0  0  0  0  0  0
  -30.0424  -13.2828   20.3923 N   0  0  0  0  0  0
  -26.2950  -12.9184   20.3351 N   0  0  0  0  0  0
  -25.9232  -11.6366   20.5758 N   0  0  0  0  0  0
  -22.0511  -12.8206   22.0459 N   0  0  0  0  0  0
  -25.4310  -15.1824   20.4168 N   0  0  0  0  0  0
  -31.9334  -14.5553   20.3152 O   0  0  0  0  0  0
  -21.6644   -6.8868   21.4225 O   0  0  0  0  0  0
  -22.3536  -14.5491   20.6717 O   0  0  0  0  0  0
  -24.6108  -31.8703   23.2170 C   0  0  0  0  0  0
  -25.9026  -32.4827   23.8440 C   0  0  1  0  0  0
  -27.2323  -27.4851   20.0756 C   0  0  0  0  0  0
  -25.5902  -33.8628   24.2355 N   0  0  0  0  0  0
  -23.3953  -30.4968   21.5533 C   0  0  2  0  0  0
  -24.8428  -28.9731   20.1120 C   0  0  0  0  0  0
  -22.7394  -29.4661   22.4986 C   0  0  0  0  0  0
  -18.0259  -28.1388   22.8489 C   0  0  0  0  0  0
  -24.1482  -36.7315   23.2643 C   0  0  0  0  0  0
  -25.9220  -30.8494   21.3665 C   0  0  0  0  0  0
  -25.9995  -29.4891   20.7123 C   0  0  0  0  0  0
  -27.1989  -28.7474   20.7009 C   0  0  0  0  0  0
  -26.0697  -26.9810   19.4600 C   0  0  0  0  0  0
  -24.8691  -27.7143   19.4877 C   0  0  0  0  0  0
  -23.6019  -29.8331   20.1657 C   0  0  0  0  0  0
  -25.4098  -36.3122   24.0343 C   0  0  1  0  0  0
  -20.5844  -28.3644   23.1331 C   0  0  2  0  0  0
  -20.6755  -26.9381   22.5425 C   0  0  0  0  0  0
  -19.5738  -26.6372   21.5228 C   0  0  0  0  0  0
  -18.1903  -26.7935   22.1612 C   0  0  0  0  0  0
  -19.1509  -28.8834   23.2904 C   0  0  0  0  0  0
  -18.9448  -30.1446   23.8905 C   0  0  0  0  0  0
  -17.6456  -30.6591   24.0570 C   0  0  0  0  0  0
  -25.9025  -34.9479   23.5139 C   0  0  0  0  0  0
  -16.5342  -29.9102   23.6336 C   0  0  0  0  0  0
  -16.7254  -28.6522   23.0346 C   0  0  0  0  0  0
  -26.4474  -31.6613   25.0766 C   0  0  0  0  0  0
  -25.3732  -31.3717   26.1517 C   0  0  0  0  0  0
  -27.0321  -30.3068   24.6121 C   0  0  0  0  0  0
  -27.6062  -32.4341   25.7504 C   0  0  0  0  0  0
  -27.5580  -37.1796   24.8458 C   0  0  0  0  0  0
  -21.4123  -29.3023   22.3746 N   0  0  0  0  0  0
  -26.4281  -37.3806   23.9423 N   0  0  0  0  0  0
  -24.6597  -31.0864   22.1035 N   0  0  0  0  0  0
  -23.4210  -28.8188   23.2979 O   0  0  0  0  0  0
  -28.3825  -26.7401   20.0549 O   0  0  0  0  0  0
  -26.5577  -34.8922   22.4697 O   0  0  0  0  0  0
  -23.5300  -32.1420   23.7584 O   0  0  0  0  0  0
  -25.6956  -19.8688   21.5689 C   0  0  0  0  0  0
  -24.4662  -18.9938   19.6683 C   0  0  0  0  0  0
  -23.3844  -20.5383   21.2042 C   0  0  0  0  0  0
  -25.6695  -19.0997   20.3924 C   0  0  0  0  0  0
  -24.5866  -20.6553   21.9363 C   0  0  0  0  0  0
  -23.3011  -19.6862   20.0805 C   0  0  0  0  0  0
  -26.8846  -18.4995   19.8344 C   0  0  0  0  0  0
  -29.9010  -15.5490   19.8818 C   0  0  0  0  0  0
  -28.1060  -18.4571   20.3973 C   0  0  0  0  0  0
  -30.0034  -16.8080   20.3295 C   0  0  0  0  0  0
  -26.6832  -22.7480   22.3796 C   0  0  0  0  0  0
  -24.7282  -21.6701   23.0290 C   0  0  0  0  0  0
  -30.2879  -19.0799   19.3116 C   0  0  0  0  0  0
  -22.0239  -18.8155   18.2326 C   0  0  0  0  0  0
  -27.7228  -23.8373   22.4608 C   0  0  0  0  0  0
  -27.5400  -24.8037   21.2848 C   0  0  0  0  0  0
  -28.5727  -25.9404   21.2216 C   0  0  0  0  0  0
  -29.3067  -17.9534   19.6311 C   0  0  2  0  0  0
  -25.7074  -22.6055   23.1929 N   0  0  0  0  0  0
  -23.8237  -21.6804   23.9527 N   0  3  0  0  0  0
  -22.0933  -19.6112   19.4145 O   0  0  0  0  0  0
  -31.4635  -12.3473   19.1150 H   0  0  0  0  0  0
  -30.3346  -11.2658   19.8845 H   0  0  0  0  0  0
  -29.7027  -11.6137   17.4811 H   0  0  0  0  0  0
  -29.6654  -13.3439   17.6922 H   0  0  0  0  0  0
  -27.8083  -11.2489   18.8591 H   0  0  0  0  0  0
  -27.3563  -12.5369   17.7785 H   0  0  0  0  0  0
  -27.6201  -14.2035   19.4800 H   0  0  0  0  0  0
  -28.6682  -12.0885   21.4387 H   0  0  0  0  0  0
  -28.5010  -13.8051   21.7473 H   0  0  0  0  0  0
  -25.2651   -9.5820   22.4797 H   0  0  0  0  0  0
  -24.0034   -7.4661   22.7491 H   0  0  0  0  0  0
  -21.0819   -8.8648   19.8914 H   0  0  0  0  0  0
  -22.3601  -10.9604   19.6141 H   0  0  0  0  0  0
  -21.2019   -7.6146   23.9676 H   0  0  0  0  0  0
  -21.1511   -6.0533   25.9034 H   0  0  0  0  0  0
  -22.0595   -2.7609   23.2790 H   0  0  0  0  0  0
  -22.4051  -11.9785   22.4758 H   0  0  0  0  0  0
  -21.1130  -13.1266   22.2632 H   0  0  0  0  0  0
  -24.6671  -15.8379   20.5302 H   0  0  0  0  0  0
  -26.3037  -15.6307   20.1682 H   0  0  0  0  0  0
  -26.7101  -32.5573   23.1206 H   0  0  0  0  0  0
  -25.0144  -33.9817   25.0558 H   0  0  0  0  0  0
  -22.6817  -31.3119   21.4171 H   0  0  0  0  0  0
  -23.3758  -35.9643   23.3322 H   0  0  0  0  0  0
  -24.3573  -36.8907   22.2056 H   0  0  0  0  0  0
  -23.7215  -37.6513   23.6645 H   0  0  0  0  0  0
  -26.0322  -31.6192   20.5997 H   0  0  0  0  0  0
  -26.8130  -30.8993   21.9826 H   0  0  0  0  0  0
  -28.0926  -29.1372   21.1665 H   0  0  0  0  0  0
  -26.0884  -26.0147   18.9763 H   0  0  0  0  0  0
  -23.9798  -27.3130   19.0244 H   0  0  0  0  0  0
  -23.7094  -30.6142   19.4120 H   0  0  0  0  0  0
  -22.7267  -29.2529   19.8639 H   0  0  0  0  0  0
  -25.1257  -36.1990   25.0829 H   0  0  0  0  0  0
  -20.9915  -28.3203   24.1461 H   0  0  0  0  0  0
  -20.5674  -26.2236   23.3598 H   0  0  0  0  0  0
  -21.6620  -26.7453   22.1189 H   0  0  0  0  0  0
  -19.6902  -25.6294   21.1236 H   0  0  0  0  0  0
  -19.6702  -27.3199   20.6779 H   0  0  0  0  0  0
  -17.4173  -26.6709   21.4006 H   0  0  0  0  0  0
  -18.0292  -26.0076   22.9002 H   0  0  0  0  0  0
  -19.7927  -30.7262   24.2260 H   0  0  0  0  0  0
  -17.5018  -31.6274   24.5182 H   0  0  0  0  0  0
  -15.5343  -30.3019   23.7660 H   0  0  0  0  0  0
  -15.8642  -28.0861   22.7050 H   0  0  0  0  0  0
  -24.5923  -30.7024   25.7877 H   0  0  0  0  0  0
  -24.8902  -32.2878   26.4944 H   0  0  0  0  0  0
  -25.8088  -30.8926   27.0294 H   0  0  0  0  0  0
  -26.2858  -29.6799   24.1223 H   0  0  0  0  0  0
  -27.4168  -29.7328   25.4568 H   0  0  0  0  0  0
  -27.8659  -30.4427   23.9219 H   0  0  0  0  0  0
  -27.2705  -33.3657   26.2065 H   0  0  0  0  0  0
  -28.3873  -32.6859   25.0319 H   0  0  0  0  0  0
  -28.0728  -31.8479   26.5424 H   0  0  0  0  0  0
  -28.2568  -38.0128   24.7554 H   0  0  0  0  0  0
  -28.1089  -36.2651   24.6205 H   0  0  0  0  0  0
  -27.2299  -37.1348   25.8861 H   0  0  0  0  0  0
  -20.9264  -29.8782   21.7011 H   0  0  0  0  0  0
  -26.0175  -38.2869   24.1493 H   0  0  0  0  0  0
  -26.6020  -19.9655   22.1434 H   0  0  0  0  0  0
  -24.4703  -18.3934   18.7680 H   0  0  0  0  0  0
  -22.5286  -21.1332   21.4827 H   0  0  0  0  0  0
  -26.7785  -18.1032   18.8351 H   0  0  0  0  0  0
  -29.2524  -15.3594   19.0432 H   0  0  0  0  0  0
  -28.2877  -18.8106   21.4036 H   0  0  0  0  0  0
  -30.6326  -17.0424   21.1765 H   0  0  0  0  0  0
  -26.8506  -22.1116   21.5091 H   0  0  0  0  0  0
  -29.7782  -19.9417   18.8776 H   0  0  0  0  0  0
  -31.0356  -18.7439   18.5892 H   0  0  0  0  0  0
  -30.8102  -19.4145   20.2083 H   0  0  0  0  0  0
  -21.0097  -18.8379   17.8371 H   0  0  0  0  0  0
  -22.2678  -17.7689   18.4226 H   0  0  0  0  0  0
  -22.6836  -19.1971   17.4521 H   0  0  0  0  0  0
  -28.7119  -23.3790   22.4353 H   0  0  0  0  0  0
  -27.6444  -24.3639   23.4108 H   0  0  0  0  0  0
  -26.5375  -25.2221   21.3644 H   0  0  0  0  0  0
  -27.5711  -24.2556   20.3417 H   0  0  0  0  0  0
  -29.5769  -25.5187   21.1689 H   0  0  0  0  0  0
  -28.5265  -26.5535   22.1224 H   0  0  0  0  0  0
  -28.9368  -17.5833   18.6712 H   0  0  0  0  0  0
  -23.0411  -21.0302   23.9799 H   0  0  0  0  0  0
  -23.8587  -22.3349   24.7286 H   0  0  0  0  0  0
  1 25  1  0  0  0
  1 30  2  0  0  0
  1 78  1  0  0  0
  2  3  1  0  0  0
  2 25  1  0  0  0
  2 92  1  0  0  0
  2 93  1  0  0  0
  3  4  1  0  0  0
  3 94  1  0  0  0
  3 95  1  0  0  0
  4  5  1  0  0  0
  4 96  1  0  0  0
  4 97  1  0  0  0
  5  6  1  0  0  0
  5 26  1  0  0  0
  5 98  1  0  0  0
  6 25  1  0  0  0
  6 99  1  0  0  0
  6100  1  0  0  0
  7  8  2  0  0  0
  7 26  1  0  0  0
  7 29  1  0  0  0
  8  9  1  0  0  0
  8 22  1  0  0  0
  9 10  1  0  0  0
  9 27  2  0  0  0
 10 11  2  0  0  0
 10 15  1  0  0  0
 11 12  1  0  0  0
 11101  1  0  0  0
 12 13  2  0  0  0
 12102  1  0  0  0
 13 14  1  0  0  0
 13 31  1  0  0  0
 14 15  2  0  0  0
 14103  1  0  0  0
 15104  1  0  0  0
 16 17  2  0  0  0
 16 21  1  0  0  0
 16 31  1  0  0  0
 17 18  1  0  0  0
 17105  1  0  0  0
 18 19  2  0  0  0
 18106  1  0  0  0
 19 20  1  0  0  0
 19 24  1  0  0  0
 20 21  2  0  0  0
 20107  1  0  0  0
 21 23  1  0  0  0
 22 28  1  0  0  0
 22 32  2  0  0  0
 26 27  1  0  0  0
 28108  1  0  0  0
 28109  1  0  0  0
 29110  1  0  0  0
 29111  1  0  0  0
 33 34  1  0  0  0
 33 66  1  0  0  0
 33 70  2  0  0  0
 34 36  1  0  0  0
 34 59  1  0  0  0
 34112  1  0  0  0
 35 44  2  0  0  0
 35 45  1  0  0  0
 35 68  1  0  0  0
 36 56  1  0  0  0
 36113  1  0  0  0
 37 39  1  0  0  0
 37 47  1  0  0  0
 37 66  1  0  0  0
 37114  1  0  0  0
 38 43  2  0  0  0
 38 46  1  0  0  0
 38 47  1  0  0  0
 39 64  1  0  0  0
 39 67  2  0  0  0
 40 52  1  0  0  0
 40 53  2  0  0  0
 40 58  1  0  0  0
 41115  1  0  0  0
 41116  1  0  0  0
 41117  1  0  0  0
 41 48  1  0  0  0
 42 43  1  0  0  0
 42 66  1  0  0  0
 42118  1  0  0  0
 42119  1  0  0  0
 43 44  1  0  0  0
 44120  1  0  0  0
 45 46  2  0  0  0
 45121  1  0  0  0
 46122  1  0  0  0
 47123  1  0  0  0
 47124  1  0  0  0
 48 56  1  0  0  0
 48 65  1  0  0  0
 48125  1  0  0  0
 49 50  1  0  0  0
 49 53  1  0  0  0
 49 64  1  0  0  0
 49126  1  0  0  0
 50 51  1  0  0  0
 50127  1  0  0  0
 50128  1  0  0  0
 51 52  1  0  0  0
 51129  1  0  0  0
 51130  1  0  0  0
 52131  1  0  0  0
 52132  1  0  0  0
 53 54  1  0  0  0
 54 55  2  0  0  0
 54133  1  0  0  0
 55 57  1  0  0  0
 55134  1  0  0  0
 56 69  2  0  0  0
 57 58  2  0  0  0
 57135  1  0  0  0
 58136  1  0  0  0
 59 60  1  0  0  0
 59 61  1  0  0  0
 59 62  1  0  0  0
 60137  1  0  0  0
 60138  1  0  0  0
 60139  1  0  0  0
 61140  1  0  0  0
 61141  1  0  0  0
 61142  1  0  0  0
 62143  1  0  0  0
 62144  1  0  0  0
 62145  1  0  0  0
 63 65  1  0  0  0
 63146  1  0  0  0
 63147  1  0  0  0
 63148  1  0  0  0
 64149  1  0  0  0
 65150  1  0  0  0
 68 87  1  0  0  0
 71 74  2  0  0  0
 71 75  1  0  0  0
 71151  1  0  0  0
 72 74  1  0  0  0
 72 76  2  0  0  0
 72152  1  0  0  0
 73 75  2  0  0  0
 73 76  1  0  0  0
 73153  1  0  0  0
 74 77  1  0  0  0
 75 82  1  0  0  0
 76 91  1  0  0  0
 77 79  2  0  0  0
 77154  1  0  0  0
 78 80  2  0  0  0
 78155  1  0  0  0
 79 88  1  0  0  0
 79156  1  0  0  0
 80 88  1  0  0  0
 80157  1  0  0  0
 81 85  1  0  0  0
 81 89  2  0  0  0
 81158  1  0  0  0
 82 89  1  0  0  0
 82 90  2  0  0  0
 83159  1  0  0  0
 83160  1  0  0  0
 83161  1  0  0  0
 83 88  1  0  0  0
 84 91  1  0  0  0
 84162  1  0  0  0
 84163  1  0  0  0
 84164  1  0  0  0
 85 86  1  0  0  0
 85165  1  0  0  0
 85166  1  0  0  0
 86 87  1  0  0  0
 86167  1  0  0  0
 86168  1  0  0  0
 87169  1  0  0  0
 87170  1  0  0  0
 88171  1  0  0  0
 90172  1  0  0  0
 90173  1  0  0  0
M  CHG  1  90   1
M  ISO  4   1 100  68 101  78 100  87 101
M  END
> <chiral flag>
0

> <version>
0

> <s_m_source_file>
/data/baiqing/PycharmProjects/Reinvent-master-3.2/result/LINK_invent/BTK/process_docking_weight1_custom_product_contain_oxygen_bond_distance_aromatic_linkinvent_7_9_3/rearranged_h_0128.sdf

> <i_m_source_file_index>
71

> <r_mmod_Potential_Energy-OPLS-2005>
16.0078620910645

> <r_mmod_Stretch_Energy-OPLS-2005>
34.9534149169922

> <r_mmod_Bend_Energy-OPLS-2005>
110.046890258789

> <r_mmod_Torsional_Energy-OPLS-2005>
251.529739379883

> <r_mmod_Improper_Torsional_Energy-OPLS-2005>
20.4724025726318

> <r_mmod_Van_der_Waal_Energy-OPLS-2005>
164.578033447266

> <r_mmod_Electrostatic_Energy-OPLS-2005>
-160.750991821289

> <r_mmod_Solvation_Energy-OPLS-2005>
-436.602996826172

> <b_mmod_Minimization_Converged-OPLS-2005>
0

> <r_mmod_RMS_Derivative-OPLS-2005>
4.63615655899048

$$$$
71
                    3D
 Structure written by MMmdl.
159167  0  0  1  0            999 V2000
  -30.6271  -14.5456   20.5799 C   0  0  0  0  0  0
  -30.4416  -12.3551   19.4197 C   0  0  0  0  0  0
  -29.5020  -12.5364   18.2061 C   0  0  0  0  0  0
  -28.0204  -12.3832   18.6109 C   0  0  0  0  0  0
  -27.6623  -13.2044   19.8780 C   0  0  2  0  0  0
  -28.7039  -12.9599   20.9919 C   0  0  0  0  0  0
  -25.2605  -13.8145   20.5692 C   0  0  0  0  0  0
  -24.1854  -13.0435   20.9176 C   0  0  0  0  0  0
  -24.6401  -11.6900   20.8724 C   0  0  0  0  0  0
  -23.9068  -10.4299   21.0402 C   0  0  0  0  0  0
  -24.3623   -9.4213   21.9182 C   0  0  0  0  0  0
  -23.6296   -8.2247   22.0751 C   0  0  0  0  0  0
  -22.4273   -8.0292   21.3546 C   0  0  0  0  0  0
  -21.9910   -9.0267   20.4646 C   0  0  0  0  0  0
  -22.7240  -10.2143   20.3053 C   0  0  0  0  0  0
  -21.6858   -6.0741   22.5279 C   0  0  0  0  0  0
  -21.4018   -6.5643   23.8212 C   0  0  0  0  0  0
  -21.3656   -5.6794   24.9173 C   0  0  0  0  0  0
  -21.6038   -4.3057   24.7224 C   0  0  0  0  0  0
  -21.8818   -3.8152   23.4344 C   0  0  0  0  0  0
  -21.9196   -4.6969   22.3402 C   0  0  0  0  0  0
  -22.7880  -13.5238   21.1846 C   0  0  0  0  0  0
  -22.1668   -4.2154   21.0980 F   0  0  0  0  0  0
  -21.5624   -3.4540   25.7736 F   0  0  0  0  0  0
  -30.0316  -13.3205   20.4539 N   0  0  0  0  0  0
  -26.3029  -12.9303   20.3360 N   0  0  0  0  0  0
  -25.9322  -11.6464   20.5733 N   0  0  0  0  0  0
  -22.0520  -12.8236   22.0400 N   0  0  0  0  0  0
  -25.4354  -15.1864   20.4137 N   0  0  0  0  0  0
  -31.7409  -14.7908   20.0974 O   0  0  0  0  0  0
  -21.6638   -6.8887   21.4243 O   0  0  0  0  0  0
  -22.3575  -14.5558   20.6706 O   0  0  0  0  0  0
  -24.6184  -31.8656   23.2027 C   0  0  0  0  0  0
  -25.9051  -32.4813   23.8353 C   0  0  1  0  0  0
  -27.2439  -27.3889   20.1239 C   0  0  0  0  0  0
  -25.5901  -33.8609   24.2303 N   0  0  0  0  0  0
  -23.4092  -30.4832   21.5448 C   0  0  2  0  0  0
  -24.8588  -28.9290   20.1255 C   0  0  0  0  0  0
  -22.7421  -29.4653   22.4990 C   0  0  0  0  0  0
  -18.0286  -28.1399   22.8507 C   0  0  0  0  0  0
  -24.1487  -36.7301   23.2641 C   0  0  0  0  0  0
  -25.9400  -30.8168   21.3594 C   0  0  0  0  0  0
  -26.0197  -29.4412   20.7197 C   0  0  0  0  0  0
  -27.2153  -28.6806   20.7101 C   0  0  0  0  0  0
  -26.0660  -26.8938   19.5294 C   0  0  0  0  0  0
  -24.8779  -27.6546   19.5285 C   0  0  0  0  0  0
  -23.6225  -29.8026   20.1647 C   0  0  0  0  0  0
  -25.4108  -36.3106   24.0343 C   0  0  1  0  0  0
  -20.5875  -28.3678   23.1334 C   0  0  2  0  0  0
  -20.6773  -26.9413   22.5431 C   0  0  0  0  0  0
  -19.5742  -26.6404   21.5233 C   0  0  0  0  0  0
  -18.1923  -26.7950   22.1640 C   0  0  0  0  0  0
  -19.1535  -28.8850   23.2923 C   0  0  0  0  0  0
  -18.9460  -30.1461   23.8925 C   0  0  0  0  0  0
  -17.6459  -30.6600   24.0571 C   0  0  0  0  0  0
  -25.9042  -34.9474   23.5120 C   0  0  0  0  0  0
  -16.5350  -29.9102   23.6333 C   0  0  0  0  0  0
  -16.7274  -28.6522   23.0350 C   0  0  0  0  0  0
  -26.4459  -31.6596   25.0690 C   0  0  0  0  0  0
  -25.3721  -31.3712   26.1436 C   0  0  0  0  0  0
  -27.0267  -30.3031   24.6064 C   0  0  0  0  0  0
  -27.6029  -32.4309   25.7468 C   0  0  0  0  0  0
  -27.5577  -37.1816   24.8474 C   0  0  0  0  0  0
  -21.4146  -29.3043   22.3730 N   0  0  0  0  0  0
  -26.4295  -37.3791   23.9408 N   0  0  0  0  0  0
  -24.6746  -31.0708   22.0944 N   0  0  0  0  0  0
  -23.4166  -28.8226   23.3076 O   0  0  0  0  0  0
  -28.4211  -26.6628   20.0565 O   0  0  0  0  0  0
  -26.5598  -34.8933   22.4682 O   0  0  0  0  0  0
  -23.5364  -32.1431   23.7394 O   0  0  0  0  0  0
  -28.7845  -17.3338   22.1802 C   0  0  0  0  0  0
  -30.2694  -19.1403   20.7793 C   0  0  0  0  0  0
  -29.3510  -19.6668   21.7258 C   0  0  0  0  0  0
  -28.5696  -18.7062   22.4144 C   0  0  0  0  0  0
  -29.7678  -16.8851   21.2809 C   0  0  0  0  0  0
  -29.2894  -21.0985   22.1760 C   0  0  0  0  0  0
  -29.2011  -22.3320   21.6082 C   0  0  0  0  0  0
  -28.1229  -18.9824   24.8904 C   0  0  0  0  0  0
  -27.5438  -19.0856   23.4733 C   0  0  0  0  0  0
  -29.0728  -22.8025   20.1610 C   0  0  0  0  0  0
  -28.1997  -24.0967   19.9253 C   0  0  0  0  0  0
  -28.5222  -25.3910   20.7492 C   0  0  0  0  0  0
  -30.4816  -17.8014   20.5703 N   0  0  0  0  0  0
  -29.8528  -15.4515   21.2246 N   0  0  0  0  0  0
  -31.4812  -12.4962   19.1196 H   0  0  0  0  0  0
  -30.3768  -11.3363   19.8059 H   0  0  0  0  0  0
  -29.7518  -11.8195   17.4237 H   0  0  0  0  0  0
  -29.6563  -13.5257   17.7723 H   0  0  0  0  0  0
  -27.8278  -11.3247   18.7891 H   0  0  0  0  0  0
  -27.3719  -12.6735   17.7832 H   0  0  0  0  0  0
  -27.7088  -14.2561   19.5973 H   0  0  0  0  0  0
  -28.6979  -11.9077   21.2798 H   0  0  0  0  0  0
  -28.4410  -13.5006   21.9019 H   0  0  0  0  0  0
  -25.2775   -9.5683   22.4750 H   0  0  0  0  0  0
  -24.0009   -7.4629   22.7464 H   0  0  0  0  0  0
  -21.0838   -8.8785   19.8954 H   0  0  0  0  0  0
  -22.3702  -10.9684   19.6158 H   0  0  0  0  0  0
  -21.2015   -7.6152   23.9717 H   0  0  0  0  0  0
  -21.1477   -6.0526   25.9075 H   0  0  0  0  0  0
  -22.0600   -2.7616   23.2842 H   0  0  0  0  0  0
  -22.4134  -11.9894   22.4785 H   0  0  0  0  0  0
  -21.1136  -13.1264   22.2597 H   0  0  0  0  0  0
  -24.6710  -15.8440   20.5239 H   0  0  0  0  0  0
  -26.2919  -15.6274   20.1034 H   0  0  0  0  0  0
  -26.7125  -32.5512   23.1123 H   0  0  0  0  0  0
  -25.0074  -33.9756   25.0464 H   0  0  0  0  0  0
  -22.7006  -31.3014   21.3972 H   0  0  0  0  0  0
  -23.3747  -35.9638   23.3331 H   0  0  0  0  0  0
  -24.3582  -36.8875   22.2051 H   0  0  0  0  0  0
  -23.7250  -37.6522   23.6631 H   0  0  0  0  0  0
  -26.0479  -31.5705   20.5779 H   0  0  0  0  0  0
  -26.8298  -30.8826   21.9735 H   0  0  0  0  0  0
  -28.1155  -29.0788   21.1572 H   0  0  0  0  0  0
  -26.0725  -25.9236   19.0534 H   0  0  0  0  0  0
  -23.9873  -27.2510   19.0664 H   0  0  0  0  0  0
  -23.7362  -30.5710   19.3992 H   0  0  0  0  0  0
  -22.7453  -29.2246   19.8690 H   0  0  0  0  0  0
  -25.1299  -36.1967   25.0841 H   0  0  0  0  0  0
  -20.9986  -28.3242   24.1446 H   0  0  0  0  0  0
  -20.5702  -26.2275   23.3614 H   0  0  0  0  0  0
  -21.6641  -26.7472   22.1202 H   0  0  0  0  0  0
  -19.6894  -25.6322   21.1244 H   0  0  0  0  0  0
  -19.6680  -27.3229   20.6778 H   0  0  0  0  0  0
  -17.4199  -26.6723   21.4033 H   0  0  0  0  0  0
  -18.0301  -26.0096   22.9038 H   0  0  0  0  0  0
  -19.7931  -30.7288   24.2293 H   0  0  0  0  0  0
  -17.5009  -31.6280   24.5171 H   0  0  0  0  0  0
  -15.5347  -30.3002   23.7652 H   0  0  0  0  0  0
  -15.8680  -28.0850   22.7037 H   0  0  0  0  0  0
  -24.5911  -30.7024   25.7801 H   0  0  0  0  0  0
  -24.8882  -32.2863   26.4857 H   0  0  0  0  0  0
  -25.8080  -30.8929   27.0212 H   0  0  0  0  0  0
  -26.2799  -29.6827   24.1088 H   0  0  0  0  0  0
  -27.3999  -29.7235   25.4517 H   0  0  0  0  0  0
  -27.8660  -30.4346   23.9225 H   0  0  0  0  0  0
  -27.2644  -33.3608   26.2048 H   0  0  0  0  0  0
  -28.3847  -32.6861   25.0305 H   0  0  0  0  0  0
  -28.0679  -31.8423   26.5384 H   0  0  0  0  0  0
  -28.2635  -38.0077   24.7490 H   0  0  0  0  0  0
  -28.1033  -36.2610   24.6347 H   0  0  0  0  0  0
  -27.2289  -37.1528   25.8877 H   0  0  0  0  0  0
  -20.9308  -29.8724   21.6920 H   0  0  0  0  0  0
  -26.0180  -38.2874   24.1379 H   0  0  0  0  0  0
  -28.2005  -16.6195   22.7445 H   0  0  0  0  0  0
  -30.9124  -19.8091   20.2266 H   0  0  0  0  0  0
  -29.3776  -21.1630   23.2514 H   0  0  0  0  0  0
  -29.2392  -23.1552   22.3091 H   0  0  0  0  0  0
  -27.3551  -19.1876   25.6352 H   0  0  0  0  0  0
  -28.9331  -19.6952   25.0437 H   0  0  0  0  0  0
  -28.5172  -17.9847   25.0860 H   0  0  0  0  0  0
  -26.6920  -18.4098   23.3857 H   0  0  0  0  0  0
  -27.1401  -20.0823   23.2945 H   0  0  0  0  0  0
  -28.6914  -21.9810   19.5535 H   0  0  0  0  0  0
  -30.0837  -22.9977   19.8013 H   0  0  0  0  0  0
  -27.1461  -23.8529   20.0648 H   0  0  0  0  0  0
  -28.2952  -24.3457   18.8692 H   0  0  0  0  0  0
  -27.9314  -25.4127   21.6668 H   0  0  0  0  0  0
  -29.5602  -25.3312   21.0782 H   0  0  0  0  0  0
  -29.0710  -15.0004   21.6708 H   0  0  0  0  0  0
  1 25  1  0  0  0
  1 30  2  0  0  0
  1 84  1  0  0  0
  2  3  1  0  0  0
  2 25  1  0  0  0
  2 85  1  0  0  0
  2 86  1  0  0  0
  3  4  1  0  0  0
  3 87  1  0  0  0
  3 88  1  0  0  0
  4  5  1  0  0  0
  4 89  1  0  0  0
  4 90  1  0  0  0
  5  6  1  0  0  0
  5 26  1  0  0  0
  5 91  1  0  0  0
  6 25  1  0  0  0
  6 92  1  0  0  0
  6 93  1  0  0  0
  7  8  2  0  0  0
  7 26  1  0  0  0
  7 29  1  0  0  0
  8  9  1  0  0  0
  8 22  1  0  0  0
  9 10  1  0  0  0
  9 27  2  0  0  0
 10 11  2  0  0  0
 10 15  1  0  0  0
 11 12  1  0  0  0
 11 94  1  0  0  0
 12 13  2  0  0  0
 12 95  1  0  0  0
 13 14  1  0  0  0
 13 31  1  0  0  0
 14 15  2  0  0  0
 14 96  1  0  0  0
 15 97  1  0  0  0
 16 17  2  0  0  0
 16 21  1  0  0  0
 16 31  1  0  0  0
 17 18  1  0  0  0
 17 98  1  0  0  0
 18 19  2  0  0  0
 18 99  1  0  0  0
 19 20  1  0  0  0
 19 24  1  0  0  0
 20 21  2  0  0  0
 20100  1  0  0  0
 21 23  1  0  0  0
 22 28  1  0  0  0
 22 32  2  0  0  0
 26 27  1  0  0  0
 28101  1  0  0  0
 28102  1  0  0  0
 29103  1  0  0  0
 29104  1  0  0  0
 33 34  1  0  0  0
 33 66  1  0  0  0
 33 70  2  0  0  0
 34 36  1  0  0  0
 34 59  1  0  0  0
 34105  1  0  0  0
 35 44  2  0  0  0
 35 45  1  0  0  0
 35 68  1  0  0  0
 36 56  1  0  0  0
 36106  1  0  0  0
 37 39  1  0  0  0
 37 47  1  0  0  0
 37 66  1  0  0  0
 37107  1  0  0  0
 38 43  2  0  0  0
 38 46  1  0  0  0
 38 47  1  0  0  0
 39 64  1  0  0  0
 39 67  2  0  0  0
 40 52  1  0  0  0
 40 53  2  0  0  0
 40 58  1  0  0  0
 41108  1  0  0  0
 41109  1  0  0  0
 41110  1  0  0  0
 41 48  1  0  0  0
 42 43  1  0  0  0
 42 66  1  0  0  0
 42111  1  0  0  0
 42112  1  0  0  0
 43 44  1  0  0  0
 44113  1  0  0  0
 45 46  2  0  0  0
 45114  1  0  0  0
 46115  1  0  0  0
 47116  1  0  0  0
 47117  1  0  0  0
 48 56  1  0  0  0
 48 65  1  0  0  0
 48118  1  0  0  0
 49 50  1  0  0  0
 49 53  1  0  0  0
 49 64  1  0  0  0
 49119  1  0  0  0
 50 51  1  0  0  0
 50120  1  0  0  0
 50121  1  0  0  0
 51 52  1  0  0  0
 51122  1  0  0  0
 51123  1  0  0  0
 52124  1  0  0  0
 52125  1  0  0  0
 53 54  1  0  0  0
 54 55  2  0  0  0
 54126  1  0  0  0
 55 57  1  0  0  0
 55127  1  0  0  0
 56 69  2  0  0  0
 57 58  2  0  0  0
 57128  1  0  0  0
 58129  1  0  0  0
 59 60  1  0  0  0
 59 61  1  0  0  0
 59 62  1  0  0  0
 60130  1  0  0  0
 60131  1  0  0  0
 60132  1  0  0  0
 61133  1  0  0  0
 61134  1  0  0  0
 61135  1  0  0  0
 62136  1  0  0  0
 62137  1  0  0  0
 62138  1  0  0  0
 63 65  1  0  0  0
 63139  1  0  0  0
 63140  1  0  0  0
 63141  1  0  0  0
 64142  1  0  0  0
 65143  1  0  0  0
 68 82  1  0  0  0
 71 74  2  0  0  0
 71 75  1  0  0  0
 71144  1  0  0  0
 72 73  2  0  0  0
 72 83  1  0  0  0
 72145  1  0  0  0
 73 74  1  0  0  0
 73 76  1  0  0  0
 74 79  1  0  0  0
 75 83  2  0  0  0
 75 84  1  0  0  0
 76 77  2  0  0  0
 76146  1  0  0  0
 77 80  1  0  0  0
 77147  1  0  0  0
 78 79  1  0  0  0
 78148  1  0  0  0
 78149  1  0  0  0
 78150  1  0  0  0
 79151  1  0  0  0
 79152  1  0  0  0
 80 81  1  0  0  0
 80153  1  0  0  0
 80154  1  0  0  0
 81 82  1  0  0  0
 81155  1  0  0  0
 81156  1  0  0  0
 82157  1  0  0  0
 82158  1  0  0  0
 84159  1  0  0  0
M  ISO  4   1 100  68 101  82 101  84 100
M  END
> <chiral flag>
0

> <version>
0

> <s_m_source_file>
/data/baiqing/PycharmProjects/Reinvent-master-3.2/result/LINK_invent/BTK/process_docking_weight1_custom_product_contain_oxygen_bond_distance_aromatic_linkinvent_7_9_3/rearranged_h_0128.sdf

> <i_m_source_file_index>
72

> <r_mmod_Potential_Energy-OPLS-2005>
-66.4110641479492

> <r_mmod_Stretch_Energy-OPLS-2005>
50.7161750793457

> <r_mmod_Bend_Energy-OPLS-2005>
163.460784912109

> <r_mmod_Torsional_Energy-OPLS-2005>
251.064834594727

> <r_mmod_Improper_Torsional_Energy-OPLS-2005>
4.06884574890137

> <r_mmod_Van_der_Waal_Energy-OPLS-2005>
140.747756958008

> <r_mmod_Electrostatic_Energy-OPLS-2005>
-471.402679443359

> <r_mmod_Solvation_Energy-OPLS-2005>
-225.956207275391

> <b_mmod_Minimization_Converged-OPLS-2005>
0

> <r_mmod_RMS_Derivative-OPLS-2005>
1.84411823749542

$$$$
72
                    3D
 Structure written by MMmdl.
170178  0  0  1  0            999 V2000
  -30.6971  -14.4540   20.5755 C   0  0  0  0  0  0
  -30.4236  -12.2945   19.4171 C   0  0  0  0  0  0
  -29.4952  -12.5094   18.2039 C   0  0  0  0  0  0
  -28.0150  -12.3738   18.6137 C   0  0  0  0  0  0
  -27.6647  -13.2030   19.8782 C   0  0  2  0  0  0
  -28.7049  -12.9622   20.9962 C   0  0  0  0  0  0
  -25.2603  -13.8153   20.5676 C   0  0  0  0  0  0
  -24.1844  -13.0438   20.9167 C   0  0  0  0  0  0
  -24.6390  -11.6902   20.8716 C   0  0  0  0  0  0
  -23.9051  -10.4291   21.0388 C   0  0  0  0  0  0
  -24.3602   -9.4210   21.9171 C   0  0  0  0  0  0
  -23.6280   -8.2245   22.0751 C   0  0  0  0  0  0
  -22.4261   -8.0280   21.3546 C   0  0  0  0  0  0
  -21.9892   -9.0252   20.4648 C   0  0  0  0  0  0
  -22.7218  -10.2131   20.3047 C   0  0  0  0  0  0
  -21.6859   -6.0726   22.5273 C   0  0  0  0  0  0
  -21.4021   -6.5629   23.8204 C   0  0  0  0  0  0
  -21.3659   -5.6786   24.9170 C   0  0  0  0  0  0
  -21.6040   -4.3047   24.7224 C   0  0  0  0  0  0
  -21.8820   -3.8139   23.4346 C   0  0  0  0  0  0
  -21.9195   -4.6954   22.3401 C   0  0  0  0  0  0
  -22.7866  -13.5242   21.1832 C   0  0  0  0  0  0
  -22.1662   -4.2138   21.0978 F   0  0  0  0  0  0
  -21.5627   -3.4532   25.7738 F   0  0  0  0  0  0
  -30.0399  -13.2687   20.4506 N   0  0  0  0  0  0
  -26.3038  -12.9315   20.3369 N   0  0  0  0  0  0
  -25.9315  -11.6477   20.5745 N   0  0  0  0  0  0
  -22.0507  -12.8243   22.0395 N   0  0  0  0  0  0
  -25.4338  -15.1870   20.4082 N   0  0  0  0  0  0
  -31.8152  -14.6450   20.0898 O   0  0  0  0  0  0
  -21.6640   -6.8869   21.4236 O   0  0  0  0  0  0
  -22.3552  -14.5548   20.6682 O   0  0  0  0  0  0
  -24.6126  -31.8693   23.2110 C   0  0  0  0  0  0
  -25.9026  -32.4827   23.8403 C   0  0  1  0  0  0
  -27.2357  -27.4509   20.0980 C   0  0  0  0  0  0
  -25.5888  -33.8623   24.2332 N   0  0  0  0  0  0
  -23.4006  -30.4913   21.5519 C   0  0  2  0  0  0
  -24.8490  -28.9543   20.1209 C   0  0  0  0  0  0
  -22.7400  -29.4660   22.5009 C   0  0  0  0  0  0
  -18.0272  -28.1379   22.8494 C   0  0  0  0  0  0
  -24.1485  -36.7317   23.2639 C   0  0  0  0  0  0
  -25.9268  -30.8374   21.3637 C   0  0  0  0  0  0
  -26.0061  -29.4690   20.7202 C   0  0  0  0  0  0
  -27.2048  -28.7215   20.7131 C   0  0  0  0  0  0
  -26.0683  -26.9435   19.4959 C   0  0  0  0  0  0
  -24.8721  -27.6872   19.5097 C   0  0  0  0  0  0
  -23.6101  -29.8209   20.1674 C   0  0  0  0  0  0
  -25.4102  -36.3111   24.0342 C   0  0  1  0  0  0
  -20.5859  -28.3658   23.1335 C   0  0  2  0  0  0
  -20.6761  -26.9397   22.5428 C   0  0  0  0  0  0
  -19.5740  -26.6390   21.5219 C   0  0  0  0  0  0
  -18.1920  -26.7928   22.1628 C   0  0  0  0  0  0
  -19.1520  -28.8836   23.2913 C   0  0  0  0  0  0
  -18.9447  -30.1445   23.8916 C   0  0  0  0  0  0
  -17.6450  -30.6583   24.0576 C   0  0  0  0  0  0
  -25.9032  -34.9477   23.5137 C   0  0  0  0  0  0
  -16.5342  -29.9089   23.6326 C   0  0  0  0  0  0
  -16.7263  -28.6510   23.0339 C   0  0  0  0  0  0
  -26.4463  -31.6596   25.0722 C   0  0  0  0  0  0
  -25.3737  -31.3702   26.1481 C   0  0  0  0  0  0
  -27.0299  -30.3044   24.6081 C   0  0  0  0  0  0
  -27.6049  -32.4310   25.7473 C   0  0  0  0  0  0
  -27.5580  -37.1810   24.8463 C   0  0  0  0  0  0
  -21.4128  -29.3028   22.3743 N   0  0  0  0  0  0
  -26.4288  -37.3793   23.9415 N   0  0  0  0  0  0
  -24.6647  -31.0803   22.1010 N   0  0  0  0  0  0
  -23.4176  -28.8207   23.3051 O   0  0  0  0  0  0
  -28.3910  -26.7147   20.0273 O   0  0  0  0  0  0
  -26.5596  -34.8923   22.4699 O   0  0  0  0  0  0
  -23.5320  -32.1444   23.7509 O   0  0  0  0  0  0
  -31.2392  -17.5329   20.6256 C   0  0  0  0  0  0
  -28.9391  -17.6129   21.3663 C   0  0  0  0  0  0
  -31.2526  -18.9413   20.5110 C   0  0  0  0  0  0
  -30.0956  -19.7190   20.8144 C   0  0  0  0  0  0
  -28.9294  -19.0228   21.2469 C   0  0  0  0  0  0
  -30.0801  -16.8478   21.0499 C   0  0  0  0  0  0
  -30.1899  -21.2094   20.7449 C   0  0  0  0  0  0
  -29.6515  -22.1260   21.5754 C   0  0  0  0  0  0
  -32.5194  -19.5528   20.0338 C   0  0  0  0  0  0
  -28.7401  -24.4308   20.8383 C   0  0  0  0  0  0
  -27.6227  -19.7362   21.5581 C   0  0  0  0  0  0
  -35.7752  -20.7392   21.8844 C   0  0  0  0  0  0
  -33.7732  -22.1708   21.3253 C   0  0  0  0  0  0
  -29.8892  -23.6311   21.4700 C   0  0  0  0  0  0
  -33.6601  -19.6127   21.0566 C   0  0  0  0  0  0
  -28.6751  -25.9298   21.1882 C   0  0  0  0  0  0
  -34.5432  -20.8825   20.9774 C   0  0  0  0  0  0
  -29.9841  -15.4259   21.1803 N   0  0  0  0  0  0
  -32.6700  -19.9957   18.8912 O   0  0  0  0  0  0
  -27.9193  -23.9043   20.0795 O   0  0  0  0  0  0
  -31.4685  -12.3911   19.1160 H   0  0  0  0  0  0
  -30.3200  -11.2794   19.8026 H   0  0  0  0  0  0
  -29.7317  -11.7923   17.4167 H   0  0  0  0  0  0
  -29.6697  -13.4986   17.7774 H   0  0  0  0  0  0
  -27.8168  -11.3170   18.7966 H   0  0  0  0  0  0
  -27.3682  -12.6638   17.7846 H   0  0  0  0  0  0
  -27.7161  -14.2540   19.5934 H   0  0  0  0  0  0
  -28.6762  -11.9204   21.3188 H   0  0  0  0  0  0
  -28.4645  -13.5433   21.8875 H   0  0  0  0  0  0
  -25.2748   -9.5688   22.4745 H   0  0  0  0  0  0
  -23.9991   -7.4640   22.7468 H   0  0  0  0  0  0
  -21.0825   -8.8765   19.8959 H   0  0  0  0  0  0
  -22.3669  -10.9665   19.6155 H   0  0  0  0  0  0
  -21.2019   -7.6139   23.9704 H   0  0  0  0  0  0
  -21.1477   -6.0518   25.9070 H   0  0  0  0  0  0
  -22.0603   -2.7602   23.2851 H   0  0  0  0  0  0
  -22.4120  -11.9901   22.4781 H   0  0  0  0  0  0
  -21.1130  -13.1277   22.2602 H   0  0  0  0  0  0
  -24.6665  -15.8419   20.5105 H   0  0  0  0  0  0
  -26.2821  -15.6225   20.0694 H   0  0  0  0  0  0
  -26.7101  -32.5553   23.1174 H   0  0  0  0  0  0
  -25.0038  -33.9787   25.0477 H   0  0  0  0  0  0
  -22.6886  -31.3073   21.4122 H   0  0  0  0  0  0
  -23.3739  -35.9660   23.3309 H   0  0  0  0  0  0
  -24.3583  -36.8922   22.2053 H   0  0  0  0  0  0
  -23.7248  -37.6528   23.6648 H   0  0  0  0  0  0
  -26.0354  -31.5995   20.5907 H   0  0  0  0  0  0
  -26.8161  -30.8957   21.9792 H   0  0  0  0  0  0
  -28.1024  -29.1197   21.1655 H   0  0  0  0  0  0
  -26.0888  -25.9747   19.0166 H   0  0  0  0  0  0
  -23.9830  -27.2839   19.0445 H   0  0  0  0  0  0
  -23.7193  -30.5949   19.4070 H   0  0  0  0  0  0
  -22.7341  -29.2412   19.8714 H   0  0  0  0  0  0
  -25.1274  -36.1978   25.0834 H   0  0  0  0  0  0
  -20.9956  -28.3222   24.1455 H   0  0  0  0  0  0
  -20.5676  -26.2257   23.3609 H   0  0  0  0  0  0
  -21.6634  -26.7452   22.1218 H   0  0  0  0  0  0
  -19.6905  -25.6308   21.1234 H   0  0  0  0  0  0
  -19.6685  -27.3215   20.6762 H   0  0  0  0  0  0
  -17.4195  -26.6686   21.4025 H   0  0  0  0  0  0
  -18.0312  -26.0063   22.9014 H   0  0  0  0  0  0
  -19.7922  -30.7261   24.2286 H   0  0  0  0  0  0
  -17.5006  -31.6264   24.5180 H   0  0  0  0  0  0
  -15.5344  -30.2999   23.7640 H   0  0  0  0  0  0
  -15.8663  -28.0845   22.7030 H   0  0  0  0  0  0
  -24.5886  -30.7074   25.7823 H   0  0  0  0  0  0
  -24.8953  -32.2861   26.4961 H   0  0  0  0  0  0
  -25.8092  -30.8845   27.0222 H   0  0  0  0  0  0
  -26.2843  -29.6798   24.1145 H   0  0  0  0  0  0
  -27.4099  -29.7280   25.4527 H   0  0  0  0  0  0
  -27.8660  -30.4378   23.9211 H   0  0  0  0  0  0
  -27.2677  -33.3594   26.2093 H   0  0  0  0  0  0
  -28.3828  -32.6895   25.0277 H   0  0  0  0  0  0
  -28.0751  -31.8409   26.5349 H   0  0  0  0  0  0
  -28.2601  -38.0101   24.7507 H   0  0  0  0  0  0
  -28.1069  -36.2638   24.6283 H   0  0  0  0  0  0
  -27.2307  -37.1463   25.8866 H   0  0  0  0  0  0
  -20.9286  -29.8737   21.6957 H   0  0  0  0  0  0
  -26.0177  -38.2873   24.1407 H   0  0  0  0  0  0
  -32.1435  -16.9948   20.3819 H   0  0  0  0  0  0
  -28.0400  -17.1090   21.6944 H   0  0  0  0  0  0
  -30.7713  -21.6005   19.9218 H   0  0  0  0  0  0
  -29.0310  -21.8182   22.4024 H   0  0  0  0  0  0
  -26.7709  -19.0676   21.4305 H   0  0  0  0  0  0
  -27.4596  -20.5871   20.8961 H   0  0  0  0  0  0
  -27.6122  -20.0814   22.5916 H   0  0  0  0  0  0
  -36.4326  -21.6054   21.7972 H   0  0  0  0  0  0
  -36.3626  -19.8592   21.6194 H   0  0  0  0  0  0
  -35.4895  -20.6447   22.9327 H   0  0  0  0  0  0
  -34.4314  -23.0405   21.3065 H   0  0  0  0  0  0
  -33.3284  -22.1149   22.3197 H   0  0  0  0  0  0
  -32.9716  -22.3674   20.6137 H   0  0  0  0  0  0
  -30.7829  -23.8096   20.8719 H   0  0  0  0  0  0
  -30.0957  -24.0233   22.4662 H   0  0  0  0  0  0
  -34.2750  -18.7265   20.8995 H   0  0  0  0  0  0
  -33.2352  -19.5190   22.0563 H   0  0  0  0  0  0
  -29.6325  -26.2467   21.6017 H   0  0  0  0  0  0
  -27.9242  -26.0784   21.9654 H   0  0  0  0  0  0
  -34.9100  -20.9810   19.9539 H   0  0  0  0  0  0
  -29.1192  -15.0897   21.5742 H   0  0  0  0  0  0
  1 25  1  0  0  0
  1 30  2  0  0  0
  1 88  1  0  0  0
  2  3  1  0  0  0
  2 25  1  0  0  0
  2 91  1  0  0  0
  2 92  1  0  0  0
  3  4  1  0  0  0
  3 93  1  0  0  0
  3 94  1  0  0  0
  4  5  1  0  0  0
  4 95  1  0  0  0
  4 96  1  0  0  0
  5  6  1  0  0  0
  5 26  1  0  0  0
  5 97  1  0  0  0
  6 25  1  0  0  0
  6 98  1  0  0  0
  6 99  1  0  0  0
  7  8  2  0  0  0
  7 26  1  0  0  0
  7 29  1  0  0  0
  8  9  1  0  0  0
  8 22  1  0  0  0
  9 10  1  0  0  0
  9 27  2  0  0  0
 10 11  2  0  0  0
 10 15  1  0  0  0
 11 12  1  0  0  0
 11100  1  0  0  0
 12 13  2  0  0  0
 12101  1  0  0  0
 13 14  1  0  0  0
 13 31  1  0  0  0
 14 15  2  0  0  0
 14102  1  0  0  0
 15103  1  0  0  0
 16 17  2  0  0  0
 16 21  1  0  0  0
 16 31  1  0  0  0
 17 18  1  0  0  0
 17104  1  0  0  0
 18 19  2  0  0  0
 18105  1  0  0  0
 19 20  1  0  0  0
 19 24  1  0  0  0
 20 21  2  0  0  0
 20106  1  0  0  0
 21 23  1  0  0  0
 22 28  1  0  0  0
 22 32  2  0  0  0
 26 27  1  0  0  0
 28107  1  0  0  0
 28108  1  0  0  0
 29109  1  0  0  0
 29110  1  0  0  0
 33 34  1  0  0  0
 33 66  1  0  0  0
 33 70  2  0  0  0
 34 36  1  0  0  0
 34 59  1  0  0  0
 34111  1  0  0  0
 35 44  2  0  0  0
 35 45  1  0  0  0
 35 68  1  0  0  0
 36 56  1  0  0  0
 36112  1  0  0  0
 37 39  1  0  0  0
 37 47  1  0  0  0
 37 66  1  0  0  0
 37113  1  0  0  0
 38 43  2  0  0  0
 38 46  1  0  0  0
 38 47  1  0  0  0
 39 64  1  0  0  0
 39 67  2  0  0  0
 40 52  1  0  0  0
 40 53  2  0  0  0
 40 58  1  0  0  0
 41114  1  0  0  0
 41115  1  0  0  0
 41116  1  0  0  0
 41 48  1  0  0  0
 42 43  1  0  0  0
 42 66  1  0  0  0
 42117  1  0  0  0
 42118  1  0  0  0
 43 44  1  0  0  0
 44119  1  0  0  0
 45 46  2  0  0  0
 45120  1  0  0  0
 46121  1  0  0  0
 47122  1  0  0  0
 47123  1  0  0  0
 48 56  1  0  0  0
 48 65  1  0  0  0
 48124  1  0  0  0
 49 50  1  0  0  0
 49 53  1  0  0  0
 49 64  1  0  0  0
 49125  1  0  0  0
 50 51  1  0  0  0
 50126  1  0  0  0
 50127  1  0  0  0
 51 52  1  0  0  0
 51128  1  0  0  0
 51129  1  0  0  0
 52130  1  0  0  0
 52131  1  0  0  0
 53 54  1  0  0  0
 54 55  2  0  0  0
 54132  1  0  0  0
 55 57  1  0  0  0
 55133  1  0  0  0
 56 69  2  0  0  0
 57 58  2  0  0  0
 57134  1  0  0  0
 58135  1  0  0  0
 59 60  1  0  0  0
 59 61  1  0  0  0
 59 62  1  0  0  0
 60136  1  0  0  0
 60137  1  0  0  0
 60138  1  0  0  0
 61139  1  0  0  0
 61140  1  0  0  0
 61141  1  0  0  0
 62142  1  0  0  0
 62143  1  0  0  0
 62144  1  0  0  0
 63 65  1  0  0  0
 63145  1  0  0  0
 63146  1  0  0  0
 63147  1  0  0  0
 64148  1  0  0  0
 65149  1  0  0  0
 68 86  1  0  0  0
 71 73  2  0  0  0
 71 76  1  0  0  0
 71150  1  0  0  0
 72 75  1  0  0  0
 72 76  2  0  0  0
 72151  1  0  0  0
 73 74  1  0  0  0
 73 79  1  0  0  0
 74 75  2  0  0  0
 74 77  1  0  0  0
 75 81  1  0  0  0
 76 88  1  0  0  0
 77 78  2  0  0  0
 77152  1  0  0  0
 78 84  1  0  0  0
 78153  1  0  0  0
 79 85  1  0  0  0
 79 89  2  0  0  0
 80 84  1  0  0  0
 80 86  1  0  0  0
 80 90  2  0  0  0
 81154  1  0  0  0
 81155  1  0  0  0
 81156  1  0  0  0
 82157  1  0  0  0
 82158  1  0  0  0
 82159  1  0  0  0
 82 87  1  0  0  0
 83 87  1  0  0  0
 83160  1  0  0  0
 83161  1  0  0  0
 83162  1  0  0  0
 84163  1  0  0  0
 84164  1  0  0  0
 85 87  1  0  0  0
 85165  1  0  0  0
 85166  1  0  0  0
 86167  1  0  0  0
 86168  1  0  0  0
 87169  1  0  0  0
 88170  1  0  0  0
M  ISO  4   1 100  68 101  86 101  88 100
M  END
> <chiral flag>
0

> <version>
0

> <s_m_source_file>
/data/baiqing/PycharmProjects/Reinvent-master-3.2/result/LINK_invent/BTK/process_docking_weight1_custom_product_contain_oxygen_bond_distance_aromatic_linkinvent_7_9_3/rearranged_h_0128.sdf

> <i_m_source_file_index>
73

> <r_mmod_Potential_Energy-OPLS-2005>
55.7911529541016

> <r_mmod_Stretch_Energy-OPLS-2005>
39.2064514160156

> <r_mmod_Bend_Energy-OPLS-2005>
104.982269287109

> <r_mmod_Torsional_Energy-OPLS-2005>
291.303161621094

> <r_mmod_Improper_Torsional_Energy-OPLS-2005>
3.97419285774231

> <r_mmod_Van_der_Waal_Energy-OPLS-2005>
151.778656005859

> <r_mmod_Electrostatic_Energy-OPLS-2005>
-318.696807861328

> <r_mmod_Solvation_Energy-OPLS-2005>
-226.386703491211

> <b_mmod_Minimization_Converged-OPLS-2005>
0

> <r_mmod_RMS_Derivative-OPLS-2005>
0.874345898628235

$$$$
73
                    3D
 Structure written by MMmdl.
151159  0  0  1  0            999 V2000
  -30.5587  -14.8165   20.4407 C   0  0  0  0  0  0
  -30.4409  -12.4959   19.4863 C   0  0  0  0  0  0
  -29.5187  -12.5301   18.2461 C   0  0  0  0  0  0
  -28.0446  -12.3412   18.6549 C   0  0  0  0  0  0
  -27.6454  -13.2373   19.8570 C   0  0  2  0  0  0
  -28.6889  -13.1750   20.9953 C   0  0  0  0  0  0
  -25.2528  -13.8217   20.5723 C   0  0  0  0  0  0
  -24.1811  -13.0446   20.9187 C   0  0  0  0  0  0
  -24.6411  -11.6922   20.8731 C   0  0  0  0  0  0
  -23.9092  -10.4296   21.0406 C   0  0  0  0  0  0
  -24.3635   -9.4207   21.9182 C   0  0  0  0  0  0
  -23.6293   -8.2251   22.0758 C   0  0  0  0  0  0
  -22.4274   -8.0290   21.3552 C   0  0  0  0  0  0
  -21.9915   -9.0271   20.4660 C   0  0  0  0  0  0
  -22.7262  -10.2144   20.3062 C   0  0  0  0  0  0
  -21.6852   -6.0740   22.5282 C   0  0  0  0  0  0
  -21.4018   -6.5644   23.8215 C   0  0  0  0  0  0
  -21.3661   -5.6797   24.9179 C   0  0  0  0  0  0
  -21.6042   -4.3057   24.7229 C   0  0  0  0  0  0
  -21.8822   -3.8150   23.4349 C   0  0  0  0  0  0
  -21.9192   -4.6966   22.3404 C   0  0  0  0  0  0
  -22.7828  -13.5220   21.1852 C   0  0  0  0  0  0
  -22.1659   -4.2144   21.0978 F   0  0  0  0  0  0
  -21.5626   -3.4549   25.7746 F   0  0  0  0  0  0
  -29.9850  -13.5567   20.4225 N   0  0  0  0  0  0
  -26.2959  -12.9428   20.3306 N   0  0  0  0  0  0
  -25.9345  -11.6565   20.5748 N   0  0  0  0  0  0
  -22.0485  -12.8208   22.0418 N   0  0  0  0  0  0
  -25.4232  -15.1952   20.4211 N   0  0  0  0  0  0
  -31.7183  -14.9493   20.0351 O   0  0  0  0  0  0
  -21.6639   -6.8890   21.4244 O   0  0  0  0  0  0
  -22.3495  -14.5518   20.6703 O   0  0  0  0  0  0
  -24.6337  -31.8498   23.1885 C   0  0  0  0  0  0
  -25.9141  -32.4722   23.8274 C   0  0  1  0  0  0
  -27.2389  -27.2187   20.1411 C   0  0  0  0  0  0
  -25.5926  -33.8519   24.2210 N   0  0  0  0  0  0
  -23.4336  -30.4624   21.5318 C   0  0  2  0  0  0
  -24.8843  -28.8927   20.1029 C   0  0  0  0  0  0
  -22.7536  -29.4558   22.4897 C   0  0  0  0  0  0
  -18.0302  -28.1408   22.8505 C   0  0  0  0  0  0
  -24.1488  -36.7265   23.2635 C   0  0  0  0  0  0
  -25.9767  -30.7478   21.3709 C   0  0  0  0  0  0
  -26.0499  -29.3627   20.7199 C   0  0  0  0  0  0
  -27.2198  -28.5360   20.7277 C   0  0  0  0  0  0
  -26.0514  -26.8156   19.4945 C   0  0  0  0  0  0
  -24.8946  -27.6310   19.4765 C   0  0  0  0  0  0
  -23.6510  -29.7807   20.1512 C   0  0  0  0  0  0
  -25.4120  -36.3047   24.0318 C   0  0  1  0  0  0
  -20.5917  -28.3714   23.1290 C   0  0  2  0  0  0
  -20.6775  -26.9429   22.5427 C   0  0  0  0  0  0
  -19.5736  -26.6399   21.5235 C   0  0  0  0  0  0
  -18.1930  -26.7954   22.1648 C   0  0  0  0  0  0
  -19.1564  -28.8881   23.2885 C   0  0  0  0  0  0
  -18.9469  -30.1483   23.8902 C   0  0  0  0  0  0
  -17.6460  -30.6592   24.0576 C   0  0  0  0  0  0
  -25.9071  -34.9423   23.5080 C   0  0  0  0  0  0
  -16.5355  -29.9086   23.6339 C   0  0  0  0  0  0
  -16.7289  -28.6510   23.0366 C   0  0  0  0  0  0
  -26.4512  -31.6558   25.0677 C   0  0  0  0  0  0
  -25.3722  -31.3702   26.1399 C   0  0  0  0  0  0
  -27.0354  -30.2962   24.6158 C   0  0  0  0  0  0
  -27.6060  -32.4304   25.7471 C   0  0  0  0  0  0
  -27.5581  -37.1799   24.8463 C   0  0  0  0  0  0
  -21.4241  -29.3027   22.3658 N   0  0  0  0  0  0
  -26.4281  -37.3753   23.9422 N   0  0  0  0  0  0
  -24.7001  -31.0424   22.0854 N   0  0  0  0  0  0
  -23.4228  -28.8144   23.3042 O   0  0  0  0  0  0
  -28.3613  -26.3577   20.2883 O   0  0  0  0  0  0
  -26.5676  -34.8905   22.4665 O   0  0  0  0  0  0
  -23.5480  -32.1354   23.7158 O   0  0  0  0  0  0
  -29.5488  -18.4595   21.2091 C   0  0  0  0  0  0
  -29.4090  -19.5060   19.1379 C   0  0  0  0  0  0
  -29.4005  -19.7493   20.4853 C   0  0  0  0  0  0
  -29.7425  -17.2783   20.4542 C   0  0  0  0  0  0
  -29.3296  -21.1549   21.1627 C   0  0  0  0  0  0
  -28.9334  -22.5004   21.0310 C   0  0  0  0  0  0
  -28.6904  -25.1700   18.1523 C   0  0  0  0  0  0
  -28.1327  -23.4826   20.0605 C   0  0  0  0  0  0
  -28.6681  -24.9962   19.6776 C   0  0  1  0  0  0
  -29.7909  -15.9130   20.8451 N   0  0  0  0  0  0
  -29.7164  -17.7943   18.7696 S   0  0  0  0  0  0
  -31.4808  -12.6322   19.1833 H   0  0  0  0  0  0
  -30.4032  -11.5189   19.9710 H   0  0  0  0  0  0
  -29.8105  -11.7600   17.5314 H   0  0  0  0  0  0
  -29.6359  -13.4856   17.7314 H   0  0  0  0  0  0
  -27.9069  -11.2897   18.9128 H   0  0  0  0  0  0
  -27.3905  -12.5380   17.8064 H   0  0  0  0  0  0
  -27.6379  -14.2607   19.4765 H   0  0  0  0  0  0
  -28.7464  -12.1732   21.4240 H   0  0  0  0  0  0
  -28.4117  -13.8393   21.8145 H   0  0  0  0  0  0
  -25.2795   -9.5676   22.4750 H   0  0  0  0  0  0
  -24.0009   -7.4644   22.7479 H   0  0  0  0  0  0
  -21.0847   -8.8810   19.8961 H   0  0  0  0  0  0
  -22.3739  -10.9686   19.6170 H   0  0  0  0  0  0
  -21.2020   -7.6153   23.9723 H   0  0  0  0  0  0
  -21.1470   -6.0524   25.9081 H   0  0  0  0  0  0
  -22.0596   -2.7609   23.2854 H   0  0  0  0  0  0
  -22.4093  -11.9852   22.4784 H   0  0  0  0  0  0
  -21.1113  -13.1248   22.2661 H   0  0  0  0  0  0
  -24.6672  -15.8543   20.5702 H   0  0  0  0  0  0
  -26.2819  -15.6426   20.1252 H   0  0  0  0  0  0
  -26.7206  -32.5359   23.1014 H   0  0  0  0  0  0
  -25.0055  -33.9642   25.0343 H   0  0  0  0  0  0
  -22.7275  -31.2826   21.3795 H   0  0  0  0  0  0
  -23.3732  -35.9613   23.3305 H   0  0  0  0  0  0
  -24.3564  -36.8881   22.2044 H   0  0  0  0  0  0
  -23.7252  -37.6472   23.6656 H   0  0  0  0  0  0
  -26.1176  -31.5007   20.5950 H   0  0  0  0  0  0
  -26.8522  -30.8038   22.0066 H   0  0  0  0  0  0
  -28.1084  -28.8882   21.2321 H   0  0  0  0  0  0
  -25.9952  -25.8368   19.0403 H   0  0  0  0  0  0
  -24.0022  -27.2660   18.9860 H   0  0  0  0  0  0
  -23.7656  -30.5496   19.3852 H   0  0  0  0  0  0
  -22.7699  -29.2056   19.8606 H   0  0  0  0  0  0
  -25.1294  -36.1876   25.0805 H   0  0  0  0  0  0
  -21.0021  -28.3295   24.1408 H   0  0  0  0  0  0
  -20.5677  -26.2338   23.3649 H   0  0  0  0  0  0
  -21.6643  -26.7433   22.1224 H   0  0  0  0  0  0
  -19.6878  -25.6312   21.1263 H   0  0  0  0  0  0
  -19.6654  -27.3218   20.6776 H   0  0  0  0  0  0
  -17.4207  -26.6746   21.4034 H   0  0  0  0  0  0
  -18.0284  -26.0091   22.9034 H   0  0  0  0  0  0
  -19.7928  -30.7315   24.2268 H   0  0  0  0  0  0
  -17.4989  -31.6272   24.5184 H   0  0  0  0  0  0
  -15.5345  -30.2973   23.7640 H   0  0  0  0  0  0
  -15.8708  -28.0803   22.7081 H   0  0  0  0  0  0
  -24.5934  -30.7008   25.7734 H   0  0  0  0  0  0
  -24.8879  -32.2857   26.4788 H   0  0  0  0  0  0
  -25.8060  -30.8925   27.0189 H   0  0  0  0  0  0
  -26.2940  -29.6739   24.1137 H   0  0  0  0  0  0
  -27.3970  -29.7196   25.4681 H   0  0  0  0  0  0
  -27.8843  -30.4219   23.9437 H   0  0  0  0  0  0
  -27.2656  -33.3583   26.2066 H   0  0  0  0  0  0
  -28.3880  -32.6902   25.0325 H   0  0  0  0  0  0
  -28.0720  -31.8414   26.5375 H   0  0  0  0  0  0
  -28.2593  -38.0107   24.7556 H   0  0  0  0  0  0
  -28.1099  -36.2655   24.6234 H   0  0  0  0  0  0
  -27.2336  -37.1386   25.8875 H   0  0  0  0  0  0
  -20.9443  -29.8714   21.6821 H   0  0  0  0  0  0
  -26.0150  -38.2822   24.1401 H   0  0  0  0  0  0
  -29.5189  -18.4512   22.2898 H   0  0  0  0  0  0
  -29.3239  -20.2255   18.3310 H   0  0  0  0  0  0
  -29.8260  -21.0499   22.1184 H   0  0  0  0  0  0
  -29.2156  -23.0753   21.9030 H   0  0  0  0  0  0
  -27.6911  -25.1263   17.7222 H   0  0  0  0  0  0
  -29.1385  -26.1212   17.8635 H   0  0  0  0  0  0
  -29.2814  -24.3803   17.6865 H   0  0  0  0  0  0
  -27.1300  -23.5934   20.4752 H   0  0  0  0  0  0
  -27.9902  -22.9123   19.1431 H   0  0  0  0  0  0
  -29.7259  -24.9211   19.9340 H   0  0  0  0  0  0
  -28.9876  -15.6272   21.3859 H   0  0  0  0  0  0
  1 25  1  0  0  0
  1 30  2  0  0  0
  1 80  1  0  0  0
  2  3  1  0  0  0
  2 25  1  0  0  0
  2 82  1  0  0  0
  2 83  1  0  0  0
  3  4  1  0  0  0
  3 84  1  0  0  0
  3 85  1  0  0  0
  4  5  1  0  0  0
  4 86  1  0  0  0
  4 87  1  0  0  0
  5  6  1  0  0  0
  5 26  1  0  0  0
  5 88  1  0  0  0
  6 25  1  0  0  0
  6 89  1  0  0  0
  6 90  1  0  0  0
  7  8  2  0  0  0
  7 26  1  0  0  0
  7 29  1  0  0  0
  8  9  1  0  0  0
  8 22  1  0  0  0
  9 10  1  0  0  0
  9 27  2  0  0  0
 10 11  2  0  0  0
 10 15  1  0  0  0
 11 12  1  0  0  0
 11 91  1  0  0  0
 12 13  2  0  0  0
 12 92  1  0  0  0
 13 14  1  0  0  0
 13 31  1  0  0  0
 14 15  2  0  0  0
 14 93  1  0  0  0
 15 94  1  0  0  0
 16 17  2  0  0  0
 16 21  1  0  0  0
 16 31  1  0  0  0
 17 18  1  0  0  0
 17 95  1  0  0  0
 18 19  2  0  0  0
 18 96  1  0  0  0
 19 20  1  0  0  0
 19 24  1  0  0  0
 20 21  2  0  0  0
 20 97  1  0  0  0
 21 23  1  0  0  0
 22 28  1  0  0  0
 22 32  2  0  0  0
 26 27  1  0  0  0
 28 98  1  0  0  0
 28 99  1  0  0  0
 29100  1  0  0  0
 29101  1  0  0  0
 33 34  1  0  0  0
 33 66  1  0  0  0
 33 70  2  0  0  0
 34 36  1  0  0  0
 34 59  1  0  0  0
 34102  1  0  0  0
 35 44  2  0  0  0
 35 45  1  0  0  0
 35 68  1  0  0  0
 36 56  1  0  0  0
 36103  1  0  0  0
 37 39  1  0  0  0
 37 47  1  0  0  0
 37 66  1  0  0  0
 37104  1  0  0  0
 38 43  2  0  0  0
 38 46  1  0  0  0
 38 47  1  0  0  0
 39 64  1  0  0  0
 39 67  2  0  0  0
 40 52  1  0  0  0
 40 53  2  0  0  0
 40 58  1  0  0  0
 41105  1  0  0  0
 41106  1  0  0  0
 41107  1  0  0  0
 41 48  1  0  0  0
 42 43  1  0  0  0
 42 66  1  0  0  0
 42108  1  0  0  0
 42109  1  0  0  0
 43 44  1  0  0  0
 44110  1  0  0  0
 45 46  2  0  0  0
 45111  1  0  0  0
 46112  1  0  0  0
 47113  1  0  0  0
 47114  1  0  0  0
 48 56  1  0  0  0
 48 65  1  0  0  0
 48115  1  0  0  0
 49 50  1  0  0  0
 49 53  1  0  0  0
 49 64  1  0  0  0
 49116  1  0  0  0
 50 51  1  0  0  0
 50117  1  0  0  0
 50118  1  0  0  0
 51 52  1  0  0  0
 51119  1  0  0  0
 51120  1  0  0  0
 52121  1  0  0  0
 52122  1  0  0  0
 53 54  1  0  0  0
 54 55  2  0  0  0
 54123  1  0  0  0
 55 57  1  0  0  0
 55124  1  0  0  0
 56 69  2  0  0  0
 57 58  2  0  0  0
 57125  1  0  0  0
 58126  1  0  0  0
 59 60  1  0  0  0
 59 61  1  0  0  0
 59 62  1  0  0  0
 60127  1  0  0  0
 60128  1  0  0  0
 60129  1  0  0  0
 61130  1  0  0  0
 61131  1  0  0  0
 61132  1  0  0  0
 62133  1  0  0  0
 62134  1  0  0  0
 62135  1  0  0  0
 63 65  1  0  0  0
 63136  1  0  0  0
 63137  1  0  0  0
 63138  1  0  0  0
 64139  1  0  0  0
 65140  1  0  0  0
 68 79  1  0  0  0
 71 73  1  0  0  0
 71 74  2  0  0  0
 71141  1  0  0  0
 72 73  2  0  0  0
 72 81  1  0  0  0
 72142  1  0  0  0
 73 75  1  0  0  0
 74 80  1  0  0  0
 74 81  1  0  0  0
 75 76  2  0  0  0
 75143  1  0  0  0
 76 78  1  0  0  0
 76144  1  0  0  0
 77145  1  0  0  0
 77146  1  0  0  0
 77147  1  0  0  0
 77 79  1  0  0  0
 78 79  1  0  0  0
 78148  1  0  0  0
 78149  1  0  0  0
 79150  1  0  0  0
 80151  1  0  0  0
M  ISO  4   1 100  68 101  79 101  80 100
M  END
> <chiral flag>
0

> <version>
0

> <s_m_source_file>
/data/baiqing/PycharmProjects/Reinvent-master-3.2/result/LINK_invent/BTK/process_docking_weight1_custom_product_contain_oxygen_bond_distance_aromatic_linkinvent_7_9_3/rearranged_h_0128.sdf

> <i_m_source_file_index>
74

> <r_mmod_Potential_Energy-OPLS-2005>
327.477355957031

> <r_mmod_Stretch_Energy-OPLS-2005>
149.164138793945

> <r_mmod_Bend_Energy-OPLS-2005>
309.733703613281

> <r_mmod_Torsional_Energy-OPLS-2005>
233.10612487793

> <r_mmod_Improper_Torsional_Energy-OPLS-2005>
4.03853464126587

> <r_mmod_Van_der_Waal_Energy-OPLS-2005>
106.688568115234

> <r_mmod_Electrostatic_Energy-OPLS-2005>
-379.007141113281

> <r_mmod_Solvation_Energy-OPLS-2005>
-212.05094909668

> <b_mmod_Minimization_Converged-OPLS-2005>
0

> <r_mmod_RMS_Derivative-OPLS-2005>
2.62711572647095

$$$$
74
                    3D
 Structure written by MMmdl.
163171  0  0  1  0            999 V2000
  -30.7053  -14.4364   20.5647 C   0  0  0  0  0  0
  -30.4228  -12.2804   19.4257 C   0  0  0  0  0  0
  -29.4980  -12.5037   18.2101 C   0  0  0  0  0  0
  -28.0158  -12.3677   18.6149 C   0  0  0  0  0  0
  -27.6637  -13.2030   19.8754 C   0  0  2  0  0  0
  -28.6997  -12.9651   20.9931 C   0  0  0  0  0  0
  -25.2610  -13.8134   20.5667 C   0  0  0  0  0  0
  -24.1845  -13.0433   20.9165 C   0  0  0  0  0  0
  -24.6391  -11.6902   20.8711 C   0  0  0  0  0  0
  -23.9050  -10.4296   21.0405 C   0  0  0  0  0  0
  -24.3609   -9.4207   21.9180 C   0  0  0  0  0  0
  -23.6287   -8.2236   22.0754 C   0  0  0  0  0  0
  -22.4263   -8.0274   21.3544 C   0  0  0  0  0  0
  -21.9902   -9.0247   20.4649 C   0  0  0  0  0  0
  -22.7229  -10.2131   20.3059 C   0  0  0  0  0  0
  -21.6847   -6.0739   22.5277 C   0  0  0  0  0  0
  -21.4012   -6.5638   23.8212 C   0  0  0  0  0  0
  -21.3655   -5.6791   24.9171 C   0  0  0  0  0  0
  -21.6051   -4.3055   24.7220 C   0  0  0  0  0  0
  -21.8813   -3.8146   23.4338 C   0  0  0  0  0  0
  -21.9194   -4.6969   22.3397 C   0  0  0  0  0  0
  -22.7869  -13.5240   21.1815 C   0  0  0  0  0  0
  -22.1660   -4.2147   21.0975 F   0  0  0  0  0  0
  -21.5629   -3.4542   25.7733 F   0  0  0  0  0  0
  -30.0391  -13.2567   20.4542 N   0  0  0  0  0  0
  -26.3042  -12.9314   20.3357 N   0  0  0  0  0  0
  -25.9321  -11.6476   20.5752 N   0  0  0  0  0  0
  -22.0514  -12.8249   22.0400 N   0  0  0  0  0  0
  -25.4369  -15.1850   20.4036 N   0  0  0  0  0  0
  -31.8455  -14.6021   20.1179 O   0  0  0  0  0  0
  -21.6633   -6.8873   21.4232 O   0  0  0  0  0  0
  -22.3559  -14.5546   20.6671 O   0  0  0  0  0  0
  -24.6198  -31.8676   23.2096 C   0  0  0  0  0  0
  -25.9077  -32.4817   23.8386 C   0  0  1  0  0  0
  -27.2144  -27.4202   20.0676 C   0  0  0  0  0  0
  -25.5911  -33.8610   24.2313 N   0  0  0  0  0  0
  -23.4025  -30.4988   21.5549 C   0  0  2  0  0  0
  -24.8358  -28.9635   20.1186 C   0  0  0  0  0  0
  -22.7433  -29.4666   22.4998 C   0  0  0  0  0  0
  -18.0325  -28.1342   22.8525 C   0  0  0  0  0  0
  -24.1494  -36.7303   23.2636 C   0  0  0  0  0  0
  -25.9361  -30.8249   21.3637 C   0  0  0  0  0  0
  -26.0047  -29.4638   20.7022 C   0  0  0  0  0  0
  -27.1981  -28.7004   20.6721 C   0  0  0  0  0  0
  -26.0081  -26.9335   19.5167 C   0  0  0  0  0  0
  -24.8291  -27.6917   19.5301 C   0  0  0  0  0  0
  -23.6037  -29.8354   20.1690 C   0  0  0  0  0  0
  -25.4122  -36.3106   24.0339 C   0  0  1  0  0  0
  -20.5922  -28.3625   23.1350 C   0  0  2  0  0  0
  -20.6747  -26.9336   22.5495 C   0  0  0  0  0  0
  -19.5820  -26.6494   21.5161 C   0  0  0  0  0  0
  -18.2012  -26.7929   22.1593 C   0  0  0  0  0  0
  -19.1580  -28.8800   23.2962 C   0  0  0  0  0  0
  -18.9504  -30.1415   23.8932 C   0  0  0  0  0  0
  -17.6502  -30.6574   24.0538 C   0  0  0  0  0  0
  -25.9064  -34.9463   23.5142 C   0  0  0  0  0  0
  -16.5380  -29.9063   23.6280 C   0  0  0  0  0  0
  -16.7312  -28.6475   23.0345 C   0  0  0  0  0  0
  -26.4481  -31.6613   25.0730 C   0  0  0  0  0  0
  -25.3695  -31.3758   26.1446 C   0  0  0  0  0  0
  -27.0338  -30.3052   24.6148 C   0  0  0  0  0  0
  -27.6065  -32.4347   25.7480 C   0  0  0  0  0  0
  -27.5588  -37.1799   24.8464 C   0  0  0  0  0  0
  -21.4177  -29.2991   22.3727 N   0  0  0  0  0  0
  -26.4309  -37.3789   23.9400 N   0  0  0  0  0  0
  -24.6730  -31.0758   22.1017 N   0  0  0  0  0  0
  -23.4211  -28.8269   23.3092 O   0  0  0  0  0  0
  -28.3916  -26.6919   20.0292 O   0  0  0  0  0  0
  -26.5635  -34.8921   22.4707 O   0  0  0  0  0  0
  -23.5384  -32.1466   23.7473 O   0  0  0  0  0  0
  -25.9770  -21.0150   20.3598 C   0  0  0  0  0  0
  -26.9302  -20.0089   20.5945 C   0  0  0  0  0  0
  -28.2294  -20.8467   18.7299 C   0  0  0  0  0  0
  -27.2918  -21.8781   18.4732 C   0  0  0  0  0  0
  -26.1268  -21.9323   19.2953 C   0  0  0  0  0  0
  -28.0592  -19.9007   19.7560 C   0  0  0  0  0  0
  -29.9112  -15.5419   21.0855 C   0  0  0  0  0  0
  -27.5984  -22.7743   17.3091 C   0  0  0  0  0  0
  -29.6304  -16.6230   20.3223 C   0  0  0  0  0  0
  -24.9748  -22.9005   19.0738 C   0  0  0  0  0  0
  -27.4059  -24.2912   17.3858 C   0  0  0  0  0  0
  -28.8090  -17.8267   20.7563 C   0  0  0  0  0  0
  -28.5280  -25.0858   18.1045 C   0  0  0  0  0  0
  -28.3654  -25.3034   19.6301 C   0  0  0  0  0  0
  -28.0576  -22.2981   16.2273 N   0  0  0  0  0  0
  -30.0331  -16.7874   19.0511 O   0  0  0  0  0  0
  -29.0230  -18.9208   19.8617 O   0  0  0  0  0  0
  -31.4696  -12.3674   19.1277 H   0  0  0  0  0  0
  -30.3134  -11.2678   19.8147 H   0  0  0  0  0  0
  -29.7367  -11.7899   17.4211 H   0  0  0  0  0  0
  -29.6745  -13.4972   17.7922 H   0  0  0  0  0  0
  -27.8162  -11.3113   18.8028 H   0  0  0  0  0  0
  -27.3718  -12.6545   17.7813 H   0  0  0  0  0  0
  -27.7171  -14.2532   19.5886 H   0  0  0  0  0  0
  -28.6664  -11.9267   21.3250 H   0  0  0  0  0  0
  -28.4615  -13.5542   21.8779 H   0  0  0  0  0  0
  -25.2763   -9.5667   22.4752 H   0  0  0  0  0  0
  -23.9997   -7.4618   22.7472 H   0  0  0  0  0  0
  -21.0834   -8.8762   19.8951 H   0  0  0  0  0  0
  -22.3690  -10.9665   19.6160 H   0  0  0  0  0  0
  -21.2004   -7.6145   23.9706 H   0  0  0  0  0  0
  -21.1487   -6.0528   25.9073 H   0  0  0  0  0  0
  -22.0602   -2.7606   23.2840 H   0  0  0  0  0  0
  -22.4148  -11.9923   22.4791 H   0  0  0  0  0  0
  -21.1129  -13.1264   22.2598 H   0  0  0  0  0  0
  -24.6710  -15.8447   20.4864 H   0  0  0  0  0  0
  -26.2925  -15.6057   20.0635 H   0  0  0  0  0  0
  -26.7131  -32.5501   23.1135 H   0  0  0  0  0  0
  -25.0013  -33.9767   25.0419 H   0  0  0  0  0  0
  -22.6930  -31.3190   21.4219 H   0  0  0  0  0  0
  -23.3760  -35.9631   23.3332 H   0  0  0  0  0  0
  -24.3577  -36.8905   22.2044 H   0  0  0  0  0  0
  -23.7239  -37.6515   23.6638 H   0  0  0  0  0  0
  -26.0564  -31.5902   20.5964 H   0  0  0  0  0  0
  -26.8201  -30.8654   21.9878 H   0  0  0  0  0  0
  -28.1045  -29.0867   21.1137 H   0  0  0  0  0  0
  -25.9347  -25.9606   19.0761 H   0  0  0  0  0  0
  -23.9231  -27.2843   19.0995 H   0  0  0  0  0  0
  -23.7097  -30.6115   19.4090 H   0  0  0  0  0  0
  -22.7230  -29.2594   19.8788 H   0  0  0  0  0  0
  -25.1293  -36.1999   25.0835 H   0  0  0  0  0  0
  -21.0128  -28.3184   24.1421 H   0  0  0  0  0  0
  -20.5413  -26.2271   23.3717 H   0  0  0  0  0  0
  -21.6665  -26.7180   22.1483 H   0  0  0  0  0  0
  -19.6937  -25.6489   21.0972 H   0  0  0  0  0  0
  -19.6777  -27.3498   20.6806 H   0  0  0  0  0  0
  -17.4306  -26.6689   21.3984 H   0  0  0  0  0  0
  -18.0482  -25.9981   22.8912 H   0  0  0  0  0  0
  -19.8000  -30.7188   24.2327 H   0  0  0  0  0  0
  -17.5053  -31.6252   24.5137 H   0  0  0  0  0  0
  -15.5381  -30.2992   23.7540 H   0  0  0  0  0  0
  -15.8669  -28.0875   22.7018 H   0  0  0  0  0  0
  -24.5832  -30.7188   25.7718 H   0  0  0  0  0  0
  -24.8915  -32.2947   26.4863 H   0  0  0  0  0  0
  -25.7930  -30.8878   27.0231 H   0  0  0  0  0  0
  -26.2911  -29.6829   24.1153 H   0  0  0  0  0  0
  -27.4073  -29.7283   25.4624 H   0  0  0  0  0  0
  -27.8755  -30.4415   23.9351 H   0  0  0  0  0  0
  -27.2696  -33.3639   26.2101 H   0  0  0  0  0  0
  -28.3813  -32.6957   25.0246 H   0  0  0  0  0  0
  -28.0814  -31.8458   26.5354 H   0  0  0  0  0  0
  -28.2621  -38.0084   24.7511 H   0  0  0  0  0  0
  -28.1076  -36.2617   24.6303 H   0  0  0  0  0  0
  -27.2290  -37.1453   25.8864 H   0  0  0  0  0  0
  -20.9332  -29.8688   21.6924 H   0  0  0  0  0  0
  -26.0218  -38.2880   24.1379 H   0  0  0  0  0  0
  -25.1031  -21.0615   20.9956 H   0  0  0  0  0  0
  -26.7604  -19.3281   21.4153 H   0  0  0  0  0  0
  -29.1123  -20.7614   18.1103 H   0  0  0  0  0  0
  -29.5435  -15.5003   22.1001 H   0  0  0  0  0  0
  -25.1991  -23.8686   19.5176 H   0  0  0  0  0  0
  -24.0623  -22.5392   19.5493 H   0  0  0  0  0  0
  -24.7410  -23.0182   18.0154 H   0  0  0  0  0  0
  -26.4136  -24.5367   17.7334 H   0  0  0  0  0  0
  -27.3883  -24.6506   16.3561 H   0  0  0  0  0  0
  -29.0861  -18.1140   21.7725 H   0  0  0  0  0  0
  -27.7669  -17.5023   20.7604 H   0  0  0  0  0  0
  -28.6036  -26.0640   17.6329 H   0  0  0  0  0  0
  -29.4901  -24.6078   17.9116 H   0  0  0  0  0  0
  -29.2171  -24.8341   20.1246 H   0  0  0  0  0  0
  -27.5022  -24.7694   20.0276 H   0  0  0  0  0  0
  -28.1413  -21.2877   16.2745 H   0  0  0  0  0  0
  -29.7439  -17.6586   18.7954 H   0  0  0  0  0  0
  1 25  1  0  0  0
  1 30  2  0  0  0
  1 77  1  0  0  0
  2  3  1  0  0  0
  2 25  1  0  0  0
  2 88  1  0  0  0
  2 89  1  0  0  0
  3  4  1  0  0  0
  3 90  1  0  0  0
  3 91  1  0  0  0
  4  5  1  0  0  0
  4 92  1  0  0  0
  4 93  1  0  0  0
  5  6  1  0  0  0
  5 26  1  0  0  0
  5 94  1  0  0  0
  6 25  1  0  0  0
  6 95  1  0  0  0
  6 96  1  0  0  0
  7  8  2  0  0  0
  7 26  1  0  0  0
  7 29  1  0  0  0
  8  9  1  0  0  0
  8 22  1  0  0  0
  9 10  1  0  0  0
  9 27  2  0  0  0
 10 11  2  0  0  0
 10 15  1  0  0  0
 11 12  1  0  0  0
 11 97  1  0  0  0
 12 13  2  0  0  0
 12 98  1  0  0  0
 13 14  1  0  0  0
 13 31  1  0  0  0
 14 15  2  0  0  0
 14 99  1  0  0  0
 15100  1  0  0  0
 16 17  2  0  0  0
 16 21  1  0  0  0
 16 31  1  0  0  0
 17 18  1  0  0  0
 17101  1  0  0  0
 18 19  2  0  0  0
 18102  1  0  0  0
 19 20  1  0  0  0
 19 24  1  0  0  0
 20 21  2  0  0  0
 20103  1  0  0  0
 21 23  1  0  0  0
 22 28  1  0  0  0
 22 32  2  0  0  0
 26 27  1  0  0  0
 28104  1  0  0  0
 28105  1  0  0  0
 29106  1  0  0  0
 29107  1  0  0  0
 33 34  1  0  0  0
 33 66  1  0  0  0
 33 70  2  0  0  0
 34 36  1  0  0  0
 34 59  1  0  0  0
 34108  1  0  0  0
 35 44  2  0  0  0
 35 45  1  0  0  0
 35 68  1  0  0  0
 36 56  1  0  0  0
 36109  1  0  0  0
 37 39  1  0  0  0
 37 47  1  0  0  0
 37 66  1  0  0  0
 37110  1  0  0  0
 38 43  2  0  0  0
 38 46  1  0  0  0
 38 47  1  0  0  0
 39 64  1  0  0  0
 39 67  2  0  0  0
 40 52  1  0  0  0
 40 53  2  0  0  0
 40 58  1  0  0  0
 41111  1  0  0  0
 41112  1  0  0  0
 41113  1  0  0  0
 41 48  1  0  0  0
 42 43  1  0  0  0
 42 66  1  0  0  0
 42114  1  0  0  0
 42115  1  0  0  0
 43 44  1  0  0  0
 44116  1  0  0  0
 45 46  2  0  0  0
 45117  1  0  0  0
 46118  1  0  0  0
 47119  1  0  0  0
 47120  1  0  0  0
 48 56  1  0  0  0
 48 65  1  0  0  0
 48121  1  0  0  0
 49 50  1  0  0  0
 49 53  1  0  0  0
 49 64  1  0  0  0
 49122  1  0  0  0
 50 51  1  0  0  0
 50123  1  0  0  0
 50124  1  0  0  0
 51 52  1  0  0  0
 51125  1  0  0  0
 51126  1  0  0  0
 52127  1  0  0  0
 52128  1  0  0  0
 53 54  1  0  0  0
 54 55  2  0  0  0
 54129  1  0  0  0
 55 57  1  0  0  0
 55130  1  0  0  0
 56 69  2  0  0  0
 57 58  2  0  0  0
 57131  1  0  0  0
 58132  1  0  0  0
 59 60  1  0  0  0
 59 61  1  0  0  0
 59 62  1  0  0  0
 60133  1  0  0  0
 60134  1  0  0  0
 60135  1  0  0  0
 61136  1  0  0  0
 61137  1  0  0  0
 61138  1  0  0  0
 62139  1  0  0  0
 62140  1  0  0  0
 62141  1  0  0  0
 63 65  1  0  0  0
 63142  1  0  0  0
 63143  1  0  0  0
 63144  1  0  0  0
 64145  1  0  0  0
 65146  1  0  0  0
 68 84  1  0  0  0
 71 72  2  0  0  0
 71 75  1  0  0  0
 71147  1  0  0  0
 72 76  1  0  0  0
 72148  1  0  0  0
 73 74  1  0  0  0
 73 76  2  0  0  0
 73149  1  0  0  0
 74 75  2  0  0  0
 74 78  1  0  0  0
 75 80  1  0  0  0
 76 87  1  0  0  0
 77 79  2  0  0  0
 77150  1  0  0  0
 78 81  1  0  0  0
 78 85  2  0  0  0
 79 82  1  0  0  0
 79 86  1  0  0  0
 80151  1  0  0  0
 80152  1  0  0  0
 80153  1  0  0  0
 81 83  1  0  0  0
 81154  1  0  0  0
 81155  1  0  0  0
 82 87  1  0  0  0
 82156  1  0  0  0
 82157  1  0  0  0
 83 84  1  0  0  0
 83158  1  0  0  0
 83159  1  0  0  0
 84160  1  0  0  0
 84161  1  0  0  0
 85162  1  0  0  0
 86163  1  0  0  0
M  ISO  4   1 100  68 101  77 100  84 101
M  END
> <chiral flag>
0

> <version>
0

> <s_m_source_file>
/data/baiqing/PycharmProjects/Reinvent-master-3.2/result/LINK_invent/BTK/process_docking_weight1_custom_product_contain_oxygen_bond_distance_aromatic_linkinvent_7_9_3/rearranged_h_0128.sdf

> <i_m_source_file_index>
75

> <r_mmod_Potential_Energy-OPLS-2005>
1.01728582382202

> <r_mmod_Stretch_Energy-OPLS-2005>
39.9655151367188

> <r_mmod_Bend_Energy-OPLS-2005>
122.021041870117

> <r_mmod_Torsional_Energy-OPLS-2005>
209.309631347656

> <r_mmod_Improper_Torsional_Energy-OPLS-2005>
4.11995792388916

> <r_mmod_Van_der_Waal_Energy-OPLS-2005>
172.833587646484

> <r_mmod_Electrostatic_Energy-OPLS-2005>
-341.836029052734

> <r_mmod_Solvation_Energy-OPLS-2005>
-218.96418762207

> <b_mmod_Minimization_Converged-OPLS-2005>
0

> <r_mmod_RMS_Derivative-OPLS-2005>
4.41254138946533

$$$$
75
                    3D
 Structure written by MMmdl.
157165  0  0  1  0            999 V2000
  -30.5955  -14.7435   20.4556 C   0  0  0  0  0  0
  -30.4418  -12.4581   19.4504 C   0  0  0  0  0  0
  -29.5119  -12.5015   18.2193 C   0  0  0  0  0  0
  -28.0378  -12.3204   18.6391 C   0  0  0  0  0  0
  -27.6404  -13.2230   19.8372 C   0  0  2  0  0  0
  -28.6878  -13.1584   20.9670 C   0  0  0  0  0  0
  -25.2524  -13.8167   20.5676 C   0  0  0  0  0  0
  -24.1802  -13.0432   20.9209 C   0  0  0  0  0  0
  -24.6361  -11.6905   20.8721 C   0  0  0  0  0  0
  -23.9022  -10.4286   21.0398 C   0  0  0  0  0  0
  -24.3573   -9.4210   21.9186 C   0  0  0  0  0  0
  -23.6261   -8.2237   22.0748 C   0  0  0  0  0  0
  -22.4243   -8.0267   21.3534 C   0  0  0  0  0  0
  -21.9870   -9.0240   20.4651 C   0  0  0  0  0  0
  -22.7185  -10.2138   20.3056 C   0  0  0  0  0  0
  -21.6864   -6.0727   22.5279 C   0  0  0  0  0  0
  -21.4019   -6.5620   23.8204 C   0  0  0  0  0  0
  -21.3667   -5.6771   24.9165 C   0  0  0  0  0  0
  -21.6044   -4.3041   24.7217 C   0  0  0  0  0  0
  -21.8821   -3.8133   23.4333 C   0  0  0  0  0  0
  -21.9200   -4.6949   22.3405 C   0  0  0  0  0  0
  -22.7833  -13.5245   21.1881 C   0  0  0  0  0  0
  -22.1667   -4.2146   21.0970 F   0  0  0  0  0  0
  -21.5650   -3.4517   25.7734 F   0  0  0  0  0  0
  -29.9826  -13.5160   20.3748 N   0  0  0  0  0  0
  -26.2924  -12.9362   20.3175 N   0  0  0  0  0  0
  -25.9286  -11.6517   20.5662 N   0  0  0  0  0  0
  -22.0424  -12.8274   22.0428 N   0  0  0  0  0  0
  -25.4236  -15.1896   20.4182 N   0  0  0  0  0  0
  -31.8028  -14.8523   20.2260 O   0  0  0  0  0  0
  -21.6622   -6.8852   21.4226 O   0  0  0  0  0  0
  -22.3534  -14.5564   20.6726 O   0  0  0  0  0  0
  -24.6298  -31.8544   23.1993 C   0  0  0  0  0  0
  -25.9124  -32.4748   23.8336 C   0  0  1  0  0  0
  -27.2251  -27.2705   20.1319 C   0  0  0  0  0  0
  -25.5905  -33.8549   24.2263 N   0  0  0  0  0  0
  -23.4268  -30.4763   21.5422 C   0  0  2  0  0  0
  -24.8762  -28.9193   20.1160 C   0  0  0  0  0  0
  -22.7489  -29.4595   22.4917 C   0  0  0  0  0  0
  -18.0277  -28.1379   22.8492 C   0  0  0  0  0  0
  -24.1484  -36.7296   23.2628 C   0  0  0  0  0  0
  -25.9713  -30.7722   21.3767 C   0  0  0  0  0  0
  -26.0477  -29.3940   20.7213 C   0  0  0  0  0  0
  -27.2267  -28.5823   20.7155 C   0  0  0  0  0  0
  -26.0336  -26.8595   19.5000 C   0  0  0  0  0  0
  -24.8732  -27.6596   19.4950 C   0  0  0  0  0  0
  -23.6454  -29.8057   20.1604 C   0  0  0  0  0  0
  -25.4089  -36.3065   24.0336 C   0  0  1  0  0  0
  -20.5886  -28.3689   23.1275 C   0  0  2  0  0  0
  -20.6773  -26.9406   22.5402 C   0  0  0  0  0  0
  -19.5747  -26.6377   21.5208 C   0  0  0  0  0  0
  -18.1928  -26.7915   22.1630 C   0  0  0  0  0  0
  -19.1537  -28.8844   23.2877 C   0  0  0  0  0  0
  -18.9451  -30.1450   23.8894 C   0  0  0  0  0  0
  -17.6459  -30.6589   24.0546 C   0  0  0  0  0  0
  -25.9042  -34.9439   23.5107 C   0  0  0  0  0  0
  -16.5349  -29.9086   23.6331 C   0  0  0  0  0  0
  -16.7269  -28.6494   23.0369 C   0  0  0  0  0  0
  -26.4492  -31.6571   25.0729 C   0  0  0  0  0  0
  -25.3728  -31.3744   26.1474 C   0  0  0  0  0  0
  -27.0306  -30.2971   24.6220 C   0  0  0  0  0  0
  -27.6066  -32.4288   25.7488 C   0  0  0  0  0  0
  -27.5608  -37.1733   24.8415 C   0  0  0  0  0  0
  -21.4191  -29.3049   22.3680 N   0  0  0  0  0  0
  -26.4242  -37.3799   23.9469 N   0  0  0  0  0  0
  -24.6957  -31.0509   22.0969 N   0  0  0  0  0  0
  -23.4178  -28.8128   23.3012 O   0  0  0  0  0  0
  -28.3245  -26.3867   20.1386 O   0  0  0  0  0  0
  -26.5644  -34.8933   22.4692 O   0  0  0  0  0  0
  -23.5445  -32.1356   23.7297 O   0  0  0  0  0  0
  -30.6869  -18.7840   22.6739 C   0  0  0  0  0  0
  -30.2257  -19.9142   21.9660 C   0  0  0  0  0  0
  -30.5975  -17.4853   22.1361 C   0  0  0  0  0  0
  -29.5425  -18.4478   20.1640 C   0  0  0  0  0  0
  -29.6541  -19.8146   20.6753 C   0  0  0  0  0  0
  -30.0089  -17.2627   20.8742 C   0  0  0  0  0  0
  -29.0230  -21.0366   18.4974 C   0  0  0  0  0  0
  -29.0967  -22.3898   20.5276 C   0  0  0  0  0  0
  -29.8984  -20.5148   17.6191 C   0  0  0  0  0  0
  -29.2570  -21.1318   19.9340 C   0  0  0  0  0  0
  -28.8390  -23.7752   19.8663 C   0  0  0  0  0  0
  -29.6626  -20.4283   16.1252 C   0  0  0  0  0  0
  -28.1044  -24.9788   20.6242 C   0  0  0  0  0  0
  -29.7689  -15.8592   20.4694 N   0  0  0  0  0  0
  -29.2266  -24.0114   18.7175 O   0  0  0  0  0  0
  -31.4796  -12.6088   19.1451 H   0  0  0  0  0  0
  -30.4027  -11.4796   19.9338 H   0  0  0  0  0  0
  -29.7961  -11.7270   17.5049 H   0  0  0  0  0  0
  -29.6327  -13.4552   17.7014 H   0  0  0  0  0  0
  -27.8926  -11.2728   18.9062 H   0  0  0  0  0  0
  -27.3797  -12.5138   17.7920 H   0  0  0  0  0  0
  -27.6346  -14.2397   19.4456 H   0  0  0  0  0  0
  -28.7283  -12.1611   21.4065 H   0  0  0  0  0  0
  -28.4231  -13.8429   21.7765 H   0  0  0  0  0  0
  -25.2728   -9.5753   22.4734 H   0  0  0  0  0  0
  -24.0027   -7.4638   22.7445 H   0  0  0  0  0  0
  -21.0817   -8.8729   19.8941 H   0  0  0  0  0  0
  -22.3614  -10.9661   19.6151 H   0  0  0  0  0  0
  -21.1976   -7.6127   23.9713 H   0  0  0  0  0  0
  -21.1502   -6.0492   25.9079 H   0  0  0  0  0  0
  -22.0592   -2.7591   23.2827 H   0  0  0  0  0  0
  -22.3986  -11.9967   22.4899 H   0  0  0  0  0  0
  -21.1034  -13.1372   22.2542 H   0  0  0  0  0  0
  -24.6592  -15.8428   20.5528 H   0  0  0  0  0  0
  -26.2689  -15.6386   20.0930 H   0  0  0  0  0  0
  -26.7188  -32.5411   23.1076 H   0  0  0  0  0  0
  -24.9972  -33.9670   25.0354 H   0  0  0  0  0  0
  -22.7233  -31.2987   21.3960 H   0  0  0  0  0  0
  -23.3780  -35.9579   23.3142 H   0  0  0  0  0  0
  -24.3628  -36.9069   22.2073 H   0  0  0  0  0  0
  -23.7177  -37.6432   23.6738 H   0  0  0  0  0  0
  -26.1034  -31.5307   20.6037 H   0  0  0  0  0  0
  -26.8513  -30.8262   22.0072 H   0  0  0  0  0  0
  -28.1268  -28.9394   21.1954 H   0  0  0  0  0  0
  -25.9921  -25.8949   19.0126 H   0  0  0  0  0  0
  -23.9774  -27.2903   19.0158 H   0  0  0  0  0  0
  -23.7682  -30.5805   19.4025 H   0  0  0  0  0  0
  -22.7639  -29.2358   19.8598 H   0  0  0  0  0  0
  -25.1240  -36.1876   25.0822 H   0  0  0  0  0  0
  -20.9976  -28.3260   24.1397 H   0  0  0  0  0  0
  -20.5679  -26.2286   23.3601 H   0  0  0  0  0  0
  -21.6643  -26.7442   22.1195 H   0  0  0  0  0  0
  -19.6908  -25.6284   21.1253 H   0  0  0  0  0  0
  -19.6682  -27.3179   20.6730 H   0  0  0  0  0  0
  -17.4186  -26.6644   21.4045 H   0  0  0  0  0  0
  -18.0349  -26.0066   22.9044 H   0  0  0  0  0  0
  -19.7931  -30.7266   24.2265 H   0  0  0  0  0  0
  -17.5015  -31.6287   24.5131 H   0  0  0  0  0  0
  -15.5347  -30.2987   23.7662 H   0  0  0  0  0  0
  -15.8665  -28.0809   22.7103 H   0  0  0  0  0  0
  -24.5803  -30.7220   25.7799 H   0  0  0  0  0  0
  -24.9051  -32.2934   26.5011 H   0  0  0  0  0  0
  -25.8033  -30.8795   27.0188 H   0  0  0  0  0  0
  -26.2874  -29.6732   24.1246 H   0  0  0  0  0  0
  -27.3954  -29.7233   25.4750 H   0  0  0  0  0  0
  -27.8779  -30.4210   23.9477 H   0  0  0  0  0  0
  -27.2692  -33.3582   26.2088 H   0  0  0  0  0  0
  -28.3866  -32.6845   25.0305 H   0  0  0  0  0  0
  -28.0748  -31.8391   26.5381 H   0  0  0  0  0  0
  -28.2426  -38.0228   24.7761 H   0  0  0  0  0  0
  -28.1297  -36.2786   24.5818 H   0  0  0  0  0  0
  -27.2393  -37.0888   25.8817 H   0  0  0  0  0  0
  -20.9355  -29.8767   21.6900 H   0  0  0  0  0  0
  -26.0102  -38.2816   24.1658 H   0  0  0  0  0  0
  -31.1080  -18.9165   23.6616 H   0  0  0  0  0  0
  -30.3473  -20.8758   22.4410 H   0  0  0  0  0  0
  -30.9388  -16.6523   22.7358 H   0  0  0  0  0  0
  -29.0794  -18.3039   19.1985 H   0  0  0  0  0  0
  -28.0821  -21.4090   18.1160 H   0  0  0  0  0  0
  -29.1953  -22.4518   21.6000 H   0  0  0  0  0  0
  -30.8514  -20.1421   17.9726 H   0  0  0  0  0  0
  -28.6466  -20.7238   15.8620 H   0  0  0  0  0  0
  -29.8196  -19.4089   15.7735 H   0  0  0  0  0  0
  -30.3527  -21.0835   15.5924 H   0  0  0  0  0  0
  -28.4016  -24.9432   21.6725 H   0  0  0  0  0  0
  -27.0399  -24.7422   20.6158 H   0  0  0  0  0  0
  -28.7993  -15.6344   20.3227 H   0  0  0  0  0  0
  1 25  1  0  0  0
  1 30  2  0  0  0
  1 84  1  0  0  0
  2  3  1  0  0  0
  2 25  1  0  0  0
  2 86  1  0  0  0
  2 87  1  0  0  0
  3  4  1  0  0  0
  3 88  1  0  0  0
  3 89  1  0  0  0
  4  5  1  0  0  0
  4 90  1  0  0  0
  4 91  1  0  0  0
  5  6  1  0  0  0
  5 26  1  0  0  0
  5 92  1  0  0  0
  6 25  1  0  0  0
  6 93  1  0  0  0
  6 94  1  0  0  0
  7  8  2  0  0  0
  7 26  1  0  0  0
  7 29  1  0  0  0
  8  9  1  0  0  0
  8 22  1  0  0  0
  9 10  1  0  0  0
  9 27  2  0  0  0
 10 11  2  0  0  0
 10 15  1  0  0  0
 11 12  1  0  0  0
 11 95  1  0  0  0
 12 13  2  0  0  0
 12 96  1  0  0  0
 13 14  1  0  0  0
 13 31  1  0  0  0
 14 15  2  0  0  0
 14 97  1  0  0  0
 15 98  1  0  0  0
 16 17  2  0  0  0
 16 21  1  0  0  0
 16 31  1  0  0  0
 17 18  1  0  0  0
 17 99  1  0  0  0
 18 19  2  0  0  0
 18100  1  0  0  0
 19 20  1  0  0  0
 19 24  1  0  0  0
 20 21  2  0  0  0
 20101  1  0  0  0
 21 23  1  0  0  0
 22 28  1  0  0  0
 22 32  2  0  0  0
 26 27  1  0  0  0
 28102  1  0  0  0
 28103  1  0  0  0
 29104  1  0  0  0
 29105  1  0  0  0
 33 34  1  0  0  0
 33 66  1  0  0  0
 33 70  2  0  0  0
 34 36  1  0  0  0
 34 59  1  0  0  0
 34106  1  0  0  0
 35 44  2  0  0  0
 35 45  1  0  0  0
 35 68  1  0  0  0
 36 56  1  0  0  0
 36107  1  0  0  0
 37 39  1  0  0  0
 37 47  1  0  0  0
 37 66  1  0  0  0
 37108  1  0  0  0
 38 43  2  0  0  0
 38 46  1  0  0  0
 38 47  1  0  0  0
 39 64  1  0  0  0
 39 67  2  0  0  0
 40 52  1  0  0  0
 40 53  2  0  0  0
 40 58  1  0  0  0
 41109  1  0  0  0
 41110  1  0  0  0
 41111  1  0  0  0
 41 48  1  0  0  0
 42 43  1  0  0  0
 42 66  1  0  0  0
 42112  1  0  0  0
 42113  1  0  0  0
 43 44  1  0  0  0
 44114  1  0  0  0
 45 46  2  0  0  0
 45115  1  0  0  0
 46116  1  0  0  0
 47117  1  0  0  0
 47118  1  0  0  0
 48 56  1  0  0  0
 48 65  1  0  0  0
 48119  1  0  0  0
 49 50  1  0  0  0
 49 53  1  0  0  0
 49 64  1  0  0  0
 49120  1  0  0  0
 50 51  1  0  0  0
 50121  1  0  0  0
 50122  1  0  0  0
 51 52  1  0  0  0
 51123  1  0  0  0
 51124  1  0  0  0
 52125  1  0  0  0
 52126  1  0  0  0
 53 54  1  0  0  0
 54 55  2  0  0  0
 54127  1  0  0  0
 55 57  1  0  0  0
 55128  1  0  0  0
 56 69  2  0  0  0
 57 58  2  0  0  0
 57129  1  0  0  0
 58130  1  0  0  0
 59 60  1  0  0  0
 59 61  1  0  0  0
 59 62  1  0  0  0
 60131  1  0  0  0
 60132  1  0  0  0
 60133  1  0  0  0
 61134  1  0  0  0
 61135  1  0  0  0
 61136  1  0  0  0
 62137  1  0  0  0
 62138  1  0  0  0
 62139  1  0  0  0
 63 65  1  0  0  0
 63140  1  0  0  0
 63141  1  0  0  0
 63142  1  0  0  0
 64143  1  0  0  0
 65144  1  0  0  0
 68 83  1  0  0  0
 71 72  2  0  0  0
 71 73  1  0  0  0
 71145  1  0  0  0
 72 75  1  0  0  0
 72146  1  0  0  0
 73 76  2  0  0  0
 73147  1  0  0  0
 74 75  2  0  0  0
 74 76  1  0  0  0
 74148  1  0  0  0
 75 80  1  0  0  0
 76 84  1  0  0  0
 77 79  2  0  0  0
 77 80  1  0  0  0
 77149  1  0  0  0
 78 80  2  0  0  0
 78 81  1  0  0  0
 78150  1  0  0  0
 79 82  1  0  0  0
 79151  1  0  0  0
 81 83  1  0  0  0
 81 85  2  0  0  0
 82152  1  0  0  0
 82153  1  0  0  0
 82154  1  0  0  0
 83155  1  0  0  0
 83156  1  0  0  0
 84157  1  0  0  0
M  ISO  4   1 100  68 101  83 101  84 100
M  END
> <chiral flag>
0

> <version>
0

> <s_m_source_file>
/data/baiqing/PycharmProjects/Reinvent-master-3.2/result/LINK_invent/BTK/process_docking_weight1_custom_product_contain_oxygen_bond_distance_aromatic_linkinvent_7_9_3/rearranged_h_0128.sdf

> <i_m_source_file_index>
76

> <r_mmod_Potential_Energy-OPLS-2005>
226.406234741211

> <r_mmod_Stretch_Energy-OPLS-2005>
126.654106140137

> <r_mmod_Bend_Energy-OPLS-2005>
150.253707885742

> <r_mmod_Torsional_Energy-OPLS-2005>
278.101806640625

> <r_mmod_Improper_Torsional_Energy-OPLS-2005>
9.39032554626465

> <r_mmod_Van_der_Waal_Energy-OPLS-2005>
138.738739013672

> <r_mmod_Electrostatic_Energy-OPLS-2005>
-330.897888183594

> <r_mmod_Solvation_Energy-OPLS-2005>
-230.616897583008

> <b_mmod_Minimization_Converged-OPLS-2005>
0

> <r_mmod_RMS_Derivative-OPLS-2005>
3.12523078918457

$$$$
76
                    3D
 Structure written by MMmdl.
162170  0  0  1  0            999 V2000
  -30.6354  -14.6536   20.5160 C   0  0  0  0  0  0
  -30.4379  -12.4040   19.4647 C   0  0  0  0  0  0
  -29.5108  -12.5170   18.2336 C   0  0  0  0  0  0
  -28.0339  -12.3529   18.6426 C   0  0  0  0  0  0
  -27.6549  -13.2241   19.8698 C   0  0  2  0  0  0
  -28.6986  -13.0851   21.0023 C   0  0  0  0  0  0
  -25.2493  -13.8153   20.5561 C   0  0  0  0  0  0
  -24.1808  -13.0421   20.9182 C   0  0  0  0  0  0
  -24.6410  -11.6906   20.8768 C   0  0  0  0  0  0
  -23.9080  -10.4287   21.0423 C   0  0  0  0  0  0
  -24.3624   -9.4198   21.9197 C   0  0  0  0  0  0
  -23.6294   -8.2236   22.0757 C   0  0  0  0  0  0
  -22.4276   -8.0280   21.3546 C   0  0  0  0  0  0
  -21.9919   -9.0257   20.4648 C   0  0  0  0  0  0
  -22.7254  -10.2134   20.3066 C   0  0  0  0  0  0
  -21.6850   -6.0735   22.5278 C   0  0  0  0  0  0
  -21.4012   -6.5639   23.8212 C   0  0  0  0  0  0
  -21.3659   -5.6792   24.9175 C   0  0  0  0  0  0
  -21.6045   -4.3055   24.7224 C   0  0  0  0  0  0
  -21.8818   -3.8147   23.4345 C   0  0  0  0  0  0
  -21.9191   -4.6963   22.3401 C   0  0  0  0  0  0
  -22.7831  -13.5213   21.1850 C   0  0  0  0  0  0
  -22.1659   -4.2150   21.0978 F   0  0  0  0  0  0
  -21.5632   -3.4539   25.7737 F   0  0  0  0  0  0
  -30.0176  -13.4285   20.4450 N   0  0  0  0  0  0
  -26.2992  -12.9382   20.3345 N   0  0  0  0  0  0
  -25.9354  -11.6530   20.5822 N   0  0  0  0  0  0
  -22.0486  -12.8210   22.0420 N   0  0  0  0  0  0
  -25.4042  -15.1837   20.3680 N   0  0  0  0  0  0
  -31.7782  -14.8132   20.0770 O   0  0  0  0  0  0
  -21.6637   -6.8879   21.4241 O   0  0  0  0  0  0
  -22.3506  -14.5517   20.6703 O   0  0  0  0  0  0
  -24.6280  -31.8594   23.2027 C   0  0  0  0  0  0
  -25.9122  -32.4777   23.8358 C   0  0  1  0  0  0
  -27.2227  -27.3058   20.1165 C   0  0  0  0  0  0
  -25.5931  -33.8577   24.2282 N   0  0  0  0  0  0
  -23.4221  -30.4845   21.5461 C   0  0  2  0  0  0
  -24.8683  -28.9412   20.1122 C   0  0  0  0  0  0
  -22.7484  -29.4626   22.4932 C   0  0  0  0  0  0
  -18.0288  -28.1386   22.8486 C   0  0  0  0  0  0
  -24.1489  -36.7293   23.2639 C   0  0  0  0  0  0
  -25.9659  -30.7867   21.3763 C   0  0  0  0  0  0
  -26.0402  -29.4140   20.7164 C   0  0  0  0  0  0
  -27.2212  -28.6096   20.7073 C   0  0  0  0  0  0
  -26.0237  -26.8940   19.4862 C   0  0  0  0  0  0
  -24.8632  -27.6870   19.4879 C   0  0  0  0  0  0
  -23.6374  -29.8224   20.1611 C   0  0  0  0  0  0
  -25.4114  -36.3082   24.0328 C   0  0  1  0  0  0
  -20.5890  -28.3693   23.1277 C   0  0  2  0  0  0
  -20.6778  -26.9414   22.5407 C   0  0  0  0  0  0
  -19.5752  -26.6385   21.5212 C   0  0  0  0  0  0
  -18.1932  -26.7928   22.1625 C   0  0  0  0  0  0
  -19.1542  -28.8857   23.2877 C   0  0  0  0  0  0
  -18.9463  -30.1459   23.8894 C   0  0  0  0  0  0
  -17.6463  -30.6588   24.0565 C   0  0  0  0  0  0
  -25.9052  -34.9451   23.5105 C   0  0  0  0  0  0
  -16.5354  -29.9086   23.6332 C   0  0  0  0  0  0
  -16.7276  -28.6504   23.0352 C   0  0  0  0  0  0
  -26.4499  -31.6587   25.0730 C   0  0  0  0  0  0
  -25.3728  -31.3723   26.1454 C   0  0  0  0  0  0
  -27.0345  -30.3010   24.6192 C   0  0  0  0  0  0
  -27.6057  -32.4324   25.7502 C   0  0  0  0  0  0
  -27.5579  -37.1804   24.8465 C   0  0  0  0  0  0
  -21.4196  -29.3048   22.3673 N   0  0  0  0  0  0
  -26.4292  -37.3778   23.9407 N   0  0  0  0  0  0
  -24.6911  -31.0597   22.0985 N   0  0  0  0  0  0
  -23.4201  -28.8157   23.3011 O   0  0  0  0  0  0
  -28.3269  -26.4326   20.1658 O   0  0  0  0  0  0
  -26.5620  -34.8918   22.4672 O   0  0  0  0  0  0
  -23.5440  -32.1396   23.7347 O   0  0  0  0  0  0
  -30.6153  -17.7771   19.7136 C   0  0  0  0  0  0
  -29.1799  -19.4557   21.4351 C   0  0  0  0  0  0
  -30.5709  -19.1901   19.4955 C   0  0  0  0  0  0
  -29.2470  -18.0440   21.6775 C   0  0  0  0  0  0
  -29.9496  -17.1551   20.8025 C   0  0  0  0  0  0
  -29.8379  -20.0737   20.3392 C   0  0  0  0  0  0
  -29.2001  -23.9413   20.2950 C   0  0  0  0  0  0
  -31.3183  -19.7686   18.3083 C   0  0  0  0  0  0
  -26.5052  -16.3793   23.9237 C   0  0  0  0  0  0
  -28.5720  -17.5088   22.9339 C   0  0  0  0  0  0
  -28.0159  -24.9745   20.1309 C   0  0  0  0  0  0
  -28.8757  -22.4146   20.6007 C   0  0  0  0  0  0
  -27.1896  -16.9069   22.6578 C   0  0  0  0  0  0
  -29.8882  -15.6975   21.0020 N   0  0  0  0  0  0
  -30.3727  -24.3180   20.1816 O   0  0  0  0  0  0
  -29.8575  -21.4622   20.0625 O   0  0  0  0  0  0
  -31.4801  -12.5232   19.1636 H   0  0  0  0  0  0
  -30.3698  -11.4091   19.9073 H   0  0  0  0  0  0
  -29.7778  -11.7653   17.4897 H   0  0  0  0  0  0
  -29.6530  -13.4865   17.7535 H   0  0  0  0  0  0
  -27.8719  -11.2995   18.8744 H   0  0  0  0  0  0
  -27.3803  -12.5821   17.8002 H   0  0  0  0  0  0
  -27.6731  -14.2605   19.5315 H   0  0  0  0  0  0
  -28.7106  -12.0646   21.3883 H   0  0  0  0  0  0
  -28.4370  -13.7176   21.8516 H   0  0  0  0  0  0
  -25.2765   -9.5672   22.4777 H   0  0  0  0  0  0
  -24.0000   -7.4623   22.7473 H   0  0  0  0  0  0
  -21.0854   -8.8782   19.8950 H   0  0  0  0  0  0
  -22.3717  -10.9677   19.6176 H   0  0  0  0  0  0
  -21.2003   -7.6146   23.9718 H   0  0  0  0  0  0
  -21.1482   -6.0520   25.9078 H   0  0  0  0  0  0
  -22.0598   -2.7610   23.2844 H   0  0  0  0  0  0
  -22.4107  -11.9872   22.4803 H   0  0  0  0  0  0
  -21.1108  -13.1237   22.2635 H   0  0  0  0  0  0
  -24.6290  -15.8290   20.4670 H   0  0  0  0  0  0
  -26.2433  -15.6245   20.0152 H   0  0  0  0  0  0
  -26.7190  -32.5443   23.1105 H   0  0  0  0  0  0
  -25.0075  -33.9721   25.0425 H   0  0  0  0  0  0
  -22.7167  -31.3059   21.4037 H   0  0  0  0  0  0
  -23.3751  -35.9626   23.3303 H   0  0  0  0  0  0
  -24.3581  -36.8913   22.2053 H   0  0  0  0  0  0
  -23.7244  -37.6496   23.6661 H   0  0  0  0  0  0
  -26.0997  -31.5508   20.6093 H   0  0  0  0  0  0
  -26.8455  -30.8337   22.0068 H   0  0  0  0  0  0
  -28.1189  -28.9682   21.1915 H   0  0  0  0  0  0
  -25.9430  -25.9417   18.9862 H   0  0  0  0  0  0
  -23.9662  -27.3196   19.0084 H   0  0  0  0  0  0
  -23.7583  -30.6003   19.4062 H   0  0  0  0  0  0
  -22.7568  -29.2537   19.8567 H   0  0  0  0  0  0
  -25.1296  -36.1934   25.0821 H   0  0  0  0  0  0
  -20.9982  -28.3268   24.1398 H   0  0  0  0  0  0
  -20.5681  -26.2303   23.3608 H   0  0  0  0  0  0
  -21.6647  -26.7445   22.1199 H   0  0  0  0  0  0
  -19.6915  -25.6296   21.1241 H   0  0  0  0  0  0
  -19.6687  -27.3196   20.6742 H   0  0  0  0  0  0
  -17.4201  -26.6676   21.4028 H   0  0  0  0  0  0
  -18.0335  -26.0070   22.9021 H   0  0  0  0  0  0
  -19.7938  -30.7277   24.2260 H   0  0  0  0  0  0
  -17.5016  -31.6266   24.5169 H   0  0  0  0  0  0
  -15.5355  -30.2987   23.7657 H   0  0  0  0  0  0
  -15.8675  -28.0823   22.7067 H   0  0  0  0  0  0
  -24.5910  -30.7062   25.7782 H   0  0  0  0  0  0
  -24.8908  -32.2885   26.4874 H   0  0  0  0  0  0
  -25.8052  -30.8906   27.0232 H   0  0  0  0  0  0
  -26.2924  -29.6757   24.1213 H   0  0  0  0  0  0
  -27.4036  -29.7269   25.4702 H   0  0  0  0  0  0
  -27.8796  -30.4294   23.9425 H   0  0  0  0  0  0
  -27.2671  -33.3629   26.2070 H   0  0  0  0  0  0
  -28.3873  -32.6876   25.0333 H   0  0  0  0  0  0
  -28.0716  -31.8452   26.5425 H   0  0  0  0  0  0
  -28.2598  -38.0100   24.7512 H   0  0  0  0  0  0
  -28.1075  -36.2633   24.6292 H   0  0  0  0  0  0
  -27.2296  -37.1455   25.8867 H   0  0  0  0  0  0
  -20.9374  -29.8779   21.6890 H   0  0  0  0  0  0
  -26.0172  -38.2851   24.1407 H   0  0  0  0  0  0
  -31.1630  -17.1615   19.0140 H   0  0  0  0  0  0
  -28.6294  -20.0729   22.1300 H   0  0  0  0  0  0
  -31.8827  -19.0049   17.7724 H   0  0  0  0  0  0
  -32.0203  -20.5352   18.6375 H   0  0  0  0  0  0
  -30.6189  -20.2255   17.6078 H   0  0  0  0  0  0
  -25.5323  -15.9479   23.6852 H   0  0  0  0  0  0
  -26.3457  -17.1774   24.6495 H   0  0  0  0  0  0
  -27.1025  -15.6030   24.4031 H   0  0  0  0  0  0
  -28.4811  -18.3141   23.6642 H   0  0  0  0  0  0
  -29.2209  -16.7667   23.4012 H   0  0  0  0  0  0
  -27.2689  -24.7527   20.8937 H   0  0  0  0  0  0
  -27.5709  -24.7312   19.1675 H   0  0  0  0  0  0
  -27.8923  -22.1763   20.1952 H   0  0  0  0  0  0
  -28.8132  -22.2969   21.6821 H   0  0  0  0  0  0
  -26.5500  -17.6520   22.1827 H   0  0  0  0  0  0
  -27.2930  -16.0883   21.9493 H   0  0  0  0  0  0
  -29.0652  -15.3852   21.4931 H   0  0  0  0  0  0
  1 25  1  0  0  0
  1 30  2  0  0  0
  1 84  1  0  0  0
  2  3  1  0  0  0
  2 25  1  0  0  0
  2 87  1  0  0  0
  2 88  1  0  0  0
  3  4  1  0  0  0
  3 89  1  0  0  0
  3 90  1  0  0  0
  4  5  1  0  0  0
  4 91  1  0  0  0
  4 92  1  0  0  0
  5  6  1  0  0  0
  5 26  1  0  0  0
  5 93  1  0  0  0
  6 25  1  0  0  0
  6 94  1  0  0  0
  6 95  1  0  0  0
  7  8  2  0  0  0
  7 26  1  0  0  0
  7 29  1  0  0  0
  8  9  1  0  0  0
  8 22  1  0  0  0
  9 10  1  0  0  0
  9 27  2  0  0  0
 10 11  2  0  0  0
 10 15  1  0  0  0
 11 12  1  0  0  0
 11 96  1  0  0  0
 12 13  2  0  0  0
 12 97  1  0  0  0
 13 14  1  0  0  0
 13 31  1  0  0  0
 14 15  2  0  0  0
 14 98  1  0  0  0
 15 99  1  0  0  0
 16 17  2  0  0  0
 16 21  1  0  0  0
 16 31  1  0  0  0
 17 18  1  0  0  0
 17100  1  0  0  0
 18 19  2  0  0  0
 18101  1  0  0  0
 19 20  1  0  0  0
 19 24  1  0  0  0
 20 21  2  0  0  0
 20102  1  0  0  0
 21 23  1  0  0  0
 22 28  1  0  0  0
 22 32  2  0  0  0
 26 27  1  0  0  0
 28103  1  0  0  0
 28104  1  0  0  0
 29105  1  0  0  0
 29106  1  0  0  0
 33 34  1  0  0  0
 33 66  1  0  0  0
 33 70  2  0  0  0
 34 36  1  0  0  0
 34 59  1  0  0  0
 34107  1  0  0  0
 35 44  2  0  0  0
 35 45  1  0  0  0
 35 68  1  0  0  0
 36 56  1  0  0  0
 36108  1  0  0  0
 37 39  1  0  0  0
 37 47  1  0  0  0
 37 66  1  0  0  0
 37109  1  0  0  0
 38 43  2  0  0  0
 38 46  1  0  0  0
 38 47  1  0  0  0
 39 64  1  0  0  0
 39 67  2  0  0  0
 40 52  1  0  0  0
 40 53  2  0  0  0
 40 58  1  0  0  0
 41110  1  0  0  0
 41111  1  0  0  0
 41112  1  0  0  0
 41 48  1  0  0  0
 42 43  1  0  0  0
 42 66  1  0  0  0
 42113  1  0  0  0
 42114  1  0  0  0
 43 44  1  0  0  0
 44115  1  0  0  0
 45 46  2  0  0  0
 45116  1  0  0  0
 46117  1  0  0  0
 47118  1  0  0  0
 47119  1  0  0  0
 48 56  1  0  0  0
 48 65  1  0  0  0
 48120  1  0  0  0
 49 50  1  0  0  0
 49 53  1  0  0  0
 49 64  1  0  0  0
 49121  1  0  0  0
 50 51  1  0  0  0
 50122  1  0  0  0
 50123  1  0  0  0
 51 52  1  0  0  0
 51124  1  0  0  0
 51125  1  0  0  0
 52126  1  0  0  0
 52127  1  0  0  0
 53 54  1  0  0  0
 54 55  2  0  0  0
 54128  1  0  0  0
 55 57  1  0  0  0
 55129  1  0  0  0
 56 69  2  0  0  0
 57 58  2  0  0  0
 57130  1  0  0  0
 58131  1  0  0  0
 59 60  1  0  0  0
 59 61  1  0  0  0
 59 62  1  0  0  0
 60132  1  0  0  0
 60133  1  0  0  0
 60134  1  0  0  0
 61135  1  0  0  0
 61136  1  0  0  0
 61137  1  0  0  0
 62138  1  0  0  0
 62139  1  0  0  0
 62140  1  0  0  0
 63 65  1  0  0  0
 63141  1  0  0  0
 63142  1  0  0  0
 63143  1  0  0  0
 64144  1  0  0  0
 65145  1  0  0  0
 68 81  1  0  0  0
 71 73  2  0  0  0
 71 75  1  0  0  0
 71146  1  0  0  0
 72 74  1  0  0  0
 72 76  2  0  0  0
 72147  1  0  0  0
 73 76  1  0  0  0
 73 78  1  0  0  0
 74 75  2  0  0  0
 74 80  1  0  0  0
 75 84  1  0  0  0
 76 86  1  0  0  0
 77 81  1  0  0  0
 77 82  1  0  0  0
 77 85  2  0  0  0
 78148  1  0  0  0
 78149  1  0  0  0
 78150  1  0  0  0
 79 83  1  0  0  0
 79151  1  0  0  0
 79152  1  0  0  0
 79153  1  0  0  0
 80 83  1  0  0  0
 80154  1  0  0  0
 80155  1  0  0  0
 81156  1  0  0  0
 81157  1  0  0  0
 82 86  1  0  0  0
 82158  1  0  0  0
 82159  1  0  0  0
 83160  1  0  0  0
 83161  1  0  0  0
 84162  1  0  0  0
M  ISO  4   1 100  68 101  81 101  84 100
M  END
> <chiral flag>
0

> <version>
0

> <s_m_source_file>
/data/baiqing/PycharmProjects/Reinvent-master-3.2/result/LINK_invent/BTK/process_docking_weight1_custom_product_contain_oxygen_bond_distance_aromatic_linkinvent_7_9_3/rearranged_h_0128.sdf

> <i_m_source_file_index>
77

> <r_mmod_Potential_Energy-OPLS-2005>
65.135124206543

> <r_mmod_Stretch_Energy-OPLS-2005>
88.2317962646484

> <r_mmod_Bend_Energy-OPLS-2005>
144.24821472168

> <r_mmod_Torsional_Energy-OPLS-2005>
221.661148071289

> <r_mmod_Improper_Torsional_Energy-OPLS-2005>
3.2449049949646

> <r_mmod_Van_der_Waal_Energy-OPLS-2005>
136.325698852539

> <r_mmod_Electrostatic_Energy-OPLS-2005>
-347.149810791016

> <r_mmod_Solvation_Energy-OPLS-2005>
-235.274765014648

> <b_mmod_Minimization_Converged-OPLS-2005>
0

> <r_mmod_RMS_Derivative-OPLS-2005>
0.212836369872093

$$$$
77
                    3D
 Structure written by MMmdl.
155163  0  0  1  0            999 V2000
  -30.6297  -14.6286   20.5544 C   0  0  0  0  0  0
  -30.4409  -12.4012   19.4542 C   0  0  0  0  0  0
  -29.5130  -12.5344   18.2248 C   0  0  0  0  0  0
  -28.0354  -12.3623   18.6366 C   0  0  0  0  0  0
  -27.6536  -13.2179   19.8739 C   0  0  2  0  0  0
  -28.6989  -13.0483   21.0024 C   0  0  0  0  0  0
  -25.2371  -13.7973   20.5559 C   0  0  0  0  0  0
  -24.1733  -13.0267   20.9222 C   0  0  0  0  0  0
  -24.6392  -11.6801   20.8784 C   0  0  0  0  0  0
  -23.9083  -10.4212   21.0425 C   0  0  0  0  0  0
  -24.3626   -9.4146   21.9216 C   0  0  0  0  0  0
  -23.6285   -8.2204   22.0774 C   0  0  0  0  0  0
  -22.4256   -8.0254   21.3564 C   0  0  0  0  0  0
  -21.9902   -9.0240   20.4668 C   0  0  0  0  0  0
  -22.7254  -10.2098   20.3069 C   0  0  0  0  0  0
  -21.6848   -6.0719   22.5287 C   0  0  0  0  0  0
  -21.4022   -6.5633   23.8231 C   0  0  0  0  0  0
  -21.3647   -5.6775   24.9188 C   0  0  0  0  0  0
  -21.6034   -4.3047   24.7236 C   0  0  0  0  0  0
  -21.8820   -3.8136   23.4361 C   0  0  0  0  0  0
  -21.9207   -4.6961   22.3417 C   0  0  0  0  0  0
  -22.7764  -13.5114   21.1865 C   0  0  0  0  0  0
  -22.1668   -4.2151   21.0983 F   0  0  0  0  0  0
  -21.5617   -3.4530   25.7748 F   0  0  0  0  0  0
  -30.0184  -13.4061   20.4513 N   0  0  0  0  0  0
  -26.2953  -12.9288   20.3346 N   0  0  0  0  0  0
  -25.9333  -11.6445   20.5821 N   0  0  0  0  0  0
  -22.0402  -12.8153   22.0436 N   0  0  0  0  0  0
  -25.3634  -15.1594   20.3616 N   0  0  0  0  0  0
  -31.7756  -14.8067   20.1252 O   0  0  0  0  0  0
  -21.6620   -6.8854   21.4234 O   0  0  0  0  0  0
  -22.3490  -14.5454   20.6724 O   0  0  0  0  0  0
  -24.6248  -31.8630   23.2043 C   0  0  0  0  0  0
  -25.9095  -32.4813   23.8391 C   0  0  1  0  0  0
  -27.2180  -27.3423   20.1072 C   0  0  0  0  0  0
  -25.5930  -33.8611   24.2316 N   0  0  0  0  0  0
  -23.4180  -30.4894   21.5451 C   0  0  2  0  0  0
  -24.8619  -28.9506   20.1136 C   0  0  0  0  0  0
  -22.7477  -29.4639   22.4912 C   0  0  0  0  0  0
  -18.0297  -28.1370   22.8473 C   0  0  0  0  0  0
  -24.1489  -36.7308   23.2630 C   0  0  0  0  0  0
  -25.9577  -30.8033   21.3709 C   0  0  0  0  0  0
  -26.0323  -29.4332   20.7126 C   0  0  0  0  0  0
  -27.2141  -28.6392   20.7032 C   0  0  0  0  0  0
  -26.0206  -26.9088   19.4885 C   0  0  0  0  0  0
  -24.8549  -27.6929   19.4970 C   0  0  0  0  0  0
  -23.6331  -29.8301   20.1588 C   0  0  0  0  0  0
  -25.4102  -36.3102   24.0335 C   0  0  1  0  0  0
  -20.5897  -28.3674   23.1261 C   0  0  2  0  0  0
  -20.6782  -26.9394   22.5387 C   0  0  0  0  0  0
  -19.5755  -26.6367   21.5188 C   0  0  0  0  0  0
  -18.1937  -26.7914   22.1610 C   0  0  0  0  0  0
  -19.1548  -28.8833   23.2880 C   0  0  0  0  0  0
  -18.9476  -30.1432   23.8899 C   0  0  0  0  0  0
  -17.6472  -30.6567   24.0556 C   0  0  0  0  0  0
  -25.9041  -34.9473   23.5117 C   0  0  0  0  0  0
  -16.5367  -29.9071   23.6316 C   0  0  0  0  0  0
  -16.7284  -28.6496   23.0335 C   0  0  0  0  0  0
  -26.4491  -31.6613   25.0750 C   0  0  0  0  0  0
  -25.3744  -31.3753   26.1495 C   0  0  0  0  0  0
  -27.0331  -30.3048   24.6171 C   0  0  0  0  0  0
  -27.6064  -32.4336   25.7526 C   0  0  0  0  0  0
  -27.5590  -37.1796   24.8448 C   0  0  0  0  0  0
  -21.4185  -29.3056   22.3667 N   0  0  0  0  0  0
  -26.4282  -37.3792   23.9425 N   0  0  0  0  0  0
  -24.6860  -31.0678   22.0972 N   0  0  0  0  0  0
  -23.4223  -28.8142   23.2957 O   0  0  0  0  0  0
  -28.3388  -26.5045   20.1583 O   0  0  0  0  0  0
  -26.5588  -34.8923   22.4673 O   0  0  0  0  0  0
  -23.5416  -32.1409   23.7383 O   0  0  0  0  0  0
  -31.2029  -19.2465   20.8290 C   0  0  0  0  0  0
  -31.1744  -17.8215   20.8791 C   0  0  0  0  0  0
  -28.8036  -19.3347   20.8697 C   0  0  0  0  0  0
  -30.0238  -20.0439   20.8037 C   0  0  0  0  0  0
  -28.7706  -17.9139   20.9596 C   0  0  0  0  0  0
  -29.9502  -17.1078   20.9371 C   0  0  0  0  0  0
  -30.1244  -21.5713   20.8025 C   0  0  0  0  0  0
  -27.4125  -17.2699   21.0488 C   0  0  0  0  0  0
  -28.9502  -22.5074   20.3474 C   0  0  0  0  0  0
  -29.2288  -24.0705   20.4726 C   0  0  0  0  0  0
  -28.1177  -25.0617   19.9624 C   0  0  0  0  0  0
  -29.8456  -15.6500   21.0226 N   0  0  0  0  0  0
  -31.1764  -22.1173   21.1502 O   0  0  0  0  0  0
  -31.4867  -12.5256   19.1667 H   0  0  0  0  0  0
  -30.3685  -11.3995   19.8782 H   0  0  0  0  0  0
  -29.7777  -11.7939   17.4689 H   0  0  0  0  0  0
  -29.6570  -13.5081   17.7546 H   0  0  0  0  0  0
  -27.8832  -11.3088   18.8682 H   0  0  0  0  0  0
  -27.3771  -12.5925   17.7994 H   0  0  0  0  0  0
  -27.6745  -14.2591   19.5532 H   0  0  0  0  0  0
  -28.7143  -12.0159   21.3577 H   0  0  0  0  0  0
  -28.4425  -13.6504   21.8756 H   0  0  0  0  0  0
  -25.2765   -9.5619   22.4797 H   0  0  0  0  0  0
  -24.0013   -7.4577   22.7462 H   0  0  0  0  0  0
  -21.0844   -8.8773   19.8948 H   0  0  0  0  0  0
  -22.3750  -10.9659   19.6178 H   0  0  0  0  0  0
  -21.2020   -7.6148   23.9746 H   0  0  0  0  0  0
  -21.1446   -6.0496   25.9091 H   0  0  0  0  0  0
  -22.0609   -2.7607   23.2860 H   0  0  0  0  0  0
  -22.4006  -11.9846   22.4886 H   0  0  0  0  0  0
  -21.1040  -13.1204   22.2678 H   0  0  0  0  0  0
  -24.5508  -15.7623   20.4103 H   0  0  0  0  0  0
  -26.1493  -15.5871   19.8940 H   0  0  0  0  0  0
  -26.7172  -32.5487   23.1160 H   0  0  0  0  0  0
  -25.0154  -33.9777   25.0512 H   0  0  0  0  0  0
  -22.7116  -31.3103   21.4021 H   0  0  0  0  0  0
  -23.3767  -35.9623   23.3255 H   0  0  0  0  0  0
  -24.3601  -36.8958   22.2051 H   0  0  0  0  0  0
  -23.7222  -37.6491   23.6676 H   0  0  0  0  0  0
  -26.0847  -31.5661   20.6018 H   0  0  0  0  0  0
  -26.8408  -30.8562   21.9971 H   0  0  0  0  0  0
  -28.1141  -29.0004   21.1816 H   0  0  0  0  0  0
  -25.9474  -25.9486   19.0014 H   0  0  0  0  0  0
  -23.9553  -27.3128   19.0346 H   0  0  0  0  0  0
  -23.7609  -30.6067   19.4037 H   0  0  0  0  0  0
  -22.7552  -29.2630   19.8499 H   0  0  0  0  0  0
  -25.1272  -36.1961   25.0826 H   0  0  0  0  0  0
  -21.0016  -28.3245   24.1371 H   0  0  0  0  0  0
  -20.5641  -26.2294   23.3592 H   0  0  0  0  0  0
  -21.6657  -26.7393   22.1210 H   0  0  0  0  0  0
  -19.6907  -25.6271   21.1236 H   0  0  0  0  0  0
  -19.6687  -27.3159   20.6702 H   0  0  0  0  0  0
  -17.4204  -26.6655   21.4023 H   0  0  0  0  0  0
  -18.0345  -26.0056   22.9006 H   0  0  0  0  0  0
  -19.7950  -30.7243   24.2293 H   0  0  0  0  0  0
  -17.5026  -31.6245   24.5157 H   0  0  0  0  0  0
  -15.5365  -30.2973   23.7619 H   0  0  0  0  0  0
  -15.8697  -28.0805   22.7042 H   0  0  0  0  0  0
  -24.5890  -30.7129   25.7835 H   0  0  0  0  0  0
  -24.8978  -32.2927   26.4962 H   0  0  0  0  0  0
  -25.8079  -30.8906   27.0253 H   0  0  0  0  0  0
  -26.2888  -29.6807   24.1207 H   0  0  0  0  0  0
  -27.4064  -29.7297   25.4654 H   0  0  0  0  0  0
  -27.8750  -30.4361   23.9369 H   0  0  0  0  0  0
  -27.2687  -33.3625   26.2138 H   0  0  0  0  0  0
  -28.3875  -32.6903   25.0360 H   0  0  0  0  0  0
  -28.0745  -31.8444   26.5424 H   0  0  0  0  0  0
  -28.2559  -38.0141   24.7562 H   0  0  0  0  0  0
  -28.1138  -36.2676   24.6184 H   0  0  0  0  0  0
  -27.2332  -37.1335   25.8854 H   0  0  0  0  0  0
  -20.9335  -29.8877   21.6967 H   0  0  0  0  0  0
  -26.0168  -38.2865   24.1451 H   0  0  0  0  0  0
  -32.1635  -19.7425   20.8107 H   0  0  0  0  0  0
  -32.1122  -17.2838   20.8921 H   0  0  0  0  0  0
  -27.8734  -19.8845   20.8809 H   0  0  0  0  0  0
  -26.6218  -17.9934   21.2577 H   0  0  0  0  0  0
  -27.3715  -16.5013   21.8204 H   0  0  0  0  0  0
  -27.2130  -16.8328   20.0751 H   0  0  0  0  0  0
  -28.0576  -22.2469   20.9159 H   0  0  0  0  0  0
  -28.7246  -22.2649   19.3097 H   0  0  0  0  0  0
  -30.1589  -24.3047   19.9542 H   0  0  0  0  0  0
  -29.4073  -24.2922   21.5236 H   0  0  0  0  0  0
  -27.1952  -24.7693   20.4659 H   0  0  0  0  0  0
  -27.9634  -24.8820   18.8971 H   0  0  0  0  0  0
  -28.9459  -15.3204   21.3419 H   0  0  0  0  0  0
  1 25  1  0  0  0
  1 30  2  0  0  0
  1 82  1  0  0  0
  2  3  1  0  0  0
  2 25  1  0  0  0
  2 84  1  0  0  0
  2 85  1  0  0  0
  3  4  1  0  0  0
  3 86  1  0  0  0
  3 87  1  0  0  0
  4  5  1  0  0  0
  4 88  1  0  0  0
  4 89  1  0  0  0
  5  6  1  0  0  0
  5 26  1  0  0  0
  5 90  1  0  0  0
  6 25  1  0  0  0
  6 91  1  0  0  0
  6 92  1  0  0  0
  7  8  2  0  0  0
  7 26  1  0  0  0
  7 29  1  0  0  0
  8  9  1  0  0  0
  8 22  1  0  0  0
  9 10  1  0  0  0
  9 27  2  0  0  0
 10 11  2  0  0  0
 10 15  1  0  0  0
 11 12  1  0  0  0
 11 93  1  0  0  0
 12 13  2  0  0  0
 12 94  1  0  0  0
 13 14  1  0  0  0
 13 31  1  0  0  0
 14 15  2  0  0  0
 14 95  1  0  0  0
 15 96  1  0  0  0
 16 17  2  0  0  0
 16 21  1  0  0  0
 16 31  1  0  0  0
 17 18  1  0  0  0
 17 97  1  0  0  0
 18 19  2  0  0  0
 18 98  1  0  0  0
 19 20  1  0  0  0
 19 24  1  0  0  0
 20 21  2  0  0  0
 20 99  1  0  0  0
 21 23  1  0  0  0
 22 28  1  0  0  0
 22 32  2  0  0  0
 26 27  1  0  0  0
 28100  1  0  0  0
 28101  1  0  0  0
 29102  1  0  0  0
 29103  1  0  0  0
 33 34  1  0  0  0
 33 66  1  0  0  0
 33 70  2  0  0  0
 34 36  1  0  0  0
 34 59  1  0  0  0
 34104  1  0  0  0
 35 44  2  0  0  0
 35 45  1  0  0  0
 35 68  1  0  0  0
 36 56  1  0  0  0
 36105  1  0  0  0
 37 39  1  0  0  0
 37 47  1  0  0  0
 37 66  1  0  0  0
 37106  1  0  0  0
 38 43  2  0  0  0
 38 46  1  0  0  0
 38 47  1  0  0  0
 39 64  1  0  0  0
 39 67  2  0  0  0
 40 52  1  0  0  0
 40 53  2  0  0  0
 40 58  1  0  0  0
 41107  1  0  0  0
 41108  1  0  0  0
 41109  1  0  0  0
 41 48  1  0  0  0
 42 43  1  0  0  0
 42 66  1  0  0  0
 42110  1  0  0  0
 42111  1  0  0  0
 43 44  1  0  0  0
 44112  1  0  0  0
 45 46  2  0  0  0
 45113  1  0  0  0
 46114  1  0  0  0
 47115  1  0  0  0
 47116  1  0  0  0
 48 56  1  0  0  0
 48 65  1  0  0  0
 48117  1  0  0  0
 49 50  1  0  0  0
 49 53  1  0  0  0
 49 64  1  0  0  0
 49118  1  0  0  0
 50 51  1  0  0  0
 50119  1  0  0  0
 50120  1  0  0  0
 51 52  1  0  0  0
 51121  1  0  0  0
 51122  1  0  0  0
 52123  1  0  0  0
 52124  1  0  0  0
 53 54  1  0  0  0
 54 55  2  0  0  0
 54125  1  0  0  0
 55 57  1  0  0  0
 55126  1  0  0  0
 56 69  2  0  0  0
 57 58  2  0  0  0
 57127  1  0  0  0
 58128  1  0  0  0
 59 60  1  0  0  0
 59 61  1  0  0  0
 59 62  1  0  0  0
 60129  1  0  0  0
 60130  1  0  0  0
 60131  1  0  0  0
 61132  1  0  0  0
 61133  1  0  0  0
 61134  1  0  0  0
 62135  1  0  0  0
 62136  1  0  0  0
 62137  1  0  0  0
 63 65  1  0  0  0
 63138  1  0  0  0
 63139  1  0  0  0
 63140  1  0  0  0
 64141  1  0  0  0
 65142  1  0  0  0
 68 81  1  0  0  0
 71 72  2  0  0  0
 71 74  1  0  0  0
 71143  1  0  0  0
 72 76  1  0  0  0
 72144  1  0  0  0
 73 74  2  0  0  0
 73 75  1  0  0  0
 73145  1  0  0  0
 74 77  1  0  0  0
 75 76  2  0  0  0
 75 78  1  0  0  0
 76 82  1  0  0  0
 77 79  1  0  0  0
 77 83  2  0  0  0
 78146  1  0  0  0
 78147  1  0  0  0
 78148  1  0  0  0
 79 80  1  0  0  0
 79149  1  0  0  0
 79150  1  0  0  0
 80 81  1  0  0  0
 80151  1  0  0  0
 80152  1  0  0  0
 81153  1  0  0  0
 81154  1  0  0  0
 82155  1  0  0  0
M  ISO  4   1 100  68 101  81 101  82 100
M  END
> <chiral flag>
0

> <version>
0

> <s_m_source_file>
/data/baiqing/PycharmProjects/Reinvent-master-3.2/result/LINK_invent/BTK/process_docking_weight1_custom_product_contain_oxygen_bond_distance_aromatic_linkinvent_7_9_3/rearranged_h_0128.sdf

> <i_m_source_file_index>
78

> <r_mmod_Potential_Energy-OPLS-2005>
29.8428936004639

> <r_mmod_Stretch_Energy-OPLS-2005>
70.6831283569336

> <r_mmod_Bend_Energy-OPLS-2005>
126.742767333984

> <r_mmod_Torsional_Energy-OPLS-2005>
232.138931274414

> <r_mmod_Improper_Torsional_Energy-OPLS-2005>
5.00660753250122

> <r_mmod_Van_der_Waal_Energy-OPLS-2005>
155.930892944336

> <r_mmod_Electrostatic_Energy-OPLS-2005>
-387.346252441406

> <r_mmod_Solvation_Energy-OPLS-2005>
-216.129776000977

> <b_mmod_Minimization_Converged-OPLS-2005>
0

> <r_mmod_RMS_Derivative-OPLS-2005>
3.47398400306702

$$$$
78
                    3D
 Structure written by MMmdl.
158166  0  0  1  0            999 V2000
  -30.6752  -14.5632   20.5906 C   0  0  0  0  0  0
  -30.4413  -12.3624   19.4482 C   0  0  0  0  0  0
  -29.5138  -12.5197   18.2213 C   0  0  0  0  0  0
  -28.0287  -12.3777   18.6211 C   0  0  0  0  0  0
  -27.6561  -13.2200   19.8710 C   0  0  2  0  0  0
  -28.7007  -13.0232   20.9964 C   0  0  0  0  0  0
  -25.2344  -13.7998   20.5446 C   0  0  0  0  0  0
  -24.1722  -13.0289   20.9160 C   0  0  0  0  0  0
  -24.6390  -11.6818   20.8755 C   0  0  0  0  0  0
  -23.9079  -10.4217   21.0411 C   0  0  0  0  0  0
  -24.3621   -9.4149   21.9198 C   0  0  0  0  0  0
  -23.6277   -8.2206   22.0771 C   0  0  0  0  0  0
  -22.4255   -8.0261   21.3553 C   0  0  0  0  0  0
  -21.9901   -9.0239   20.4659 C   0  0  0  0  0  0
  -22.7252  -10.2093   20.3060 C   0  0  0  0  0  0
  -21.6840   -6.0727   22.5277 C   0  0  0  0  0  0
  -21.4018   -6.5626   23.8212 C   0  0  0  0  0  0
  -21.3656   -5.6781   24.9170 C   0  0  0  0  0  0
  -21.6035   -4.3042   24.7222 C   0  0  0  0  0  0
  -21.8821   -3.8134   23.4344 C   0  0  0  0  0  0
  -21.9189   -4.6956   22.3401 C   0  0  0  0  0  0
  -22.7743  -13.5098   21.1824 C   0  0  0  0  0  0
  -22.1654   -4.2140   21.0975 F   0  0  0  0  0  0
  -21.5626   -3.4528   25.7741 F   0  0  0  0  0  0
  -30.0324  -13.3607   20.4540 N   0  0  0  0  0  0
  -26.2952  -12.9327   20.3298 N   0  0  0  0  0  0
  -25.9337  -11.6471   20.5797 N   0  0  0  0  0  0
  -22.0392  -12.8163   22.0446 N   0  0  0  0  0  0
  -25.3554  -15.1626   20.3413 N   0  0  0  0  0  0
  -31.7981  -14.7657   20.1173 O   0  0  0  0  0  0
  -21.6613   -6.8864   21.4242 O   0  0  0  0  0  0
  -22.3435  -14.5400   20.6648 O   0  0  0  0  0  0
  -24.6172  -31.8661   23.2078 C   0  0  0  0  0  0
  -25.9047  -32.4816   23.8388 C   0  0  1  0  0  0
  -27.2403  -27.3991   20.1109 C   0  0  0  0  0  0
  -25.5896  -33.8614   24.2318 N   0  0  0  0  0  0
  -23.4085  -30.4852   21.5503 C   0  0  2  0  0  0
  -24.8588  -28.9386   20.1274 C   0  0  0  0  0  0
  -22.7426  -29.4635   22.5002 C   0  0  0  0  0  0
  -18.0268  -28.1374   22.8485 C   0  0  0  0  0  0
  -24.1487  -36.7316   23.2643 C   0  0  0  0  0  0
  -25.9406  -30.8164   21.3690 C   0  0  0  0  0  0
  -26.0195  -29.4417   20.7297 C   0  0  0  0  0  0
  -27.2154  -28.6778   20.7235 C   0  0  0  0  0  0
  -26.0648  -26.9183   19.5012 C   0  0  0  0  0  0
  -24.8760  -27.6741   19.5135 C   0  0  0  0  0  0
  -23.6226  -29.8117   20.1681 C   0  0  0  0  0  0
  -25.4110  -36.3109   24.0339 C   0  0  1  0  0  0
  -20.5865  -28.3660   23.1323 C   0  0  2  0  0  0
  -20.6760  -26.9393   22.5428 C   0  0  0  0  0  0
  -19.5738  -26.6380   21.5217 C   0  0  0  0  0  0
  -18.1913  -26.7921   22.1618 C   0  0  0  0  0  0
  -19.1519  -28.8833   23.2899 C   0  0  0  0  0  0
  -18.9447  -30.1441   23.8905 C   0  0  0  0  0  0
  -17.6451  -30.6585   24.0562 C   0  0  0  0  0  0
  -25.9041  -34.9470   23.5129 C   0  0  0  0  0  0
  -16.5339  -29.9082   23.6329 C   0  0  0  0  0  0
  -16.7260  -28.6499   23.0347 C   0  0  0  0  0  0
  -26.4473  -31.6601   25.0721 C   0  0  0  0  0  0
  -25.3735  -31.3700   26.1466 C   0  0  0  0  0  0
  -27.0314  -30.3047   24.6103 C   0  0  0  0  0  0
  -27.6044  -32.4327   25.7483 C   0  0  0  0  0  0
  -27.5580  -37.1814   24.8463 C   0  0  0  0  0  0
  -21.4153  -29.3021   22.3729 N   0  0  0  0  0  0
  -26.4294  -37.3795   23.9406 N   0  0  0  0  0  0
  -24.6736  -31.0722   22.1003 N   0  0  0  0  0  0
  -23.4185  -28.8177   23.3052 O   0  0  0  0  0  0
  -28.3928  -26.6496   19.9685 O   0  0  0  0  0  0
  -26.5603  -34.8921   22.4690 O   0  0  0  0  0  0
  -23.5349  -32.1416   23.7440 O   0  0  0  0  0  0
  -28.8113  -19.1320   21.4080 C   0  0  0  0  0  0
  -31.2399  -17.7439   21.2072 C   0  0  0  0  0  0
  -28.8276  -17.7241   21.3214 C   0  0  0  0  0  0
  -29.9967  -19.8831   21.4124 C   0  0  0  0  0  0
  -30.0369  -16.9880   21.2143 C   0  0  0  0  0  0
  -31.2216  -19.1687   21.3114 C   0  0  0  0  0  0
  -29.0032  -23.4436   20.0843 C   0  0  0  0  0  0
  -27.4972  -17.0244   21.2983 C   0  0  0  0  0  0
  -29.8877  -21.4167   21.6109 C   0  0  0  0  0  0
  -30.0287  -22.2964   20.3322 C   0  0  0  0  0  0
  -28.5196  -24.3939   21.2063 C   0  0  0  0  0  0
  -28.9038  -25.9088   21.0923 C   0  0  0  0  0  0
  -29.9409  -15.5373   21.1882 N   0  0  0  0  0  0
  -28.5505  -23.5882   18.9458 O   0  0  0  0  0  0
  -32.3919  -19.8491   21.3426 F   0  0  0  0  0  0
  -31.4883  -12.4751   19.1580 H   0  0  0  0  0  0
  -30.3595  -11.3582   19.8661 H   0  0  0  0  0  0
  -29.7697  -11.7801   17.4626 H   0  0  0  0  0  0
  -29.6809  -13.4949   17.7619 H   0  0  0  0  0  0
  -27.8345  -11.3226   18.8137 H   0  0  0  0  0  0
  -27.3903  -12.6549   17.7812 H   0  0  0  0  0  0
  -27.6875  -14.2658   19.5664 H   0  0  0  0  0  0
  -28.6942  -11.9875   21.3382 H   0  0  0  0  0  0
  -28.4432  -13.6131   21.8758 H   0  0  0  0  0  0
  -25.2780   -9.5618   22.4763 H   0  0  0  0  0  0
  -23.9977   -7.4591   22.7495 H   0  0  0  0  0  0
  -21.0832   -8.8772   19.8969 H   0  0  0  0  0  0
  -22.3739  -10.9631   19.6154 H   0  0  0  0  0  0
  -21.2020   -7.6142   23.9713 H   0  0  0  0  0  0
  -21.1470   -6.0506   25.9067 H   0  0  0  0  0  0
  -22.0606   -2.7603   23.2837 H   0  0  0  0  0  0
  -22.3992  -11.9854   22.4903 H   0  0  0  0  0  0
  -21.1018  -13.1224   22.2637 H   0  0  0  0  0  0
  -24.5545  -15.7800   20.4161 H   0  0  0  0  0  0
  -26.1539  -15.5990   19.9006 H   0  0  0  0  0  0
  -26.7116  -32.5535   23.1150 H   0  0  0  0  0  0
  -25.0027  -33.9774   25.0446 H   0  0  0  0  0  0
  -22.6982  -31.3024   21.4063 H   0  0  0  0  0  0
  -23.3743  -35.9660   23.3318 H   0  0  0  0  0  0
  -24.3576  -36.8915   22.2057 H   0  0  0  0  0  0
  -23.7248  -37.6527   23.6648 H   0  0  0  0  0  0
  -26.0545  -31.5734   20.5916 H   0  0  0  0  0  0
  -26.8291  -30.8785   21.9856 H   0  0  0  0  0  0
  -28.1201  -29.0746   21.1625 H   0  0  0  0  0  0
  -26.0746  -25.9594   19.0020 H   0  0  0  0  0  0
  -23.9848  -27.2827   19.0425 H   0  0  0  0  0  0
  -23.7354  -30.5835   19.4054 H   0  0  0  0  0  0
  -22.7461  -29.2328   19.8726 H   0  0  0  0  0  0
  -25.1282  -36.1980   25.0835 H   0  0  0  0  0  0
  -20.9943  -28.3220   24.1450 H   0  0  0  0  0  0
  -20.5658  -26.2260   23.3611 H   0  0  0  0  0  0
  -21.6635  -26.7431   22.1226 H   0  0  0  0  0  0
  -19.6903  -25.6292   21.1239 H   0  0  0  0  0  0
  -19.6691  -27.3197   20.6754 H   0  0  0  0  0  0
  -17.4194  -26.6678   21.4014 H   0  0  0  0  0  0
  -18.0301  -26.0064   22.9009 H   0  0  0  0  0  0
  -19.7921  -30.7254   24.2285 H   0  0  0  0  0  0
  -17.5003  -31.6265   24.5158 H   0  0  0  0  0  0
  -15.5340  -30.2989   23.7647 H   0  0  0  0  0  0
  -15.8657  -28.0830   22.7051 H   0  0  0  0  0  0
  -24.5894  -30.7073   25.7784 H   0  0  0  0  0  0
  -24.8949  -32.2857   26.4951 H   0  0  0  0  0  0
  -25.8084  -30.8827   27.0200 H   0  0  0  0  0  0
  -26.2864  -29.6808   24.1156 H   0  0  0  0  0  0
  -27.4084  -29.7285   25.4560 H   0  0  0  0  0  0
  -27.8695  -30.4374   23.9257 H   0  0  0  0  0  0
  -27.2655  -33.3609   26.2096 H   0  0  0  0  0  0
  -28.3829  -32.6921   25.0296 H   0  0  0  0  0  0
  -28.0742  -31.8437   26.5366 H   0  0  0  0  0  0
  -28.2606  -38.0100   24.7496 H   0  0  0  0  0  0
  -28.1059  -36.2630   24.6297 H   0  0  0  0  0  0
  -27.2296  -37.1485   25.8865 H   0  0  0  0  0  0
  -20.9316  -29.8739   21.6945 H   0  0  0  0  0  0
  -26.0180  -38.2876   24.1395 H   0  0  0  0  0  0
  -27.8653  -19.6483   21.4950 H   0  0  0  0  0  0
  -32.1944  -17.2415   21.1488 H   0  0  0  0  0  0
  -26.6758  -17.6878   21.5695 H   0  0  0  0  0  0
  -27.4673  -16.1698   21.9743 H   0  0  0  0  0  0
  -27.3454  -16.6967   20.2729 H   0  0  0  0  0  0
  -30.6461  -21.7190   22.3342 H   0  0  0  0  0  0
  -28.9338  -21.6301   22.0970 H   0  0  0  0  0  0
  -31.0369  -22.7059   20.2683 H   0  0  0  0  0  0
  -29.9362  -21.6354   19.4704 H   0  0  0  0  0  0
  -28.9092  -24.0108   22.1489 H   0  0  0  0  0  0
  -27.4351  -24.3030   21.2731 H   0  0  0  0  0  0
  -29.9909  -25.9860   21.0528 H   0  0  0  0  0  0
  -28.6118  -26.4131   22.0148 H   0  0  0  0  0  0
  -29.0478  -15.1838   21.4940 H   0  0  0  0  0  0
  1 25  1  0  0  0
  1 30  2  0  0  0
  1 83  1  0  0  0
  2  3  1  0  0  0
  2 25  1  0  0  0
  2 86  1  0  0  0
  2 87  1  0  0  0
  3  4  1  0  0  0
  3 88  1  0  0  0
  3 89  1  0  0  0
  4  5  1  0  0  0
  4 90  1  0  0  0
  4 91  1  0  0  0
  5  6  1  0  0  0
  5 26  1  0  0  0
  5 92  1  0  0  0
  6 25  1  0  0  0
  6 93  1  0  0  0
  6 94  1  0  0  0
  7  8  2  0  0  0
  7 26  1  0  0  0
  7 29  1  0  0  0
  8  9  1  0  0  0
  8 22  1  0  0  0
  9 10  1  0  0  0
  9 27  2  0  0  0
 10 11  2  0  0  0
 10 15  1  0  0  0
 11 12  1  0  0  0
 11 95  1  0  0  0
 12 13  2  0  0  0
 12 96  1  0  0  0
 13 14  1  0  0  0
 13 31  1  0  0  0
 14 15  2  0  0  0
 14 97  1  0  0  0
 15 98  1  0  0  0
 16 17  2  0  0  0
 16 21  1  0  0  0
 16 31  1  0  0  0
 17 18  1  0  0  0
 17 99  1  0  0  0
 18 19  2  0  0  0
 18100  1  0  0  0
 19 20  1  0  0  0
 19 24  1  0  0  0
 20 21  2  0  0  0
 20101  1  0  0  0
 21 23  1  0  0  0
 22 28  1  0  0  0
 22 32  2  0  0  0
 26 27  1  0  0  0
 28102  1  0  0  0
 28103  1  0  0  0
 29104  1  0  0  0
 29105  1  0  0  0
 33 34  1  0  0  0
 33 66  1  0  0  0
 33 70  2  0  0  0
 34 36  1  0  0  0
 34 59  1  0  0  0
 34106  1  0  0  0
 35 44  2  0  0  0
 35 45  1  0  0  0
 35 68  1  0  0  0
 36 56  1  0  0  0
 36107  1  0  0  0
 37 39  1  0  0  0
 37 47  1  0  0  0
 37 66  1  0  0  0
 37108  1  0  0  0
 38 43  2  0  0  0
 38 46  1  0  0  0
 38 47  1  0  0  0
 39 64  1  0  0  0
 39 67  2  0  0  0
 40 52  1  0  0  0
 40 53  2  0  0  0
 40 58  1  0  0  0
 41109  1  0  0  0
 41110  1  0  0  0
 41111  1  0  0  0
 41 48  1  0  0  0
 42 43  1  0  0  0
 42 66  1  0  0  0
 42112  1  0  0  0
 42113  1  0  0  0
 43 44  1  0  0  0
 44114  1  0  0  0
 45 46  2  0  0  0
 45115  1  0  0  0
 46116  1  0  0  0
 47117  1  0  0  0
 47118  1  0  0  0
 48 56  1  0  0  0
 48 65  1  0  0  0
 48119  1  0  0  0
 49 50  1  0  0  0
 49 53  1  0  0  0
 49 64  1  0  0  0
 49120  1  0  0  0
 50 51  1  0  0  0
 50121  1  0  0  0
 50122  1  0  0  0
 51 52  1  0  0  0
 51123  1  0  0  0
 51124  1  0  0  0
 52125  1  0  0  0
 52126  1  0  0  0
 53 54  1  0  0  0
 54 55  2  0  0  0
 54127  1  0  0  0
 55 57  1  0  0  0
 55128  1  0  0  0
 56 69  2  0  0  0
 57 58  2  0  0  0
 57129  1  0  0  0
 58130  1  0  0  0
 59 60  1  0  0  0
 59 61  1  0  0  0
 59 62  1  0  0  0
 60131  1  0  0  0
 60132  1  0  0  0
 60133  1  0  0  0
 61134  1  0  0  0
 61135  1  0  0  0
 61136  1  0  0  0
 62137  1  0  0  0
 62138  1  0  0  0
 62139  1  0  0  0
 63 65  1  0  0  0
 63140  1  0  0  0
 63141  1  0  0  0
 63142  1  0  0  0
 64143  1  0  0  0
 65144  1  0  0  0
 68 82  1  0  0  0
 71 73  2  0  0  0
 71 74  1  0  0  0
 71145  1  0  0  0
 72 75  2  0  0  0
 72 76  1  0  0  0
 72146  1  0  0  0
 73 75  1  0  0  0
 73 78  1  0  0  0
 74 76  2  0  0  0
 74 79  1  0  0  0
 75 83  1  0  0  0
 76 85  1  0  0  0
 77 80  1  0  0  0
 77 81  1  0  0  0
 77 84  2  0  0  0
 78147  1  0  0  0
 78148  1  0  0  0
 78149  1  0  0  0
 79 80  1  0  0  0
 79150  1  0  0  0
 79151  1  0  0  0
 80152  1  0  0  0
 80153  1  0  0  0
 81 82  1  0  0  0
 81154  1  0  0  0
 81155  1  0  0  0
 82156  1  0  0  0
 82157  1  0  0  0
 83158  1  0  0  0
M  ISO  4   1 100  68 101  82 101  83 100
M  END
> <chiral flag>
0

> <version>
0

> <s_m_source_file>
/data/baiqing/PycharmProjects/Reinvent-master-3.2/result/LINK_invent/BTK/process_docking_weight1_custom_product_contain_oxygen_bond_distance_aromatic_linkinvent_7_9_3/rearranged_h_0128.sdf

> <i_m_source_file_index>
79

> <r_mmod_Potential_Energy-OPLS-2005>
-10.0457744598389

> <r_mmod_Stretch_Energy-OPLS-2005>
50.7347946166992

> <r_mmod_Bend_Energy-OPLS-2005>
134.569259643555

> <r_mmod_Torsional_Energy-OPLS-2005>
246.845016479492

> <r_mmod_Improper_Torsional_Energy-OPLS-2005>
4.60881233215332

> <r_mmod_Van_der_Waal_Energy-OPLS-2005>
140.910385131836

> <r_mmod_Electrostatic_Energy-OPLS-2005>
-391.296447753906

> <r_mmod_Solvation_Energy-OPLS-2005>
-219.042282104492

> <b_mmod_Minimization_Converged-OPLS-2005>
0

> <r_mmod_RMS_Derivative-OPLS-2005>
2.36226868629456

$$$$
79
                    3D
 Structure written by MMmdl.
160168  0  0  1  0            999 V2000
  -30.6675  -14.5081   20.5959 C   0  0  0  0  0  0
  -30.4416  -12.3394   19.4216 C   0  0  0  0  0  0
  -29.5031  -12.5300   18.2095 C   0  0  0  0  0  0
  -28.0238  -12.3778   18.6209 C   0  0  0  0  0  0
  -27.6669  -13.2072   19.8829 C   0  0  2  0  0  0
  -28.7093  -12.9662   20.9985 C   0  0  0  0  0  0
  -25.2607  -13.8169   20.5701 C   0  0  0  0  0  0
  -24.1849  -13.0448   20.9183 C   0  0  0  0  0  0
  -24.6398  -11.6912   20.8729 C   0  0  0  0  0  0
  -23.9057  -10.4296   21.0404 C   0  0  0  0  0  0
  -24.3604   -9.4207   21.9184 C   0  0  0  0  0  0
  -23.6278   -8.2241   22.0744 C   0  0  0  0  0  0
  -22.4265   -8.0271   21.3530 C   0  0  0  0  0  0
  -21.9899   -9.0251   20.4642 C   0  0  0  0  0  0
  -22.7226  -10.2135   20.3055 C   0  0  0  0  0  0
  -21.6849   -6.0726   22.5270 C   0  0  0  0  0  0
  -21.4020   -6.5635   23.8203 C   0  0  0  0  0  0
  -21.3660   -5.6787   24.9165 C   0  0  0  0  0  0
  -21.6046   -4.3047   24.7225 C   0  0  0  0  0  0
  -21.8820   -3.8139   23.4346 C   0  0  0  0  0  0
  -21.9197   -4.6955   22.3402 C   0  0  0  0  0  0
  -22.7869  -13.5239   21.1853 C   0  0  0  0  0  0
  -22.1661   -4.2136   21.0981 F   0  0  0  0  0  0
  -21.5628   -3.4537   25.7745 F   0  0  0  0  0  0
  -30.0423  -13.3033   20.4596 N   0  0  0  0  0  0
  -26.3049  -12.9339   20.3394 N   0  0  0  0  0  0
  -25.9327  -11.6497   20.5767 N   0  0  0  0  0  0
  -22.0499  -12.8227   22.0405 N   0  0  0  0  0  0
  -25.4361  -15.1887   20.4131 N   0  0  0  0  0  0
  -31.7648  -14.7503   20.0810 O   0  0  0  0  0  0
  -21.6623   -6.8867   21.4230 O   0  0  0  0  0  0
  -22.3556  -14.5545   20.6703 O   0  0  0  0  0  0
  -24.6148  -31.8648   23.2060 C   0  0  0  0  0  0
  -25.9036  -32.4804   23.8354 C   0  0  1  0  0  0
  -27.2371  -27.4085   20.1039 C   0  0  0  0  0  0
  -25.5898  -33.8601   24.2307 N   0  0  0  0  0  0
  -23.4055  -30.4867   21.5465 C   0  0  2  0  0  0
  -24.8508  -28.9449   20.1162 C   0  0  0  0  0  0
  -22.7413  -29.4650   22.4973 C   0  0  0  0  0  0
  -18.0273  -28.1357   22.8484 C   0  0  0  0  0  0
  -24.1490  -36.7309   23.2647 C   0  0  0  0  0  0
  -25.9338  -30.8240   21.3611 C   0  0  0  0  0  0
  -26.0106  -29.4550   20.7095 C   0  0  0  0  0  0
  -27.2043  -28.6952   20.6969 C   0  0  0  0  0  0
  -26.0557  -26.9145   19.5055 C   0  0  0  0  0  0
  -24.8694  -27.6754   19.5107 C   0  0  0  0  0  0
  -23.6149  -29.8154   20.1631 C   0  0  0  0  0  0
  -25.4106  -36.3097   24.0341 C   0  0  1  0  0  0
  -20.5858  -28.3650   23.1300 C   0  0  2  0  0  0
  -20.6759  -26.9388   22.5409 C   0  0  0  0  0  0
  -19.5748  -26.6371   21.5194 C   0  0  0  0  0  0
  -18.1921  -26.7901   22.1601 C   0  0  0  0  0  0
  -19.1524  -28.8817   23.2879 C   0  0  0  0  0  0
  -18.9468  -30.1423   23.8891 C   0  0  0  0  0  0
  -17.6470  -30.6568   24.0560 C   0  0  0  0  0  0
  -25.9039  -34.9460   23.5123 C   0  0  0  0  0  0
  -16.5354  -29.9075   23.6315 C   0  0  0  0  0  0
  -16.7264  -28.6488   23.0337 C   0  0  0  0  0  0
  -26.4469  -31.6593   25.0695 C   0  0  0  0  0  0
  -25.3730  -31.3708   26.1450 C   0  0  0  0  0  0
  -27.0303  -30.3036   24.6052 C   0  0  0  0  0  0
  -27.6029  -32.4314   25.7454 C   0  0  0  0  0  0
  -27.5581  -37.1801   24.8472 C   0  0  0  0  0  0
  -21.4139  -29.3029   22.3717 N   0  0  0  0  0  0
  -26.4293  -37.3784   23.9422 N   0  0  0  0  0  0
  -24.6700  -31.0740   22.0960 N   0  0  0  0  0  0
  -23.4186  -28.8182   23.3001 O   0  0  0  0  0  0
  -28.4212  -26.6905   20.1299 O   0  0  0  0  0  0
  -26.5596  -34.8915   22.4684 O   0  0  0  0  0  0
  -23.5338  -32.1407   23.7442 O   0  0  0  0  0  0
  -30.5863  -19.0969   20.4770 C   0  0  0  0  0  0
  -30.7145  -17.6832   20.4417 C   0  0  0  0  0  0
  -28.9116  -18.9049   22.2113 C   0  0  0  0  0  0
  -29.6761  -19.7287   21.3572 C   0  0  0  0  0  0
  -29.0319  -17.4948   22.1849 C   0  0  0  0  0  0
  -29.9364  -16.8581   21.2956 C   0  0  0  0  0  0
  -29.8323  -24.7118   20.0851 C   0  0  0  0  0  0
  -30.2927  -23.4398   20.2299 C   0  0  0  0  0  0
  -28.1860  -16.6740   23.1455 C   0  0  0  0  0  0
  -31.7914  -23.2277   20.4003 C   0  0  0  0  0  0
  -29.5714  -21.2636   21.4988 C   0  0  0  0  0  0
  -28.4249  -25.2698   19.8714 C   0  0  0  0  0  0
  -29.4730  -22.1343   20.2025 C   0  0  0  0  0  0
  -29.9642  -15.4185   21.3039 N   0  0  0  0  0  0
  -31.4818  -12.4679   19.1170 H   0  0  0  0  0  0
  -30.3688  -11.3219   19.8102 H   0  0  0  0  0  0
  -29.7488  -11.8128   17.4254 H   0  0  0  0  0  0
  -29.6614  -13.5194   17.7765 H   0  0  0  0  0  0
  -27.8373  -11.3204   18.8113 H   0  0  0  0  0  0
  -27.3716  -12.6567   17.7936 H   0  0  0  0  0  0
  -27.7145  -14.2600   19.6022 H   0  0  0  0  0  0
  -28.6968  -11.9186   21.3032 H   0  0  0  0  0  0
  -28.4526  -13.5237   21.9004 H   0  0  0  0  0  0
  -25.2752   -9.5685   22.4751 H   0  0  0  0  0  0
  -23.9993   -7.4634   22.7462 H   0  0  0  0  0  0
  -21.0821   -8.8771   19.8946 H   0  0  0  0  0  0
  -22.3681  -10.9670   19.6156 H   0  0  0  0  0  0
  -21.2008   -7.6143   23.9707 H   0  0  0  0  0  0
  -21.1482   -6.0514   25.9067 H   0  0  0  0  0  0
  -22.0602   -2.7600   23.2852 H   0  0  0  0  0  0
  -22.4093  -11.9880   22.4801 H   0  0  0  0  0  0
  -21.1118  -13.1246   22.2611 H   0  0  0  0  0  0
  -24.6773  -15.8512   20.5281 H   0  0  0  0  0  0
  -26.2965  -15.6219   20.1022 H   0  0  0  0  0  0
  -26.7097  -32.5493   23.1107 H   0  0  0  0  0  0
  -25.0059  -33.9773   25.0457 H   0  0  0  0  0  0
  -22.6954  -31.3038   21.4028 H   0  0  0  0  0  0
  -23.3741  -35.9656   23.3314 H   0  0  0  0  0  0
  -24.3605  -36.8918   22.2064 H   0  0  0  0  0  0
  -23.7248  -37.6514   23.6659 H   0  0  0  0  0  0
  -26.0452  -31.5897   20.5901 H   0  0  0  0  0  0
  -26.8228  -30.8818   21.9760 H   0  0  0  0  0  0
  -28.1008  -29.0861   21.1563 H   0  0  0  0  0  0
  -26.0297  -25.9443   19.0320 H   0  0  0  0  0  0
  -23.9768  -27.2788   19.0484 H   0  0  0  0  0  0
  -23.7252  -30.5887   19.4022 H   0  0  0  0  0  0
  -22.7383  -29.2394   19.8656 H   0  0  0  0  0  0
  -25.1279  -36.1955   25.0841 H   0  0  0  0  0  0
  -20.9943  -28.3205   24.1418 H   0  0  0  0  0  0
  -20.5632  -26.2261   23.3599 H   0  0  0  0  0  0
  -21.6630  -26.7406   22.1224 H   0  0  0  0  0  0
  -19.6921  -25.6287   21.1218 H   0  0  0  0  0  0
  -19.6686  -27.3172   20.6720 H   0  0  0  0  0  0
  -17.4197  -26.6649   21.4005 H   0  0  0  0  0  0
  -18.0329  -26.0030   22.8983 H   0  0  0  0  0  0
  -19.7953  -30.7229   24.2255 H   0  0  0  0  0  0
  -17.5040  -31.6247   24.5157 H   0  0  0  0  0  0
  -15.5359  -30.2985   23.7642 H   0  0  0  0  0  0
  -15.8660  -28.0818   22.7036 H   0  0  0  0  0  0
  -24.5903  -30.7056   25.7809 H   0  0  0  0  0  0
  -24.8918  -32.2860   26.4899 H   0  0  0  0  0  0
  -25.8090  -30.8891   27.0210 H   0  0  0  0  0  0
  -26.2848  -29.6778   24.1139 H   0  0  0  0  0  0
  -27.4140  -29.7292   25.4495 H   0  0  0  0  0  0
  -27.8649  -30.4396   23.9169 H   0  0  0  0  0  0
  -27.2650  -33.3622   26.2035 H   0  0  0  0  0  0
  -28.3827  -32.6879   25.0262 H   0  0  0  0  0  0
  -28.0713  -31.8440   26.5360 H   0  0  0  0  0  0
  -28.2581  -38.0107   24.7501 H   0  0  0  0  0  0
  -28.1076  -36.2632   24.6298 H   0  0  0  0  0  0
  -27.2312  -37.1461   25.8877 H   0  0  0  0  0  0
  -20.9290  -29.8790   21.6981 H   0  0  0  0  0  0
  -26.0174  -38.2857   24.1414 H   0  0  0  0  0  0
  -31.2071  -19.6978   19.8283 H   0  0  0  0  0  0
  -31.4200  -17.2502   19.7457 H   0  0  0  0  0  0
  -28.2324  -19.3662   22.9155 H   0  0  0  0  0  0
  -30.5745  -25.4974   20.1010 H   0  0  0  0  0  0
  -27.5540  -17.3113   23.7645 H   0  0  0  0  0  0
  -28.8224  -16.0880   23.8106 H   0  0  0  0  0  0
  -27.5349  -15.9911   22.5987 H   0  0  0  0  0  0
  -32.3412  -24.1676   20.3379 H   0  0  0  0  0  0
  -32.1741  -22.5697   19.6203 H   0  0  0  0  0  0
  -32.0364  -22.7896   21.3671 H   0  0  0  0  0  0
  -30.4234  -21.5629   22.1069 H   0  0  0  0  0  0
  -28.7052  -21.5029   22.1154 H   0  0  0  0  0  0
  -27.7166  -24.7438   20.5131 H   0  0  0  0  0  0
  -28.1458  -25.0897   18.8333 H   0  0  0  0  0  0
  -29.8611  -21.5640   19.3576 H   0  0  0  0  0  0
  -28.4272  -22.3315   19.9634 H   0  0  0  0  0  0
  -29.1880  -15.0025   21.7931 H   0  0  0  0  0  0
  1 25  1  0  0  0
  1 30  2  0  0  0
  1 84  1  0  0  0
  2  3  1  0  0  0
  2 25  1  0  0  0
  2 85  1  0  0  0
  2 86  1  0  0  0
  3  4  1  0  0  0
  3 87  1  0  0  0
  3 88  1  0  0  0
  4  5  1  0  0  0
  4 89  1  0  0  0
  4 90  1  0  0  0
  5  6  1  0  0  0
  5 26  1  0  0  0
  5 91  1  0  0  0
  6 25  1  0  0  0
  6 92  1  0  0  0
  6 93  1  0  0  0
  7  8  2  0  0  0
  7 26  1  0  0  0
  7 29  1  0  0  0
  8  9  1  0  0  0
  8 22  1  0  0  0
  9 10  1  0  0  0
  9 27  2  0  0  0
 10 11  2  0  0  0
 10 15  1  0  0  0
 11 12  1  0  0  0
 11 94  1  0  0  0
 12 13  2  0  0  0
 12 95  1  0  0  0
 13 14  1  0  0  0
 13 31  1  0  0  0
 14 15  2  0  0  0
 14 96  1  0  0  0
 15 97  1  0  0  0
 16 17  2  0  0  0
 16 21  1  0  0  0
 16 31  1  0  0  0
 17 18  1  0  0  0
 17 98  1  0  0  0
 18 19  2  0  0  0
 18 99  1  0  0  0
 19 20  1  0  0  0
 19 24  1  0  0  0
 20 21  2  0  0  0
 20100  1  0  0  0
 21 23  1  0  0  0
 22 28  1  0  0  0
 22 32  2  0  0  0
 26 27  1  0  0  0
 28101  1  0  0  0
 28102  1  0  0  0
 29103  1  0  0  0
 29104  1  0  0  0
 33 34  1  0  0  0
 33 66  1  0  0  0
 33 70  2  0  0  0
 34 36  1  0  0  0
 34 59  1  0  0  0
 34105  1  0  0  0
 35 44  2  0  0  0
 35 45  1  0  0  0
 35 68  1  0  0  0
 36 56  1  0  0  0
 36106  1  0  0  0
 37 39  1  0  0  0
 37 47  1  0  0  0
 37 66  1  0  0  0
 37107  1  0  0  0
 38 43  2  0  0  0
 38 46  1  0  0  0
 38 47  1  0  0  0
 39 64  1  0  0  0
 39 67  2  0  0  0
 40 52  1  0  0  0
 40 53  2  0  0  0
 40 58  1  0  0  0
 41108  1  0  0  0
 41109  1  0  0  0
 41110  1  0  0  0
 41 48  1  0  0  0
 42 43  1  0  0  0
 42 66  1  0  0  0
 42111  1  0  0  0
 42112  1  0  0  0
 43 44  1  0  0  0
 44113  1  0  0  0
 45 46  2  0  0  0
 45114  1  0  0  0
 46115  1  0  0  0
 47116  1  0  0  0
 47117  1  0  0  0
 48 56  1  0  0  0
 48 65  1  0  0  0
 48118  1  0  0  0
 49 50  1  0  0  0
 49 53  1  0  0  0
 49 64  1  0  0  0
 49119  1  0  0  0
 50 51  1  0  0  0
 50120  1  0  0  0
 50121  1  0  0  0
 51 52  1  0  0  0
 51122  1  0  0  0
 51123  1  0  0  0
 52124  1  0  0  0
 52125  1  0  0  0
 53 54  1  0  0  0
 54 55  2  0  0  0
 54126  1  0  0  0
 55 57  1  0  0  0
 55127  1  0  0  0
 56 69  2  0  0  0
 57 58  2  0  0  0
 57128  1  0  0  0
 58129  1  0  0  0
 59 60  1  0  0  0
 59 61  1  0  0  0
 59 62  1  0  0  0
 60130  1  0  0  0
 60131  1  0  0  0
 60132  1  0  0  0
 61133  1  0  0  0
 61134  1  0  0  0
 61135  1  0  0  0
 62136  1  0  0  0
 62137  1  0  0  0
 62138  1  0  0  0
 63 65  1  0  0  0
 63139  1  0  0  0
 63140  1  0  0  0
 63141  1  0  0  0
 64142  1  0  0  0
 65143  1  0  0  0
 68 82  1  0  0  0
 71 72  2  0  0  0
 71 74  1  0  0  0
 71144  1  0  0  0
 72 76  1  0  0  0
 72145  1  0  0  0
 73 74  2  0  0  0
 73 75  1  0  0  0
 73146  1  0  0  0
 74 81  1  0  0  0
 75 76  2  0  0  0
 75 79  1  0  0  0
 76 84  1  0  0  0
 77 78  2  0  0  0
 77 82  1  0  0  0
 77147  1  0  0  0
 78 80  1  0  0  0
 78 83  1  0  0  0
 79148  1  0  0  0
 79149  1  0  0  0
 79150  1  0  0  0
 80151  1  0  0  0
 80152  1  0  0  0
 80153  1  0  0  0
 81 83  1  0  0  0
 81154  1  0  0  0
 81155  1  0  0  0
 82156  1  0  0  0
 82157  1  0  0  0
 83158  1  0  0  0
 83159  1  0  0  0
 84160  1  0  0  0
M  ISO  4   1 100  68 101  82 101  84 100
M  END
> <chiral flag>
0

> <version>
0

> <s_m_source_file>
/data/baiqing/PycharmProjects/Reinvent-master-3.2/result/LINK_invent/BTK/process_docking_weight1_custom_product_contain_oxygen_bond_distance_aromatic_linkinvent_7_9_3/rearranged_h_0128.sdf

> <i_m_source_file_index>
80

> <r_mmod_Potential_Energy-OPLS-2005>
-34.2149620056152

> <r_mmod_Stretch_Energy-OPLS-2005>
45.1426010131836

> <r_mmod_Bend_Energy-OPLS-2005>
126.682121276855

> <r_mmod_Torsional_Energy-OPLS-2005>
208.984481811523

> <r_mmod_Improper_Torsional_Energy-OPLS-2005>
3.13788270950317

> <r_mmod_Van_der_Waal_Energy-OPLS-2005>
150.926208496094

> <r_mmod_Electrostatic_Energy-OPLS-2005>
-390.729614257812

> <r_mmod_Solvation_Energy-OPLS-2005>
-194.654830932617

> <b_mmod_Minimization_Converged-OPLS-2005>
0

> <r_mmod_RMS_Derivative-OPLS-2005>
2.5106942653656

$$$$
80
                    3D
 Structure written by MMmdl.
159167  0  0  1  0            999 V2000
  -30.6451  -14.6520   20.4931 C   0  0  0  0  0  0
  -30.4414  -12.4015   19.4508 C   0  0  0  0  0  0
  -29.5090  -12.5102   18.2241 C   0  0  0  0  0  0
  -28.0318  -12.3443   18.6360 C   0  0  0  0  0  0
  -27.6497  -13.2174   19.8603 C   0  0  2  0  0  0
  -28.7029  -13.0938   20.9878 C   0  0  0  0  0  0
  -25.2421  -13.8040   20.5661 C   0  0  0  0  0  0
  -24.1757  -13.0306   20.9235 C   0  0  0  0  0  0
  -24.6393  -11.6819   20.8773 C   0  0  0  0  0  0
  -23.9077  -10.4219   21.0412 C   0  0  0  0  0  0
  -24.3622   -9.4146   21.9195 C   0  0  0  0  0  0
  -23.6278   -8.2200   22.0763 C   0  0  0  0  0  0
  -22.4261   -8.0254   21.3550 C   0  0  0  0  0  0
  -21.9903   -9.0228   20.4652 C   0  0  0  0  0  0
  -22.7249  -10.2091   20.3057 C   0  0  0  0  0  0
  -21.6841   -6.0718   22.5279 C   0  0  0  0  0  0
  -21.4006   -6.5627   23.8211 C   0  0  0  0  0  0
  -21.3654   -5.6782   24.9176 C   0  0  0  0  0  0
  -21.6043   -4.3046   24.7231 C   0  0  0  0  0  0
  -21.8821   -3.8136   23.4351 C   0  0  0  0  0  0
  -21.9189   -4.6948   22.3403 C   0  0  0  0  0  0
  -22.7782  -13.5120   21.1871 C   0  0  0  0  0  0
  -22.1658   -4.2139   21.0979 F   0  0  0  0  0  0
  -21.5630   -3.4531   25.7745 F   0  0  0  0  0  0
  -30.0196  -13.4324   20.4187 N   0  0  0  0  0  0
  -26.2950  -12.9313   20.3316 N   0  0  0  0  0  0
  -25.9331  -11.6466   20.5785 N   0  0  0  0  0  0
  -22.0426  -12.8155   22.0451 N   0  0  0  0  0  0
  -25.3767  -15.1727   20.3949 N   0  0  0  0  0  0
  -31.8186  -14.7975   20.1403 O   0  0  0  0  0  0
  -21.6618   -6.8860   21.4244 O   0  0  0  0  0  0
  -22.3485  -14.5433   20.6709 O   0  0  0  0  0  0
  -24.6258  -31.8611   23.2043 C   0  0  0  0  0  0
  -25.9112  -32.4783   23.8367 C   0  0  1  0  0  0
  -27.2311  -27.3331   20.1133 C   0  0  0  0  0  0
  -25.5941  -33.8581   24.2295 N   0  0  0  0  0  0
  -23.4192  -30.4843   21.5472 C   0  0  2  0  0  0
  -24.8667  -28.9429   20.1112 C   0  0  0  0  0  0
  -22.7481  -29.4624   22.4955 C   0  0  0  0  0  0
  -18.0293  -28.1395   22.8481 C   0  0  0  0  0  0
  -24.1485  -36.7275   23.2629 C   0  0  0  0  0  0
  -25.9594  -30.7955   21.3753 C   0  0  0  0  0  0
  -26.0346  -29.4246   20.7157 C   0  0  0  0  0  0
  -27.2187  -28.6306   20.7080 C   0  0  0  0  0  0
  -26.0377  -26.9019   19.4850 C   0  0  0  0  0  0
  -24.8698  -27.6865   19.4875 C   0  0  0  0  0  0
  -23.6333  -29.8208   20.1618 C   0  0  0  0  0  0
  -25.4106  -36.3073   24.0329 C   0  0  1  0  0  0
  -20.5889  -28.3689   23.1287 C   0  0  2  0  0  0
  -20.6784  -26.9412   22.5415 C   0  0  0  0  0  0
  -19.5759  -26.6388   21.5215 C   0  0  0  0  0  0
  -18.1936  -26.7941   22.1617 C   0  0  0  0  0  0
  -19.1542  -28.8864   23.2878 C   0  0  0  0  0  0
  -18.9460  -30.1465   23.8892 C   0  0  0  0  0  0
  -17.6459  -30.6587   24.0571 C   0  0  0  0  0  0
  -25.9055  -34.9450   23.5110 C   0  0  0  0  0  0
  -16.5353  -29.9086   23.6331 C   0  0  0  0  0  0
  -16.7277  -28.6509   23.0341 C   0  0  0  0  0  0
  -26.4495  -31.6584   25.0730 C   0  0  0  0  0  0
  -25.3731  -31.3737   26.1462 C   0  0  0  0  0  0
  -27.0321  -30.3003   24.6182 C   0  0  0  0  0  0
  -27.6074  -32.4304   25.7482 C   0  0  0  0  0  0
  -27.5590  -37.1767   24.8442 C   0  0  0  0  0  0
  -21.4196  -29.3034   22.3682 N   0  0  0  0  0  0
  -26.4271  -37.3781   23.9436 N   0  0  0  0  0  0
  -24.6865  -31.0630   22.0991 N   0  0  0  0  0  0
  -23.4204  -28.8161   23.3032 O   0  0  0  0  0  0
  -28.3567  -26.4961   20.1650 O   0  0  0  0  0  0
  -26.5618  -34.8916   22.4672 O   0  0  0  0  0  0
  -23.5424  -32.1409   23.7378 O   0  0  0  0  0  0
  -28.9798  -19.3817   20.0724 C   0  0  0  0  0  0
  -31.0968  -17.8953   21.1395 C   0  0  0  0  0  0
  -30.0555  -20.1192   20.6215 C   0  0  0  0  0  0
  -28.9391  -17.9575   20.0825 C   0  0  0  0  0  0
  -31.1307  -19.3275   21.1406 C   0  0  0  0  0  0
  -29.9910  -17.1669   20.6347 C   0  0  0  0  0  0
  -30.0572  -21.6468   20.6762 C   0  0  0  0  0  0
  -29.1302  -22.5694   20.2560 C   0  0  0  0  0  0
  -29.2875  -24.0776   20.4090 C   0  0  0  0  0  0
  -32.3499  -20.0018   21.7471 C   0  0  0  0  0  0
  -27.9389  -16.8055   18.0567 C   0  0  0  0  0  0
  -27.7155  -17.2916   19.4933 C   0  0  0  0  0  0
  -28.1352  -25.0481   19.9525 C   0  0  0  0  0  0
  -29.8337  -15.7149   20.7820 N   0  0  0  0  0  0
  -30.3087  -24.5735   20.8980 O   0  0  0  0  0  0
  -31.4816  -12.5249   19.1454 H   0  0  0  0  0  0
  -30.3765  -11.4102   19.9026 H   0  0  0  0  0  0
  -29.7760  -11.7588   17.4802 H   0  0  0  0  0  0
  -29.6483  -13.4794   17.7420 H   0  0  0  0  0  0
  -27.8704  -11.2912   18.8692 H   0  0  0  0  0  0
  -27.3795  -12.5727   17.7920 H   0  0  0  0  0  0
  -27.6558  -14.2461   19.5075 H   0  0  0  0  0  0
  -28.7191  -12.0780   21.3865 H   0  0  0  0  0  0
  -28.4515  -13.7398   21.8303 H   0  0  0  0  0  0
  -25.2765   -9.5613   22.4774 H   0  0  0  0  0  0
  -23.9977   -7.4586   22.7477 H   0  0  0  0  0  0
  -21.0836   -8.8757   19.8954 H   0  0  0  0  0  0
  -22.3722  -10.9639   19.6168 H   0  0  0  0  0  0
  -21.1995   -7.6133   23.9714 H   0  0  0  0  0  0
  -21.1471   -6.0510   25.9077 H   0  0  0  0  0  0
  -22.0606   -2.7598   23.2858 H   0  0  0  0  0  0
  -22.4022  -11.9820   22.4858 H   0  0  0  0  0  0
  -21.1047  -13.1207   22.2641 H   0  0  0  0  0  0
  -24.5738  -15.7882   20.4647 H   0  0  0  0  0  0
  -26.1638  -15.6010   19.9304 H   0  0  0  0  0  0
  -26.7183  -32.5458   23.1116 H   0  0  0  0  0  0
  -25.0106  -33.9735   25.0453 H   0  0  0  0  0  0
  -22.7117  -31.3039   21.4061 H   0  0  0  0  0  0
  -23.3774  -35.9575   23.3239 H   0  0  0  0  0  0
  -24.3595  -36.8952   22.2055 H   0  0  0  0  0  0
  -23.7198  -37.6442   23.6687 H   0  0  0  0  0  0
  -26.0931  -31.5619   20.6105 H   0  0  0  0  0  0
  -26.8384  -30.8409   22.0065 H   0  0  0  0  0  0
  -28.1140  -28.9962   21.1916 H   0  0  0  0  0  0
  -25.9763  -25.9443   18.9900 H   0  0  0  0  0  0
  -23.9747  -27.3139   19.0082 H   0  0  0  0  0  0
  -23.7505  -30.5982   19.4055 H   0  0  0  0  0  0
  -22.7534  -29.2491   19.8602 H   0  0  0  0  0  0
  -25.1270  -36.1914   25.0818 H   0  0  0  0  0  0
  -20.9974  -28.3271   24.1409 H   0  0  0  0  0  0
  -20.5688  -26.2294   23.3612 H   0  0  0  0  0  0
  -21.6657  -26.7456   22.1204 H   0  0  0  0  0  0
  -19.6920  -25.6301   21.1238 H   0  0  0  0  0  0
  -19.6696  -27.3203   20.6750 H   0  0  0  0  0  0
  -17.4209  -26.6691   21.4017 H   0  0  0  0  0  0
  -18.0324  -26.0086   22.9010 H   0  0  0  0  0  0
  -19.7939  -30.7289   24.2250 H   0  0  0  0  0  0
  -17.5011  -31.6261   24.5189 H   0  0  0  0  0  0
  -15.5350  -30.2977   23.7667 H   0  0  0  0  0  0
  -15.8680  -28.0829   22.7046 H   0  0  0  0  0  0
  -24.5891  -30.7101   25.7795 H   0  0  0  0  0  0
  -24.8939  -32.2912   26.4889 H   0  0  0  0  0  0
  -25.8050  -30.8905   27.0234 H   0  0  0  0  0  0
  -26.2885  -29.6761   24.1210 H   0  0  0  0  0  0
  -27.4017  -29.7254   25.4684 H   0  0  0  0  0  0
  -27.8758  -30.4279   23.9397 H   0  0  0  0  0  0
  -27.2715  -33.3613   26.2061 H   0  0  0  0  0  0
  -28.3870  -32.6849   25.0288 H   0  0  0  0  0  0
  -28.0751  -31.8423   26.5387 H   0  0  0  0  0  0
  -28.2536  -38.0138   24.7617 H   0  0  0  0  0  0
  -28.1160  -36.2684   24.6094 H   0  0  0  0  0  0
  -27.2341  -37.1212   25.8848 H   0  0  0  0  0  0
  -20.9387  -29.8724   21.6856 H   0  0  0  0  0  0
  -26.0144  -38.2831   24.1531 H   0  0  0  0  0  0
  -28.1432  -19.9179   19.6478 H   0  0  0  0  0  0
  -31.9196  -17.3478   21.5768 H   0  0  0  0  0  0
  -30.9377  -22.0727   21.1332 H   0  0  0  0  0  0
  -28.2185  -22.2328   19.7865 H   0  0  0  0  0  0
  -33.1076  -19.2761   22.0449 H   0  0  0  0  0  0
  -32.0671  -20.5683   22.6350 H   0  0  0  0  0  0
  -32.8124  -20.6821   21.0314 H   0  0  0  0  0  0
  -27.0468  -16.3127   17.6690 H   0  0  0  0  0  0
  -28.7629  -16.0935   17.9959 H   0  0  0  0  0  0
  -28.1701  -17.6409   17.3954 H   0  0  0  0  0  0
  -26.8628  -17.9708   19.5290 H   0  0  0  0  0  0
  -27.4635  -16.4677   20.1475 H   0  0  0  0  0  0
  -27.2388  -24.7396   20.4917 H   0  0  0  0  0  0
  -27.9484  -24.8706   18.8931 H   0  0  0  0  0  0
  -28.8877  -15.4183   20.9612 H   0  0  0  0  0  0
  1 25  1  0  0  0
  1 30  2  0  0  0
  1 84  1  0  0  0
  2  3  1  0  0  0
  2 25  1  0  0  0
  2 86  1  0  0  0
  2 87  1  0  0  0
  3  4  1  0  0  0
  3 88  1  0  0  0
  3 89  1  0  0  0
  4  5  1  0  0  0
  4 90  1  0  0  0
  4 91  1  0  0  0
  5  6  1  0  0  0
  5 26  1  0  0  0
  5 92  1  0  0  0
  6 25  1  0  0  0
  6 93  1  0  0  0
  6 94  1  0  0  0
  7  8  2  0  0  0
  7 26  1  0  0  0
  7 29  1  0  0  0
  8  9  1  0  0  0
  8 22  1  0  0  0
  9 10  1  0  0  0
  9 27  2  0  0  0
 10 11  2  0  0  0
 10 15  1  0  0  0
 11 12  1  0  0  0
 11 95  1  0  0  0
 12 13  2  0  0  0
 12 96  1  0  0  0
 13 14  1  0  0  0
 13 31  1  0  0  0
 14 15  2  0  0  0
 14 97  1  0  0  0
 15 98  1  0  0  0
 16 17  2  0  0  0
 16 21  1  0  0  0
 16 31  1  0  0  0
 17 18  1  0  0  0
 17 99  1  0  0  0
 18 19  2  0  0  0
 18100  1  0  0  0
 19 20  1  0  0  0
 19 24  1  0  0  0
 20 21  2  0  0  0
 20101  1  0  0  0
 21 23  1  0  0  0
 22 28  1  0  0  0
 22 32  2  0  0  0
 26 27  1  0  0  0
 28102  1  0  0  0
 28103  1  0  0  0
 29104  1  0  0  0
 29105  1  0  0  0
 33 34  1  0  0  0
 33 66  1  0  0  0
 33 70  2  0  0  0
 34 36  1  0  0  0
 34 59  1  0  0  0
 34106  1  0  0  0
 35 44  2  0  0  0
 35 45  1  0  0  0
 35 68  1  0  0  0
 36 56  1  0  0  0
 36107  1  0  0  0
 37 39  1  0  0  0
 37 47  1  0  0  0
 37 66  1  0  0  0
 37108  1  0  0  0
 38 43  2  0  0  0
 38 46  1  0  0  0
 38 47  1  0  0  0
 39 64  1  0  0  0
 39 67  2  0  0  0
 40 52  1  0  0  0
 40 53  2  0  0  0
 40 58  1  0  0  0
 41109  1  0  0  0
 41110  1  0  0  0
 41111  1  0  0  0
 41 48  1  0  0  0
 42 43  1  0  0  0
 42 66  1  0  0  0
 42112  1  0  0  0
 42113  1  0  0  0
 43 44  1  0  0  0
 44114  1  0  0  0
 45 46  2  0  0  0
 45115  1  0  0  0
 46116  1  0  0  0
 47117  1  0  0  0
 47118  1  0  0  0
 48 56  1  0  0  0
 48 65  1  0  0  0
 48119  1  0  0  0
 49 50  1  0  0  0
 49 53  1  0  0  0
 49 64  1  0  0  0
 49120  1  0  0  0
 50 51  1  0  0  0
 50121  1  0  0  0
 50122  1  0  0  0
 51 52  1  0  0  0
 51123  1  0  0  0
 51124  1  0  0  0
 52125  1  0  0  0
 52126  1  0  0  0
 53 54  1  0  0  0
 54 55  2  0  0  0
 54127  1  0  0  0
 55 57  1  0  0  0
 55128  1  0  0  0
 56 69  2  0  0  0
 57 58  2  0  0  0
 57129  1  0  0  0
 58130  1  0  0  0
 59 60  1  0  0  0
 59 61  1  0  0  0
 59 62  1  0  0  0
 60131  1  0  0  0
 60132  1  0  0  0
 60133  1  0  0  0
 61134  1  0  0  0
 61135  1  0  0  0
 61136  1  0  0  0
 62137  1  0  0  0
 62138  1  0  0  0
 62139  1  0  0  0
 63 65  1  0  0  0
 63140  1  0  0  0
 63141  1  0  0  0
 63142  1  0  0  0
 64143  1  0  0  0
 65144  1  0  0  0
 68 83  1  0  0  0
 71 73  2  0  0  0
 71 74  1  0  0  0
 71145  1  0  0  0
 72 75  2  0  0  0
 72 76  1  0  0  0
 72146  1  0  0  0
 73 75  1  0  0  0
 73 77  1  0  0  0
 74 76  2  0  0  0
 74 82  1  0  0  0
 75 80  1  0  0  0
 76 84  1  0  0  0
 77 78  2  0  0  0
 77147  1  0  0  0
 78 79  1  0  0  0
 78148  1  0  0  0
 79 83  1  0  0  0
 79 85  2  0  0  0
 80149  1  0  0  0
 80150  1  0  0  0
 80151  1  0  0  0
 81 82  1  0  0  0
 81152  1  0  0  0
 81153  1  0  0  0
 81154  1  0  0  0
 82155  1  0  0  0
 82156  1  0  0  0
 83157  1  0  0  0
 83158  1  0  0  0
 84159  1  0  0  0
M  ISO  4   1 100  68 101  83 101  84 100
M  END
> <chiral flag>
0

> <version>
0

> <s_m_source_file>
/data/baiqing/PycharmProjects/Reinvent-master-3.2/result/LINK_invent/BTK/process_docking_weight1_custom_product_contain_oxygen_bond_distance_aromatic_linkinvent_7_9_3/rearranged_h_0128.sdf

> <i_m_source_file_index>
81

> <r_mmod_Potential_Energy-OPLS-2005>
32.3659706115723

> <r_mmod_Stretch_Energy-OPLS-2005>
77.9406356811523

> <r_mmod_Bend_Energy-OPLS-2005>
125.27099609375

> <r_mmod_Torsional_Energy-OPLS-2005>
223.738372802734

> <r_mmod_Improper_Torsional_Energy-OPLS-2005>
6.33568000793457

> <r_mmod_Van_der_Waal_Energy-OPLS-2005>
145.609268188477

> <r_mmod_Electrostatic_Energy-OPLS-2005>
-367.025939941406

> <r_mmod_Solvation_Energy-OPLS-2005>
-228.279907226562

> <b_mmod_Minimization_Converged-OPLS-2005>
0

> <r_mmod_RMS_Derivative-OPLS-2005>
1.21997654438019

$$$$
81
                    3D
 Structure written by MMmdl.
157165  0  0  1  0            999 V2000
  -30.6761  -14.7264   20.5540 C   0  0  0  0  0  0
  -30.4374  -12.4792   19.4410 C   0  0  0  0  0  0
  -29.5022  -12.5767   18.2150 C   0  0  0  0  0  0
  -28.0243  -12.4148   18.6259 C   0  0  0  0  0  0
  -27.6574  -13.2561   19.8763 C   0  0  2  0  0  0
  -28.7213  -13.0792   20.9938 C   0  0  0  0  0  0
  -25.2064  -13.8109   20.4515 C   0  0  0  0  0  0
  -24.1636  -13.0403   20.8972 C   0  0  0  0  0  0
  -24.6465  -11.6980   20.8897 C   0  0  0  0  0  0
  -23.9156  -10.4314   21.0544 C   0  0  0  0  0  0
  -24.3671   -9.4183   21.9292 C   0  0  0  0  0  0
  -23.6299   -8.2227   22.0810 C   0  0  0  0  0  0
  -22.4283   -8.0315   21.3579 C   0  0  0  0  0  0
  -21.9985   -9.0311   20.4662 C   0  0  0  0  0  0
  -22.7359  -10.2177   20.3108 C   0  0  0  0  0  0
  -21.6878   -6.0713   22.5268 C   0  0  0  0  0  0
  -21.3999   -6.5608   23.8197 C   0  0  0  0  0  0
  -21.3645   -5.6772   24.9170 C   0  0  0  0  0  0
  -21.6031   -4.3034   24.7243 C   0  0  0  0  0  0
  -21.8813   -3.8123   23.4367 C   0  0  0  0  0  0
  -21.9175   -4.6927   22.3408 C   0  0  0  0  0  0
  -22.7641  -13.5141   21.1770 C   0  0  0  0  0  0
  -22.1643   -4.2115   21.0987 F   0  0  0  0  0  0
  -21.5650   -3.4523   25.7759 F   0  0  0  0  0  0
  -30.0174  -13.5038   20.4437 N   0  0  0  0  0  0
  -26.2942  -12.9595   20.3246 N   0  0  0  0  0  0
  -25.9486  -11.6770   20.6204 N   0  0  0  0  0  0
  -22.0355  -12.8146   22.0429 N   0  0  0  0  0  0
  -25.2744  -15.1471   20.0815 N   0  0  0  0  0  0
  -31.7607  -14.8653   19.9788 O   0  0  0  0  0  0
  -21.6662   -6.8882   21.4241 O   0  0  0  0  0  0
  -22.3253  -14.5455   20.6733 O   0  0  0  0  0  0
  -24.6410  -31.8491   23.1980 C   0  0  0  0  0  0
  -25.9208  -32.4760   23.8333 C   0  0  1  0  0  0
  -27.2317  -27.2525   20.1336 C   0  0  0  0  0  0
  -25.5899  -33.8557   24.2257 N   0  0  0  0  0  0
  -23.4425  -30.4790   21.5380 C   0  0  2  0  0  0
  -24.8845  -28.9083   20.1120 C   0  0  0  0  0  0
  -22.7521  -29.4691   22.4876 C   0  0  0  0  0  0
  -18.0389  -28.1305   22.8483 C   0  0  0  0  0  0
  -24.1464  -36.7296   23.2647 C   0  0  0  0  0  0
  -25.9876  -30.7525   21.3793 C   0  0  0  0  0  0
  -26.0535  -29.3723   20.7258 C   0  0  0  0  0  0
  -27.2243  -28.5502   20.7385 C   0  0  0  0  0  0
  -26.0447  -26.8688   19.4662 C   0  0  0  0  0  0
  -24.8800  -27.6567   19.4778 C   0  0  0  0  0  0
  -23.6573  -29.7960   20.1602 C   0  0  0  0  0  0
  -25.4103  -36.3103   24.0355 C   0  0  1  0  0  0
  -20.5981  -28.3707   23.1238 C   0  0  2  0  0  0
  -20.6858  -26.9399   22.5409 C   0  0  0  0  0  0
  -19.5830  -26.6534   21.5174 C   0  0  0  0  0  0
  -18.2047  -26.7897   22.1610 C   0  0  0  0  0  0
  -19.1631  -28.8838   23.2831 C   0  0  0  0  0  0
  -18.9458  -30.1503   23.8749 C   0  0  0  0  0  0
  -17.6403  -30.6524   24.0367 C   0  0  0  0  0  0
  -25.9034  -34.9440   23.5124 C   0  0  0  0  0  0
  -16.5354  -29.8867   23.6201 C   0  0  0  0  0  0
  -16.7365  -28.6269   23.0265 C   0  0  0  0  0  0
  -26.4464  -31.6621   25.0756 C   0  0  0  0  0  0
  -25.3697  -31.3742   26.1500 C   0  0  0  0  0  0
  -27.0328  -30.3068   24.6272 C   0  0  0  0  0  0
  -27.5974  -32.4352   25.7534 C   0  0  0  0  0  0
  -27.5596  -37.1831   24.8461 C   0  0  0  0  0  0
  -21.4208  -29.3142   22.3616 N   0  0  0  0  0  0
  -26.4299  -37.3813   23.9384 N   0  0  0  0  0  0
  -24.7106  -31.0458   22.0943 N   0  0  0  0  0  0
  -23.4113  -28.8227   23.3016 O   0  0  0  0  0  0
  -28.3121  -26.3366   20.2091 O   0  0  0  0  0  0
  -26.5619  -34.8940   22.4715 O   0  0  0  0  0  0
  -23.5557  -32.1251   23.7305 O   0  0  0  0  0  0
  -27.1986  -18.2828   20.9128 C   0  0  0  0  0  0
  -27.7403  -19.4774   20.4186 C   0  0  0  0  0  0
  -29.9502  -18.5221   20.7089 C   0  0  0  0  0  0
  -29.4088  -17.2088   21.0920 C   0  0  0  0  0  0
  -28.0140  -17.2385   21.3918 C   0  0  0  0  0  0
  -29.1291  -19.7160   20.4716 C   0  0  0  0  0  0
  -30.2049  -15.9197   21.5203 C   0  0  0  0  0  0
  -29.0316  -23.7227   20.3778 C   0  0  0  0  0  0
  -26.9618  -16.9349   23.7057 C   0  0  0  0  0  0
  -27.3458  -16.2703   22.3760 C   0  0  0  0  0  0
  -28.5799  -22.1835   20.2436 C   0  0  0  0  0  0
  -27.9723  -24.8754   20.0283 C   0  0  0  0  0  0
  -30.5040  -15.8292   22.7501 N   0  0  0  0  0  0
  -30.1596  -24.0197   20.7874 O   0  0  0  0  0  0
  -29.5873  -21.0652   20.3091 O   0  0  0  0  0  0
  -31.4710  -12.6031   19.1144 H   0  0  0  0  0  0
  -30.3951  -11.4730   19.8603 H   0  0  0  0  0  0
  -29.7609  -11.8134   17.4779 H   0  0  0  0  0  0
  -29.6453  -13.5406   17.7169 H   0  0  0  0  0  0
  -27.8435  -11.3597   18.8361 H   0  0  0  0  0  0
  -27.3713  -12.6724   17.7896 H   0  0  0  0  0  0
  -27.6920  -14.3046   19.5767 H   0  0  0  0  0  0
  -28.7752  -12.0284   21.2807 H   0  0  0  0  0  0
  -28.4835  -13.5933   21.9184 H   0  0  0  0  0  0
  -25.2804   -9.5635   22.4915 H   0  0  0  0  0  0
  -23.9966   -7.4585   22.7514 H   0  0  0  0  0  0
  -21.0926   -8.8835   19.8949 H   0  0  0  0  0  0
  -22.3806  -10.9722   19.6214 H   0  0  0  0  0  0
  -21.1959   -7.6114   23.9694 H   0  0  0  0  0  0
  -21.1490   -6.0503   25.9070 H   0  0  0  0  0  0
  -22.0598   -2.7589   23.2890 H   0  0  0  0  0  0
  -22.4090  -11.9890   22.4889 H   0  0  0  0  0  0
  -21.0982  -13.1170   22.2704 H   0  0  0  0  0  0
  -24.3832  -15.6047   19.9124 H   0  0  0  0  0  0
  -25.9831  -15.5043   19.4511 H   0  0  0  0  0  0
  -26.7297  -32.5383   23.1082 H   0  0  0  0  0  0
  -25.0035  -33.9588   25.0412 H   0  0  0  0  0  0
  -22.7566  -31.3146   21.3830 H   0  0  0  0  0  0
  -23.3759  -35.9614   23.3329 H   0  0  0  0  0  0
  -24.3519  -36.8910   22.2052 H   0  0  0  0  0  0
  -23.7190  -37.6502   23.6631 H   0  0  0  0  0  0
  -26.1401  -31.5014   20.6028 H   0  0  0  0  0  0
  -26.8663  -30.8008   22.0113 H   0  0  0  0  0  0
  -28.1155  -28.8766   21.2590 H   0  0  0  0  0  0
  -25.9891  -25.9267   18.9406 H   0  0  0  0  0  0
  -23.9885  -27.2800   18.9945 H   0  0  0  0  0  0
  -23.7760  -30.5591   19.3960 H   0  0  0  0  0  0
  -22.7685  -29.2343   19.8617 H   0  0  0  0  0  0
  -25.1309  -36.1993   25.0872 H   0  0  0  0  0  0
  -21.0116  -28.3262   24.1300 H   0  0  0  0  0  0
  -20.5713  -26.2338   23.3647 H   0  0  0  0  0  0
  -21.6717  -26.7254   22.1193 H   0  0  0  0  0  0
  -19.6926  -25.6650   21.0744 H   0  0  0  0  0  0
  -19.6688  -27.3699   20.6990 H   0  0  0  0  0  0
  -17.4423  -26.6722   21.3851 H   0  0  0  0  0  0
  -18.0414  -26.0022   22.9024 H   0  0  0  0  0  0
  -19.7863  -30.7471   24.2043 H   0  0  0  0  0  0
  -17.4816  -31.6315   24.4744 H   0  0  0  0  0  0
  -15.5309  -30.2607   23.7432 H   0  0  0  0  0  0
  -15.8881  -28.0398   22.6932 H   0  0  0  0  0  0
  -24.5839  -30.7089   25.7865 H   0  0  0  0  0  0
  -24.8906  -32.2898   26.5009 H   0  0  0  0  0  0
  -25.8111  -30.8868   27.0231 H   0  0  0  0  0  0
  -26.2894  -29.6758   24.1392 H   0  0  0  0  0  0
  -27.4065  -29.7412   25.4817 H   0  0  0  0  0  0
  -27.8746  -30.4306   23.9460 H   0  0  0  0  0  0
  -27.2528  -33.3636   26.2111 H   0  0  0  0  0  0
  -28.3815  -32.6988   25.0407 H   0  0  0  0  0  0
  -28.0608  -31.8469   26.5474 H   0  0  0  0  0  0
  -28.2680  -38.0076   24.7555 H   0  0  0  0  0  0
  -28.1042  -36.2642   24.6292 H   0  0  0  0  0  0
  -27.2250  -37.1497   25.8839 H   0  0  0  0  0  0
  -20.9331  -29.8951   21.6968 H   0  0  0  0  0  0
  -26.0221  -38.2911   24.1439 H   0  0  0  0  0  0
  -26.1303  -18.2252   21.0460 H   0  0  0  0  0  0
  -27.0336  -20.2378   20.1102 H   0  0  0  0  0  0
  -31.0274  -18.6263   20.6717 H   0  0  0  0  0  0
  -26.3039  -17.7968   23.5487 H   0  0  0  0  0  0
  -27.8378  -17.2537   24.2723 H   0  0  0  0  0  0
  -26.4342  -16.2225   24.3448 H   0  0  0  0  0  0
  -27.9468  -15.4133   22.6167 H   0  0  0  0  0  0
  -26.4402  -15.8607   21.9697 H   0  0  0  0  0  0
  -27.8705  -22.0224   21.0501 H   0  0  0  0  0  0
  -28.0163  -22.0744   19.3153 H   0  0  0  0  0  0
  -27.0818  -24.6724   20.6183 H   0  0  0  0  0  0
  -27.7094  -24.7254   18.9821 H   0  0  0  0  0  0
  -30.1279  -16.6169   23.2647 H   0  0  0  0  0  0
  1 25  1  0  0  0
  1 30  2  0  0  0
  1 77  1  0  0  0
  2  3  1  0  0  0
  2 25  1  0  0  0
  2 86  1  0  0  0
  2 87  1  0  0  0
  3  4  1  0  0  0
  3 88  1  0  0  0
  3 89  1  0  0  0
  4  5  1  0  0  0
  4 90  1  0  0  0
  4 91  1  0  0  0
  5  6  1  0  0  0
  5 26  1  0  0  0
  5 92  1  0  0  0
  6 25  1  0  0  0
  6 93  1  0  0  0
  6 94  1  0  0  0
  7  8  2  0  0  0
  7 26  1  0  0  0
  7 29  1  0  0  0
  8  9  1  0  0  0
  8 22  1  0  0  0
  9 10  1  0  0  0
  9 27  2  0  0  0
 10 11  2  0  0  0
 10 15  1  0  0  0
 11 12  1  0  0  0
 11 95  1  0  0  0
 12 13  2  0  0  0
 12 96  1  0  0  0
 13 14  1  0  0  0
 13 31  1  0  0  0
 14 15  2  0  0  0
 14 97  1  0  0  0
 15 98  1  0  0  0
 16 17  2  0  0  0
 16 21  1  0  0  0
 16 31  1  0  0  0
 17 18  1  0  0  0
 17 99  1  0  0  0
 18 19  2  0  0  0
 18100  1  0  0  0
 19 20  1  0  0  0
 19 24  1  0  0  0
 20 21  2  0  0  0
 20101  1  0  0  0
 21 23  1  0  0  0
 22 28  1  0  0  0
 22 32  2  0  0  0
 26 27  1  0  0  0
 28102  1  0  0  0
 28103  1  0  0  0
 29104  1  0  0  0
 29105  1  0  0  0
 33 34  1  0  0  0
 33 66  1  0  0  0
 33 70  2  0  0  0
 34 36  1  0  0  0
 34 59  1  0  0  0
 34106  1  0  0  0
 35 44  2  0  0  0
 35 45  1  0  0  0
 35 68  1  0  0  0
 36 56  1  0  0  0
 36107  1  0  0  0
 37 39  1  0  0  0
 37 47  1  0  0  0
 37 66  1  0  0  0
 37108  1  0  0  0
 38 43  2  0  0  0
 38 46  1  0  0  0
 38 47  1  0  0  0
 39 64  1  0  0  0
 39 67  2  0  0  0
 40 52  1  0  0  0
 40 53  2  0  0  0
 40 58  1  0  0  0
 41109  1  0  0  0
 41110  1  0  0  0
 41111  1  0  0  0
 41 48  1  0  0  0
 42 43  1  0  0  0
 42 66  1  0  0  0
 42112  1  0  0  0
 42113  1  0  0  0
 43 44  1  0  0  0
 44114  1  0  0  0
 45 46  2  0  0  0
 45115  1  0  0  0
 46116  1  0  0  0
 47117  1  0  0  0
 47118  1  0  0  0
 48 56  1  0  0  0
 48 65  1  0  0  0
 48119  1  0  0  0
 49 50  1  0  0  0
 49 53  1  0  0  0
 49 64  1  0  0  0
 49120  1  0  0  0
 50 51  1  0  0  0
 50121  1  0  0  0
 50122  1  0  0  0
 51 52  1  0  0  0
 51123  1  0  0  0
 51124  1  0  0  0
 52125  1  0  0  0
 52126  1  0  0  0
 53 54  1  0  0  0
 54 55  2  0  0  0
 54127  1  0  0  0
 55 57  1  0  0  0
 55128  1  0  0  0
 56 69  2  0  0  0
 57 58  2  0  0  0
 57129  1  0  0  0
 58130  1  0  0  0
 59 60  1  0  0  0
 59 61  1  0  0  0
 59 62  1  0  0  0
 60131  1  0  0  0
 60132  1  0  0  0
 60133  1  0  0  0
 61134  1  0  0  0
 61135  1  0  0  0
 61136  1  0  0  0
 62137  1  0  0  0
 62138  1  0  0  0
 62139  1  0  0  0
 63 65  1  0  0  0
 63140  1  0  0  0
 63141  1  0  0  0
 63142  1  0  0  0
 64143  1  0  0  0
 65144  1  0  0  0
 68 82  1  0  0  0
 71 72  2  0  0  0
 71 75  1  0  0  0
 71145  1  0  0  0
 72 76  1  0  0  0
 72146  1  0  0  0
 73 74  1  0  0  0
 73 76  2  0  0  0
 73147  1  0  0  0
 74 75  2  0  0  0
 74 77  1  0  0  0
 75 80  1  0  0  0
 76 85  1  0  0  0
 77 83  2  0  0  0
 78 81  1  0  0  0
 78 82  1  0  0  0
 78 84  2  0  0  0
 79 80  1  0  0  0
 79148  1  0  0  0
 79149  1  0  0  0
 79150  1  0  0  0
 80151  1  0  0  0
 80152  1  0  0  0
 81 85  1  0  0  0
 81153  1  0  0  0
 81154  1  0  0  0
 82155  1  0  0  0
 82156  1  0  0  0
 83157  1  0  0  0
M  ISO  4   1 100  68 101  77 100  82 101
M  END
> <chiral flag>
0

> <version>
0

> <s_m_source_file>
/data/baiqing/PycharmProjects/Reinvent-master-3.2/result/LINK_invent/BTK/process_docking_weight1_custom_product_contain_oxygen_bond_distance_aromatic_linkinvent_7_9_3/rearranged_h_0128.sdf

> <i_m_source_file_index>
82

> <r_mmod_Potential_Energy-OPLS-2005>
483.977996826172

> <r_mmod_Stretch_Energy-OPLS-2005>
157.873657226562

> <r_mmod_Bend_Energy-OPLS-2005>
205.534698486328

> <r_mmod_Torsional_Energy-OPLS-2005>
272.716247558594

> <r_mmod_Improper_Torsional_Energy-OPLS-2005>
10.8556690216064

> <r_mmod_Van_der_Waal_Energy-OPLS-2005>
161.422805786133

> <r_mmod_Electrostatic_Energy-OPLS-2005>
-190.89501953125

> <r_mmod_Solvation_Energy-OPLS-2005>
-231.746231079102

> <b_mmod_Minimization_Converged-OPLS-2005>
0

> <r_mmod_RMS_Derivative-OPLS-2005>
11.0486669540405

$$$$
82
                    3D
 Structure written by MMmdl.
171180  0  0  1  0            999 V2000
  -30.7277  -14.3599   20.6848 C   0  0  0  0  0  0
  -30.4270  -12.2787   19.3887 C   0  0  0  0  0  0
  -29.4950  -12.5444   18.1904 C   0  0  0  0  0  0
  -28.0144  -12.4052   18.5949 C   0  0  0  0  0  0
  -27.6733  -13.1960   19.8853 C   0  0  2  0  0  0
  -28.7065  -12.8884   20.9916 C   0  0  0  0  0  0
  -25.2610  -13.8120   20.5633 C   0  0  0  0  0  0
  -24.1844  -13.0399   20.9130 C   0  0  0  0  0  0
  -24.6387  -11.6866   20.8687 C   0  0  0  0  0  0
  -23.9051  -10.4262   21.0368 C   0  0  0  0  0  0
  -24.3600   -9.4199   21.9158 C   0  0  0  0  0  0
  -23.6271   -8.2242   22.0740 C   0  0  0  0  0  0
  -22.4260   -8.0267   21.3522 C   0  0  0  0  0  0
  -21.9896   -9.0232   20.4612 C   0  0  0  0  0  0
  -22.7222  -10.2109   20.3016 C   0  0  0  0  0  0
  -21.6850   -6.0719   22.5275 C   0  0  0  0  0  0
  -21.4016   -6.5626   23.8209 C   0  0  0  0  0  0
  -21.3654   -5.6786   24.9165 C   0  0  0  0  0  0
  -21.6057   -4.3047   24.7224 C   0  0  0  0  0  0
  -21.8818   -3.8128   23.4348 C   0  0  0  0  0  0
  -21.9186   -4.6941   22.3402 C   0  0  0  0  0  0
  -22.7878  -13.5229   21.1816 C   0  0  0  0  0  0
  -22.1652   -4.2124   21.0977 F   0  0  0  0  0  0
  -21.5627   -3.4529   25.7739 F   0  0  0  0  0  0
  -30.0608  -13.1950   20.4769 N   0  0  0  0  0  0
  -26.3065  -12.9279   20.3350 N   0  0  0  0  0  0
  -25.9318  -11.6446   20.5711 N   0  0  0  0  0  0
  -22.0496  -12.8212   22.0356 N   0  0  0  0  0  0
  -25.4312  -15.1835   20.4079 N   0  0  0  0  0  0
  -31.7092  -14.7160   20.0246 O   0  0  0  0  0  0
  -21.6630   -6.8853   21.4233 O   0  0  0  0  0  0
  -22.3589  -14.5556   20.6704 O   0  0  0  0  0  0
  -24.6085  -31.8691   23.2106 C   0  0  0  0  0  0
  -25.9014  -32.4812   23.8368 C   0  0  1  0  0  0
  -27.2510  -27.4979   20.1006 C   0  0  0  0  0  0
  -25.5880  -33.8608   24.2298 N   0  0  0  0  0  0
  -23.3916  -30.4893   21.5520 C   0  0  2  0  0  0
  -24.8379  -28.9553   20.1199 C   0  0  0  0  0  0
  -22.7362  -29.4661   22.5047 C   0  0  0  0  0  0
  -18.0255  -28.1369   22.8506 C   0  0  0  0  0  0
  -24.1477  -36.7331   23.2641 C   0  0  0  0  0  0
  -25.9095  -30.8624   21.3459 C   0  0  0  0  0  0
  -25.9924  -29.5028   20.6912 C   0  0  0  0  0  0
  -27.2034  -28.7927   20.6538 C   0  0  0  0  0  0
  -26.0874  -26.9512   19.5247 C   0  0  0  0  0  0
  -24.8778  -27.6767   19.5313 C   0  0  0  0  0  0
  -23.5930  -29.8095   20.1698 C   0  0  0  0  0  0
  -25.4097  -36.3101   24.0323 C   0  0  1  0  0  0
  -20.5839  -28.3647   23.1363 C   0  0  2  0  0  0
  -20.6738  -26.9384   22.5447 C   0  0  0  0  0  0
  -19.5719  -26.6366   21.5236 C   0  0  0  0  0  0
  -18.1892  -26.7922   22.1624 C   0  0  0  0  0  0
  -19.1500  -28.8825   23.2928 C   0  0  0  0  0  0
  -18.9434  -30.1437   23.8920 C   0  0  0  0  0  0
  -17.6442  -30.6580   24.0578 C   0  0  0  0  0  0
  -25.9027  -34.9471   23.5112 C   0  0  0  0  0  0
  -16.5332  -29.9087   23.6336 C   0  0  0  0  0  0
  -16.7249  -28.6510   23.0346 C   0  0  0  0  0  0
  -26.4464  -31.6573   25.0678 C   0  0  0  0  0  0
  -25.3730  -31.3668   26.1425 C   0  0  0  0  0  0
  -27.0305  -30.3012   24.6057 C   0  0  0  0  0  0
  -27.6036  -32.4291   25.7450 C   0  0  0  0  0  0
  -27.5574  -37.1810   24.8452 C   0  0  0  0  0  0
  -21.4099  -29.3019   22.3780 N   0  0  0  0  0  0
  -26.4279  -37.3785   23.9408 N   0  0  0  0  0  0
  -24.6550  -31.0854   22.0964 N   0  0  0  0  0  0
  -23.4168  -28.8228   23.3080 O   0  0  0  0  0  0
  -28.4299  -26.7970   20.0653 O   0  0  0  0  0  0
  -26.5598  -34.8935   22.4680 O   0  0  0  0  0  0
  -23.5306  -32.1423   23.7569 O   0  0  0  0  0  0
  -31.3067  -19.0187   19.2145 C   0  0  0  0  0  0
  -32.4790  -19.2290   21.3397 C   0  0  0  0  0  0
  -33.8959  -25.7617   21.2111 C   0  0  0  0  0  0
  -30.5892  -17.9190   19.7221 C   0  0  0  0  0  0
  -31.7708  -18.1207   21.8411 C   0  0  0  0  0  0
  -35.0865  -25.0374   20.9918 C   0  0  0  0  0  0
  -32.6069  -23.7540   20.7946 C   0  0  0  0  0  0
  -32.2254  -19.7156   20.0334 C   0  0  0  0  0  0
  -32.6415  -25.1256   21.1120 C   0  0  0  0  0  0
  -30.7861  -17.4992   21.0517 C   0  0  0  0  0  0
  -35.0434  -23.6596   20.6821 C   0  0  0  0  0  0
  -33.7900  -23.0144   20.5794 C   0  0  0  0  0  0
  -31.3980  -25.8876   21.3271 C   0  0  0  0  0  0
  -30.1543  -25.4537   21.0289 C   0  0  0  0  0  0
  -32.7835  -21.0372   19.5696 C   0  0  0  0  0  0
  -36.3357  -22.8967   20.4488 C   0  0  0  0  0  0
  -28.9649  -27.1385   22.5011 C   0  0  0  0  0  0
  -29.8410  -16.4888   21.6763 C   0  0  0  0  0  0
  -28.8527  -26.1882   21.2895 C   0  0  1  0  0  0
  -33.6955  -21.6163   20.3669 N   0  0  0  0  0  0
  -30.2219  -15.0821   21.6876 N   0  0  0  0  0  0
  -32.4025  -21.5481   18.5121 O   0  0  0  0  0  0
  -31.4725  -12.3835   19.0938 H   0  0  0  0  0  0
  -30.3182  -11.2469   19.7273 H   0  0  0  0  0  0
  -29.7277  -11.8616   17.3713 H   0  0  0  0  0  0
  -29.6736  -13.5500   17.8018 H   0  0  0  0  0  0
  -27.8027  -11.3449   18.7388 H   0  0  0  0  0  0
  -27.3741  -12.7326   17.7766 H   0  0  0  0  0  0
  -27.7434  -14.2589   19.6534 H   0  0  0  0  0  0
  -28.6624  -11.8322   21.2601 H   0  0  0  0  0  0
  -28.4380  -13.4169   21.9069 H   0  0  0  0  0  0
  -25.2732   -9.5713   22.4734 H   0  0  0  0  0  0
  -23.9967   -7.4647   22.7482 H   0  0  0  0  0  0
  -21.0811   -8.8752   19.8938 H   0  0  0  0  0  0
  -22.3662  -10.9637   19.6119 H   0  0  0  0  0  0
  -21.2030   -7.6129   23.9710 H   0  0  0  0  0  0
  -21.1470   -6.0503   25.9068 H   0  0  0  0  0  0
  -22.0614   -2.7595   23.2855 H   0  0  0  0  0  0
  -22.4085  -11.9850   22.4721 H   0  0  0  0  0  0
  -21.1136  -13.1287   22.2571 H   0  0  0  0  0  0
  -24.6626  -15.8377   20.5103 H   0  0  0  0  0  0
  -26.2879  -15.6275   20.1033 H   0  0  0  0  0  0
  -26.7086  -32.5543   23.1146 H   0  0  0  0  0  0
  -24.9999  -33.9754   25.0424 H   0  0  0  0  0  0
  -22.6783  -31.3040   21.4114 H   0  0  0  0  0  0
  -23.3713  -35.9687   23.3315 H   0  0  0  0  0  0
  -24.3559  -36.8949   22.2049 H   0  0  0  0  0  0
  -23.7271  -37.6555   23.6658 H   0  0  0  0  0  0
  -26.0089  -31.6383   20.5855 H   0  0  0  0  0  0
  -26.8010  -30.9143   21.9590 H   0  0  0  0  0  0
  -28.1020  -29.2423   21.0494 H   0  0  0  0  0  0
  -26.1227  -25.9686   19.0756 H   0  0  0  0  0  0
  -23.9892  -27.2459   19.0916 H   0  0  0  0  0  0
  -23.6869  -30.5764   19.4001 H   0  0  0  0  0  0
  -22.7207  -29.2161   19.8889 H   0  0  0  0  0  0
  -25.1287  -36.1948   25.0819 H   0  0  0  0  0  0
  -20.9920  -28.3193   24.1484 H   0  0  0  0  0  0
  -20.5628  -26.2255   23.3628 H   0  0  0  0  0  0
  -21.6609  -26.7425   22.1255 H   0  0  0  0  0  0
  -19.6873  -25.6276   21.1261 H   0  0  0  0  0  0
  -19.6666  -27.3187   20.6774 H   0  0  0  0  0  0
  -17.4178  -26.6719   21.3999 H   0  0  0  0  0  0
  -18.0252  -26.0037   22.8979 H   0  0  0  0  0  0
  -19.7917  -30.7250   24.2277 H   0  0  0  0  0  0
  -17.5003  -31.6265   24.5171 H   0  0  0  0  0  0
  -15.5336  -30.3004   23.7633 H   0  0  0  0  0  0
  -15.8646  -28.0849   22.7024 H   0  0  0  0  0  0
  -24.5884  -30.7062   25.7733 H   0  0  0  0  0  0
  -24.8958  -32.2822   26.4908 H   0  0  0  0  0  0
  -25.8072  -30.8770   27.0151 H   0  0  0  0  0  0
  -26.2836  -29.6720   24.1196 H   0  0  0  0  0  0
  -27.4151  -29.7310   25.4527 H   0  0  0  0  0  0
  -27.8640  -30.4316   23.9146 H   0  0  0  0  0  0
  -27.2645  -33.3564   26.2079 H   0  0  0  0  0  0
  -28.3819  -32.6876   25.0257 H   0  0  0  0  0  0
  -28.0723  -31.8363   26.5318 H   0  0  0  0  0  0
  -28.2593  -38.0103   24.7484 H   0  0  0  0  0  0
  -28.1069  -36.2639   24.6283 H   0  0  0  0  0  0
  -27.2306  -37.1468   25.8858 H   0  0  0  0  0  0
  -20.9227  -29.8757   21.7034 H   0  0  0  0  0  0
  -26.0171  -38.2862   24.1401 H   0  0  0  0  0  0
  -31.0863  -19.3733   18.2161 H   0  0  0  0  0  0
  -33.1622  -19.7356   22.0056 H   0  0  0  0  0  0
  -33.9531  -26.8120   21.4646 H   0  0  0  0  0  0
  -29.8366  -17.4446   19.1078 H   0  0  0  0  0  0
  -31.9313  -17.8015   22.8625 H   0  0  0  0  0  0
  -36.0376  -25.5481   21.0658 H   0  0  0  0  0  0
  -31.6600  -23.2411   20.7525 H   0  0  0  0  0  0
  -31.5212  -26.8644   21.7729 H   0  0  0  0  0  0
  -30.0104  -24.4949   20.5582 H   0  0  0  0  0  0
  -37.2047  -23.5516   20.5174 H   0  0  0  0  0  0
  -36.3358  -22.4485   19.4555 H   0  0  0  0  0  0
  -36.4563  -22.1023   21.1861 H   0  0  0  0  0  0
  -29.4013  -26.6277   23.3597 H   0  0  0  0  0  0
  -27.9848  -27.4877   22.8262 H   0  0  0  0  0  0
  -29.5803  -28.0099   22.2814 H   0  0  0  0  0  0
  -29.6566  -16.7865   22.7098 H   0  0  0  0  0  0
  -28.8703  -16.5636   21.1823 H   0  0  0  0  0  0
  -28.1226  -25.4187   21.5439 H   0  0  0  0  0  0
  -34.1136  -21.0279   21.0713 H   0  0  0  0  0  0
  -29.6126  -14.5321   22.2730 H   0  0  0  0  0  0
  1 25  1  0  0  0
  1 30  2  0  0  0
  1 91  1  0  0  0
  2  3  1  0  0  0
  2 25  1  0  0  0
  2 93  1  0  0  0
  2 94  1  0  0  0
  3  4  1  0  0  0
  3 95  1  0  0  0
  3 96  1  0  0  0
  4  5  1  0  0  0
  4 97  1  0  0  0
  4 98  1  0  0  0
  5  6  1  0  0  0
  5 26  1  0  0  0
  5 99  1  0  0  0
  6 25  1  0  0  0
  6100  1  0  0  0
  6101  1  0  0  0
  7  8  2  0  0  0
  7 26  1  0  0  0
  7 29  1  0  0  0
  8  9  1  0  0  0
  8 22  1  0  0  0
  9 10  1  0  0  0
  9 27  2  0  0  0
 10 11  2  0  0  0
 10 15  1  0  0  0
 11 12  1  0  0  0
 11102  1  0  0  0
 12 13  2  0  0  0
 12103  1  0  0  0
 13 14  1  0  0  0
 13 31  1  0  0  0
 14 15  2  0  0  0
 14104  1  0  0  0
 15105  1  0  0  0
 16 17  2  0  0  0
 16 21  1  0  0  0
 16 31  1  0  0  0
 17 18  1  0  0  0
 17106  1  0  0  0
 18 19  2  0  0  0
 18107  1  0  0  0
 19 20  1  0  0  0
 19 24  1  0  0  0
 20 21  2  0  0  0
 20108  1  0  0  0
 21 23  1  0  0  0
 22 28  1  0  0  0
 22 32  2  0  0  0
 26 27  1  0  0  0
 28109  1  0  0  0
 28110  1  0  0  0
 29111  1  0  0  0
 29112  1  0  0  0
 33 34  1  0  0  0
 33 66  1  0  0  0
 33 70  2  0  0  0
 34 36  1  0  0  0
 34 59  1  0  0  0
 34113  1  0  0  0
 35 44  2  0  0  0
 35 45  1  0  0  0
 35 68  1  0  0  0
 36 56  1  0  0  0
 36114  1  0  0  0
 37 39  1  0  0  0
 37 47  1  0  0  0
 37 66  1  0  0  0
 37115  1  0  0  0
 38 43  2  0  0  0
 38 46  1  0  0  0
 38 47  1  0  0  0
 39 64  1  0  0  0
 39 67  2  0  0  0
 40 52  1  0  0  0
 40 53  2  0  0  0
 40 58  1  0  0  0
 41116  1  0  0  0
 41117  1  0  0  0
 41118  1  0  0  0
 41 48  1  0  0  0
 42 43  1  0  0  0
 42 66  1  0  0  0
 42119  1  0  0  0
 42120  1  0  0  0
 43 44  1  0  0  0
 44121  1  0  0  0
 45 46  2  0  0  0
 45122  1  0  0  0
 46123  1  0  0  0
 47124  1  0  0  0
 47125  1  0  0  0
 48 56  1  0  0  0
 48 65  1  0  0  0
 48126  1  0  0  0
 49 50  1  0  0  0
 49 53  1  0  0  0
 49 64  1  0  0  0
 49127  1  0  0  0
 50 51  1  0  0  0
 50128  1  0  0  0
 50129  1  0  0  0
 51 52  1  0  0  0
 51130  1  0  0  0
 51131  1  0  0  0
 52132  1  0  0  0
 52133  1  0  0  0
 53 54  1  0  0  0
 54 55  2  0  0  0
 54134  1  0  0  0
 55 57  1  0  0  0
 55135  1  0  0  0
 56 69  2  0  0  0
 57 58  2  0  0  0
 57136  1  0  0  0
 58137  1  0  0  0
 59 60  1  0  0  0
 59 61  1  0  0  0
 59 62  1  0  0  0
 60138  1  0  0  0
 60139  1  0  0  0
 60140  1  0  0  0
 61141  1  0  0  0
 61142  1  0  0  0
 61143  1  0  0  0
 62144  1  0  0  0
 62145  1  0  0  0
 62146  1  0  0  0
 63 65  1  0  0  0
 63147  1  0  0  0
 63148  1  0  0  0
 63149  1  0  0  0
 64150  1  0  0  0
 65151  1  0  0  0
 68 89  1  0  0  0
 71 74  2  0  0  0
 71 78  1  0  0  0
 71152  1  0  0  0
 72 75  1  0  0  0
 72 78  2  0  0  0
 72153  1  0  0  0
 73 76  2  0  0  0
 73 79  1  0  0  0
 73154  1  0  0  0
 74 80  1  0  0  0
 74155  1  0  0  0
 75 80  2  0  0  0
 75156  1  0  0  0
 76 81  1  0  0  0
 76157  1  0  0  0
 77 79  2  0  0  0
 77 82  1  0  0  0
 77158  1  0  0  0
 78 85  1  0  0  0
 79 83  1  0  0  0
 80 88  1  0  0  0
 81 82  2  0  0  0
 81 86  1  0  0  0
 82 90  1  0  0  0
 83 84  2  0  0  0
 83159  1  0  0  0
 84 89  1  0  0  0
 84160  1  0  0  0
 85 90  1  0  0  0
 85 92  2  0  0  0
 86161  1  0  0  0
 86162  1  0  0  0
 86163  1  0  0  0
 87164  1  0  0  0
 87165  1  0  0  0
 87166  1  0  0  0
 87 89  1  0  0  0
 88 91  1  0  0  0
 88167  1  0  0  0
 88168  1  0  0  0
 89169  1  0  0  0
 90170  1  0  0  0
 91171  1  0  0  0
M  ISO  4   1 100  68 101  89 101  91 100
M  END
> <chiral flag>
0

> <version>
0

> <s_m_source_file>
/data/baiqing/PycharmProjects/Reinvent-master-3.2/result/LINK_invent/BTK/process_docking_weight1_custom_product_contain_oxygen_bond_distance_aromatic_linkinvent_7_9_3/rearranged_h_0128.sdf

> <i_m_source_file_index>
83

> <r_mmod_Potential_Energy-OPLS-2005>
-59.4970550537109

> <r_mmod_Stretch_Energy-OPLS-2005>
34.1500587463379

> <r_mmod_Bend_Energy-OPLS-2005>
101.278007507324

> <r_mmod_Torsional_Energy-OPLS-2005>
300.405578613281

> <r_mmod_Improper_Torsional_Energy-OPLS-2005>
7.57070589065552

> <r_mmod_Van_der_Waal_Energy-OPLS-2005>
186.980728149414

> <r_mmod_Electrostatic_Energy-OPLS-2005>
-450.678497314453

> <r_mmod_Solvation_Energy-OPLS-2005>
-247.507431030273

> <b_mmod_Minimization_Converged-OPLS-2005>
0

> <r_mmod_RMS_Derivative-OPLS-2005>
2.81975030899048

$$$$
83
                    3D
 Structure written by MMmdl.
158166  0  0  1  0            999 V2000
  -30.6680  -14.5711   20.5363 C   0  0  0  0  0  0
  -30.4260  -12.3602   19.4453 C   0  0  0  0  0  0
  -29.4973  -12.4982   18.2201 C   0  0  0  0  0  0
  -28.0210  -12.3415   18.6344 C   0  0  0  0  0  0
  -27.6500  -13.2134   19.8644 C   0  0  2  0  0  0
  -28.6932  -13.0598   20.9937 C   0  0  0  0  0  0
  -25.2544  -13.8173   20.5698 C   0  0  0  0  0  0
  -24.1807  -13.0448   20.9207 C   0  0  0  0  0  0
  -24.6372  -11.6913   20.8758 C   0  0  0  0  0  0
  -23.9049  -10.4295   21.0416 C   0  0  0  0  0  0
  -24.3606   -9.4214   21.9189 C   0  0  0  0  0  0
  -23.6295   -8.2240   22.0752 C   0  0  0  0  0  0
  -22.4279   -8.0278   21.3545 C   0  0  0  0  0  0
  -21.9906   -9.0246   20.4642 C   0  0  0  0  0  0
  -22.7222  -10.2133   20.3060 C   0  0  0  0  0  0
  -21.6852   -6.0742   22.5292 C   0  0  0  0  0  0
  -21.4003   -6.5647   23.8224 C   0  0  0  0  0  0
  -21.3661   -5.6798   24.9186 C   0  0  0  0  0  0
  -21.6052   -4.3060   24.7232 C   0  0  0  0  0  0
  -21.8813   -3.8155   23.4349 C   0  0  0  0  0  0
  -21.9190   -4.6975   22.3410 C   0  0  0  0  0  0
  -22.7831  -13.5250   21.1879 C   0  0  0  0  0  0
  -22.1661   -4.2162   21.0988 F   0  0  0  0  0  0
  -21.5637   -3.4545   25.7740 F   0  0  0  0  0  0
  -30.0117  -13.3784   20.4275 N   0  0  0  0  0  0
  -26.2964  -12.9346   20.3331 N   0  0  0  0  0  0
  -25.9293  -11.6506   20.5766 N   0  0  0  0  0  0
  -22.0470  -12.8226   22.0424 N   0  0  0  0  0  0
  -25.4258  -15.1884   20.4106 N   0  0  0  0  0  0
  -31.8329  -14.7041   20.1516 O   0  0  0  0  0  0
  -21.6645   -6.8874   21.4246 O   0  0  0  0  0  0
  -22.3522  -14.5572   20.6750 O   0  0  0  0  0  0
  -24.6201  -31.8657   23.2082 C   0  0  0  0  0  0
  -25.9094  -32.4801   23.8383 C   0  0  1  0  0  0
  -27.2255  -27.3871   20.1132 C   0  0  0  0  0  0
  -25.5948  -33.8600   24.2309 N   0  0  0  0  0  0
  -23.4086  -30.4881   21.5498 C   0  0  2  0  0  0
  -24.8563  -28.9456   20.1177 C   0  0  0  0  0  0
  -22.7439  -29.4642   22.4986 C   0  0  0  0  0  0
  -18.0278  -28.1371   22.8489 C   0  0  0  0  0  0
  -24.1494  -36.7289   23.2631 C   0  0  0  0  0  0
  -25.9419  -30.8133   21.3705 C   0  0  0  0  0  0
  -26.0178  -29.4433   20.7215 C   0  0  0  0  0  0
  -27.2072  -28.6705   20.7198 C   0  0  0  0  0  0
  -26.0501  -26.9149   19.4975 C   0  0  0  0  0  0
  -24.8684  -27.6813   19.5035 C   0  0  0  0  0  0
  -23.6201  -29.8188   20.1652 C   0  0  0  0  0  0
  -25.4111  -36.3087   24.0327 C   0  0  1  0  0  0
  -20.5873  -28.3662   23.1322 C   0  0  2  0  0  0
  -20.6769  -26.9392   22.5439 C   0  0  0  0  0  0
  -19.5751  -26.6372   21.5232 C   0  0  0  0  0  0
  -18.1919  -26.7923   22.1611 C   0  0  0  0  0  0
  -19.1534  -28.8834   23.2896 C   0  0  0  0  0  0
  -18.9452  -30.1433   23.8922 C   0  0  0  0  0  0
  -17.6458  -30.6576   24.0564 C   0  0  0  0  0  0
  -25.9066  -34.9457   23.5113 C   0  0  0  0  0  0
  -16.5351  -29.9074   23.6337 C   0  0  0  0  0  0
  -16.7266  -28.6489   23.0360 C   0  0  0  0  0  0
  -26.4498  -31.6594   25.0733 C   0  0  0  0  0  0
  -25.3742  -31.3728   26.1472 C   0  0  0  0  0  0
  -27.0312  -30.3024   24.6139 C   0  0  0  0  0  0
  -27.6092  -32.4303   25.7464 C   0  0  0  0  0  0
  -27.5592  -37.1756   24.8433 C   0  0  0  0  0  0
  -21.4161  -29.3023   22.3727 N   0  0  0  0  0  0
  -26.4274  -37.3796   23.9447 N   0  0  0  0  0  0
  -24.6749  -31.0714   22.1011 N   0  0  0  0  0  0
  -23.4202  -28.8204   23.3056 O   0  0  0  0  0  0
  -28.3606  -26.5973   20.0669 O   0  0  0  0  0  0
  -26.5606  -34.8905   22.4661 O   0  0  0  0  0  0
  -23.5385  -32.1441   23.7465 O   0  0  0  0  0  0
  -29.5846  -18.1461   20.5920 C   0  0  0  0  0  0
  -31.5451  -17.3053   21.7455 C   0  0  0  0  0  0
  -31.2363  -19.7356   21.4728 C   0  0  0  0  0  0
  -30.3471  -17.0286   21.0569 C   0  0  0  0  0  0
  -30.0141  -19.5012   20.7774 C   0  0  0  0  0  0
  -31.9836  -18.6265   21.9465 C   0  0  0  0  0  0
  -33.0681  -21.4715   21.5932 C   0  0  0  0  0  0
  -31.7748  -21.1053   21.6328 C   0  0  0  0  0  0
  -27.9587  -24.1523   20.8942 C   0  0  0  0  0  0
  -28.9294  -23.0433   20.3520 C   0  0  0  0  0  0
  -28.5028  -25.6106   21.1175 C   0  0  0  0  0  0
  -28.6600  -21.5822   20.8810 C   0  0  0  0  0  0
  -29.9131  -15.6543   20.8809 N   0  0  0  0  0  0
  -29.3279  -20.5352   20.1317 O   0  0  0  0  0  0
  -33.1459  -18.8127   22.6195 F   0  0  0  0  0  0
  -31.4689  -12.4745   19.1414 H   0  0  0  0  0  0
  -30.3502  -11.3635   19.8813 H   0  0  0  0  0  0
  -29.7546  -11.7538   17.4655 H   0  0  0  0  0  0
  -29.6428  -13.4728   17.7529 H   0  0  0  0  0  0
  -27.8537  -11.2881   18.8651 H   0  0  0  0  0  0
  -27.3655  -12.5754   17.7950 H   0  0  0  0  0  0
  -27.6720  -14.2485   19.5261 H   0  0  0  0  0  0
  -28.6899  -12.0400   21.3801 H   0  0  0  0  0  0
  -28.4492  -13.7002   21.8426 H   0  0  0  0  0  0
  -25.2739   -9.5712   22.4774 H   0  0  0  0  0  0
  -24.0027   -7.4632   22.7455 H   0  0  0  0  0  0
  -21.0845   -8.8747   19.8934 H   0  0  0  0  0  0
  -22.3666  -10.9680   19.6179 H   0  0  0  0  0  0
  -21.1979   -7.6151   23.9732 H   0  0  0  0  0  0
  -21.1498   -6.0528   25.9092 H   0  0  0  0  0  0
  -22.0588   -2.7617   23.2851 H   0  0  0  0  0  0
  -22.4086  -11.9889   22.4810 H   0  0  0  0  0  0
  -21.1082  -13.1241   22.2625 H   0  0  0  0  0  0
  -24.6563  -15.8407   20.5147 H   0  0  0  0  0  0
  -26.2695  -15.6292   20.0679 H   0  0  0  0  0  0
  -26.7166  -32.5485   23.1138 H   0  0  0  0  0  0
  -25.0128  -33.9768   25.0474 H   0  0  0  0  0  0
  -22.6993  -31.3066   21.4082 H   0  0  0  0  0  0
  -23.3774  -35.9599   23.3248 H   0  0  0  0  0  0
  -24.3606  -36.8965   22.2057 H   0  0  0  0  0  0
  -23.7210  -37.6458   23.6688 H   0  0  0  0  0  0
  -26.0616  -31.5761   20.5999 H   0  0  0  0  0  0
  -26.8285  -30.8691   21.9912 H   0  0  0  0  0  0
  -28.1034  -29.0489   21.1910 H   0  0  0  0  0  0
  -26.0487  -25.9491   19.0133 H   0  0  0  0  0  0
  -23.9745  -27.2943   19.0339 H   0  0  0  0  0  0
  -23.7265  -30.5942   19.4060 H   0  0  0  0  0  0
  -22.7443  -29.2394   19.8673 H   0  0  0  0  0  0
  -25.1276  -36.1933   25.0815 H   0  0  0  0  0  0
  -20.9936  -28.3224   24.1452 H   0  0  0  0  0  0
  -20.5685  -26.2265   23.3628 H   0  0  0  0  0  0
  -21.6633  -26.7432   22.1223 H   0  0  0  0  0  0
  -19.6925  -25.6291   21.1240 H   0  0  0  0  0  0
  -19.6720  -27.3200   20.6782 H   0  0  0  0  0  0
  -17.4213  -26.6721   21.3978 H   0  0  0  0  0  0
  -18.0267  -26.0036   22.8972 H   0  0  0  0  0  0
  -19.7929  -30.7233   24.2310 H   0  0  0  0  0  0
  -17.5011  -31.6267   24.5138 H   0  0  0  0  0  0
  -15.5350  -30.2980   23.7650 H   0  0  0  0  0  0
  -15.8661  -28.0814   22.7085 H   0  0  0  0  0  0
  -24.5988  -30.6986   25.7822 H   0  0  0  0  0  0
  -24.8839  -32.2876   26.4804 H   0  0  0  0  0  0
  -25.8076  -30.9007   27.0300 H   0  0  0  0  0  0
  -26.2849  -29.6788   24.1204 H   0  0  0  0  0  0
  -27.4085  -29.7274   25.4604 H   0  0  0  0  0  0
  -27.8691  -30.4326   23.9286 H   0  0  0  0  0  0
  -27.2769  -33.3626   26.2031 H   0  0  0  0  0  0
  -28.3883  -32.6824   25.0262 H   0  0  0  0  0  0
  -28.0783  -31.8437   26.5371 H   0  0  0  0  0  0
  -28.2522  -38.0141   24.7615 H   0  0  0  0  0  0
  -28.1174  -36.2676   24.6066 H   0  0  0  0  0  0
  -27.2341  -37.1172   25.8838 H   0  0  0  0  0  0
  -20.9352  -29.8719   21.6906 H   0  0  0  0  0  0
  -26.0146  -38.2851   24.1558 H   0  0  0  0  0  0
  -28.6693  -17.9704   20.0455 H   0  0  0  0  0  0
  -32.1533  -16.5023   22.1348 H   0  0  0  0  0  0
  -33.3539  -22.5029   21.7521 H   0  0  0  0  0  0
  -33.8633  -20.7650   21.4025 H   0  0  0  0  0  0
  -31.0609  -21.8822   21.8416 H   0  0  0  0  0  0
  -27.6342  -23.8130   21.8789 H   0  0  0  0  0  0
  -27.0444  -24.1764   20.3013 H   0  0  0  0  0  0
  -29.9555  -23.3215   20.5858 H   0  0  0  0  0  0
  -28.8762  -23.0450   19.2623 H   0  0  0  0  0  0
  -29.5600  -25.5621   21.3821 H   0  0  0  0  0  0
  -28.0178  -26.0077   22.0111 H   0  0  0  0  0  0
  -27.5929  -21.3795   20.7945 H   0  0  0  0  0  0
  -28.8750  -21.5139   21.9484 H   0  0  0  0  0  0
  -28.9280  -15.4726   21.0006 H   0  0  0  0  0  0
  1 25  1  0  0  0
  1 30  2  0  0  0
  1 83  1  0  0  0
  2  3  1  0  0  0
  2 25  1  0  0  0
  2 86  1  0  0  0
  2 87  1  0  0  0
  3  4  1  0  0  0
  3 88  1  0  0  0
  3 89  1  0  0  0
  4  5  1  0  0  0
  4 90  1  0  0  0
  4 91  1  0  0  0
  5  6  1  0  0  0
  5 26  1  0  0  0
  5 92  1  0  0  0
  6 25  1  0  0  0
  6 93  1  0  0  0
  6 94  1  0  0  0
  7  8  2  0  0  0
  7 26  1  0  0  0
  7 29  1  0  0  0
  8  9  1  0  0  0
  8 22  1  0  0  0
  9 10  1  0  0  0
  9 27  2  0  0  0
 10 11  2  0  0  0
 10 15  1  0  0  0
 11 12  1  0  0  0
 11 95  1  0  0  0
 12 13  2  0  0  0
 12 96  1  0  0  0
 13 14  1  0  0  0
 13 31  1  0  0  0
 14 15  2  0  0  0
 14 97  1  0  0  0
 15 98  1  0  0  0
 16 17  2  0  0  0
 16 21  1  0  0  0
 16 31  1  0  0  0
 17 18  1  0  0  0
 17 99  1  0  0  0
 18 19  2  0  0  0
 18100  1  0  0  0
 19 20  1  0  0  0
 19 24  1  0  0  0
 20 21  2  0  0  0
 20101  1  0  0  0
 21 23  1  0  0  0
 22 28  1  0  0  0
 22 32  2  0  0  0
 26 27  1  0  0  0
 28102  1  0  0  0
 28103  1  0  0  0
 29104  1  0  0  0
 29105  1  0  0  0
 33 34  1  0  0  0
 33 66  1  0  0  0
 33 70  2  0  0  0
 34 36  1  0  0  0
 34 59  1  0  0  0
 34106  1  0  0  0
 35 44  2  0  0  0
 35 45  1  0  0  0
 35 68  1  0  0  0
 36 56  1  0  0  0
 36107  1  0  0  0
 37 39  1  0  0  0
 37 47  1  0  0  0
 37 66  1  0  0  0
 37108  1  0  0  0
 38 43  2  0  0  0
 38 46  1  0  0  0
 38 47  1  0  0  0
 39 64  1  0  0  0
 39 67  2  0  0  0
 40 52  1  0  0  0
 40 53  2  0  0  0
 40 58  1  0  0  0
 41109  1  0  0  0
 41110  1  0  0  0
 41111  1  0  0  0
 41 48  1  0  0  0
 42 43  1  0  0  0
 42 66  1  0  0  0
 42112  1  0  0  0
 42113  1  0  0  0
 43 44  1  0  0  0
 44114  1  0  0  0
 45 46  2  0  0  0
 45115  1  0  0  0
 46116  1  0  0  0
 47117  1  0  0  0
 47118  1  0  0  0
 48 56  1  0  0  0
 48 65  1  0  0  0
 48119  1  0  0  0
 49 50  1  0  0  0
 49 53  1  0  0  0
 49 64  1  0  0  0
 49120  1  0  0  0
 50 51  1  0  0  0
 50121  1  0  0  0
 50122  1  0  0  0
 51 52  1  0  0  0
 51123  1  0  0  0
 51124  1  0  0  0
 52125  1  0  0  0
 52126  1  0  0  0
 53 54  1  0  0  0
 54 55  2  0  0  0
 54127  1  0  0  0
 55 57  1  0  0  0
 55128  1  0  0  0
 56 69  2  0  0  0
 57 58  2  0  0  0
 57129  1  0  0  0
 58130  1  0  0  0
 59 60  1  0  0  0
 59 61  1  0  0  0
 59 62  1  0  0  0
 60131  1  0  0  0
 60132  1  0  0  0
 60133  1  0  0  0
 61134  1  0  0  0
 61135  1  0  0  0
 61136  1  0  0  0
 62137  1  0  0  0
 62138  1  0  0  0
 62139  1  0  0  0
 63 65  1  0  0  0
 63140  1  0  0  0
 63141  1  0  0  0
 63142  1  0  0  0
 64143  1  0  0  0
 65144  1  0  0  0
 68 81  1  0  0  0
 71 74  2  0  0  0
 71 75  1  0  0  0
 71145  1  0  0  0
 72 74  1  0  0  0
 72 76  2  0  0  0
 72146  1  0  0  0
 73 75  2  0  0  0
 73 76  1  0  0  0
 73 78  1  0  0  0
 74 83  1  0  0  0
 75 84  1  0  0  0
 76 85  1  0  0  0
 77 78  2  0  0  0
 77147  1  0  0  0
 77148  1  0  0  0
 78149  1  0  0  0
 79 80  1  0  0  0
 79 81  1  0  0  0
 79150  1  0  0  0
 79151  1  0  0  0
 80 82  1  0  0  0
 80152  1  0  0  0
 80153  1  0  0  0
 81154  1  0  0  0
 81155  1  0  0  0
 82 84  1  0  0  0
 82156  1  0  0  0
 82157  1  0  0  0
 83158  1  0  0  0
M  ISO  4   1 100  68 101  81 101  83 100
M  END
> <chiral flag>
0

> <version>
0

> <s_m_source_file>
/data/baiqing/PycharmProjects/Reinvent-master-3.2/result/LINK_invent/BTK/process_docking_weight1_custom_product_contain_oxygen_bond_distance_aromatic_linkinvent_7_9_3/rearranged_h_0128.sdf

> <i_m_source_file_index>
84

> <r_mmod_Potential_Energy-OPLS-2005>
125.316108703613

> <r_mmod_Stretch_Energy-OPLS-2005>
56.5312690734863

> <r_mmod_Bend_Energy-OPLS-2005>
120.644401550293

> <r_mmod_Torsional_Energy-OPLS-2005>
297.415588378906

> <r_mmod_Improper_Torsional_Energy-OPLS-2005>
5.87572431564331

> <r_mmod_Van_der_Waal_Energy-OPLS-2005>
146.431884765625

> <r_mmod_Electrostatic_Energy-OPLS-2005>
-321.024017333984

> <r_mmod_Solvation_Energy-OPLS-2005>
-207.412033081055

> <b_mmod_Minimization_Converged-OPLS-2005>
0

> <r_mmod_RMS_Derivative-OPLS-2005>
2.23601007461548

$$$$
84
                    3D
 Structure written by MMmdl.
152160  0  0  1  0            999 V2000
  -30.6612  -14.6362   20.4809 C   0  0  0  0  0  0
  -30.4166  -12.3827   19.4637 C   0  0  0  0  0  0
  -29.5020  -12.5075   18.2273 C   0  0  0  0  0  0
  -28.0275  -12.3450   18.6347 C   0  0  0  0  0  0
  -27.6453  -13.2280   19.8529 C   0  0  2  0  0  0
  -28.6866  -13.1215   20.9870 C   0  0  0  0  0  0
  -25.2528  -13.8196   20.5669 C   0  0  0  0  0  0
  -24.1807  -13.0456   20.9185 C   0  0  0  0  0  0
  -24.6382  -11.6927   20.8716 C   0  0  0  0  0  0
  -23.9054  -10.4303   21.0391 C   0  0  0  0  0  0
  -24.3619   -9.4212   21.9150 C   0  0  0  0  0  0
  -23.6294   -8.2253   22.0741 C   0  0  0  0  0  0
  -22.4266   -8.0286   21.3558 C   0  0  0  0  0  0
  -21.9897   -9.0249   20.4653 C   0  0  0  0  0  0
  -22.7230  -10.2123   20.3046 C   0  0  0  0  0  0
  -21.6858   -6.0731   22.5273 C   0  0  0  0  0  0
  -21.4014   -6.5628   23.8206 C   0  0  0  0  0  0
  -21.3665   -5.6777   24.9162 C   0  0  0  0  0  0
  -21.6054   -4.3046   24.7208 C   0  0  0  0  0  0
  -21.8819   -3.8145   23.4326 C   0  0  0  0  0  0
  -21.9194   -4.6962   22.3387 C   0  0  0  0  0  0
  -22.7836  -13.5240   21.1847 C   0  0  0  0  0  0
  -22.1663   -4.2134   21.0969 F   0  0  0  0  0  0
  -21.5628   -3.4535   25.7731 F   0  0  0  0  0  0
  -30.0057  -13.4321   20.4225 N   0  0  0  0  0  0
  -26.2954  -12.9392   20.3271 N   0  0  0  0  0  0
  -25.9308  -11.6539   20.5716 N   0  0  0  0  0  0
  -22.0492  -12.8242   22.0416 N   0  0  0  0  0  0
  -25.4265  -15.1913   20.4127 N   0  0  0  0  0  0
  -31.8301  -14.6938   20.0910 O   0  0  0  0  0  0
  -21.6650   -6.8871   21.4241 O   0  0  0  0  0  0
  -22.3517  -14.5535   20.6683 O   0  0  0  0  0  0
  -24.6291  -31.8611   23.2004 C   0  0  0  0  0  0
  -25.9128  -32.4788   23.8335 C   0  0  1  0  0  0
  -27.2067  -27.2871   20.1235 C   0  0  0  0  0  0
  -25.5944  -33.8576   24.2280 N   0  0  0  0  0  0
  -23.4217  -30.4892   21.5426 C   0  0  2  0  0  0
  -24.8695  -28.9473   20.1076 C   0  0  0  0  0  0
  -22.7484  -29.4653   22.4891 C   0  0  0  0  0  0
  -18.0313  -28.1381   22.8510 C   0  0  0  0  0  0
  -24.1494  -36.7281   23.2637 C   0  0  0  0  0  0
  -25.9676  -30.7829   21.3764 C   0  0  0  0  0  0
  -26.0419  -29.4087   20.7193 C   0  0  0  0  0  0
  -27.2158  -28.5903   20.7201 C   0  0  0  0  0  0
  -26.0187  -26.9111   19.4523 C   0  0  0  0  0  0
  -24.8614  -27.7035   19.4664 C   0  0  0  0  0  0
  -23.6383  -29.8291   20.1572 C   0  0  0  0  0  0
  -25.4110  -36.3069   24.0329 C   0  0  1  0  0  0
  -20.5909  -28.3698   23.1267 C   0  0  2  0  0  0
  -20.6795  -26.9419   22.5402 C   0  0  0  0  0  0
  -19.5748  -26.6385   21.5225 C   0  0  0  0  0  0
  -18.1941  -26.7939   22.1650 C   0  0  0  0  0  0
  -19.1560  -28.8857   23.2895 C   0  0  0  0  0  0
  -18.9486  -30.1475   23.8906 C   0  0  0  0  0  0
  -17.6474  -30.6598   24.0570 C   0  0  0  0  0  0
  -25.9049  -34.9444   23.5096 C   0  0  0  0  0  0
  -16.5365  -29.9095   23.6319 C   0  0  0  0  0  0
  -16.7294  -28.6496   23.0362 C   0  0  0  0  0  0
  -26.4503  -31.6584   25.0690 C   0  0  0  0  0  0
  -25.3734  -31.3724   26.1415 C   0  0  0  0  0  0
  -27.0341  -30.3011   24.6129 C   0  0  0  0  0  0
  -27.6063  -32.4306   25.7480 C   0  0  0  0  0  0
  -27.5570  -37.1794   24.8468 C   0  0  0  0  0  0
  -21.4194  -29.3068   22.3655 N   0  0  0  0  0  0
  -26.4282  -37.3773   23.9426 N   0  0  0  0  0  0
  -24.6924  -31.0610   22.0973 N   0  0  0  0  0  0
  -23.4197  -28.8200   23.2966 O   0  0  0  0  0  0
  -28.2736  -26.3635   20.2239 O   0  0  0  0  0  0
  -26.5596  -34.8914   22.4653 O   0  0  0  0  0  0
  -23.5444  -32.1419   23.7329 O   0  0  0  0  0  0
  -29.7482  -19.0819   18.8715 C   0  0  0  0  0  0
  -29.3960  -20.4583   18.8585 C   0  0  0  0  0  0
  -29.1615  -19.0247   21.1730 C   0  0  0  0  0  0
  -29.6243  -18.2929   20.0454 C   0  0  0  0  0  0
  -28.9398  -21.0971   20.0277 C   0  0  0  0  0  0
  -30.0394  -16.8126   19.9818 C   0  0  0  0  0  0
  -27.2008  -24.7857   21.7973 C   0  0  0  0  0  0
  -28.9808  -23.7161   20.3219 C   0  0  0  0  0  0
  -27.9188  -24.9162   20.4364 C   0  0  2  0  0  0
  -28.8460  -20.3712   21.1734 N   0  0  0  0  0  0
  -29.9100  -15.8044   20.8047 N   0  0  0  0  0  0
  -28.3569  -22.4025   19.9530 N   0  0  0  0  0  0
  -31.4625  -12.4599   19.1663 H   0  0  0  0  0  0
  -30.3128  -11.3944   19.9155 H   0  0  0  0  0  0
  -29.7720  -11.7585   17.4830 H   0  0  0  0  0  0
  -29.6444  -13.4812   17.7515 H   0  0  0  0  0  0
  -27.8685  -11.2931   18.8710 H   0  0  0  0  0  0
  -27.3761  -12.5666   17.7894 H   0  0  0  0  0  0
  -27.6550  -14.2590   19.4986 H   0  0  0  0  0  0
  -28.6847  -12.1165   21.4152 H   0  0  0  0  0  0
  -28.4364  -13.7996   21.8045 H   0  0  0  0  0  0
  -25.2754   -9.5679   22.4726 H   0  0  0  0  0  0
  -24.0001   -7.4631   22.7448 H   0  0  0  0  0  0
  -21.0828   -8.8776   19.8948 H   0  0  0  0  0  0
  -22.3683  -10.9668   19.6168 H   0  0  0  0  0  0
  -21.2008   -7.6132   23.9699 H   0  0  0  0  0  0
  -21.1495   -6.0509   25.9059 H   0  0  0  0  0  0
  -22.0597   -2.7605   23.2835 H   0  0  0  0  0  0
  -22.4154  -11.9934   22.4838 H   0  0  0  0  0  0
  -21.1105  -13.1269   22.2612 H   0  0  0  0  0  0
  -24.6711  -15.8551   20.5350 H   0  0  0  0  0  0
  -26.3005  -15.6278   20.1458 H   0  0  0  0  0  0
  -26.7190  -32.5479   23.1077 H   0  0  0  0  0  0
  -25.0113  -33.9716   25.0439 H   0  0  0  0  0  0
  -22.7173  -31.3119   21.3989 H   0  0  0  0  0  0
  -23.3749  -35.9628   23.3313 H   0  0  0  0  0  0
  -24.3564  -36.8868   22.2047 H   0  0  0  0  0  0
  -23.7273  -37.6491   23.6646 H   0  0  0  0  0  0
  -26.0920  -31.5400   20.6016 H   0  0  0  0  0  0
  -26.8514  -30.8430   21.9975 H   0  0  0  0  0  0
  -28.1064  -28.9312   21.2297 H   0  0  0  0  0  0
  -25.9352  -25.9801   18.9161 H   0  0  0  0  0  0
  -23.9651  -27.3497   18.9759 H   0  0  0  0  0  0
  -23.7582  -30.6043   19.3994 H   0  0  0  0  0  0
  -22.7602  -29.2569   19.8560 H   0  0  0  0  0  0
  -25.1315  -36.1886   25.0821 H   0  0  0  0  0  0
  -21.0055  -28.3274   24.1359 H   0  0  0  0  0  0
  -20.5693  -26.2323   23.3608 H   0  0  0  0  0  0
  -21.6658  -26.7426   22.1193 H   0  0  0  0  0  0
  -19.6882  -25.6296   21.1246 H   0  0  0  0  0  0
  -19.6659  -27.3212   20.6763 H   0  0  0  0  0  0
  -17.4209  -26.6719   21.4051 H   0  0  0  0  0  0
  -18.0322  -26.0075   22.9035 H   0  0  0  0  0  0
  -19.7945  -30.7319   24.2256 H   0  0  0  0  0  0
  -17.5010  -31.6273   24.5187 H   0  0  0  0  0  0
  -15.5363  -30.3002   23.7622 H   0  0  0  0  0  0
  -15.8699  -28.0817   22.7066 H   0  0  0  0  0  0
  -24.5919  -30.7069   25.7739 H   0  0  0  0  0  0
  -24.8920  -32.2901   26.4810 H   0  0  0  0  0  0
  -25.8047  -30.8915   27.0206 H   0  0  0  0  0  0
  -26.2907  -29.6777   24.1152 H   0  0  0  0  0  0
  -27.4064  -29.7241   25.4608 H   0  0  0  0  0  0
  -27.8773  -30.4317   23.9337 H   0  0  0  0  0  0
  -27.2676  -33.3622   26.2036 H   0  0  0  0  0  0
  -28.3901  -32.6834   25.0321 H   0  0  0  0  0  0
  -28.0709  -31.8431   26.5413 H   0  0  0  0  0  0
  -28.2611  -38.0070   24.7502 H   0  0  0  0  0  0
  -28.1043  -36.2603   24.6330 H   0  0  0  0  0  0
  -27.2271  -37.1481   25.8863 H   0  0  0  0  0  0
  -20.9358  -29.8798   21.6889 H   0  0  0  0  0  0
  -26.0144  -38.2831   24.1442 H   0  0  0  0  0  0
  -30.0933  -18.6240   17.9548 H   0  0  0  0  0  0
  -29.4516  -20.9987   17.9216 H   0  0  0  0  0  0
  -29.0336  -18.5163   22.1173 H   0  0  0  0  0  0
  -30.5463  -16.6151   19.0298 H   0  0  0  0  0  0
  -26.4685  -25.5727   21.9734 H   0  0  0  0  0  0
  -27.9120  -24.8148   22.6238 H   0  0  0  0  0  0
  -26.6623  -23.8398   21.8601 H   0  0  0  0  0  0
  -29.5527  -23.6069   21.2446 H   0  0  0  0  0  0
  -29.7036  -23.9583   19.5414 H   0  0  0  0  0  0
  -27.2062  -24.6453   19.6654 H   0  0  0  0  0  0
  -27.9663  -22.5281   19.0254 H   0  0  0  0  0  0
  1 25  1  0  0  0
  1 30  2  0  0  0
  1 81  1  0  0  0
  2  3  1  0  0  0
  2 25  1  0  0  0
  2 83  1  0  0  0
  2 84  1  0  0  0
  3  4  1  0  0  0
  3 85  1  0  0  0
  3 86  1  0  0  0
  4  5  1  0  0  0
  4 87  1  0  0  0
  4 88  1  0  0  0
  5  6  1  0  0  0
  5 26  1  0  0  0
  5 89  1  0  0  0
  6 25  1  0  0  0
  6 90  1  0  0  0
  6 91  1  0  0  0
  7  8  2  0  0  0
  7 26  1  0  0  0
  7 29  1  0  0  0
  8  9  1  0  0  0
  8 22  1  0  0  0
  9 10  1  0  0  0
  9 27  2  0  0  0
 10 11  2  0  0  0
 10 15  1  0  0  0
 11 12  1  0  0  0
 11 92  1  0  0  0
 12 13  2  0  0  0
 12 93  1  0  0  0
 13 14  1  0  0  0
 13 31  1  0  0  0
 14 15  2  0  0  0
 14 94  1  0  0  0
 15 95  1  0  0  0
 16 17  2  0  0  0
 16 21  1  0  0  0
 16 31  1  0  0  0
 17 18  1  0  0  0
 17 96  1  0  0  0
 18 19  2  0  0  0
 18 97  1  0  0  0
 19 20  1  0  0  0
 19 24  1  0  0  0
 20 21  2  0  0  0
 20 98  1  0  0  0
 21 23  1  0  0  0
 22 28  1  0  0  0
 22 32  2  0  0  0
 26 27  1  0  0  0
 28 99  1  0  0  0
 28100  1  0  0  0
 29101  1  0  0  0
 29102  1  0  0  0
 33 34  1  0  0  0
 33 66  1  0  0  0
 33 70  2  0  0  0
 34 36  1  0  0  0
 34 59  1  0  0  0
 34103  1  0  0  0
 35 44  2  0  0  0
 35 45  1  0  0  0
 35 68  1  0  0  0
 36 56  1  0  0  0
 36104  1  0  0  0
 37 39  1  0  0  0
 37 47  1  0  0  0
 37 66  1  0  0  0
 37105  1  0  0  0
 38 43  2  0  0  0
 38 46  1  0  0  0
 38 47  1  0  0  0
 39 64  1  0  0  0
 39 67  2  0  0  0
 40 52  1  0  0  0
 40 53  2  0  0  0
 40 58  1  0  0  0
 41106  1  0  0  0
 41107  1  0  0  0
 41108  1  0  0  0
 41 48  1  0  0  0
 42 43  1  0  0  0
 42 66  1  0  0  0
 42109  1  0  0  0
 42110  1  0  0  0
 43 44  1  0  0  0
 44111  1  0  0  0
 45 46  2  0  0  0
 45112  1  0  0  0
 46113  1  0  0  0
 47114  1  0  0  0
 47115  1  0  0  0
 48 56  1  0  0  0
 48 65  1  0  0  0
 48116  1  0  0  0
 49 50  1  0  0  0
 49 53  1  0  0  0
 49 64  1  0  0  0
 49117  1  0  0  0
 50 51  1  0  0  0
 50118  1  0  0  0
 50119  1  0  0  0
 51 52  1  0  0  0
 51120  1  0  0  0
 51121  1  0  0  0
 52122  1  0  0  0
 52123  1  0  0  0
 53 54  1  0  0  0
 54 55  2  0  0  0
 54124  1  0  0  0
 55 57  1  0  0  0
 55125  1  0  0  0
 56 69  2  0  0  0
 57 58  2  0  0  0
 57126  1  0  0  0
 58127  1  0  0  0
 59 60  1  0  0  0
 59 61  1  0  0  0
 59 62  1  0  0  0
 60128  1  0  0  0
 60129  1  0  0  0
 60130  1  0  0  0
 61131  1  0  0  0
 61132  1  0  0  0
 61133  1  0  0  0
 62134  1  0  0  0
 62135  1  0  0  0
 62136  1  0  0  0
 63 65  1  0  0  0
 63137  1  0  0  0
 63138  1  0  0  0
 63139  1  0  0  0
 64140  1  0  0  0
 65141  1  0  0  0
 68 79  1  0  0  0
 71 72  2  0  0  0
 71 74  1  0  0  0
 71142  1  0  0  0
 72 75  1  0  0  0
 72143  1  0  0  0
 73 74  2  0  0  0
 73 80  1  0  0  0
 73144  1  0  0  0
 74 76  1  0  0  0
 75 80  2  0  0  0
 75 82  1  0  0  0
 76 81  2  0  0  0
 76145  1  0  0  0
 77146  1  0  0  0
 77147  1  0  0  0
 77148  1  0  0  0
 77 79  1  0  0  0
 78 79  1  0  0  0
 78 82  1  0  0  0
 78149  1  0  0  0
 78150  1  0  0  0
 79151  1  0  0  0
 82152  1  0  0  0
M  ISO  4   1 100  68 101  79 101  81 100
M  END
> <chiral flag>
0

> <version>
0

> <s_m_source_file>
/data/baiqing/PycharmProjects/Reinvent-master-3.2/result/LINK_invent/BTK/process_docking_weight1_custom_product_contain_oxygen_bond_distance_aromatic_linkinvent_7_9_3/rearranged_h_0128.sdf

> <i_m_source_file_index>
85

> <r_mmod_Potential_Energy-OPLS-2005>
-62.4808959960938

> <r_mmod_Stretch_Energy-OPLS-2005>
91.4867095947266

> <r_mmod_Bend_Energy-OPLS-2005>
161.128494262695

> <r_mmod_Torsional_Energy-OPLS-2005>
211.596008300781

> <r_mmod_Improper_Torsional_Energy-OPLS-2005>
10.6404657363892

> <r_mmod_Van_der_Waal_Energy-OPLS-2005>
160.111846923828

> <r_mmod_Electrostatic_Energy-OPLS-2005>
-544.700317382812

> <r_mmod_Solvation_Energy-OPLS-2005>
-215.209213256836

> <b_mmod_Minimization_Converged-OPLS-2005>
0

> <r_mmod_RMS_Derivative-OPLS-2005>
3.68502044677734

$$$$
85
                    3D
 Structure written by MMmdl.
162170  0  0  1  0            999 V2000
  -30.7695  -14.3577   20.6624 C   0  0  0  0  0  0
  -30.4104  -12.2755   19.3970 C   0  0  0  0  0  0
  -29.4833  -12.5215   18.1929 C   0  0  0  0  0  0
  -28.0057  -12.3883   18.6071 C   0  0  0  0  0  0
  -27.6668  -13.2044   19.8829 C   0  0  2  0  0  0
  -28.7051  -12.9426   20.9961 C   0  0  0  0  0  0
  -25.2607  -13.8157   20.5677 C   0  0  0  0  0  0
  -24.1850  -13.0437   20.9166 C   0  0  0  0  0  0
  -24.6397  -11.6903   20.8722 C   0  0  0  0  0  0
  -23.9059  -10.4290   21.0398 C   0  0  0  0  0  0
  -24.3614   -9.4207   21.9180 C   0  0  0  0  0  0
  -23.6289   -8.2244   22.0754 C   0  0  0  0  0  0
  -22.4269   -8.0283   21.3546 C   0  0  0  0  0  0
  -21.9903   -9.0252   20.4644 C   0  0  0  0  0  0
  -22.7231  -10.2132   20.3048 C   0  0  0  0  0  0
  -21.6854   -6.0736   22.5279 C   0  0  0  0  0  0
  -21.4012   -6.5642   23.8211 C   0  0  0  0  0  0
  -21.3655   -5.6798   24.9175 C   0  0  0  0  0  0
  -21.6046   -4.3061   24.7227 C   0  0  0  0  0  0
  -21.8819   -3.8149   23.4349 C   0  0  0  0  0  0
  -21.9190   -4.6963   22.3404 C   0  0  0  0  0  0
  -22.7876  -13.5238   21.1837 C   0  0  0  0  0  0
  -22.1661   -4.2148   21.0981 F   0  0  0  0  0  0
  -21.5625   -3.4544   25.7738 F   0  0  0  0  0  0
  -30.0462  -13.2284   20.4545 N   0  0  0  0  0  0
  -26.3051  -12.9325   20.3399 N   0  0  0  0  0  0
  -25.9323  -11.6485   20.5766 N   0  0  0  0  0  0
  -22.0522  -12.8216   22.0387 N   0  0  0  0  0  0
  -25.4353  -15.1873   20.4071 N   0  0  0  0  0  0
  -31.8163  -14.6093   20.0544 O   0  0  0  0  0  0
  -21.6639   -6.8874   21.4241 O   0  0  0  0  0  0
  -22.3556  -14.5547   20.6699 O   0  0  0  0  0  0
  -24.6121  -31.8703   23.2120 C   0  0  0  0  0  0
  -25.9023  -32.4837   23.8407 C   0  0  1  0  0  0
  -27.2348  -27.4595   20.0838 C   0  0  0  0  0  0
  -25.5893  -33.8637   24.2338 N   0  0  0  0  0  0
  -23.3984  -30.4950   21.5528 C   0  0  2  0  0  0
  -24.8423  -28.9651   20.1148 C   0  0  0  0  0  0
  -22.7395  -29.4669   22.4998 C   0  0  0  0  0  0
  -18.0270  -28.1384   22.8500 C   0  0  0  0  0  0
  -24.1485  -36.7316   23.2638 C   0  0  0  0  0  0
  -25.9253  -30.8434   21.3611 C   0  0  0  0  0  0
  -26.0020  -29.4807   20.7062 C   0  0  0  0  0  0
  -27.2001  -28.7352   20.6867 C   0  0  0  0  0  0
  -26.0544  -26.9541   19.4876 C   0  0  0  0  0  0
  -24.8622  -27.6996   19.5046 C   0  0  0  0  0  0
  -23.6042  -29.8294   20.1663 C   0  0  0  0  0  0
  -25.4106  -36.3121   24.0340 C   0  0  1  0  0  0
  -20.5860  -28.3657   23.1335 C   0  0  2  0  0  0
  -20.6757  -26.9397   22.5430 C   0  0  0  0  0  0
  -19.5738  -26.6391   21.5222 C   0  0  0  0  0  0
  -18.1914  -26.7935   22.1627 C   0  0  0  0  0  0
  -19.1520  -28.8837   23.2917 C   0  0  0  0  0  0
  -18.9447  -30.1445   23.8920 C   0  0  0  0  0  0
  -17.6451  -30.6590   24.0573 C   0  0  0  0  0  0
  -25.9033  -34.9486   23.5135 C   0  0  0  0  0  0
  -16.5341  -29.9097   23.6328 C   0  0  0  0  0  0
  -16.7261  -28.6516   23.0347 C   0  0  0  0  0  0
  -26.4453  -31.6613   25.0728 C   0  0  0  0  0  0
  -25.3728  -31.3733   26.1486 C   0  0  0  0  0  0
  -27.0261  -30.3055   24.6086 C   0  0  0  0  0  0
  -27.6034  -32.4325   25.7485 C   0  0  0  0  0  0
  -27.5584  -37.1812   24.8461 C   0  0  0  0  0  0
  -21.4127  -29.3033   22.3745 N   0  0  0  0  0  0
  -26.4294  -37.3805   23.9411 N   0  0  0  0  0  0
  -24.6637  -31.0830   22.1007 N   0  0  0  0  0  0
  -23.4182  -28.8211   23.3027 O   0  0  0  0  0  0
  -28.4192  -26.7567   20.0950 O   0  0  0  0  0  0
  -26.5590  -34.8931   22.4692 O   0  0  0  0  0  0
  -23.5320  -32.1438   23.7534 O   0  0  0  0  0  0
  -32.3570  -18.6743   22.7748 C   0  0  0  0  0  0
  -31.8833  -16.3044   23.0114 C   0  0  0  0  0  0
  -31.3900  -18.7841   21.7520 C   0  0  0  0  0  0
  -30.6382  -17.6401   21.3629 C   0  0  0  0  0  0
  -30.9244  -16.3911   21.9802 C   0  0  0  0  0  0
  -32.5972  -17.4453   23.4100 C   0  0  0  0  0  0
  -29.3918  -23.2285   20.8996 C   0  0  0  0  0  0
  -30.3886  -22.5122   21.4507 C   0  0  0  0  0  0
  -29.5564  -24.6411   20.5146 C   0  0  0  0  0  0
  -30.0512  -17.5597   18.8667 C   0  0  0  0  0  0
  -31.2149  -20.1490   21.0972 C   0  0  0  0  0  0
  -29.5392  -17.7456   20.3028 C   0  0  0  0  0  0
  -30.2620  -21.0632   21.8792 C   0  0  0  0  0  0
  -28.3233  -25.3398   19.9338 C   0  0  0  0  0  0
  -30.2740  -15.2010   21.5776 N   0  0  0  0  0  0
  -30.6195  -25.2607   20.6424 O   0  0  0  0  0  0
  -33.5245  -17.3586   24.3932 F   0  0  0  0  0  0
  -31.4558  -12.3602   19.0949 H   0  0  0  0  0  0
  -30.2959  -11.2551   19.7658 H   0  0  0  0  0  0
  -29.7104  -11.8166   17.3921 H   0  0  0  0  0  0
  -29.6649  -13.5174   17.7858 H   0  0  0  0  0  0
  -27.8011  -11.3307   18.7775 H   0  0  0  0  0  0
  -27.3571  -12.6948   17.7856 H   0  0  0  0  0  0
  -27.7263  -14.2595   19.6158 H   0  0  0  0  0  0
  -28.6635  -11.8988   21.3123 H   0  0  0  0  0  0
  -28.4612  -13.5202   21.8880 H   0  0  0  0  0  0
  -25.2761   -9.5682   22.4751 H   0  0  0  0  0  0
  -23.9999   -7.4634   22.7469 H   0  0  0  0  0  0
  -21.0839   -8.8764   19.8949 H   0  0  0  0  0  0
  -22.3691  -10.9667   19.6150 H   0  0  0  0  0  0
  -21.2010   -7.6150   23.9709 H   0  0  0  0  0  0
  -21.1475   -6.0533   25.9075 H   0  0  0  0  0  0
  -22.0601   -2.7612   23.2852 H   0  0  0  0  0  0
  -22.4137  -11.9855   22.4742 H   0  0  0  0  0  0
  -21.1145  -13.1237   22.2615 H   0  0  0  0  0  0
  -24.6743  -15.8493   20.5104 H   0  0  0  0  0  0
  -26.2953  -15.6195   20.0941 H   0  0  0  0  0  0
  -26.7099  -32.5552   23.1181 H   0  0  0  0  0  0
  -25.0060  -33.9806   25.0494 H   0  0  0  0  0  0
  -22.6863  -31.3117   21.4174 H   0  0  0  0  0  0
  -23.3745  -35.9651   23.3317 H   0  0  0  0  0  0
  -24.3583  -36.8908   22.2050 H   0  0  0  0  0  0
  -23.7235  -37.6528   23.6633 H   0  0  0  0  0  0
  -26.0367  -31.6123   20.5953 H   0  0  0  0  0  0
  -26.8141  -30.8936   21.9785 H   0  0  0  0  0  0
  -28.0970  -29.1339   21.1411 H   0  0  0  0  0  0
  -26.0372  -25.9928   18.9947 H   0  0  0  0  0  0
  -23.9705  -27.2976   19.0429 H   0  0  0  0  0  0
  -23.7117  -30.6063   19.4083 H   0  0  0  0  0  0
  -22.7282  -29.2490   19.8709 H   0  0  0  0  0  0
  -25.1285  -36.1991   25.0836 H   0  0  0  0  0  0
  -20.9959  -28.3217   24.1451 H   0  0  0  0  0  0
  -20.5663  -26.2260   23.3612 H   0  0  0  0  0  0
  -21.6628  -26.7449   22.1219 H   0  0  0  0  0  0
  -19.6894  -25.6309   21.1235 H   0  0  0  0  0  0
  -19.6684  -27.3213   20.6765 H   0  0  0  0  0  0
  -17.4194  -26.6701   21.4019 H   0  0  0  0  0  0
  -18.0300  -26.0073   22.9019 H   0  0  0  0  0  0
  -19.7923  -30.7260   24.2292 H   0  0  0  0  0  0
  -17.5009  -31.6270   24.5177 H   0  0  0  0  0  0
  -15.5342  -30.3010   23.7639 H   0  0  0  0  0  0
  -15.8663  -28.0851   22.7036 H   0  0  0  0  0  0
  -24.5903  -30.7062   25.7852 H   0  0  0  0  0  0
  -24.8904  -32.2891   26.4919 H   0  0  0  0  0  0
  -25.8091  -30.8937   27.0256 H   0  0  0  0  0  0
  -26.2796  -29.6855   24.1107 H   0  0  0  0  0  0
  -27.3996  -29.7260   25.4538 H   0  0  0  0  0  0
  -27.8652  -30.4379   23.9250 H   0  0  0  0  0  0
  -27.2659  -33.3621   26.2085 H   0  0  0  0  0  0
  -28.3831  -32.6892   25.0301 H   0  0  0  0  0  0
  -28.0710  -31.8431   26.5384 H   0  0  0  0  0  0
  -28.2608  -38.0104   24.7515 H   0  0  0  0  0  0
  -28.1071  -36.2638   24.6275 H   0  0  0  0  0  0
  -27.2307  -37.1455   25.8865 H   0  0  0  0  0  0
  -20.9268  -29.8768   21.6992 H   0  0  0  0  0  0
  -26.0184  -38.2883   24.1419 H   0  0  0  0  0  0
  -32.9257  -19.5410   23.0799 H   0  0  0  0  0  0
  -32.0915  -15.3586   23.4902 H   0  0  0  0  0  0
  -28.4263  -22.7750   20.7285 H   0  0  0  0  0  0
  -31.3559  -22.9688   21.6158 H   0  0  0  0  0  0
  -29.2389  -17.6880   18.1506 H   0  0  0  0  0  0
  -30.4659  -16.5647   18.7129 H   0  0  0  0  0  0
  -30.8265  -18.2824   18.6152 H   0  0  0  0  0  0
  -30.8908  -20.0614   20.0611 H   0  0  0  0  0  0
  -32.2005  -20.6147   21.0430 H   0  0  0  0  0  0
  -29.0342  -18.7070   20.3933 H   0  0  0  0  0  0
  -28.7582  -17.0120   20.5022 H   0  0  0  0  0  0
  -29.2330  -20.7153   21.7791 H   0  0  0  0  0  0
  -30.5006  -21.0245   22.9429 H   0  0  0  0  0  0
  -27.4457  -24.9540   20.4537 H   0  0  0  0  0  0
  -28.2296  -25.0864   18.8776 H   0  0  0  0  0  0
  -29.4153  -14.9444   22.0402 H   0  0  0  0  0  0
  1 25  1  0  0  0
  1 30  2  0  0  0
  1 85  1  0  0  0
  2  3  1  0  0  0
  2 25  1  0  0  0
  2 88  1  0  0  0
  2 89  1  0  0  0
  3  4  1  0  0  0
  3 90  1  0  0  0
  3 91  1  0  0  0
  4  5  1  0  0  0
  4 92  1  0  0  0
  4 93  1  0  0  0
  5  6  1  0  0  0
  5 26  1  0  0  0
  5 94  1  0  0  0
  6 25  1  0  0  0
  6 95  1  0  0  0
  6 96  1  0  0  0
  7  8  2  0  0  0
  7 26  1  0  0  0
  7 29  1  0  0  0
  8  9  1  0  0  0
  8 22  1  0  0  0
  9 10  1  0  0  0
  9 27  2  0  0  0
 10 11  2  0  0  0
 10 15  1  0  0  0
 11 12  1  0  0  0
 11 97  1  0  0  0
 12 13  2  0  0  0
 12 98  1  0  0  0
 13 14  1  0  0  0
 13 31  1  0  0  0
 14 15  2  0  0  0
 14 99  1  0  0  0
 15100  1  0  0  0
 16 17  2  0  0  0
 16 21  1  0  0  0
 16 31  1  0  0  0
 17 18  1  0  0  0
 17101  1  0  0  0
 18 19  2  0  0  0
 18102  1  0  0  0
 19 20  1  0  0  0
 19 24  1  0  0  0
 20 21  2  0  0  0
 20103  1  0  0  0
 21 23  1  0  0  0
 22 28  1  0  0  0
 22 32  2  0  0  0
 26 27  1  0  0  0
 28104  1  0  0  0
 28105  1  0  0  0
 29106  1  0  0  0
 29107  1  0  0  0
 33 34  1  0  0  0
 33 66  1  0  0  0
 33 70  2  0  0  0
 34 36  1  0  0  0
 34 59  1  0  0  0
 34108  1  0  0  0
 35 44  2  0  0  0
 35 45  1  0  0  0
 35 68  1  0  0  0
 36 56  1  0  0  0
 36109  1  0  0  0
 37 39  1  0  0  0
 37 47  1  0  0  0
 37 66  1  0  0  0
 37110  1  0  0  0
 38 43  2  0  0  0
 38 46  1  0  0  0
 38 47  1  0  0  0
 39 64  1  0  0  0
 39 67  2  0  0  0
 40 52  1  0  0  0
 40 53  2  0  0  0
 40 58  1  0  0  0
 41111  1  0  0  0
 41112  1  0  0  0
 41113  1  0  0  0
 41 48  1  0  0  0
 42 43  1  0  0  0
 42 66  1  0  0  0
 42114  1  0  0  0
 42115  1  0  0  0
 43 44  1  0  0  0
 44116  1  0  0  0
 45 46  2  0  0  0
 45117  1  0  0  0
 46118  1  0  0  0
 47119  1  0  0  0
 47120  1  0  0  0
 48 56  1  0  0  0
 48 65  1  0  0  0
 48121  1  0  0  0
 49 50  1  0  0  0
 49 53  1  0  0  0
 49 64  1  0  0  0
 49122  1  0  0  0
 50 51  1  0  0  0
 50123  1  0  0  0
 50124  1  0  0  0
 51 52  1  0  0  0
 51125  1  0  0  0
 51126  1  0  0  0
 52127  1  0  0  0
 52128  1  0  0  0
 53 54  1  0  0  0
 54 55  2  0  0  0
 54129  1  0  0  0
 55 57  1  0  0  0
 55130  1  0  0  0
 56 69  2  0  0  0
 57 58  2  0  0  0
 57131  1  0  0  0
 58132  1  0  0  0
 59 60  1  0  0  0
 59 61  1  0  0  0
 59 62  1  0  0  0
 60133  1  0  0  0
 60134  1  0  0  0
 60135  1  0  0  0
 61136  1  0  0  0
 61137  1  0  0  0
 61138  1  0  0  0
 62139  1  0  0  0
 62140  1  0  0  0
 62141  1  0  0  0
 63 65  1  0  0  0
 63142  1  0  0  0
 63143  1  0  0  0
 63144  1  0  0  0
 64145  1  0  0  0
 65146  1  0  0  0
 68 84  1  0  0  0
 71 73  2  0  0  0
 71 76  1  0  0  0
 71147  1  0  0  0
 72 75  1  0  0  0
 72 76  2  0  0  0
 72148  1  0  0  0
 73 74  1  0  0  0
 73 81  1  0  0  0
 74 75  2  0  0  0
 74 82  1  0  0  0
 75 85  1  0  0  0
 76 87  1  0  0  0
 77 78  2  0  0  0
 77 79  1  0  0  0
 77149  1  0  0  0
 78 83  1  0  0  0
 78150  1  0  0  0
 79 84  1  0  0  0
 79 86  2  0  0  0
 80 82  1  0  0  0
 80151  1  0  0  0
 80152  1  0  0  0
 80153  1  0  0  0
 81 83  1  0  0  0
 81154  1  0  0  0
 81155  1  0  0  0
 82156  1  0  0  0
 82157  1  0  0  0
 83158  1  0  0  0
 83159  1  0  0  0
 84160  1  0  0  0
 84161  1  0  0  0
 85162  1  0  0  0
M  ISO  4   1 100  68 101  84 101  85 100
M  END
> <chiral flag>
0

> <version>
0

> <s_m_source_file>
/data/baiqing/PycharmProjects/Reinvent-master-3.2/result/LINK_invent/BTK/process_docking_weight1_custom_product_contain_oxygen_bond_distance_aromatic_linkinvent_7_9_3/rearranged_h_0128.sdf

> <i_m_source_file_index>
86

> <r_mmod_Potential_Energy-OPLS-2005>
-41.6608200073242

> <r_mmod_Stretch_Energy-OPLS-2005>
33.370662689209

> <r_mmod_Bend_Energy-OPLS-2005>
86.9591598510742

> <r_mmod_Torsional_Energy-OPLS-2005>
226.468688964844

> <r_mmod_Improper_Torsional_Energy-OPLS-2005>
1.70982909202576

> <r_mmod_Van_der_Waal_Energy-OPLS-2005>
155.818069458008

> <r_mmod_Electrostatic_Energy-OPLS-2005>
-329.268127441406

> <r_mmod_Solvation_Energy-OPLS-2005>
-224.595550537109

> <b_mmod_Minimization_Converged-OPLS-2005>
0

> <r_mmod_RMS_Derivative-OPLS-2005>
1.01838600635529

$$$$
86
                    3D
 Structure written by MMmdl.
155163  0  0  1  0            999 V2000
  -30.7002  -14.4454   20.5585 C   0  0  0  0  0  0
  -30.4193  -12.2838   19.4214 C   0  0  0  0  0  0
  -29.4937  -12.4987   18.2059 C   0  0  0  0  0  0
  -28.0135  -12.3669   18.6165 C   0  0  0  0  0  0
  -27.6627  -13.2034   19.8765 C   0  0  2  0  0  0
  -28.7021  -12.9711   20.9969 C   0  0  0  0  0  0
  -25.2597  -13.8159   20.5676 C   0  0  0  0  0  0
  -24.1843  -13.0443   20.9178 C   0  0  0  0  0  0
  -24.6389  -11.6907   20.8735 C   0  0  0  0  0  0
  -23.9054  -10.4294   21.0406 C   0  0  0  0  0  0
  -24.3610   -9.4211   21.9184 C   0  0  0  0  0  0
  -23.6288   -8.2244   22.0753 C   0  0  0  0  0  0
  -22.4270   -8.0281   21.3544 C   0  0  0  0  0  0
  -21.9903   -9.0254   20.4647 C   0  0  0  0  0  0
  -22.7228  -10.2135   20.3056 C   0  0  0  0  0  0
  -21.6853   -6.0736   22.5280 C   0  0  0  0  0  0
  -21.4013   -6.5640   23.8213 C   0  0  0  0  0  0
  -21.3659   -5.6792   24.9174 C   0  0  0  0  0  0
  -21.6045   -4.3055   24.7225 C   0  0  0  0  0  0
  -21.8819   -3.8147   23.4347 C   0  0  0  0  0  0
  -21.9193   -4.6963   22.3403 C   0  0  0  0  0  0
  -22.7868  -13.5246   21.1843 C   0  0  0  0  0  0
  -22.1661   -4.2149   21.0981 F   0  0  0  0  0  0
  -21.5629   -3.4539   25.7738 F   0  0  0  0  0  0
  -30.0372  -13.2646   20.4481 N   0  0  0  0  0  0
  -26.3027  -12.9321   20.3367 N   0  0  0  0  0  0
  -25.9313  -11.6484   20.5765 N   0  0  0  0  0  0
  -22.0505  -12.8240   22.0398 N   0  0  0  0  0  0
  -25.4331  -15.1873   20.4069 N   0  0  0  0  0  0
  -31.8385  -14.6100   20.1119 O   0  0  0  0  0  0
  -21.6637   -6.8877   21.4241 O   0  0  0  0  0  0
  -22.3555  -14.5555   20.6694 O   0  0  0  0  0  0
  -24.6126  -31.8689   23.2109 C   0  0  0  0  0  0
  -25.9029  -32.4826   23.8396 C   0  0  1  0  0  0
  -27.2382  -27.4489   20.0818 C   0  0  0  0  0  0
  -25.5893  -33.8625   24.2331 N   0  0  0  0  0  0
  -23.3986  -30.4924   21.5516 C   0  0  2  0  0  0
  -24.8425  -28.9568   20.1163 C   0  0  0  0  0  0
  -22.7393  -29.4664   22.5005 C   0  0  0  0  0  0
  -18.0267  -28.1374   22.8495 C   0  0  0  0  0  0
  -24.1487  -36.7319   23.2637 C   0  0  0  0  0  0
  -25.9251  -30.8367   21.3615 C   0  0  0  0  0  0
  -26.0002  -29.4708   20.7109 C   0  0  0  0  0  0
  -27.1952  -28.7209   20.6956 C   0  0  0  0  0  0
  -26.0543  -26.9363   19.5004 C   0  0  0  0  0  0
  -24.8628  -27.6869   19.5140 C   0  0  0  0  0  0
  -23.6047  -29.8231   20.1661 C   0  0  0  0  0  0
  -25.4107  -36.3116   24.0339 C   0  0  1  0  0  0
  -20.5854  -28.3656   23.1330 C   0  0  2  0  0  0
  -20.6757  -26.9396   22.5422 C   0  0  0  0  0  0
  -19.5740  -26.6386   21.5214 C   0  0  0  0  0  0
  -18.1916  -26.7923   22.1622 C   0  0  0  0  0  0
  -19.1515  -28.8832   23.2910 C   0  0  0  0  0  0
  -18.9445  -30.1440   23.8919 C   0  0  0  0  0  0
  -17.6448  -30.6582   24.0568 C   0  0  0  0  0  0
  -25.9032  -34.9479   23.5133 C   0  0  0  0  0  0
  -16.5339  -29.9087   23.6325 C   0  0  0  0  0  0
  -16.7257  -28.6503   23.0347 C   0  0  0  0  0  0
  -26.4466  -31.6600   25.0718 C   0  0  0  0  0  0
  -25.3742  -31.3697   26.1474 C   0  0  0  0  0  0
  -27.0291  -30.3047   24.6075 C   0  0  0  0  0  0
  -27.6050  -32.4313   25.7472 C   0  0  0  0  0  0
  -27.5585  -37.1810   24.8462 C   0  0  0  0  0  0
  -21.4124  -29.3027   22.3742 N   0  0  0  0  0  0
  -26.4295  -37.3798   23.9410 N   0  0  0  0  0  0
  -24.6638  -31.0803   22.1001 N   0  0  0  0  0  0
  -23.4175  -28.8210   23.3043 O   0  0  0  0  0  0
  -28.4442  -26.7793   20.0893 O   0  0  0  0  0  0
  -26.5596  -34.8928   22.4695 O   0  0  0  0  0  0
  -23.5326  -32.1438   23.7517 O   0  0  0  0  0  0
  -29.3461  -19.1382   21.4577 C   0  0  0  0  0  0
  -31.0057  -17.4418   19.9626 C   0  0  0  0  0  0
  -29.2647  -17.7354   21.6356 C   0  0  0  0  0  0
  -30.2585  -19.7051   20.5335 C   0  0  0  0  0  0
  -30.1060  -16.8665   20.8940 C   0  0  0  0  0  0
  -31.0859  -18.8350   19.7930 C   0  0  0  0  0  0
  -29.4988  -21.9384   20.4428 C   0  0  0  0  0  0
  -28.5529  -24.3366   20.2259 C   0  0  0  0  0  0
  -28.2673  -17.1765   22.6378 C   0  0  0  0  0  0
  -29.7789  -23.4125   20.1932 C   0  0  0  0  0  0
  -28.6271  -25.5808   19.3265 C   0  0  0  0  0  0
  -30.4391  -21.0848   20.3376 N   0  0  0  0  0  0
  -29.9761  -15.4514   21.0869 N   0  0  0  0  0  0
  -27.5763  -24.1247   20.9544 O   0  0  0  0  0  0
  -31.9728  -19.3405   18.8997 F   0  0  0  0  0  0
  -31.4652  -12.3730   19.1221 H   0  0  0  0  0  0
  -30.3094  -11.2713   19.8128 H   0  0  0  0  0  0
  -29.7284  -11.7770   17.4222 H   0  0  0  0  0  0
  -29.6698  -13.4857   17.7751 H   0  0  0  0  0  0
  -27.8176  -11.3111   18.8079 H   0  0  0  0  0  0
  -27.3653  -12.6483   17.7858 H   0  0  0  0  0  0
  -27.7115  -14.2528   19.5850 H   0  0  0  0  0  0
  -28.6692  -11.9338   21.3334 H   0  0  0  0  0  0
  -28.4675  -13.5674   21.8798 H   0  0  0  0  0  0
  -25.2757   -9.5688   22.4755 H   0  0  0  0  0  0
  -24.0002   -7.4635   22.7470 H   0  0  0  0  0  0
  -21.0836   -8.8771   19.8952 H   0  0  0  0  0  0
  -22.3687  -10.9674   19.6164 H   0  0  0  0  0  0
  -21.2004   -7.6147   23.9717 H   0  0  0  0  0  0
  -21.1481   -6.0522   25.9077 H   0  0  0  0  0  0
  -22.0599   -2.7609   23.2847 H   0  0  0  0  0  0
  -22.4113  -11.9896   22.4784 H   0  0  0  0  0  0
  -21.1124  -13.1272   22.2604 H   0  0  0  0  0  0
  -24.6652  -15.8422   20.5068 H   0  0  0  0  0  0
  -26.2810  -15.6216   20.0651 H   0  0  0  0  0  0
  -26.7097  -32.5541   23.1159 H   0  0  0  0  0  0
  -25.0049  -33.9790   25.0479 H   0  0  0  0  0  0
  -22.6867  -31.3087   21.4136 H   0  0  0  0  0  0
  -23.3745  -35.9657   23.3310 H   0  0  0  0  0  0
  -24.3583  -36.8922   22.2050 H   0  0  0  0  0  0
  -23.7245  -37.6530   23.6642 H   0  0  0  0  0  0
  -26.0343  -31.6020   20.5918 H   0  0  0  0  0  0
  -26.8148  -30.8917   21.9772 H   0  0  0  0  0  0
  -28.0918  -29.1198   21.1494 H   0  0  0  0  0  0
  -26.0205  -25.9594   19.0425 H   0  0  0  0  0  0
  -23.9681  -27.2804   19.0628 H   0  0  0  0  0  0
  -23.7115  -30.5971   19.4052 H   0  0  0  0  0  0
  -22.7286  -29.2422   19.8723 H   0  0  0  0  0  0
  -25.1283  -36.1984   25.0832 H   0  0  0  0  0  0
  -20.9944  -28.3216   24.1452 H   0  0  0  0  0  0
  -20.5661  -26.2262   23.3605 H   0  0  0  0  0  0
  -21.6631  -26.7445   22.1216 H   0  0  0  0  0  0
  -19.6903  -25.6303   21.1230 H   0  0  0  0  0  0
  -19.6683  -27.3210   20.6756 H   0  0  0  0  0  0
  -17.4190  -26.6680   21.4018 H   0  0  0  0  0  0
  -18.0311  -26.0056   22.9008 H   0  0  0  0  0  0
  -19.7921  -30.7250   24.2299 H   0  0  0  0  0  0
  -17.5004  -31.6266   24.5165 H   0  0  0  0  0  0
  -15.5342  -30.2997   23.7638 H   0  0  0  0  0  0
  -15.8655  -28.0832   22.7050 H   0  0  0  0  0  0
  -24.5913  -30.7045   25.7814 H   0  0  0  0  0  0
  -24.8934  -32.2849   26.4941 H   0  0  0  0  0  0
  -25.8106  -30.8855   27.0219 H   0  0  0  0  0  0
  -26.2823  -29.6812   24.1145 H   0  0  0  0  0  0
  -27.4089  -29.7280   25.4519 H   0  0  0  0  0  0
  -27.8646  -30.4375   23.9197 H   0  0  0  0  0  0
  -27.2676  -33.3597   26.2092 H   0  0  0  0  0  0
  -28.3835  -32.6897   25.0280 H   0  0  0  0  0  0
  -28.0747  -31.8410   26.5351 H   0  0  0  0  0  0
  -28.2602  -38.0108   24.7518 H   0  0  0  0  0  0
  -28.1081  -36.2643   24.6273 H   0  0  0  0  0  0
  -27.2307  -37.1444   25.8866 H   0  0  0  0  0  0
  -20.9280  -29.8749   21.6968 H   0  0  0  0  0  0
  -26.0187  -38.2877   24.1412 H   0  0  0  0  0  0
  -28.7107  -19.7776   22.0536 H   0  0  0  0  0  0
  -31.6553  -16.8427   19.3457 H   0  0  0  0  0  0
  -28.4684  -21.6719   20.6964 H   0  0  0  0  0  0
  -27.7232  -17.9714   23.1484 H   0  0  0  0  0  0
  -28.7776  -16.5843   23.3981 H   0  0  0  0  0  0
  -27.5341  -16.5424   22.1389 H   0  0  0  0  0  0
  -30.2664  -23.5113   19.2237 H   0  0  0  0  0  0
  -30.4892  -23.7656   20.9398 H   0  0  0  0  0  0
  -27.9411  -25.4913   18.4862 H   0  0  0  0  0  0
  -29.6231  -25.6276   18.8864 H   0  0  0  0  0  0
  -29.1283  -15.1524   21.5424 H   0  0  0  0  0  0
  1 25  1  0  0  0
  1 30  2  0  0  0
  1 83  1  0  0  0
  2  3  1  0  0  0
  2 25  1  0  0  0
  2 86  1  0  0  0
  2 87  1  0  0  0
  3  4  1  0  0  0
  3 88  1  0  0  0
  3 89  1  0  0  0
  4  5  1  0  0  0
  4 90  1  0  0  0
  4 91  1  0  0  0
  5  6  1  0  0  0
  5 26  1  0  0  0
  5 92  1  0  0  0
  6 25  1  0  0  0
  6 93  1  0  0  0
  6 94  1  0  0  0
  7  8  2  0  0  0
  7 26  1  0  0  0
  7 29  1  0  0  0
  8  9  1  0  0  0
  8 22  1  0  0  0
  9 10  1  0  0  0
  9 27  2  0  0  0
 10 11  2  0  0  0
 10 15  1  0  0  0
 11 12  1  0  0  0
 11 95  1  0  0  0
 12 13  2  0  0  0
 12 96  1  0  0  0
 13 14  1  0  0  0
 13 31  1  0  0  0
 14 15  2  0  0  0
 14 97  1  0  0  0
 15 98  1  0  0  0
 16 17  2  0  0  0
 16 21  1  0  0  0
 16 31  1  0  0  0
 17 18  1  0  0  0
 17 99  1  0  0  0
 18 19  2  0  0  0
 18100  1  0  0  0
 19 20  1  0  0  0
 19 24  1  0  0  0
 20 21  2  0  0  0
 20101  1  0  0  0
 21 23  1  0  0  0
 22 28  1  0  0  0
 22 32  2  0  0  0
 26 27  1  0  0  0
 28102  1  0  0  0
 28103  1  0  0  0
 29104  1  0  0  0
 29105  1  0  0  0
 33 34  1  0  0  0
 33 66  1  0  0  0
 33 70  2  0  0  0
 34 36  1  0  0  0
 34 59  1  0  0  0
 34106  1  0  0  0
 35 44  2  0  0  0
 35 45  1  0  0  0
 35 68  1  0  0  0
 36 56  1  0  0  0
 36107  1  0  0  0
 37 39  1  0  0  0
 37 47  1  0  0  0
 37 66  1  0  0  0
 37108  1  0  0  0
 38 43  2  0  0  0
 38 46  1  0  0  0
 38 47  1  0  0  0
 39 64  1  0  0  0
 39 67  2  0  0  0
 40 52  1  0  0  0
 40 53  2  0  0  0
 40 58  1  0  0  0
 41109  1  0  0  0
 41110  1  0  0  0
 41111  1  0  0  0
 41 48  1  0  0  0
 42 43  1  0  0  0
 42 66  1  0  0  0
 42112  1  0  0  0
 42113  1  0  0  0
 43 44  1  0  0  0
 44114  1  0  0  0
 45 46  2  0  0  0
 45115  1  0  0  0
 46116  1  0  0  0
 47117  1  0  0  0
 47118  1  0  0  0
 48 56  1  0  0  0
 48 65  1  0  0  0
 48119  1  0  0  0
 49 50  1  0  0  0
 49 53  1  0  0  0
 49 64  1  0  0  0
 49120  1  0  0  0
 50 51  1  0  0  0
 50121  1  0  0  0
 50122  1  0  0  0
 51 52  1  0  0  0
 51123  1  0  0  0
 51124  1  0  0  0
 52125  1  0  0  0
 52126  1  0  0  0
 53 54  1  0  0  0
 54 55  2  0  0  0
 54127  1  0  0  0
 55 57  1  0  0  0
 55128  1  0  0  0
 56 69  2  0  0  0
 57 58  2  0  0  0
 57129  1  0  0  0
 58130  1  0  0  0
 59 60  1  0  0  0
 59 61  1  0  0  0
 59 62  1  0  0  0
 60131  1  0  0  0
 60132  1  0  0  0
 60133  1  0  0  0
 61134  1  0  0  0
 61135  1  0  0  0
 61136  1  0  0  0
 62137  1  0  0  0
 62138  1  0  0  0
 62139  1  0  0  0
 63 65  1  0  0  0
 63140  1  0  0  0
 63141  1  0  0  0
 63142  1  0  0  0
 64143  1  0  0  0
 65144  1  0  0  0
 68 81  1  0  0  0
 71 73  2  0  0  0
 71 74  1  0  0  0
 71145  1  0  0  0
 72 75  2  0  0  0
 72 76  1  0  0  0
 72146  1  0  0  0
 73 75  1  0  0  0
 73 79  1  0  0  0
 74 76  2  0  0  0
 74 82  1  0  0  0
 75 83  1  0  0  0
 76 85  1  0  0  0
 77 80  1  0  0  0
 77 82  2  0  0  0
 77147  1  0  0  0
 78 80  1  0  0  0
 78 81  1  0  0  0
 78 84  2  0  0  0
 79148  1  0  0  0
 79149  1  0  0  0
 79150  1  0  0  0
 80151  1  0  0  0
 80152  1  0  0  0
 81153  1  0  0  0
 81154  1  0  0  0
 83155  1  0  0  0
M  ISO  4   1 100  68 101  81 101  83 100
M  END
> <chiral flag>
0

> <version>
0

> <s_m_source_file>
/data/baiqing/PycharmProjects/Reinvent-master-3.2/result/LINK_invent/BTK/process_docking_weight1_custom_product_contain_oxygen_bond_distance_aromatic_linkinvent_7_9_3/rearranged_h_0128.sdf

> <i_m_source_file_index>
87

> <r_mmod_Potential_Energy-OPLS-2005>
-61.6733512878418

> <r_mmod_Stretch_Energy-OPLS-2005>
36.2464447021484

> <r_mmod_Bend_Energy-OPLS-2005>
115.433204650879

> <r_mmod_Torsional_Energy-OPLS-2005>
217.694793701172

> <r_mmod_Improper_Torsional_Energy-OPLS-2005>
3.56063556671143

> <r_mmod_Van_der_Waal_Energy-OPLS-2005>
164.091537475586

> <r_mmod_Electrostatic_Energy-OPLS-2005>
-382.895843505859

> <r_mmod_Solvation_Energy-OPLS-2005>
-227.558319091797

> <b_mmod_Minimization_Converged-OPLS-2005>
0

> <r_mmod_RMS_Derivative-OPLS-2005>
0.202650904655457

$$$$
87
                    3D
 Structure written by MMmdl.
156164  0  0  1  0            999 V2000
  -30.6036  -14.7221   20.4796 C   0  0  0  0  0  0
  -30.4211  -12.4524   19.4645 C   0  0  0  0  0  0
  -29.5039  -12.5497   18.2251 C   0  0  0  0  0  0
  -28.0282  -12.3741   18.6276 C   0  0  0  0  0  0
  -27.6403  -13.2412   19.8558 C   0  0  2  0  0  0
  -28.6806  -13.1357   20.9883 C   0  0  0  0  0  0
  -25.2497  -13.8206   20.5676 C   0  0  0  0  0  0
  -24.1783  -13.0437   20.9157 C   0  0  0  0  0  0
  -24.6373  -11.6924   20.8651 C   0  0  0  0  0  0
  -23.9037  -10.4317   21.0332 C   0  0  0  0  0  0
  -24.3597   -9.4263   21.9132 C   0  0  0  0  0  0
  -23.6287   -8.2285   22.0766 C   0  0  0  0  0  0
  -22.4273   -8.0296   21.3551 C   0  0  0  0  0  0
  -21.9871   -9.0259   20.4658 C   0  0  0  0  0  0
  -22.7188  -10.2150   20.3032 C   0  0  0  0  0  0
  -21.6881   -6.0693   22.5264 C   0  0  0  0  0  0
  -21.4031   -6.5617   23.8194 C   0  0  0  0  0  0
  -21.3669   -5.6787   24.9152 C   0  0  0  0  0  0
  -21.6043   -4.3048   24.7207 C   0  0  0  0  0  0
  -21.8836   -3.8127   23.4338 C   0  0  0  0  0  0
  -21.9211   -4.6914   22.3389 C   0  0  0  0  0  0
  -22.7797  -13.5232   21.1801 C   0  0  0  0  0  0
  -22.1672   -4.2120   21.0944 F   0  0  0  0  0  0
  -21.5618   -3.4539   25.7709 F   0  0  0  0  0  0
  -29.9886  -13.4919   20.4284 N   0  0  0  0  0  0
  -26.2934  -12.9444   20.3260 N   0  0  0  0  0  0
  -25.9331  -11.6576   20.5677 N   0  0  0  0  0  0
  -22.0494  -12.8238   22.0398 N   0  0  0  0  0  0
  -25.4170  -15.1925   20.4072 N   0  0  0  0  0  0
  -31.7843  -14.8042   20.1178 O   0  0  0  0  0  0
  -21.6672   -6.8849   21.4243 O   0  0  0  0  0  0
  -22.3462  -14.5547   20.6658 O   0  0  0  0  0  0
  -24.6271  -31.8601   23.2016 C   0  0  0  0  0  0
  -25.9141  -32.4759   23.8324 C   0  0  1  0  0  0
  -27.2127  -27.3149   20.0750 C   0  0  0  0  0  0
  -25.5961  -33.8546   24.2284 N   0  0  0  0  0  0
  -23.4165  -30.4815   21.5522 C   0  0  2  0  0  0
  -24.8537  -28.9348   20.1142 C   0  0  0  0  0  0
  -22.7465  -29.4641   22.5059 C   0  0  0  0  0  0
  -18.0248  -28.1347   22.8536 C   0  0  0  0  0  0
  -24.1521  -36.7272   23.2634 C   0  0  0  0  0  0
  -25.9612  -30.7894   21.3683 C   0  0  0  0  0  0
  -26.0297  -29.4210   20.6913 C   0  0  0  0  0  0
  -27.2171  -28.6317   20.6414 C   0  0  0  0  0  0
  -26.0015  -26.8653   19.5159 C   0  0  0  0  0  0
  -24.8406  -27.6624   19.5204 C   0  0  0  0  0  0
  -23.6202  -29.8115   20.1701 C   0  0  0  0  0  0
  -25.4144  -36.3057   24.0321 C   0  0  1  0  0  0
  -20.5866  -28.3667   23.1352 C   0  0  2  0  0  0
  -20.6744  -26.9397   22.5471 C   0  0  0  0  0  0
  -19.5728  -26.6386   21.5253 C   0  0  0  0  0  0
  -18.1900  -26.7919   22.1631 C   0  0  0  0  0  0
  -19.1506  -28.8828   23.2944 C   0  0  0  0  0  0
  -18.9399  -30.1433   23.8959 C   0  0  0  0  0  0
  -17.6392  -30.6573   24.0544 C   0  0  0  0  0  0
  -25.9070  -34.9420   23.5100 C   0  0  0  0  0  0
  -16.5301  -29.9046   23.6306 C   0  0  0  0  0  0
  -16.7238  -28.6442   23.0396 C   0  0  0  0  0  0
  -26.4487  -31.6546   25.0696 C   0  0  0  0  0  0
  -25.3697  -31.3659   26.1390 C   0  0  0  0  0  0
  -27.0286  -30.2965   24.6148 C   0  0  0  0  0  0
  -27.6046  -32.4254   25.7473 C   0  0  0  0  0  0
  -27.5601  -37.1821   24.8466 C   0  0  0  0  0  0
  -21.4186  -29.3013   22.3758 N   0  0  0  0  0  0
  -26.4343  -37.3747   23.9372 N   0  0  0  0  0  0
  -24.6880  -31.0614   22.0950 N   0  0  0  0  0  0
  -23.4227  -28.8148   23.3063 O   0  0  0  0  0  0
  -28.3640  -26.5137   20.0903 O   0  0  0  0  0  0
  -26.5622  -34.8893   22.4666 O   0  0  0  0  0  0
  -23.5468  -32.1381   23.7396 O   0  0  0  0  0  0
  -28.4754  -18.9511   21.4953 C   0  0  0  0  0  0
  -30.0197  -19.7531   19.8689 C   0  0  0  0  0  0
  -27.9498  -20.2777   21.6047 C   0  0  0  0  0  0
  -29.4705  -21.0782   19.9529 C   0  0  0  0  0  0
  -29.5473  -18.6329   20.6196 C   0  0  0  0  0  0
  -28.4177  -21.4016   20.8516 C   0  0  0  0  0  0
  -30.1652  -17.2323   20.4301 C   0  0  0  0  0  0
  -27.7347  -22.7604   21.1176 C   0  0  0  0  0  0
  -29.7845  -15.9543   20.7985 C   0  0  0  0  0  0
  -27.7175  -24.0961   20.7468 C   0  0  0  0  0  0
  -28.0668  -24.7432   18.2930 C   0  0  0  0  0  0
  -29.9854  -24.9038   19.8978 C   0  0  0  0  0  0
  -28.4616  -25.0585   19.7589 C   0  0  0  0  0  0
  -31.4649  -12.5666   19.1697 H   0  0  0  0  0  0
  -30.3448  -11.4587   19.9071 H   0  0  0  0  0  0
  -29.7792  -11.8063   17.4792 H   0  0  0  0  0  0
  -29.6373  -13.5184   17.7387 H   0  0  0  0  0  0
  -27.8671  -11.3182   18.8450 H   0  0  0  0  0  0
  -27.3817  -12.6155   17.7835 H   0  0  0  0  0  0
  -27.6403  -14.2718   19.5046 H   0  0  0  0  0  0
  -28.7035  -12.1257   21.3945 H   0  0  0  0  0  0
  -28.4215  -13.7846   21.8226 H   0  0  0  0  0  0
  -25.2769   -9.5728   22.4688 H   0  0  0  0  0  0
  -23.9999   -7.4682   22.7517 H   0  0  0  0  0  0
  -21.0793   -8.8756   19.8977 H   0  0  0  0  0  0
  -22.3624  -10.9656   19.6137 H   0  0  0  0  0  0
  -21.2055   -7.6149   23.9666 H   0  0  0  0  0  0
  -21.1460   -6.0521   25.9043 H   0  0  0  0  0  0
  -22.0604   -2.7593   23.2843 H   0  0  0  0  0  0
  -22.4154  -11.9903   22.4734 H   0  0  0  0  0  0
  -21.1136  -13.1271   22.2666 H   0  0  0  0  0  0
  -24.6467  -15.8472   20.4990 H   0  0  0  0  0  0
  -26.2706  -15.6342   20.0912 H   0  0  0  0  0  0
  -26.7192  -32.5397   23.1027 H   0  0  0  0  0  0
  -25.0059  -33.9697   25.0398 H   0  0  0  0  0  0
  -22.7070  -31.3008   21.4128 H   0  0  0  0  0  0
  -23.3797  -35.9605   23.3329 H   0  0  0  0  0  0
  -24.3581  -36.8871   22.2050 H   0  0  0  0  0  0
  -23.7308  -37.6485   23.6643 H   0  0  0  0  0  0
  -26.1142  -31.5704   20.6206 H   0  0  0  0  0  0
  -26.8321  -30.8136   22.0110 H   0  0  0  0  0  0
  -28.1368  -29.0245   21.0539 H   0  0  0  0  0  0
  -25.9118  -25.8843   19.0809 H   0  0  0  0  0  0
  -23.9286  -27.2679   19.0957 H   0  0  0  0  0  0
  -23.7329  -30.5871   19.4118 H   0  0  0  0  0  0
  -22.7388  -29.2372   19.8802 H   0  0  0  0  0  0
  -25.1366  -36.1894   25.0831 H   0  0  0  0  0  0
  -20.9932  -28.3201   24.1483 H   0  0  0  0  0  0
  -20.5622  -26.2257   23.3653 H   0  0  0  0  0  0
  -21.6603  -26.7423   22.1259 H   0  0  0  0  0  0
  -19.6864  -25.6302   21.1244 H   0  0  0  0  0  0
  -19.6640  -27.3220   20.6806 H   0  0  0  0  0  0
  -17.4187  -26.6756   21.4014 H   0  0  0  0  0  0
  -18.0233  -26.0031   22.8980 H   0  0  0  0  0  0
  -19.7854  -30.7257   24.2407 H   0  0  0  0  0  0
  -17.4892  -31.6259   24.5124 H   0  0  0  0  0  0
  -15.5281  -30.2915   23.7607 H   0  0  0  0  0  0
  -15.8654  -28.0711   22.7154 H   0  0  0  0  0  0
  -24.5937  -30.6955   25.7683 H   0  0  0  0  0  0
  -24.8793  -32.2795   26.4753 H   0  0  0  0  0  0
  -25.7980  -30.8857   27.0193 H   0  0  0  0  0  0
  -26.2856  -29.6774   24.1117 H   0  0  0  0  0  0
  -27.3906  -29.7160   25.4638 H   0  0  0  0  0  0
  -27.8747  -30.4229   23.9400 H   0  0  0  0  0  0
  -27.2688  -33.3583   26.1995 H   0  0  0  0  0  0
  -28.3861  -32.6770   25.0298 H   0  0  0  0  0  0
  -28.0687  -31.8399   26.5415 H   0  0  0  0  0  0
  -28.2636  -38.0094   24.7447 H   0  0  0  0  0  0
  -28.1088  -36.2621   24.6386 H   0  0  0  0  0  0
  -27.2287  -37.1565   25.8860 H   0  0  0  0  0  0
  -20.9389  -29.8676   21.6907 H   0  0  0  0  0  0
  -26.0226  -38.2851   24.1251 H   0  0  0  0  0  0
  -28.0402  -18.1783   22.1136 H   0  0  0  0  0  0
  -30.8346  -19.5880   19.1787 H   0  0  0  0  0  0
  -27.1455  -20.4312   22.3107 H   0  0  0  0  0  0
  -29.8697  -21.8313   19.2905 H   0  0  0  0  0  0
  -31.1051  -17.2798   19.8904 H   0  0  0  0  0  0
  -26.9761  -22.6199   21.8811 H   0  0  0  0  0  0
  -28.8517  -15.8492   21.3328 H   0  0  0  0  0  0
  -26.9664  -24.6648   21.2847 H   0  0  0  0  0  0
  -28.0924  -25.6268   17.6493 H   0  0  0  0  0  0
  -27.0732  -24.2961   18.2170 H   0  0  0  0  0  0
  -28.7479  -24.0120   17.8534 H   0  0  0  0  0  0
  -30.5040  -25.4181   19.0851 H   0  0  0  0  0  0
  -30.3074  -23.8645   19.8886 H   0  0  0  0  0  0
  -30.3354  -25.3491   20.8299 H   0  0  0  0  0  0
  1 25  1  0  0  0
  1 30  2  0  0  0
  1 79  1  0  0  0
  2  3  1  0  0  0
  2 25  1  0  0  0
  2 84  1  0  0  0
  2 85  1  0  0  0
  3  4  1  0  0  0
  3 86  1  0  0  0
  3 87  1  0  0  0
  4  5  1  0  0  0
  4 88  1  0  0  0
  4 89  1  0  0  0
  5  6  1  0  0  0
  5 26  1  0  0  0
  5 90  1  0  0  0
  6 25  1  0  0  0
  6 91  1  0  0  0
  6 92  1  0  0  0
  7  8  2  0  0  0
  7 26  1  0  0  0
  7 29  1  0  0  0
  8  9  1  0  0  0
  8 22  1  0  0  0
  9 10  1  0  0  0
  9 27  2  0  0  0
 10 11  2  0  0  0
 10 15  1  0  0  0
 11 12  1  0  0  0
 11 93  1  0  0  0
 12 13  2  0  0  0
 12 94  1  0  0  0
 13 14  1  0  0  0
 13 31  1  0  0  0
 14 15  2  0  0  0
 14 95  1  0  0  0
 15 96  1  0  0  0
 16 17  2  0  0  0
 16 21  1  0  0  0
 16 31  1  0  0  0
 17 18  1  0  0  0
 17 97  1  0  0  0
 18 19  2  0  0  0
 18 98  1  0  0  0
 19 20  1  0  0  0
 19 24  1  0  0  0
 20 21  2  0  0  0
 20 99  1  0  0  0
 21 23  1  0  0  0
 22 28  1  0  0  0
 22 32  2  0  0  0
 26 27  1  0  0  0
 28100  1  0  0  0
 28101  1  0  0  0
 29102  1  0  0  0
 29103  1  0  0  0
 33 34  1  0  0  0
 33 66  1  0  0  0
 33 70  2  0  0  0
 34 36  1  0  0  0
 34 59  1  0  0  0
 34104  1  0  0  0
 35 44  2  0  0  0
 35 45  1  0  0  0
 35 68  1  0  0  0
 36 56  1  0  0  0
 36105  1  0  0  0
 37 39  1  0  0  0
 37 47  1  0  0  0
 37 66  1  0  0  0
 37106  1  0  0  0
 38 43  2  0  0  0
 38 46  1  0  0  0
 38 47  1  0  0  0
 39 64  1  0  0  0
 39 67  2  0  0  0
 40 52  1  0  0  0
 40 53  2  0  0  0
 40 58  1  0  0  0
 41107  1  0  0  0
 41108  1  0  0  0
 41109  1  0  0  0
 41 48  1  0  0  0
 42 43  1  0  0  0
 42 66  1  0  0  0
 42110  1  0  0  0
 42111  1  0  0  0
 43 44  1  0  0  0
 44112  1  0  0  0
 45 46  2  0  0  0
 45113  1  0  0  0
 46114  1  0  0  0
 47115  1  0  0  0
 47116  1  0  0  0
 48 56  1  0  0  0
 48 65  1  0  0  0
 48117  1  0  0  0
 49 50  1  0  0  0
 49 53  1  0  0  0
 49 64  1  0  0  0
 49118  1  0  0  0
 50 51  1  0  0  0
 50119  1  0  0  0
 50120  1  0  0  0
 51 52  1  0  0  0
 51121  1  0  0  0
 51122  1  0  0  0
 52123  1  0  0  0
 52124  1  0  0  0
 53 54  1  0  0  0
 54 55  2  0  0  0
 54125  1  0  0  0
 55 57  1  0  0  0
 55126  1  0  0  0
 56 69  2  0  0  0
 57 58  2  0  0  0
 57127  1  0  0  0
 58128  1  0  0  0
 59 60  1  0  0  0
 59 61  1  0  0  0
 59 62  1  0  0  0
 60129  1  0  0  0
 60130  1  0  0  0
 60131  1  0  0  0
 61132  1  0  0  0
 61133  1  0  0  0
 61134  1  0  0  0
 62135  1  0  0  0
 62136  1  0  0  0
 62137  1  0  0  0
 63 65  1  0  0  0
 63138  1  0  0  0
 63139  1  0  0  0
 63140  1  0  0  0
 64141  1  0  0  0
 65142  1  0  0  0
 68 83  1  0  0  0
 71 73  2  0  0  0
 71 75  1  0  0  0
 71143  1  0  0  0
 72 74  1  0  0  0
 72 75  2  0  0  0
 72144  1  0  0  0
 73 76  1  0  0  0
 73145  1  0  0  0
 74 76  2  0  0  0
 74146  1  0  0  0
 75 77  1  0  0  0
 76 78  1  0  0  0
 77 79  2  0  0  0
 77147  1  0  0  0
 78 80  2  0  0  0
 78148  1  0  0  0
 79149  1  0  0  0
 80 83  1  0  0  0
 80150  1  0  0  0
 81151  1  0  0  0
 81152  1  0  0  0
 81153  1  0  0  0
 81 83  1  0  0  0
 82 83  1  0  0  0
 82154  1  0  0  0
 82155  1  0  0  0
 82156  1  0  0  0
M  ISO  4   1 100  68 101  79 100  83 101
M  END
> <chiral flag>
0

> <version>
0

> <s_m_source_file>
/data/baiqing/PycharmProjects/Reinvent-master-3.2/result/LINK_invent/BTK/process_docking_weight1_custom_product_contain_oxygen_bond_distance_aromatic_linkinvent_7_9_3/rearranged_h_0128.sdf

> <i_m_source_file_index>
88

> <r_mmod_Potential_Energy-OPLS-2005>
162.131500244141

> <r_mmod_Stretch_Energy-OPLS-2005>
99.9440307617188

> <r_mmod_Bend_Energy-OPLS-2005>
231.084884643555

> <r_mmod_Torsional_Energy-OPLS-2005>
180.29638671875

> <r_mmod_Improper_Torsional_Energy-OPLS-2005>
3.94865822792053

> <r_mmod_Van_der_Waal_Energy-OPLS-2005>
143.486419677734

> <r_mmod_Electrostatic_Energy-OPLS-2005>
-372.853240966797

> <r_mmod_Solvation_Energy-OPLS-2005>
-184.974487304688

> <b_mmod_Minimization_Converged-OPLS-2005>
0

> <r_mmod_RMS_Derivative-OPLS-2005>
6.82456970214844

$$$$
88
                    3D
 Structure written by MMmdl.
163171  0  0  1  0            999 V2000
  -30.6850  -14.5786   20.5271 C   0  0  0  0  0  0
  -30.4383  -12.3589   19.4428 C   0  0  0  0  0  0
  -29.4980  -12.4644   18.2236 C   0  0  0  0  0  0
  -28.0280  -12.2809   18.6435 C   0  0  0  0  0  0
  -27.6521  -13.1596   19.8584 C   0  0  2  0  0  0
  -28.7041  -13.0601   20.9905 C   0  0  0  0  0  0
  -25.2476  -13.7930   20.5617 C   0  0  0  0  0  0
  -24.1744  -13.0285   20.9246 C   0  0  0  0  0  0
  -24.6313  -11.6773   20.8816 C   0  0  0  0  0  0
  -23.8985  -10.4192   21.0483 C   0  0  0  0  0  0
  -24.3569   -9.4116   21.9254 C   0  0  0  0  0  0
  -23.6271   -8.2137   22.0787 C   0  0  0  0  0  0
  -22.4261   -8.0180   21.3556 C   0  0  0  0  0  0
  -21.9894   -9.0158   20.4676 C   0  0  0  0  0  0
  -22.7183  -10.2051   20.3098 C   0  0  0  0  0  0
  -21.6840   -6.0671   22.5291 C   0  0  0  0  0  0
  -21.3965   -6.5607   23.8199 C   0  0  0  0  0  0
  -21.3679   -5.6796   24.9193 C   0  0  0  0  0  0
  -21.6062   -4.3053   24.7269 C   0  0  0  0  0  0
  -21.8821   -3.8116   23.4400 C   0  0  0  0  0  0
  -21.9185   -4.6903   22.3434 C   0  0  0  0  0  0
  -22.7768  -13.5136   21.1917 C   0  0  0  0  0  0
  -22.1668   -4.2082   21.1009 F   0  0  0  0  0  0
  -21.5667   -3.4542   25.7788 F   0  0  0  0  0  0
  -30.0293  -13.3789   20.4254 N   0  0  0  0  0  0
  -26.2928  -12.9074   20.3309 N   0  0  0  0  0  0
  -25.9225  -11.6297   20.5854 N   0  0  0  0  0  0
  -22.0397  -12.8142   22.0475 N   0  0  0  0  0  0
  -25.4001  -15.1601   20.3880 N   0  0  0  0  0  0
  -31.8216  -14.7454   20.0827 O   0  0  0  0  0  0
  -21.6624   -6.8787   21.4240 O   0  0  0  0  0  0
  -22.3496  -14.5495   20.6823 O   0  0  0  0  0  0
  -24.6117  -31.8672   23.2125 C   0  0  0  0  0  0
  -25.9019  -32.4809   23.8434 C   0  0  1  0  0  0
  -27.2506  -27.4509   20.1127 C   0  0  0  0  0  0
  -25.5886  -33.8595   24.2382 N   0  0  0  0  0  0
  -23.4023  -30.4928   21.5463 C   0  0  2  0  0  0
  -24.8581  -28.9562   20.1217 C   0  0  0  0  0  0
  -22.7403  -29.4662   22.4945 C   0  0  0  0  0  0
  -18.0286  -28.1404   22.8484 C   0  0  0  0  0  0
  -24.1466  -36.7313   23.2629 C   0  0  0  0  0  0
  -25.9279  -30.8396   21.3656 C   0  0  0  0  0  0
  -26.0108  -29.4689   20.7289 C   0  0  0  0  0  0
  -27.2096  -28.7196   20.7359 C   0  0  0  0  0  0
  -26.0883  -26.9552   19.4892 C   0  0  0  0  0  0
  -24.8876  -27.6927   19.5042 C   0  0  0  0  0  0
  -23.6192  -29.8224   20.1614 C   0  0  0  0  0  0
  -25.4078  -36.3090   24.0348 C   0  0  1  0  0  0
  -20.5874  -28.3681   23.1343 C   0  0  2  0  0  0
  -20.6770  -26.9424   22.5447 C   0  0  0  0  0  0
  -19.5748  -26.6413   21.5237 C   0  0  0  0  0  0
  -18.1930  -26.7957   22.1641 C   0  0  0  0  0  0
  -19.1537  -28.8859   23.2920 C   0  0  0  0  0  0
  -18.9454  -30.1463   23.8945 C   0  0  0  0  0  0
  -17.6456  -30.6600   24.0600 C   0  0  0  0  0  0
  -25.9003  -34.9455   23.5150 C   0  0  0  0  0  0
  -16.5351  -29.9117   23.6315 C   0  0  0  0  0  0
  -16.7288  -28.6539   23.0328 C   0  0  0  0  0  0
  -26.4472  -31.6557   25.0734 C   0  0  0  0  0  0
  -25.3739  -31.3656   26.1485 C   0  0  0  0  0  0
  -27.0316  -30.3007   24.6082 C   0  0  0  0  0  0
  -27.6080  -32.4244   25.7503 C   0  0  0  0  0  0
  -27.5587  -37.1808   24.8456 C   0  0  0  0  0  0
  -21.4132  -29.3040   22.3717 N   0  0  0  0  0  0
  -26.4265  -37.3787   23.9422 N   0  0  0  0  0  0
  -24.6642  -31.0813   22.1009 N   0  0  0  0  0  0
  -23.4177  -28.8188   23.2986 O   0  0  0  0  0  0
  -28.3947  -26.6883   20.0597 O   0  0  0  0  0  0
  -26.5580  -34.8910   22.4725 O   0  0  0  0  0  0
  -23.5309  -32.1427   23.7501 O   0  0  0  0  0  0
  -28.8977  -19.0322   19.9052 C   0  0  0  0  0  0
  -30.9515  -17.8933   21.4142 C   0  0  0  0  0  0
  -29.7343  -19.8945   20.6287 C   0  0  0  0  0  0
  -29.0257  -17.6358   19.9648 C   0  0  0  0  0  0
  -30.0322  -17.0235   20.7635 C   0  0  0  0  0  0
  -30.8167  -19.3151   21.3392 C   0  0  0  0  0  0
  -29.3230  -21.3271   20.5846 C   0  0  0  0  0  0
  -29.8616  -22.4500   21.1104 C   0  0  0  0  0  0
  -29.1302  -23.7424   20.9659 C   0  0  0  0  0  0
  -28.4477  -16.2922   17.8767 C   0  0  0  0  0  0
  -32.9665  -20.2075   21.3698 C   0  0  0  0  0  0
  -27.9728  -16.8512   19.2227 C   0  0  0  0  0  0
  -29.8629  -25.0684   21.2286 C   0  0  0  0  0  0
  -28.9498  -26.3215   21.3274 C   0  0  0  0  0  0
  -29.9641  -15.6035   21.0458 N   0  0  0  0  0  0
  -27.9374  -23.7810   20.6497 O   0  0  0  0  0  0
  -31.6962  -20.1288   22.0031 O   0  0  0  0  0  0
  -31.4745  -12.4852   19.1203 H   0  0  0  0  0  0
  -30.3813  -11.3615   19.8861 H   0  0  0  0  0  0
  -29.7694  -11.7110   17.4828 H   0  0  0  0  0  0
  -29.6261  -13.4293   17.7347 H   0  0  0  0  0  0
  -27.8730  -11.2293   18.8920 H   0  0  0  0  0  0
  -27.3658  -12.4934   17.8023 H   0  0  0  0  0  0
  -27.6634  -14.1552   19.4536 H   0  0  0  0  0  0
  -28.7167  -12.0595   21.4217 H   0  0  0  0  0  0
  -28.4358  -13.7240   21.8129 H   0  0  0  0  0  0
  -25.2704   -9.5607   22.4852 H   0  0  0  0  0  0
  -24.0018   -7.4529   22.7501 H   0  0  0  0  0  0
  -21.0834   -8.8644   19.8982 H   0  0  0  0  0  0
  -22.3643  -10.9595   19.6211 H   0  0  0  0  0  0
  -21.1890   -7.6110   23.9656 H   0  0  0  0  0  0
  -21.1560   -6.0557   25.9099 H   0  0  0  0  0  0
  -22.0601   -2.7564   23.2934 H   0  0  0  0  0  0
  -22.4007  -11.9766   22.4813 H   0  0  0  0  0  0
  -21.1043  -13.1203   22.2752 H   0  0  0  0  0  0
  -24.6148  -15.7969   20.4613 H   0  0  0  0  0  0
  -26.2067  -15.5724   19.9441 H   0  0  0  0  0  0
  -26.7099  -32.5562   23.1223 H   0  0  0  0  0  0
  -25.0002  -33.9743   25.0508 H   0  0  0  0  0  0
  -22.6908  -31.3092   21.4049 H   0  0  0  0  0  0
  -23.3702  -35.9665   23.3255 H   0  0  0  0  0  0
  -24.3594  -36.8950   22.2052 H   0  0  0  0  0  0
  -23.7240  -37.6521   23.6662 H   0  0  0  0  0  0
  -26.0322  -31.5984   20.5885 H   0  0  0  0  0  0
  -26.8170  -30.9038   21.9789 H   0  0  0  0  0  0
  -28.0992  -29.1164   21.2026 H   0  0  0  0  0  0
  -26.1104  -25.9886   19.0037 H   0  0  0  0  0  0
  -23.9995  -27.2900   19.0370 H   0  0  0  0  0  0
  -23.7390  -30.5964   19.4024 H   0  0  0  0  0  0
  -22.7429  -29.2450   19.8594 H   0  0  0  0  0  0
  -25.1248  -36.1938   25.0840 H   0  0  0  0  0  0
  -21.0019  -28.3257   24.1445 H   0  0  0  0  0  0
  -20.5712  -26.2279   23.3619 H   0  0  0  0  0  0
  -21.6645  -26.7487   22.1232 H   0  0  0  0  0  0
  -19.6891  -25.6327   21.1271 H   0  0  0  0  0  0
  -19.6701  -27.3233   20.6775 H   0  0  0  0  0  0
  -17.4222  -26.6739   21.4013 H   0  0  0  0  0  0
  -18.0306  -26.0104   22.9039 H   0  0  0  0  0  0
  -19.7925  -30.7273   24.2331 H   0  0  0  0  0  0
  -17.5013  -31.6275   24.5219 H   0  0  0  0  0  0
  -15.5356  -30.3045   23.7584 H   0  0  0  0  0  0
  -15.8698  -28.0899   22.6970 H   0  0  0  0  0  0
  -24.5920  -30.6992   25.7828 H   0  0  0  0  0  0
  -24.8912  -32.2794   26.4947 H   0  0  0  0  0  0
  -25.8098  -30.8831   27.0239 H   0  0  0  0  0  0
  -26.2885  -29.6750   24.1119 H   0  0  0  0  0  0
  -27.4093  -29.7238   25.4536 H   0  0  0  0  0  0
  -27.8713  -30.4338   23.9249 H   0  0  0  0  0  0
  -27.2759  -33.3538   26.2144 H   0  0  0  0  0  0
  -28.3892  -32.6783   25.0323 H   0  0  0  0  0  0
  -28.0749  -31.8289   26.5366 H   0  0  0  0  0  0
  -28.2567  -38.0144   24.7527 H   0  0  0  0  0  0
  -28.1117  -36.2673   24.6211 H   0  0  0  0  0  0
  -27.2327  -37.1385   25.8865 H   0  0  0  0  0  0
  -20.9265  -29.8770   21.6969 H   0  0  0  0  0  0
  -26.0124  -38.2843   24.1458 H   0  0  0  0  0  0
  -28.0834  -19.4524   19.3345 H   0  0  0  0  0  0
  -31.7353  -17.4834   22.0350 H   0  0  0  0  0  0
  -28.3964  -21.4758   20.0457 H   0  0  0  0  0  0
  -30.7951  -22.4453   21.6511 H   0  0  0  0  0  0
  -27.6559  -15.7201   17.3900 H   0  0  0  0  0  0
  -29.3090  -15.6390   17.9943 H   0  0  0  0  0  0
  -28.7272  -17.0982   17.1973 H   0  0  0  0  0  0
  -33.4971  -21.0960   21.7164 H   0  0  0  0  0  0
  -32.8715  -20.2824   20.2828 H   0  0  0  0  0  0
  -33.5756  -19.3346   21.6088 H   0  0  0  0  0  0
  -27.0879  -17.4677   19.0547 H   0  0  0  0  0  0
  -27.6607  -16.0927   19.9179 H   0  0  0  0  0  0
  -30.6083  -25.2185   20.4494 H   0  0  0  0  0  0
  -30.4063  -24.9566   22.1672 H   0  0  0  0  0  0
  -29.5382  -27.1572   21.7065 H   0  0  0  0  0  0
  -28.1590  -26.1473   22.0616 H   0  0  0  0  0  0
  -29.0741  -15.2949   21.4040 H   0  0  0  0  0  0
  1 25  1  0  0  0
  1 30  2  0  0  0
  1 85  1  0  0  0
  2  3  1  0  0  0
  2 25  1  0  0  0
  2 88  1  0  0  0
  2 89  1  0  0  0
  3  4  1  0  0  0
  3 90  1  0  0  0
  3 91  1  0  0  0
  4  5  1  0  0  0
  4 92  1  0  0  0
  4 93  1  0  0  0
  5  6  1  0  0  0
  5 26  1  0  0  0
  5 94  1  0  0  0
  6 25  1  0  0  0
  6 95  1  0  0  0
  6 96  1  0  0  0
  7  8  2  0  0  0
  7 26  1  0  0  0
  7 29  1  0  0  0
  8  9  1  0  0  0
  8 22  1  0  0  0
  9 10  1  0  0  0
  9 27  2  0  0  0
 10 11  2  0  0  0
 10 15  1  0  0  0
 11 12  1  0  0  0
 11 97  1  0  0  0
 12 13  2  0  0  0
 12 98  1  0  0  0
 13 14  1  0  0  0
 13 31  1  0  0  0
 14 15  2  0  0  0
 14 99  1  0  0  0
 15100  1  0  0  0
 16 17  2  0  0  0
 16 21  1  0  0  0
 16 31  1  0  0  0
 17 18  1  0  0  0
 17101  1  0  0  0
 18 19  2  0  0  0
 18102  1  0  0  0
 19 20  1  0  0  0
 19 24  1  0  0  0
 20 21  2  0  0  0
 20103  1  0  0  0
 21 23  1  0  0  0
 22 28  1  0  0  0
 22 32  2  0  0  0
 26 27  1  0  0  0
 28104  1  0  0  0
 28105  1  0  0  0
 29106  1  0  0  0
 29107  1  0  0  0
 33 34  1  0  0  0
 33 66  1  0  0  0
 33 70  2  0  0  0
 34 36  1  0  0  0
 34 59  1  0  0  0
 34108  1  0  0  0
 35 44  2  0  0  0
 35 45  1  0  0  0
 35 68  1  0  0  0
 36 56  1  0  0  0
 36109  1  0  0  0
 37 39  1  0  0  0
 37 47  1  0  0  0
 37 66  1  0  0  0
 37110  1  0  0  0
 38 43  2  0  0  0
 38 46  1  0  0  0
 38 47  1  0  0  0
 39 64  1  0  0  0
 39 67  2  0  0  0
 40 52  1  0  0  0
 40 53  2  0  0  0
 40 58  1  0  0  0
 41111  1  0  0  0
 41112  1  0  0  0
 41113  1  0  0  0
 41 48  1  0  0  0
 42 43  1  0  0  0
 42 66  1  0  0  0
 42114  1  0  0  0
 42115  1  0  0  0
 43 44  1  0  0  0
 44116  1  0  0  0
 45 46  2  0  0  0
 45117  1  0  0  0
 46118  1  0  0  0
 47119  1  0  0  0
 47120  1  0  0  0
 48 56  1  0  0  0
 48 65  1  0  0  0
 48121  1  0  0  0
 49 50  1  0  0  0
 49 53  1  0  0  0
 49 64  1  0  0  0
 49122  1  0  0  0
 50 51  1  0  0  0
 50123  1  0  0  0
 50124  1  0  0  0
 51 52  1  0  0  0
 51125  1  0  0  0
 51126  1  0  0  0
 52127  1  0  0  0
 52128  1  0  0  0
 53 54  1  0  0  0
 54 55  2  0  0  0
 54129  1  0  0  0
 55 57  1  0  0  0
 55130  1  0  0  0
 56 69  2  0  0  0
 57 58  2  0  0  0
 57131  1  0  0  0
 58132  1  0  0  0
 59 60  1  0  0  0
 59 61  1  0  0  0
 59 62  1  0  0  0
 60133  1  0  0  0
 60134  1  0  0  0
 60135  1  0  0  0
 61136  1  0  0  0
 61137  1  0  0  0
 61138  1  0  0  0
 62139  1  0  0  0
 62140  1  0  0  0
 62141  1  0  0  0
 63 65  1  0  0  0
 63142  1  0  0  0
 63143  1  0  0  0
 63144  1  0  0  0
 64145  1  0  0  0
 65146  1  0  0  0
 68 84  1  0  0  0
 71 73  2  0  0  0
 71 74  1  0  0  0
 71147  1  0  0  0
 72 75  1  0  0  0
 72 76  2  0  0  0
 72148  1  0  0  0
 73 76  1  0  0  0
 73 77  1  0  0  0
 74 75  2  0  0  0
 74 82  1  0  0  0
 75 85  1  0  0  0
 76 87  1  0  0  0
 77 78  2  0  0  0
 77149  1  0  0  0
 78 79  1  0  0  0
 78150  1  0  0  0
 79 83  1  0  0  0
 79 86  2  0  0  0
 80 82  1  0  0  0
 80151  1  0  0  0
 80152  1  0  0  0
 80153  1  0  0  0
 81 87  1  0  0  0
 81154  1  0  0  0
 81155  1  0  0  0
 81156  1  0  0  0
 82157  1  0  0  0
 82158  1  0  0  0
 83 84  1  0  0  0
 83159  1  0  0  0
 83160  1  0  0  0
 84161  1  0  0  0
 84162  1  0  0  0
 85163  1  0  0  0
M  ISO  4   1 100  68 101  84 101  85 100
M  END
> <chiral flag>
0

> <version>
0

> <s_m_source_file>
/data/baiqing/PycharmProjects/Reinvent-master-3.2/result/LINK_invent/BTK/process_docking_weight1_custom_product_contain_oxygen_bond_distance_aromatic_linkinvent_7_9_3/rearranged_h_0128.sdf

> <i_m_source_file_index>
89

> <r_mmod_Potential_Energy-OPLS-2005>
14.6442003250122

> <r_mmod_Stretch_Energy-OPLS-2005>
44.7251968383789

> <r_mmod_Bend_Energy-OPLS-2005>
118.254135131836

> <r_mmod_Torsional_Energy-OPLS-2005>
286.059844970703

> <r_mmod_Improper_Torsional_Energy-OPLS-2005>
6.35898780822754

> <r_mmod_Van_der_Waal_Energy-OPLS-2005>
149.9736328125

> <r_mmod_Electrostatic_Energy-OPLS-2005>
-391.793273925781

> <r_mmod_Solvation_Energy-OPLS-2005>
-222.765899658203

> <b_mmod_Minimization_Converged-OPLS-2005>
0

> <r_mmod_RMS_Derivative-OPLS-2005>
3.98220896720886

$$$$
89
                    3D
 Structure written by MMmdl.
160168  0  0  1  0            999 V2000
  -30.6967  -14.4867   20.5582 C   0  0  0  0  0  0
  -30.4210  -12.3095   19.4437 C   0  0  0  0  0  0
  -29.5042  -12.5180   18.2194 C   0  0  0  0  0  0
  -28.0228  -12.3807   18.6182 C   0  0  0  0  0  0
  -27.6643  -13.2139   19.8767 C   0  0  2  0  0  0
  -28.7000  -13.0083   21.0064 C   0  0  0  0  0  0
  -25.2612  -13.8162   20.5675 C   0  0  0  0  0  0
  -24.1852  -13.0435   20.9152 C   0  0  0  0  0  0
  -24.6406  -11.6903   20.8716 C   0  0  0  0  0  0
  -23.9071  -10.4291   21.0408 C   0  0  0  0  0  0
  -24.3612   -9.4203   21.9180 C   0  0  0  0  0  0
  -23.6282   -8.2234   22.0737 C   0  0  0  0  0  0
  -22.4275   -8.0283   21.3506 C   0  0  0  0  0  0
  -21.9919   -9.0276   20.4632 C   0  0  0  0  0  0
  -22.7253  -10.2142   20.3051 C   0  0  0  0  0  0
  -21.6853   -6.0742   22.5269 C   0  0  0  0  0  0
  -21.4034   -6.5643   23.8212 C   0  0  0  0  0  0
  -21.3670   -5.6774   24.9156 C   0  0  0  0  0  0
  -21.6046   -4.3033   24.7209 C   0  0  0  0  0  0
  -21.8819   -3.8136   23.4321 C   0  0  0  0  0  0
  -21.9188   -4.6965   22.3385 C   0  0  0  0  0  0
  -22.7883  -13.5254   21.1823 C   0  0  0  0  0  0
  -22.1653   -4.2154   21.0958 F   0  0  0  0  0  0
  -21.5636   -3.4514   25.7725 F   0  0  0  0  0  0
  -30.0367  -13.2987   20.4648 N   0  0  0  0  0  0
  -26.3044  -12.9339   20.3347 N   0  0  0  0  0  0
  -25.9334  -11.6495   20.5737 N   0  0  0  0  0  0
  -22.0487  -12.8273   22.0374 N   0  0  0  0  0  0
  -25.4379  -15.1887   20.4145 N   0  0  0  0  0  0
  -31.8335  -14.6557   20.1087 O   0  0  0  0  0  0
  -21.6606   -6.8897   21.4238 O   0  0  0  0  0  0
  -22.3605  -14.5587   20.6696 O   0  0  0  0  0  0
  -24.6193  -31.8666   23.2056 C   0  0  0  0  0  0
  -25.9081  -32.4811   23.8370 C   0  0  1  0  0  0
  -27.2312  -27.4000   20.1068 C   0  0  0  0  0  0
  -25.5932  -33.8613   24.2307 N   0  0  0  0  0  0
  -23.4080  -30.4922   21.5463 C   0  0  2  0  0  0
  -24.8553  -28.9614   20.1056 C   0  0  0  0  0  0
  -22.7425  -29.4672   22.4941 C   0  0  0  0  0  0
  -18.0297  -28.1401   22.8486 C   0  0  0  0  0  0
  -24.1498  -36.7318   23.2639 C   0  0  0  0  0  0
  -25.9394  -30.8243   21.3609 C   0  0  0  0  0  0
  -26.0184  -29.4576   20.7081 C   0  0  0  0  0  0
  -27.2093  -28.6866   20.7025 C   0  0  0  0  0  0
  -26.0474  -26.9417   19.4769 C   0  0  0  0  0  0
  -24.8700  -27.7070   19.4784 C   0  0  0  0  0  0
  -23.6161  -29.8272   20.1595 C   0  0  0  0  0  0
  -25.4116  -36.3104   24.0335 C   0  0  1  0  0  0
  -20.5881  -28.3705   23.1290 C   0  0  2  0  0  0
  -20.6772  -26.9435   22.5400 C   0  0  0  0  0  0
  -19.5755  -26.6399   21.5204 C   0  0  0  0  0  0
  -18.1943  -26.7955   22.1613 C   0  0  0  0  0  0
  -19.1540  -28.8864   23.2898 C   0  0  0  0  0  0
  -18.9463  -30.1467   23.8919 C   0  0  0  0  0  0
  -17.6465  -30.6598   24.0573 C   0  0  0  0  0  0
  -25.9046  -34.9474   23.5107 C   0  0  0  0  0  0
  -16.5362  -29.9106   23.6327 C   0  0  0  0  0  0
  -16.7282  -28.6524   23.0342 C   0  0  0  0  0  0
  -26.4500  -31.6596   25.0709 C   0  0  0  0  0  0
  -25.3751  -31.3720   26.1448 C   0  0  0  0  0  0
  -27.0314  -30.3040   24.6079 C   0  0  0  0  0  0
  -27.6082  -32.4310   25.7470 C   0  0  0  0  0  0
  -27.5588  -37.1812   24.8464 C   0  0  0  0  0  0
  -21.4148  -29.3074   22.3678 N   0  0  0  0  0  0
  -26.4302  -37.3785   23.9410 N   0  0  0  0  0  0
  -24.6750  -31.0739   22.0975 N   0  0  0  0  0  0
  -23.4178  -28.8211   23.2996 O   0  0  0  0  0  0
  -28.3711  -26.6030   20.1676 O   0  0  0  0  0  0
  -26.5587  -34.8925   22.4659 O   0  0  0  0  0  0
  -23.5381  -32.1437   23.7436 O   0  0  0  0  0  0
  -29.7347  -18.0929   18.2915 C   0  0  0  0  0  0
  -29.9798  -16.8857   18.9604 C   0  0  0  0  0  0
  -29.5582  -17.9986   21.0807 C   0  0  0  0  0  0
  -29.3983  -19.2664   18.9954 C   0  0  0  0  0  0
  -29.8704  -16.8080   20.3666 C   0  0  0  0  0  0
  -29.3704  -19.2484   20.4211 C   0  0  0  0  0  0
  -27.4146  -20.5646   18.1264 C   0  0  0  0  0  0
  -28.9457  -20.4499   18.1508 C   0  0  0  0  0  0
  -29.2741  -24.2099   20.6275 C   0  0  0  0  0  0
  -28.7332  -22.7548   20.7984 C   0  0  0  0  0  0
  -28.1099  -25.1797   20.2733 C   0  0  0  0  0  0
  -29.7482  -21.6014   21.0382 C   0  0  0  0  0  0
  -29.9773  -15.5339   21.0230 N   0  0  0  0  0  0
  -29.0473  -20.3501   21.2032 O   0  0  0  0  0  0
  -31.4694  -12.3993   19.1528 H   0  0  0  0  0  0
  -30.3098  -11.2989   19.8415 H   0  0  0  0  0  0
  -29.7480  -11.7976   17.4377 H   0  0  0  0  0  0
  -29.6783  -13.5069   17.7915 H   0  0  0  0  0  0
  -27.8261  -11.3260   18.8059 H   0  0  0  0  0  0
  -27.3816  -12.6659   17.7841 H   0  0  0  0  0  0
  -27.7041  -14.2612   19.5764 H   0  0  0  0  0  0
  -28.6698  -11.9812   21.3748 H   0  0  0  0  0  0
  -28.4583  -13.6355   21.8657 H   0  0  0  0  0  0
  -25.2759   -9.5664   22.4760 H   0  0  0  0  0  0
  -23.9971   -7.4639   22.7475 H   0  0  0  0  0  0
  -21.0831   -8.8831   19.8967 H   0  0  0  0  0  0
  -22.3733  -10.9687   19.6159 H   0  0  0  0  0  0
  -21.2036   -7.6153   23.9737 H   0  0  0  0  0  0
  -21.1504   -6.0483   25.9077 H   0  0  0  0  0  0
  -22.0598   -2.7605   23.2796 H   0  0  0  0  0  0
  -22.4045  -11.9887   22.4734 H   0  0  0  0  0  0
  -21.1160  -13.1409   22.2624 H   0  0  0  0  0  0
  -24.6802  -15.8525   20.5319 H   0  0  0  0  0  0
  -26.3133  -15.6227   20.1470 H   0  0  0  0  0  0
  -26.7156  -32.5513   23.1136 H   0  0  0  0  0  0
  -25.0120  -33.9771   25.0479 H   0  0  0  0  0  0
  -22.7008  -31.3129   21.4079 H   0  0  0  0  0  0
  -23.3750  -35.9661   23.3293 H   0  0  0  0  0  0
  -24.3603  -36.8939   22.2057 H   0  0  0  0  0  0
  -23.7263  -37.6526   23.6656 H   0  0  0  0  0  0
  -26.0440  -31.5867   20.5876 H   0  0  0  0  0  0
  -26.8303  -30.8839   21.9736 H   0  0  0  0  0  0
  -28.1011  -29.0620   21.1855 H   0  0  0  0  0  0
  -25.9983  -25.9876   18.9750 H   0  0  0  0  0  0
  -23.9850  -27.3237   18.9889 H   0  0  0  0  0  0
  -23.7153  -30.6031   19.3988 H   0  0  0  0  0  0
  -22.7407  -29.2431   19.8674 H   0  0  0  0  0  0
  -25.1295  -36.1948   25.0828 H   0  0  0  0  0  0
  -21.0008  -28.3283   24.1399 H   0  0  0  0  0  0
  -20.5664  -26.2329   23.3602 H   0  0  0  0  0  0
  -21.6647  -26.7464   22.1207 H   0  0  0  0  0  0
  -19.6909  -25.6304   21.1260 H   0  0  0  0  0  0
  -19.6700  -27.3182   20.6718 H   0  0  0  0  0  0
  -17.4209  -26.6714   21.4022 H   0  0  0  0  0  0
  -18.0346  -26.0104   22.9011 H   0  0  0  0  0  0
  -19.7937  -30.7282   24.2287 H   0  0  0  0  0  0
  -17.5023  -31.6277   24.5176 H   0  0  0  0  0  0
  -15.5359  -30.3006   23.7641 H   0  0  0  0  0  0
  -15.8689  -28.0848   22.7028 H   0  0  0  0  0  0
  -24.5891  -30.7125   25.7755 H   0  0  0  0  0  0
  -24.8991  -32.2889   26.4940 H   0  0  0  0  0  0
  -25.8085  -30.8827   27.0177 H   0  0  0  0  0  0
  -26.2831  -29.6804   24.1176 H   0  0  0  0  0  0
  -27.4127  -29.7293   25.4525 H   0  0  0  0  0  0
  -27.8658  -30.4359   23.9186 H   0  0  0  0  0  0
  -27.2715  -33.3602   26.2082 H   0  0  0  0  0  0
  -28.3879  -32.6881   25.0285 H   0  0  0  0  0  0
  -28.0770  -31.8410   26.5354 H   0  0  0  0  0  0
  -28.2600  -38.0111   24.7499 H   0  0  0  0  0  0
  -28.1083  -36.2643   24.6288 H   0  0  0  0  0  0
  -27.2316  -37.1464   25.8868 H   0  0  0  0  0  0
  -20.9290  -29.8828   21.6935 H   0  0  0  0  0  0
  -26.0183  -38.2864   24.1386 H   0  0  0  0  0  0
  -29.7553  -18.0946   17.2110 H   0  0  0  0  0  0
  -30.1984  -16.0112   18.3634 H   0  0  0  0  0  0
  -29.4466  -17.9555   22.1563 H   0  0  0  0  0  0
  -27.0978  -21.4189   17.5284 H   0  0  0  0  0  0
  -27.0011  -20.6772   19.1291 H   0  0  0  0  0  0
  -26.9672  -19.6704   17.6927 H   0  0  0  0  0  0
  -29.2902  -20.3110   17.1251 H   0  0  0  0  0  0
  -29.4153  -21.3778   18.4597 H   0  0  0  0  0  0
  -30.0254  -24.2310   19.8368 H   0  0  0  0  0  0
  -29.7701  -24.5327   21.5426 H   0  0  0  0  0  0
  -28.1517  -22.5178   19.9120 H   0  0  0  0  0  0
  -28.0138  -22.7450   21.6181 H   0  0  0  0  0  0
  -27.3374  -25.0400   21.0316 H   0  0  0  0  0  0
  -27.6979  -24.8212   19.3313 H   0  0  0  0  0  0
  -30.2815  -21.7966   21.9689 H   0  0  0  0  0  0
  -30.5232  -21.5635   20.2716 H   0  0  0  0  0  0
  -29.2096  -15.2922   21.6335 H   0  0  0  0  0  0
  1 25  1  0  0  0
  1 30  2  0  0  0
  1 83  1  0  0  0
  2  3  1  0  0  0
  2 25  1  0  0  0
  2 85  1  0  0  0
  2 86  1  0  0  0
  3  4  1  0  0  0
  3 87  1  0  0  0
  3 88  1  0  0  0
  4  5  1  0  0  0
  4 89  1  0  0  0
  4 90  1  0  0  0
  5  6  1  0  0  0
  5 26  1  0  0  0
  5 91  1  0  0  0
  6 25  1  0  0  0
  6 92  1  0  0  0
  6 93  1  0  0  0
  7  8  2  0  0  0
  7 26  1  0  0  0
  7 29  1  0  0  0
  8  9  1  0  0  0
  8 22  1  0  0  0
  9 10  1  0  0  0
  9 27  2  0  0  0
 10 11  2  0  0  0
 10 15  1  0  0  0
 11 12  1  0  0  0
 11 94  1  0  0  0
 12 13  2  0  0  0
 12 95  1  0  0  0
 13 14  1  0  0  0
 13 31  1  0  0  0
 14 15  2  0  0  0
 14 96  1  0  0  0
 15 97  1  0  0  0
 16 17  2  0  0  0
 16 21  1  0  0  0
 16 31  1  0  0  0
 17 18  1  0  0  0
 17 98  1  0  0  0
 18 19  2  0  0  0
 18 99  1  0  0  0
 19 20  1  0  0  0
 19 24  1  0  0  0
 20 21  2  0  0  0
 20100  1  0  0  0
 21 23  1  0  0  0
 22 28  1  0  0  0
 22 32  2  0  0  0
 26 27  1  0  0  0
 28101  1  0  0  0
 28102  1  0  0  0
 29103  1  0  0  0
 29104  1  0  0  0
 33 34  1  0  0  0
 33 66  1  0  0  0
 33 70  2  0  0  0
 34 36  1  0  0  0
 34 59  1  0  0  0
 34105  1  0  0  0
 35 44  2  0  0  0
 35 45  1  0  0  0
 35 68  1  0  0  0
 36 56  1  0  0  0
 36106  1  0  0  0
 37 39  1  0  0  0
 37 47  1  0  0  0
 37 66  1  0  0  0
 37107  1  0  0  0
 38 43  2  0  0  0
 38 46  1  0  0  0
 38 47  1  0  0  0
 39 64  1  0  0  0
 39 67  2  0  0  0
 40 52  1  0  0  0
 40 53  2  0  0  0
 40 58  1  0  0  0
 41108  1  0  0  0
 41109  1  0  0  0
 41110  1  0  0  0
 41 48  1  0  0  0
 42 43  1  0  0  0
 42 66  1  0  0  0
 42111  1  0  0  0
 42112  1  0  0  0
 43 44  1  0  0  0
 44113  1  0  0  0
 45 46  2  0  0  0
 45114  1  0  0  0
 46115  1  0  0  0
 47116  1  0  0  0
 47117  1  0  0  0
 48 56  1  0  0  0
 48 65  1  0  0  0
 48118  1  0  0  0
 49 50  1  0  0  0
 49 53  1  0  0  0
 49 64  1  0  0  0
 49119  1  0  0  0
 50 51  1  0  0  0
 50120  1  0  0  0
 50121  1  0  0  0
 51 52  1  0  0  0
 51122  1  0  0  0
 51123  1  0  0  0
 52124  1  0  0  0
 52125  1  0  0  0
 53 54  1  0  0  0
 54 55  2  0  0  0
 54126  1  0  0  0
 55 57  1  0  0  0
 55127  1  0  0  0
 56 69  2  0  0  0
 57 58  2  0  0  0
 57128  1  0  0  0
 58129  1  0  0  0
 59 60  1  0  0  0
 59 61  1  0  0  0
 59 62  1  0  0  0
 60130  1  0  0  0
 60131  1  0  0  0
 60132  1  0  0  0
 61133  1  0  0  0
 61134  1  0  0  0
 61135  1  0  0  0
 62136  1  0  0  0
 62137  1  0  0  0
 62138  1  0  0  0
 63 65  1  0  0  0
 63139  1  0  0  0
 63140  1  0  0  0
 63141  1  0  0  0
 64142  1  0  0  0
 65143  1  0  0  0
 68 81  1  0  0  0
 71 72  2  0  0  0
 71 74  1  0  0  0
 71144  1  0  0  0
 72 75  1  0  0  0
 72145  1  0  0  0
 73 75  2  0  0  0
 73 76  1  0  0  0
 73146  1  0  0  0
 74 76  2  0  0  0
 74 78  1  0  0  0
 75 83  1  0  0  0
 76 84  1  0  0  0
 77 78  1  0  0  0
 77147  1  0  0  0
 77148  1  0  0  0
 77149  1  0  0  0
 78150  1  0  0  0
 78151  1  0  0  0
 79 80  1  0  0  0
 79 81  1  0  0  0
 79152  1  0  0  0
 79153  1  0  0  0
 80 82  1  0  0  0
 80154  1  0  0  0
 80155  1  0  0  0
 81156  1  0  0  0
 81157  1  0  0  0
 82 84  1  0  0  0
 82158  1  0  0  0
 82159  1  0  0  0
 83160  1  0  0  0
M  ISO  4   1 100  68 101  81 101  83 100
M  END
> <chiral flag>
0

> <version>
0

> <s_m_source_file>
/data/baiqing/PycharmProjects/Reinvent-master-3.2/result/LINK_invent/BTK/process_docking_weight1_custom_product_contain_oxygen_bond_distance_aromatic_linkinvent_7_9_3/rearranged_h_0128.sdf

> <i_m_source_file_index>
90

> <r_mmod_Potential_Energy-OPLS-2005>
29.2981224060059

> <r_mmod_Stretch_Energy-OPLS-2005>
46.4334297180176

> <r_mmod_Bend_Energy-OPLS-2005>
113.536346435547

> <r_mmod_Torsional_Energy-OPLS-2005>
263.559051513672

> <r_mmod_Improper_Torsional_Energy-OPLS-2005>
6.26914644241333

> <r_mmod_Van_der_Waal_Energy-OPLS-2005>
156.998947143555

> <r_mmod_Electrostatic_Energy-OPLS-2005>
-370.008697509766

> <r_mmod_Solvation_Energy-OPLS-2005>
-206.287887573242

> <b_mmod_Minimization_Converged-OPLS-2005>
0

> <r_mmod_RMS_Derivative-OPLS-2005>
2.84827375411987

$$$$
90
                    3D
 Structure written by MMmdl.
157165  0  0  1  0            999 V2000
  -30.5663  -14.6581   20.5023 C   0  0  0  0  0  0
  -30.4449  -12.4050   19.4443 C   0  0  0  0  0  0
  -29.5127  -12.5251   18.2167 C   0  0  0  0  0  0
  -28.0287  -12.3602   18.6191 C   0  0  0  0  0  0
  -27.6494  -13.2107   19.8624 C   0  0  2  0  0  0
  -28.6945  -13.0266   20.9864 C   0  0  0  0  0  0
  -25.2564  -13.8133   20.5756 C   0  0  0  0  0  0
  -24.1826  -13.0387   20.9227 C   0  0  0  0  0  0
  -24.6397  -11.6854   20.8726 C   0  0  0  0  0  0
  -23.9051  -10.4241   21.0377 C   0  0  0  0  0  0
  -24.3605   -9.4174   21.9166 C   0  0  0  0  0  0
  -23.6314   -8.2208   22.0747 C   0  0  0  0  0  0
  -22.4281   -8.0252   21.3545 C   0  0  0  0  0  0
  -21.9903   -9.0206   20.4632 C   0  0  0  0  0  0
  -22.7219  -10.2088   20.3028 C   0  0  0  0  0  0
  -21.6861   -6.0747   22.5293 C   0  0  0  0  0  0
  -21.4010   -6.5644   23.8233 C   0  0  0  0  0  0
  -21.3658   -5.6781   24.9194 C   0  0  0  0  0  0
  -21.6044   -4.3055   24.7248 C   0  0  0  0  0  0
  -21.8803   -3.8163   23.4370 C   0  0  0  0  0  0
  -21.9189   -4.6977   22.3417 C   0  0  0  0  0  0
  -22.7849  -13.5184   21.1889 C   0  0  0  0  0  0
  -22.1645   -4.2171   21.0995 F   0  0  0  0  0  0
  -21.5651   -3.4530   25.7743 F   0  0  0  0  0  0
  -30.0055  -13.4075   20.4355 N   0  0  0  0  0  0
  -26.2958  -12.9309   20.3295 N   0  0  0  0  0  0
  -25.9309  -11.6460   20.5703 N   0  0  0  0  0  0
  -22.0455  -12.8200   22.0432 N   0  0  0  0  0  0
  -25.4256  -15.1882   20.4340 N   0  0  0  0  0  0
  -31.7280  -14.8637   20.1307 O   0  0  0  0  0  0
  -21.6622   -6.8866   21.4239 O   0  0  0  0  0  0
  -22.3527  -14.5481   20.6715 O   0  0  0  0  0  0
  -24.6190  -31.8581   23.2024 C   0  0  0  0  0  0
  -25.9017  -32.4784   23.8367 C   0  0  1  0  0  0
  -27.2501  -27.3412   20.1510 C   0  0  0  0  0  0
  -25.5845  -33.8587   24.2281 N   0  0  0  0  0  0
  -23.4148  -30.4739   21.5439 C   0  0  2  0  0  0
  -24.8697  -28.9179   20.1205 C   0  0  0  0  0  0
  -22.7447  -29.4592   22.4984 C   0  0  0  0  0  0
  -18.0251  -28.1358   22.8485 C   0  0  0  0  0  0
  -24.1477  -36.7311   23.2647 C   0  0  0  0  0  0
  -25.9481  -30.7980   21.3685 C   0  0  0  0  0  0
  -26.0285  -29.4215   20.7233 C   0  0  0  0  0  0
  -27.2211  -28.6447   20.7224 C   0  0  0  0  0  0
  -26.0711  -26.8713   19.5310 C   0  0  0  0  0  0
  -24.8922  -27.6497   19.5108 C   0  0  0  0  0  0
  -23.6294  -29.7890   20.1643 C   0  0  0  0  0  0
  -25.4106  -36.3117   24.0343 C   0  0  1  0  0  0
  -20.5852  -28.3652   23.1308 C   0  0  2  0  0  0
  -20.6749  -26.9379   22.5436 C   0  0  0  0  0  0
  -19.5755  -26.6358   21.5209 C   0  0  0  0  0  0
  -18.1918  -26.7918   22.1588 C   0  0  0  0  0  0
  -19.1510  -28.8835   23.2890 C   0  0  0  0  0  0
  -18.9437  -30.1432   23.8892 C   0  0  0  0  0  0
  -17.6442  -30.6578   24.0551 C   0  0  0  0  0  0
  -25.9025  -34.9466   23.5127 C   0  0  0  0  0  0
  -16.5324  -29.9064   23.6326 C   0  0  0  0  0  0
  -16.7242  -28.6482   23.0355 C   0  0  0  0  0  0
  -26.4416  -31.6597   25.0729 C   0  0  0  0  0  0
  -25.3666  -31.3705   26.1481 C   0  0  0  0  0  0
  -27.0257  -30.3044   24.6140 C   0  0  0  0  0  0
  -27.5984  -32.4339   25.7478 C   0  0  0  0  0  0
  -27.5586  -37.1816   24.8450 C   0  0  0  0  0  0
  -21.4160  -29.3013   22.3717 N   0  0  0  0  0  0
  -26.4299  -37.3810   23.9408 N   0  0  0  0  0  0
  -24.6785  -31.0609   22.0959 N   0  0  0  0  0  0
  -23.4164  -28.8153   23.3077 O   0  0  0  0  0  0
  -28.4273  -26.5868   20.1101 O   0  0  0  0  0  0
  -26.5622  -34.8934   22.4720 O   0  0  0  0  0  0
  -23.5361  -32.1354   23.7366 O   0  0  0  0  0  0
  -28.1672  -19.1283   20.7246 C   0  0  0  0  0  0
  -28.3753  -17.7371   20.9171 C   0  0  0  0  0  0
  -30.6884  -17.9896   20.3248 C   0  0  0  0  0  0
  -29.1953  -20.0023   20.2951 C   0  0  0  0  0  0
  -29.6282  -17.1106   20.6933 C   0  0  0  0  0  0
  -30.4792  -19.3975   20.1214 C   0  0  0  0  0  0
  -28.7963  -21.4358   19.9656 C   0  0  0  0  0  0
  -29.3117  -22.6635   20.2918 C   0  0  0  0  0  0
  -29.9421  -25.5125   21.5273 C   0  0  0  0  0  0
  -27.5266  -24.9789   21.8462 C   0  0  0  0  0  0
  -28.7716  -24.0510   19.7808 C   0  0  0  0  0  0
  -28.6098  -25.2811   20.7839 C   0  0  0  0  0  0
  -29.6884  -15.6516   20.8556 N   0  0  0  0  0  0
  -31.8055  -20.3593   19.5684 Cl  0  0  0  0  0  0
  -31.4849  -12.5546   19.1465 H   0  0  0  0  0  0
  -30.3959  -11.3990   19.8625 H   0  0  0  0  0  0
  -29.7808  -11.7798   17.4646 H   0  0  0  0  0  0
  -29.6549  -13.4992   17.7461 H   0  0  0  0  0  0
  -27.8651  -11.3041   18.8366 H   0  0  0  0  0  0
  -27.3749  -12.6018   17.7796 H   0  0  0  0  0  0
  -27.6698  -14.2513   19.5467 H   0  0  0  0  0  0
  -28.7158  -11.9827   21.3093 H   0  0  0  0  0  0
  -28.4373  -13.6034   21.8754 H   0  0  0  0  0  0
  -25.2735   -9.5705   22.4745 H   0  0  0  0  0  0
  -24.0036   -7.4606   22.7459 H   0  0  0  0  0  0
  -21.0835   -8.8713   19.8943 H   0  0  0  0  0  0
  -22.3661  -10.9637   19.6154 H   0  0  0  0  0  0
  -21.1977   -7.6129   23.9771 H   0  0  0  0  0  0
  -21.1505   -6.0494   25.9102 H   0  0  0  0  0  0
  -22.0595   -2.7632   23.2850 H   0  0  0  0  0  0
  -22.4035  -11.9863   22.4883 H   0  0  0  0  0  0
  -21.1069  -13.1265   22.2567 H   0  0  0  0  0  0
  -24.6641  -15.8357   20.6030 H   0  0  0  0  0  0
  -26.2598  -15.6432   20.0858 H   0  0  0  0  0  0
  -26.7082  -32.5467   23.1115 H   0  0  0  0  0  0
  -24.9946  -33.9752   25.0396 H   0  0  0  0  0  0
  -22.7079  -31.2922   21.3935 H   0  0  0  0  0  0
  -23.3766  -35.9616   23.3308 H   0  0  0  0  0  0
  -24.3562  -36.8933   22.2058 H   0  0  0  0  0  0
  -23.7188  -37.6504   23.6663 H   0  0  0  0  0  0
  -26.0622  -31.5538   20.5911 H   0  0  0  0  0  0
  -26.8343  -30.8598   21.9891 H   0  0  0  0  0  0
  -28.1193  -29.0353   21.1820 H   0  0  0  0  0  0
  -26.0658  -25.8974   19.0632 H   0  0  0  0  0  0
  -24.0052  -27.2620   19.0269 H   0  0  0  0  0  0
  -23.7292  -30.5513   19.3908 H   0  0  0  0  0  0
  -22.7548  -29.1983   19.8839 H   0  0  0  0  0  0
  -25.1298  -36.1988   25.0844 H   0  0  0  0  0  0
  -20.9912  -28.3215   24.1434 H   0  0  0  0  0  0
  -20.5594  -26.2274   23.3640 H   0  0  0  0  0  0
  -21.6632  -26.7403   22.1252 H   0  0  0  0  0  0
  -19.6922  -25.6264   21.1257 H   0  0  0  0  0  0
  -19.6718  -27.3148   20.6729 H   0  0  0  0  0  0
  -17.4212  -26.6682   21.3961 H   0  0  0  0  0  0
  -18.0281  -26.0024   22.8944 H   0  0  0  0  0  0
  -19.7914  -30.7252   24.2248 H   0  0  0  0  0  0
  -17.4994  -31.6273   24.5129 H   0  0  0  0  0  0
  -15.5328  -30.2974   23.7667 H   0  0  0  0  0  0
  -15.8632  -28.0806   22.7081 H   0  0  0  0  0  0
  -24.5804  -30.7092   25.7807 H   0  0  0  0  0  0
  -24.8888  -32.2853   26.5005 H   0  0  0  0  0  0
  -25.8006  -30.8804   27.0204 H   0  0  0  0  0  0
  -26.2835  -29.6829   24.1102 H   0  0  0  0  0  0
  -27.3921  -29.7254   25.4627 H   0  0  0  0  0  0
  -27.8711  -30.4384   23.9379 H   0  0  0  0  0  0
  -27.2569  -33.3576   26.2170 H   0  0  0  0  0  0
  -28.3708  -32.7009   25.0244 H   0  0  0  0  0  0
  -28.0754  -31.8402   26.5294 H   0  0  0  0  0  0
  -28.2615  -38.0108   24.7524 H   0  0  0  0  0  0
  -28.1087  -36.2652   24.6250 H   0  0  0  0  0  0
  -27.2318  -37.1421   25.8858 H   0  0  0  0  0  0
  -20.9344  -29.8712   21.6905 H   0  0  0  0  0  0
  -26.0197  -38.2897   24.1435 H   0  0  0  0  0  0
  -27.1783  -19.5327   20.8911 H   0  0  0  0  0  0
  -27.5277  -17.1460   21.2282 H   0  0  0  0  0  0
  -31.6763  -17.5798   20.1685 H   0  0  0  0  0  0
  -27.9397  -21.4714   19.3056 H   0  0  0  0  0  0
  -30.1822  -22.7010   20.9313 H   0  0  0  0  0  0
  -30.2056  -24.6717   22.1688 H   0  0  0  0  0  0
  -29.8928  -26.3927   22.1711 H   0  0  0  0  0  0
  -30.7661  -25.6640   20.8301 H   0  0  0  0  0  0
  -27.7330  -24.0285   22.3408 H   0  0  0  0  0  0
  -26.5300  -24.9007   21.4146 H   0  0  0  0  0  0
  -27.4999  -25.7407   22.6273 H   0  0  0  0  0  0
  -27.8271  -23.8864   19.2640 H   0  0  0  0  0  0
  -29.4651  -24.3653   18.9999 H   0  0  0  0  0  0
  -28.8026  -15.2483   21.1227 H   0  0  0  0  0  0
  1 25  1  0  0  0
  1 30  2  0  0  0
  1 83  1  0  0  0
  2  3  1  0  0  0
  2 25  1  0  0  0
  2 85  1  0  0  0
  2 86  1  0  0  0
  3  4  1  0  0  0
  3 87  1  0  0  0
  3 88  1  0  0  0
  4  5  1  0  0  0
  4 89  1  0  0  0
  4 90  1  0  0  0
  5  6  1  0  0  0
  5 26  1  0  0  0
  5 91  1  0  0  0
  6 25  1  0  0  0
  6 92  1  0  0  0
  6 93  1  0  0  0
  7  8  2  0  0  0
  7 26  1  0  0  0
  7 29  1  0  0  0
  8  9  1  0  0  0
  8 22  1  0  0  0
  9 10  1  0  0  0
  9 27  2  0  0  0
 10 11  2  0  0  0
 10 15  1  0  0  0
 11 12  1  0  0  0
 11 94  1  0  0  0
 12 13  2  0  0  0
 12 95  1  0  0  0
 13 14  1  0  0  0
 13 31  1  0  0  0
 14 15  2  0  0  0
 14 96  1  0  0  0
 15 97  1  0  0  0
 16 17  2  0  0  0
 16 21  1  0  0  0
 16 31  1  0  0  0
 17 18  1  0  0  0
 17 98  1  0  0  0
 18 19  2  0  0  0
 18 99  1  0  0  0
 19 20  1  0  0  0
 19 24  1  0  0  0
 20 21  2  0  0  0
 20100  1  0  0  0
 21 23  1  0  0  0
 22 28  1  0  0  0
 22 32  2  0  0  0
 26 27  1  0  0  0
 28101  1  0  0  0
 28102  1  0  0  0
 29103  1  0  0  0
 29104  1  0  0  0
 33 34  1  0  0  0
 33 66  1  0  0  0
 33 70  2  0  0  0
 34 36  1  0  0  0
 34 59  1  0  0  0
 34105  1  0  0  0
 35 44  2  0  0  0
 35 45  1  0  0  0
 35 68  1  0  0  0
 36 56  1  0  0  0
 36106  1  0  0  0
 37 39  1  0  0  0
 37 47  1  0  0  0
 37 66  1  0  0  0
 37107  1  0  0  0
 38 43  2  0  0  0
 38 46  1  0  0  0
 38 47  1  0  0  0
 39 64  1  0  0  0
 39 67  2  0  0  0
 40 52  1  0  0  0
 40 53  2  0  0  0
 40 58  1  0  0  0
 41108  1  0  0  0
 41109  1  0  0  0
 41110  1  0  0  0
 41 48  1  0  0  0
 42 43  1  0  0  0
 42 66  1  0  0  0
 42111  1  0  0  0
 42112  1  0  0  0
 43 44  1  0  0  0
 44113  1  0  0  0
 45 46  2  0  0  0
 45114  1  0  0  0
 46115  1  0  0  0
 47116  1  0  0  0
 47117  1  0  0  0
 48 56  1  0  0  0
 48 65  1  0  0  0
 48118  1  0  0  0
 49 50  1  0  0  0
 49 53  1  0  0  0
 49 64  1  0  0  0
 49119  1  0  0  0
 50 51  1  0  0  0
 50120  1  0  0  0
 50121  1  0  0  0
 51 52  1  0  0  0
 51122  1  0  0  0
 51123  1  0  0  0
 52124  1  0  0  0
 52125  1  0  0  0
 53 54  1  0  0  0
 54 55  2  0  0  0
 54126  1  0  0  0
 55 57  1  0  0  0
 55127  1  0  0  0
 56 69  2  0  0  0
 57 58  2  0  0  0
 57128  1  0  0  0
 58129  1  0  0  0
 59 60  1  0  0  0
 59 61  1  0  0  0
 59 62  1  0  0  0
 60130  1  0  0  0
 60131  1  0  0  0
 60132  1  0  0  0
 61133  1  0  0  0
 61134  1  0  0  0
 61135  1  0  0  0
 62136  1  0  0  0
 62137  1  0  0  0
 62138  1  0  0  0
 63 65  1  0  0  0
 63139  1  0  0  0
 63140  1  0  0  0
 63141  1  0  0  0
 64142  1  0  0  0
 65143  1  0  0  0
 68 82  1  0  0  0
 71 72  2  0  0  0
 71 74  1  0  0  0
 71144  1  0  0  0
 72 75  1  0  0  0
 72145  1  0  0  0
 73 75  2  0  0  0
 73 76  1  0  0  0
 73146  1  0  0  0
 74 76  2  0  0  0
 74 77  1  0  0  0
 75 83  1  0  0  0
 76 84  1  0  0  0
 77 78  2  0  0  0
 77147  1  0  0  0
 78 81  1  0  0  0
 78148  1  0  0  0
 79149  1  0  0  0
 79150  1  0  0  0
 79151  1  0  0  0
 79 82  1  0  0  0
 80 82  1  0  0  0
 80152  1  0  0  0
 80153  1  0  0  0
 80154  1  0  0  0
 81 82  1  0  0  0
 81155  1  0  0  0
 81156  1  0  0  0
 83157  1  0  0  0
M  ISO  4   1 100  68 101  82 101  83 100
M  END
> <chiral flag>
0

> <version>
0

> <s_m_source_file>
/data/baiqing/PycharmProjects/Reinvent-master-3.2/result/LINK_invent/BTK/process_docking_weight1_custom_product_contain_oxygen_bond_distance_aromatic_linkinvent_7_9_3/rearranged_h_0128.sdf

> <i_m_source_file_index>
91

> <r_mmod_Potential_Energy-OPLS-2005>
109.952774047852

> <r_mmod_Stretch_Energy-OPLS-2005>
78.7809906005859

> <r_mmod_Bend_Energy-OPLS-2005>
165.432754516602

> <r_mmod_Torsional_Energy-OPLS-2005>
254.971252441406

> <r_mmod_Improper_Torsional_Energy-OPLS-2005>
5.11010408401489

> <r_mmod_Van_der_Waal_Energy-OPLS-2005>
130.936965942383

> <r_mmod_Electrostatic_Energy-OPLS-2005>
-370.585662841797

> <r_mmod_Solvation_Energy-OPLS-2005>
-199.342620849609

> <b_mmod_Minimization_Converged-OPLS-2005>
0

> <r_mmod_RMS_Derivative-OPLS-2005>
4.73587322235107

$$$$
91
                    3D
 Structure written by MMmdl.
162170  0  0  1  0            999 V2000
  -30.6636  -14.5301   20.1856 C   0  0  0  0  0  0
  -30.4414  -12.2360   19.4702 C   0  0  0  0  0  0
  -29.5181  -12.2627   18.2264 C   0  0  0  0  0  0
  -28.0200  -12.2857   18.6273 C   0  0  0  0  0  0
  -27.6536  -13.1973   19.8415 C   0  0  2  0  0  0
  -28.7246  -13.1212   20.9565 C   0  0  0  0  0  0
  -25.2640  -13.8186   20.5820 C   0  0  0  0  0  0
  -24.1831  -13.0478   20.9291 C   0  0  0  0  0  0
  -24.6335  -11.6916   20.8820 C   0  0  0  0  0  0
  -23.8981  -10.4301   21.0454 C   0  0  0  0  0  0
  -24.3562   -9.4216   21.9211 C   0  0  0  0  0  0
  -23.6278   -8.2229   22.0753 C   0  0  0  0  0  0
  -22.4254   -8.0282   21.3566 C   0  0  0  0  0  0
  -21.9901   -9.0236   20.4675 C   0  0  0  0  0  0
  -22.7172  -10.2140   20.3038 C   0  0  0  0  0  0
  -21.6854   -6.0748   22.5288 C   0  0  0  0  0  0
  -21.4033   -6.5663   23.8238 C   0  0  0  0  0  0
  -21.3628   -5.6775   24.9192 C   0  0  0  0  0  0
  -21.6039   -4.3039   24.7243 C   0  0  0  0  0  0
  -21.8791   -3.8151   23.4334 C   0  0  0  0  0  0
  -21.9168   -4.6973   22.3385 C   0  0  0  0  0  0
  -22.7849  -13.5279   21.1891 C   0  0  0  0  0  0
  -22.1595   -4.2140   21.0991 F   0  0  0  0  0  0
  -21.5619   -3.4542   25.7749 F   0  0  0  0  0  0
  -30.0664  -13.3215   20.3782 N   0  0  0  0  0  0
  -26.3050  -12.9269   20.3418 N   0  0  0  0  0  0
  -25.9261  -11.6470   20.5891 N   0  0  0  0  0  0
  -22.0387  -12.8361   22.0462 N   0  0  0  0  0  0
  -25.4433  -15.1907   20.4214 N   0  0  0  0  0  0
  -31.8633  -14.7227   20.3696 O   0  0  0  0  0  0
  -21.6588   -6.8886   21.4257 O   0  0  0  0  0  0
  -22.3603  -14.5566   20.6643 O   0  0  0  0  0  0
  -24.6207  -31.8647   23.2075 C   0  0  0  0  0  0
  -25.9083  -32.4792   23.8364 C   0  0  1  0  0  0
  -27.2257  -27.4300   20.0619 C   0  0  0  0  0  0
  -25.5942  -33.8601   24.2262 N   0  0  0  0  0  0
  -23.4029  -30.4911   21.5511 C   0  0  2  0  0  0
  -24.8409  -28.9512   20.1130 C   0  0  0  0  0  0
  -22.7403  -29.4637   22.4979 C   0  0  0  0  0  0
  -18.0254  -28.1405   22.8490 C   0  0  0  0  0  0
  -24.1497  -36.7316   23.2630 C   0  0  0  0  0  0
  -25.9359  -30.8174   21.3651 C   0  0  0  0  0  0
  -26.0029  -29.4564   20.7079 C   0  0  0  0  0  0
  -27.1964  -28.7017   20.6782 C   0  0  0  0  0  0
  -26.0423  -26.9346   19.4685 C   0  0  0  0  0  0
  -24.8560  -27.6893   19.4958 C   0  0  0  0  0  0
  -23.6085  -29.8252   20.1657 C   0  0  0  0  0  0
  -25.4124  -36.3075   24.0300 C   0  0  1  0  0  0
  -20.5851  -28.3663   23.1336 C   0  0  2  0  0  0
  -20.6763  -26.9405   22.5428 C   0  0  0  0  0  0
  -19.5738  -26.6399   21.5229 C   0  0  0  0  0  0
  -18.1902  -26.7952   22.1623 C   0  0  0  0  0  0
  -19.1511  -28.8851   23.2918 C   0  0  0  0  0  0
  -18.9442  -30.1455   23.8913 C   0  0  0  0  0  0
  -17.6450  -30.6600   24.0571 C   0  0  0  0  0  0
  -25.9059  -34.9451   23.5083 C   0  0  0  0  0  0
  -16.5326  -29.9102   23.6341 C   0  0  0  0  0  0
  -16.7262  -28.6538   23.0342 C   0  0  0  0  0  0
  -26.4507  -31.6614   25.0734 C   0  0  0  0  0  0
  -25.3768  -31.3779   26.1490 C   0  0  0  0  0  0
  -27.0322  -30.3021   24.6176 C   0  0  0  0  0  0
  -27.6052  -32.4379   25.7507 C   0  0  0  0  0  0
  -27.5571  -37.1818   24.8450 C   0  0  0  0  0  0
  -21.4135  -29.3027   22.3725 N   0  0  0  0  0  0
  -26.4298  -37.3763   23.9376 N   0  0  0  0  0  0
  -24.6699  -31.0766   22.0958 N   0  0  0  0  0  0
  -23.4197  -28.8152   23.3001 O   0  0  0  0  0  0
  -28.4196  -26.7396   20.0575 O   0  0  0  0  0  0
  -26.5616  -34.8905   22.4625 O   0  0  0  0  0  0
  -23.5398  -32.1393   23.7482 O   0  0  0  0  0  0
  -31.1192  -20.5731   19.2331 C   0  0  0  0  0  0
  -31.9812  -19.7315   18.4971 C   0  0  0  0  0  0
  -29.8538  -18.6307   19.9484 C   0  0  0  0  0  0
  -30.6580  -17.7935   19.1520 C   0  0  0  0  0  0
  -30.0587  -20.0287   19.9902 C   0  0  0  0  0  0
  -31.7638  -18.3388   18.4563 C   0  0  0  0  0  0
  -30.0254  -16.5531   18.7125 C   0  0  0  0  0  0
  -29.9665  -15.2735   19.1342 C   0  0  0  0  0  0
  -29.6582  -24.7127   20.3747 C   0  0  0  0  0  0
  -29.8002  -23.4288   20.7726 C   0  0  0  0  0  0
  -32.7057  -17.4763   17.6317 C   0  0  0  0  0  0
  -31.0075  -23.0464   21.6173 C   0  0  0  0  0  0
  -29.0793  -20.8639   20.8203 C   0  0  0  0  0  0
  -28.4495  -25.3491   19.7057 C   0  0  0  0  0  0
  -28.7753  -22.3379   20.4284 C   0  0  0  0  0  0
  -31.4942  -12.2953   19.1751 H   0  0  0  0  0  0
  -30.3441  -11.2869   19.9981 H   0  0  0  0  0  0
  -29.7077  -11.3537   17.6534 H   0  0  0  0  0  0
  -29.7842  -13.0547   17.5306 H   0  0  0  0  0  0
  -27.7654  -11.2580   18.8781 H   0  0  0  0  0  0
  -27.3910  -12.5276   17.7680 H   0  0  0  0  0  0
  -27.6169  -14.2161   19.4703 H   0  0  0  0  0  0
  -28.6782  -12.1533   21.4569 H   0  0  0  0  0  0
  -28.5322  -13.8755   21.7236 H   0  0  0  0  0  0
  -25.2671   -9.5710   22.4894 H   0  0  0  0  0  0
  -23.9991   -7.4590   22.7431 H   0  0  0  0  0  0
  -21.0827   -8.8639   19.9059 H   0  0  0  0  0  0
  -22.3504  -10.9652   19.6163 H   0  0  0  0  0  0
  -21.2053   -7.6156   23.9781 H   0  0  0  0  0  0
  -21.1489   -6.0490   25.9101 H   0  0  0  0  0  0
  -22.0622   -2.7612   23.2793 H   0  0  0  0  0  0
  -22.3758  -12.0023   22.5032 H   0  0  0  0  0  0
  -21.0995  -13.1528   22.2473 H   0  0  0  0  0  0
  -24.7054  -15.8693   20.5735 H   0  0  0  0  0  0
  -26.3212  -15.6306   20.1766 H   0  0  0  0  0  0
  -26.7141  -32.5453   23.1110 H   0  0  0  0  0  0
  -25.0116  -33.9738   25.0425 H   0  0  0  0  0  0
  -22.6935  -31.3098   21.4163 H   0  0  0  0  0  0
  -23.3689  -35.9735   23.3394 H   0  0  0  0  0  0
  -24.3548  -36.8842   22.2025 H   0  0  0  0  0  0
  -23.7373  -37.6594   23.6602 H   0  0  0  0  0  0
  -26.0656  -31.5837   20.5981 H   0  0  0  0  0  0
  -26.8214  -30.8586   21.9904 H   0  0  0  0  0  0
  -28.0996  -29.0879   21.1273 H   0  0  0  0  0  0
  -26.0178  -25.9750   18.9673 H   0  0  0  0  0  0
  -23.9607  -27.3022   19.0287 H   0  0  0  0  0  0
  -23.7175  -30.6021   19.4088 H   0  0  0  0  0  0
  -22.7279  -29.2539   19.8669 H   0  0  0  0  0  0
  -25.1315  -36.1908   25.0800 H   0  0  0  0  0  0
  -20.9947  -28.3237   24.1456 H   0  0  0  0  0  0
  -20.5689  -26.2255   23.3599 H   0  0  0  0  0  0
  -21.6626  -26.7468   22.1186 H   0  0  0  0  0  0
  -19.6887  -25.6312   21.1235 H   0  0  0  0  0  0
  -19.6699  -27.3221   20.6767 H   0  0  0  0  0  0
  -17.4180  -26.6704   21.4017 H   0  0  0  0  0  0
  -18.0291  -26.0106   22.9027 H   0  0  0  0  0  0
  -19.7914  -30.7278   24.2293 H   0  0  0  0  0  0
  -17.4995  -31.6275   24.5174 H   0  0  0  0  0  0
  -15.5322  -30.3010   23.7690 H   0  0  0  0  0  0
  -15.8643  -28.0873   22.7046 H   0  0  0  0  0  0
  -24.5885  -30.7189   25.7832 H   0  0  0  0  0  0
  -24.9057  -32.2988   26.4949 H   0  0  0  0  0  0
  -25.8130  -30.8919   27.0228 H   0  0  0  0  0  0
  -26.2862  -29.6795   24.1225 H   0  0  0  0  0  0
  -27.4007  -29.7271   25.4681 H   0  0  0  0  0  0
  -27.8748  -30.4257   23.9366 H   0  0  0  0  0  0
  -27.2589  -33.3616   26.2155 H   0  0  0  0  0  0
  -28.3838  -32.7072   25.0357 H   0  0  0  0  0  0
  -28.0770  -31.8502   26.5392 H   0  0  0  0  0  0
  -28.2609  -38.0082   24.7420 H   0  0  0  0  0  0
  -28.1035  -36.2609   24.6365 H   0  0  0  0  0  0
  -27.2270  -37.1574   25.8846 H   0  0  0  0  0  0
  -20.9276  -29.8754   21.6940 H   0  0  0  0  0  0
  -26.0161  -38.2833   24.1361 H   0  0  0  0  0  0
  -31.2900  -21.6358   19.1790 H   0  0  0  0  0  0
  -32.7870  -20.1644   17.9209 H   0  0  0  0  0  0
  -28.9959  -18.2039   20.4476 H   0  0  0  0  0  0
  -29.4314  -16.7326   17.8281 H   0  0  0  0  0  0
  -29.3106  -14.7386   18.4840 H   0  0  0  0  0  0
  -30.4616  -25.4103   20.5702 H   0  0  0  0  0  0
  -33.7102  -17.5070   18.0569 H   0  0  0  0  0  0
  -32.7574  -17.8358   16.6025 H   0  0  0  0  0  0
  -32.4164  -16.4272   17.6175 H   0  0  0  0  0  0
  -31.5153  -23.9381   21.9915 H   0  0  0  0  0  0
  -31.7496  -22.4617   21.0795 H   0  0  0  0  0  0
  -30.6923  -22.4787   22.4922 H   0  0  0  0  0  0
  -29.2983  -20.7598   21.8812 H   0  0  0  0  0  0
  -28.1244  -20.3541   20.6909 H   0  0  0  0  0  0
  -27.5665  -24.8248   20.0747 H   0  0  0  0  0  0
  -28.4917  -25.2204   18.6203 H   0  0  0  0  0  0
  -28.5003  -22.4072   19.3730 H   0  0  0  0  0  0
  -27.8744  -22.6064   20.9932 H   0  0  0  0  0  0
  1 25  1  0  0  0
  1 30  2  0  0  0
  1 78  1  0  0  0
  2  3  1  0  0  0
  2 25  1  0  0  0
  2 86  1  0  0  0
  2 87  1  0  0  0
  3  4  1  0  0  0
  3 88  1  0  0  0
  3 89  1  0  0  0
  4  5  1  0  0  0
  4 90  1  0  0  0
  4 91  1  0  0  0
  5  6  1  0  0  0
  5 26  1  0  0  0
  5 92  1  0  0  0
  6 25  1  0  0  0
  6 93  1  0  0  0
  6 94  1  0  0  0
  7  8  2  0  0  0
  7 26  1  0  0  0
  7 29  1  0  0  0
  8  9  1  0  0  0
  8 22  1  0  0  0
  9 10  1  0  0  0
  9 27  2  0  0  0
 10 11  2  0  0  0
 10 15  1  0  0  0
 11 12  1  0  0  0
 11 95  1  0  0  0
 12 13  2  0  0  0
 12 96  1  0  0  0
 13 14  1  0  0  0
 13 31  1  0  0  0
 14 15  2  0  0  0
 14 97  1  0  0  0
 15 98  1  0  0  0
 16 17  2  0  0  0
 16 21  1  0  0  0
 16 31  1  0  0  0
 17 18  1  0  0  0
 17 99  1  0  0  0
 18 19  2  0  0  0
 18100  1  0  0  0
 19 20  1  0  0  0
 19 24  1  0  0  0
 20 21  2  0  0  0
 20101  1  0  0  0
 21 23  1  0  0  0
 22 28  1  0  0  0
 22 32  2  0  0  0
 26 27  1  0  0  0
 28102  1  0  0  0
 28103  1  0  0  0
 29104  1  0  0  0
 29105  1  0  0  0
 33 34  1  0  0  0
 33 66  1  0  0  0
 33 70  2  0  0  0
 34 36  1  0  0  0
 34 59  1  0  0  0
 34106  1  0  0  0
 35 44  2  0  0  0
 35 45  1  0  0  0
 35 68  1  0  0  0
 36 56  1  0  0  0
 36107  1  0  0  0
 37 39  1  0  0  0
 37 47  1  0  0  0
 37 66  1  0  0  0
 37108  1  0  0  0
 38 43  2  0  0  0
 38 46  1  0  0  0
 38 47  1  0  0  0
 39 64  1  0  0  0
 39 67  2  0  0  0
 40 52  1  0  0  0
 40 53  2  0  0  0
 40 58  1  0  0  0
 41109  1  0  0  0
 41110  1  0  0  0
 41111  1  0  0  0
 41 48  1  0  0  0
 42 43  1  0  0  0
 42 66  1  0  0  0
 42112  1  0  0  0
 42113  1  0  0  0
 43 44  1  0  0  0
 44114  1  0  0  0
 45 46  2  0  0  0
 45115  1  0  0  0
 46116  1  0  0  0
 47117  1  0  0  0
 47118  1  0  0  0
 48 56  1  0  0  0
 48 65  1  0  0  0
 48119  1  0  0  0
 49 50  1  0  0  0
 49 53  1  0  0  0
 49 64  1  0  0  0
 49120  1  0  0  0
 50 51  1  0  0  0
 50121  1  0  0  0
 50122  1  0  0  0
 51 52  1  0  0  0
 51123  1  0  0  0
 51124  1  0  0  0
 52125  1  0  0  0
 52126  1  0  0  0
 53 54  1  0  0  0
 54 55  2  0  0  0
 54127  1  0  0  0
 55 57  1  0  0  0
 55128  1  0  0  0
 56 69  2  0  0  0
 57 58  2  0  0  0
 57129  1  0  0  0
 58130  1  0  0  0
 59 60  1  0  0  0
 59 61  1  0  0  0
 59 62  1  0  0  0
 60131  1  0  0  0
 60132  1  0  0  0
 60133  1  0  0  0
 61134  1  0  0  0
 61135  1  0  0  0
 61136  1  0  0  0
 62137  1  0  0  0
 62138  1  0  0  0
 62139  1  0  0  0
 63 65  1  0  0  0
 63140  1  0  0  0
 63141  1  0  0  0
 63142  1  0  0  0
 64143  1  0  0  0
 65144  1  0  0  0
 68 84  1  0  0  0
 71 72  2  0  0  0
 71 75  1  0  0  0
 71145  1  0  0  0
 72 76  1  0  0  0
 72146  1  0  0  0
 73 74  1  0  0  0
 73 75  2  0  0  0
 73147  1  0  0  0
 74 76  2  0  0  0
 74 77  1  0  0  0
 75 83  1  0  0  0
 76 81  1  0  0  0
 77 78  2  0  0  0
 77148  1  0  0  0
 78149  1  0  0  0
 79 80  2  0  0  0
 79 84  1  0  0  0
 79150  1  0  0  0
 80 82  1  0  0  0
 80 85  1  0  0  0
 81151  1  0  0  0
 81152  1  0  0  0
 81153  1  0  0  0
 82154  1  0  0  0
 82155  1  0  0  0
 82156  1  0  0  0
 83 85  1  0  0  0
 83157  1  0  0  0
 83158  1  0  0  0
 84159  1  0  0  0
 84160  1  0  0  0
 85161  1  0  0  0
 85162  1  0  0  0
M  ISO  4   1 100  68 101  78 100  84 101
M  END
> <chiral flag>
0

> <version>
0

> <s_m_source_file>
/data/baiqing/PycharmProjects/Reinvent-master-3.2/result/LINK_invent/BTK/process_docking_weight1_custom_product_contain_oxygen_bond_distance_aromatic_linkinvent_7_9_3/rearranged_h_0128.sdf

> <i_m_source_file_index>
92

> <r_mmod_Potential_Energy-OPLS-2005>
230.095718383789

> <r_mmod_Stretch_Energy-OPLS-2005>
38.0779914855957

> <r_mmod_Bend_Energy-OPLS-2005>
165.967987060547

> <r_mmod_Torsional_Energy-OPLS-2005>
295.172729492188

> <r_mmod_Improper_Torsional_Energy-OPLS-2005>
29.5651206970215

> <r_mmod_Van_der_Waal_Energy-OPLS-2005>
165.011535644531

> <r_mmod_Electrostatic_Energy-OPLS-2005>
-332.441375732422

> <r_mmod_Solvation_Energy-OPLS-2005>
-193.263977050781

> <b_mmod_Minimization_Converged-OPLS-2005>
0

> <r_mmod_RMS_Derivative-OPLS-2005>
7.4354510307312

$$$$
92
                    3D
 Structure written by MMmdl.
154162  0  0  1  0            999 V2000
  -30.6311  -14.6737   20.4905 C   0  0  0  0  0  0
  -30.4065  -12.3974   19.4927 C   0  0  0  0  0  0
  -29.5023  -12.4947   18.2457 C   0  0  0  0  0  0
  -28.0235  -12.3317   18.6498 C   0  0  0  0  0  0
  -27.6340  -13.2309   19.8566 C   0  0  2  0  0  0
  -28.6682  -13.1455   21.0007 C   0  0  0  0  0  0
  -25.2443  -13.8224   20.5693 C   0  0  0  0  0  0
  -24.1723  -13.0446   20.9208 C   0  0  0  0  0  0
  -24.6293  -11.6927   20.8727 C   0  0  0  0  0  0
  -23.8989  -10.4296   21.0401 C   0  0  0  0  0  0
  -24.3568   -9.4241   21.9195 C   0  0  0  0  0  0
  -23.6275   -8.2257   22.0748 C   0  0  0  0  0  0
  -22.4259   -8.0270   21.3537 C   0  0  0  0  0  0
  -21.9883   -9.0223   20.4638 C   0  0  0  0  0  0
  -22.7168  -10.2125   20.3057 C   0  0  0  0  0  0
  -21.6858   -6.0727   22.5280 C   0  0  0  0  0  0
  -21.4009   -6.5631   23.8212 C   0  0  0  0  0  0
  -21.3661   -5.6791   24.9182 C   0  0  0  0  0  0
  -21.6042   -4.3048   24.7232 C   0  0  0  0  0  0
  -21.8819   -3.8133   23.4352 C   0  0  0  0  0  0
  -21.9189   -4.6955   22.3405 C   0  0  0  0  0  0
  -22.7763  -13.5254   21.1883 C   0  0  0  0  0  0
  -22.1660   -4.2129   21.0991 F   0  0  0  0  0  0
  -21.5634   -3.4535   25.7750 F   0  0  0  0  0  0
  -29.9800  -13.4644   20.4321 N   0  0  0  0  0  0
  -26.2847  -12.9412   20.3311 N   0  0  0  0  0  0
  -25.9229  -11.6549   20.5762 N   0  0  0  0  0  0
  -22.0376  -12.8228   22.0426 N   0  0  0  0  0  0
  -25.4189  -15.1940   20.4111 N   0  0  0  0  0  0
  -31.8248  -14.7083   20.1794 O   0  0  0  0  0  0
  -21.6638   -6.8859   21.4227 O   0  0  0  0  0  0
  -22.3444  -14.5553   20.6742 O   0  0  0  0  0  0
  -24.6292  -31.8490   23.1939 C   0  0  0  0  0  0
  -25.9129  -32.4700   23.8279 C   0  0  1  0  0  0
  -27.2460  -27.2794   20.1376 C   0  0  0  0  0  0
  -25.5941  -33.8508   24.2234 N   0  0  0  0  0  0
  -23.4308  -30.4670   21.5311 C   0  0  2  0  0  0
  -24.8858  -28.9077   20.1112 C   0  0  0  0  0  0
  -22.7501  -29.4559   22.4857 C   0  0  0  0  0  0
  -18.0265  -28.1380   22.8477 C   0  0  0  0  0  0
  -24.1490  -36.7233   23.2644 C   0  0  0  0  0  0
  -25.9724  -30.7678   21.3774 C   0  0  0  0  0  0
  -26.0491  -29.3906   20.7228 C   0  0  0  0  0  0
  -27.2270  -28.5858   20.7301 C   0  0  0  0  0  0
  -26.0623  -26.8501   19.5026 C   0  0  0  0  0  0
  -24.8935  -27.6432   19.4964 C   0  0  0  0  0  0
  -23.6551  -29.7919   20.1502 C   0  0  0  0  0  0
  -25.4109  -36.3018   24.0316 C   0  0  1  0  0  0
  -20.5887  -28.3661   23.1265 C   0  0  2  0  0  0
  -20.6759  -26.9376   22.5426 C   0  0  0  0  0  0
  -19.5741  -26.6385   21.5216 C   0  0  0  0  0  0
  -18.1911  -26.7930   22.1622 C   0  0  0  0  0  0
  -19.1534  -28.8831   23.2864 C   0  0  0  0  0  0
  -18.9472  -30.1442   23.8877 C   0  0  0  0  0  0
  -17.6461  -30.6579   24.0552 C   0  0  0  0  0  0
  -25.9055  -34.9401   23.5071 C   0  0  0  0  0  0
  -16.5343  -29.9074   23.6344 C   0  0  0  0  0  0
  -16.7256  -28.6497   23.0355 C   0  0  0  0  0  0
  -26.4542  -31.6544   25.0667 C   0  0  0  0  0  0
  -25.3804  -31.3659   26.1403 C   0  0  0  0  0  0
  -27.0440  -30.2971   24.6179 C   0  0  0  0  0  0
  -27.6090  -32.4319   25.7431 C   0  0  0  0  0  0
  -27.5570  -37.1739   24.8456 C   0  0  0  0  0  0
  -21.4196  -29.2994   22.3633 N   0  0  0  0  0  0
  -26.4268  -37.3740   23.9434 N   0  0  0  0  0  0
  -24.6945  -31.0494   22.0882 N   0  0  0  0  0  0
  -23.4195  -28.8115   23.2962 O   0  0  0  0  0  0
  -28.3889  -26.4576   20.2247 O   0  0  0  0  0  0
  -26.5645  -34.8880   22.4640 O   0  0  0  0  0  0
  -23.5445  -32.1310   23.7228 O   0  0  0  0  0  0
  -31.7103  -18.8801   19.3244 C   0  0  0  0  0  0
  -30.8706  -19.9601   19.6379 C   0  0  0  0  0  0
  -31.3850  -17.5687   19.6961 C   0  0  0  0  0  0
  -29.3779  -18.4134   20.7736 C   0  0  0  0  0  0
  -29.6892  -19.7922   20.3912 C   0  0  0  0  0  0
  -30.2065  -17.2598   20.4185 C   0  0  0  0  0  0
  -28.8974  -21.0812   20.7387 C   0  0  0  0  0  0
  -29.0604  -22.3789   20.2541 C   0  0  0  0  0  0
  -28.8732  -24.1287   22.0794 C   0  0  0  0  0  0
  -28.5123  -25.0503   19.7177 C   0  0  0  0  0  0
  -28.3651  -23.7502   20.6830 C   0  0  1  0  0  0
  -29.8954  -15.8329   20.7328 N   0  0  0  0  0  0
  -31.4573  -12.4764   19.2077 H   0  0  0  0  0  0
  -30.3042  -11.4145   19.9593 H   0  0  0  0  0  0
  -29.7717  -11.7343   17.5101 H   0  0  0  0  0  0
  -29.6496  -13.4607   17.7636 H   0  0  0  0  0  0
  -27.8641  -11.2839   18.9079 H   0  0  0  0  0  0
  -27.3706  -12.5363   17.7998 H   0  0  0  0  0  0
  -27.6375  -14.2563   19.4842 H   0  0  0  0  0  0
  -28.6709  -12.1461   21.4402 H   0  0  0  0  0  0
  -28.4103  -13.8320   21.8078 H   0  0  0  0  0  0
  -25.2695   -9.5751   22.4788 H   0  0  0  0  0  0
  -23.9988   -7.4656   22.7466 H   0  0  0  0  0  0
  -21.0826   -8.8709   19.8941 H   0  0  0  0  0  0
  -22.3592  -10.9660   19.6169 H   0  0  0  0  0  0
  -21.1993   -7.6134   23.9709 H   0  0  0  0  0  0
  -21.1492   -6.0521   25.9082 H   0  0  0  0  0  0
  -22.0591   -2.7590   23.2861 H   0  0  0  0  0  0
  -22.3958  -11.9895   22.4841 H   0  0  0  0  0  0
  -21.1007  -13.1300   22.2622 H   0  0  0  0  0  0
  -24.6485  -15.8510   20.4762 H   0  0  0  0  0  0
  -26.2806  -15.6265   20.1000 H   0  0  0  0  0  0
  -26.7158  -32.5365   23.0987 H   0  0  0  0  0  0
  -25.0094  -33.9641   25.0385 H   0  0  0  0  0  0
  -22.7276  -31.2851   21.3708 H   0  0  0  0  0  0
  -23.3762  -35.9562   23.3298 H   0  0  0  0  0  0
  -24.3588  -36.8879   22.2070 H   0  0  0  0  0  0
  -23.7234  -37.6410   23.6695 H   0  0  0  0  0  0
  -26.1309  -31.5329   20.6149 H   0  0  0  0  0  0
  -26.8411  -30.8096   22.0213 H   0  0  0  0  0  0
  -28.1119  -28.9508   21.2347 H   0  0  0  0  0  0
  -26.0180  -25.8831   19.0265 H   0  0  0  0  0  0
  -23.9981  -27.2639   19.0242 H   0  0  0  0  0  0
  -23.7879  -30.5614   19.3888 H   0  0  0  0  0  0
  -22.7795  -29.2129   19.8444 H   0  0  0  0  0  0
  -25.1300  -36.1831   25.0811 H   0  0  0  0  0  0
  -20.9972  -28.3247   24.1386 H   0  0  0  0  0  0
  -20.5676  -26.2244   23.3627 H   0  0  0  0  0  0
  -21.6611  -26.7395   22.1198 H   0  0  0  0  0  0
  -19.6901  -25.6308   21.1212 H   0  0  0  0  0  0
  -19.6704  -27.3215   20.6774 H   0  0  0  0  0  0
  -17.4196  -26.6678   21.4011 H   0  0  0  0  0  0
  -18.0268  -26.0082   22.9027 H   0  0  0  0  0  0
  -19.7957  -30.7260   24.2247 H   0  0  0  0  0  0
  -17.5023  -31.6268   24.5148 H   0  0  0  0  0  0
  -15.5347  -30.2958   23.7699 H   0  0  0  0  0  0
  -15.8665  -28.0817   22.7072 H   0  0  0  0  0  0
  -24.5990  -30.6997   25.7724 H   0  0  0  0  0  0
  -24.8984  -32.2816   26.4841 H   0  0  0  0  0  0
  -25.8163  -30.8833   27.0161 H   0  0  0  0  0  0
  -26.3023  -29.6608   24.1327 H   0  0  0  0  0  0
  -27.4277  -29.7329   25.4690 H   0  0  0  0  0  0
  -27.8834  -30.4255   23.9335 H   0  0  0  0  0  0
  -27.2703  -33.3655   26.1923 H   0  0  0  0  0  0
  -28.3924  -32.6806   25.0267 H   0  0  0  0  0  0
  -28.0731  -31.8495   26.5400 H   0  0  0  0  0  0
  -28.2527  -38.0095   24.7574 H   0  0  0  0  0  0
  -28.1130  -36.2620   24.6200 H   0  0  0  0  0  0
  -27.2302  -37.1269   25.8861 H   0  0  0  0  0  0
  -20.9365  -29.8730   21.6851 H   0  0  0  0  0  0
  -26.0124  -38.2793   24.1511 H   0  0  0  0  0  0
  -32.6311  -19.0589   18.7887 H   0  0  0  0  0  0
  -31.1866  -20.9362   19.3052 H   0  0  0  0  0  0
  -32.0908  -16.8199   19.3766 H   0  0  0  0  0  0
  -28.4845  -18.2350   21.3602 H   0  0  0  0  0  0
  -28.1485  -20.9395   21.5075 H   0  0  0  0  0  0
  -29.7957  -22.5233   19.4795 H   0  0  0  0  0  0
  -28.7606  -23.3033   22.7824 H   0  0  0  0  0  0
  -28.3119  -24.9747   22.4750 H   0  0  0  0  0  0
  -29.9244  -24.4127   22.0484 H   0  0  0  0  0  0
  -27.9272  -24.9232   18.8050 H   0  0  0  0  0  0
  -29.5403  -25.0252   19.3533 H   0  0  0  0  0  0
  -27.2995  -23.5332   20.7770 H   0  0  0  0  0  0
  -28.9584  -15.6582   21.0656 H   0  0  0  0  0  0
  1 25  1  0  0  0
  1 30  2  0  0  0
  1 82  1  0  0  0
  2  3  1  0  0  0
  2 25  1  0  0  0
  2 83  1  0  0  0
  2 84  1  0  0  0
  3  4  1  0  0  0
  3 85  1  0  0  0
  3 86  1  0  0  0
  4  5  1  0  0  0
  4 87  1  0  0  0
  4 88  1  0  0  0
  5  6  1  0  0  0
  5 26  1  0  0  0
  5 89  1  0  0  0
  6 25  1  0  0  0
  6 90  1  0  0  0
  6 91  1  0  0  0
  7  8  2  0  0  0
  7 26  1  0  0  0
  7 29  1  0  0  0
  8  9  1  0  0  0
  8 22  1  0  0  0
  9 10  1  0  0  0
  9 27  2  0  0  0
 10 11  2  0  0  0
 10 15  1  0  0  0
 11 12  1  0  0  0
 11 92  1  0  0  0
 12 13  2  0  0  0
 12 93  1  0  0  0
 13 14  1  0  0  0
 13 31  1  0  0  0
 14 15  2  0  0  0
 14 94  1  0  0  0
 15 95  1  0  0  0
 16 17  2  0  0  0
 16 21  1  0  0  0
 16 31  1  0  0  0
 17 18  1  0  0  0
 17 96  1  0  0  0
 18 19  2  0  0  0
 18 97  1  0  0  0
 19 20  1  0  0  0
 19 24  1  0  0  0
 20 21  2  0  0  0
 20 98  1  0  0  0
 21 23  1  0  0  0
 22 28  1  0  0  0
 22 32  2  0  0  0
 26 27  1  0  0  0
 28 99  1  0  0  0
 28100  1  0  0  0
 29101  1  0  0  0
 29102  1  0  0  0
 33 34  1  0  0  0
 33 66  1  0  0  0
 33 70  2  0  0  0
 34 36  1  0  0  0
 34 59  1  0  0  0
 34103  1  0  0  0
 35 44  2  0  0  0
 35 45  1  0  0  0
 35 68  1  0  0  0
 36 56  1  0  0  0
 36104  1  0  0  0
 37 39  1  0  0  0
 37 47  1  0  0  0
 37 66  1  0  0  0
 37105  1  0  0  0
 38 43  2  0  0  0
 38 46  1  0  0  0
 38 47  1  0  0  0
 39 64  1  0  0  0
 39 67  2  0  0  0
 40 52  1  0  0  0
 40 53  2  0  0  0
 40 58  1  0  0  0
 41106  1  0  0  0
 41107  1  0  0  0
 41108  1  0  0  0
 41 48  1  0  0  0
 42 43  1  0  0  0
 42 66  1  0  0  0
 42109  1  0  0  0
 42110  1  0  0  0
 43 44  1  0  0  0
 44111  1  0  0  0
 45 46  2  0  0  0
 45112  1  0  0  0
 46113  1  0  0  0
 47114  1  0  0  0
 47115  1  0  0  0
 48 56  1  0  0  0
 48 65  1  0  0  0
 48116  1  0  0  0
 49 50  1  0  0  0
 49 53  1  0  0  0
 49 64  1  0  0  0
 49117  1  0  0  0
 50 51  1  0  0  0
 50118  1  0  0  0
 50119  1  0  0  0
 51 52  1  0  0  0
 51120  1  0  0  0
 51121  1  0  0  0
 52122  1  0  0  0
 52123  1  0  0  0
 53 54  1  0  0  0
 54 55  2  0  0  0
 54124  1  0  0  0
 55 57  1  0  0  0
 55125  1  0  0  0
 56 69  2  0  0  0
 57 58  2  0  0  0
 57126  1  0  0  0
 58127  1  0  0  0
 59 60  1  0  0  0
 59 61  1  0  0  0
 59 62  1  0  0  0
 60128  1  0  0  0
 60129  1  0  0  0
 60130  1  0  0  0
 61131  1  0  0  0
 61132  1  0  0  0
 61133  1  0  0  0
 62134  1  0  0  0
 62135  1  0  0  0
 62136  1  0  0  0
 63 65  1  0  0  0
 63137  1  0  0  0
 63138  1  0  0  0
 63139  1  0  0  0
 64140  1  0  0  0
 65141  1  0  0  0
 68 80  1  0  0  0
 71 72  2  0  0  0
 71 73  1  0  0  0
 71142  1  0  0  0
 72 75  1  0  0  0
 72143  1  0  0  0
 73 76  2  0  0  0
 73144  1  0  0  0
 74 75  2  0  0  0
 74 76  1  0  0  0
 74145  1  0  0  0
 75 77  1  0  0  0
 76 82  1  0  0  0
 77 78  2  0  0  0
 77146  1  0  0  0
 78 81  1  0  0  0
 78147  1  0  0  0
 79148  1  0  0  0
 79149  1  0  0  0
 79150  1  0  0  0
 79 81  1  0  0  0
 80 81  1  0  0  0
 80151  1  0  0  0
 80152  1  0  0  0
 81153  1  0  0  0
 82154  1  0  0  0
M  ISO  4   1 100  68 101  80 101  82 100
M  END
> <chiral flag>
0

> <version>
0

> <s_m_source_file>
/data/baiqing/PycharmProjects/Reinvent-master-3.2/result/LINK_invent/BTK/process_docking_weight1_custom_product_contain_oxygen_bond_distance_aromatic_linkinvent_7_9_3/rearranged_h_0128.sdf

> <i_m_source_file_index>
93

> <r_mmod_Potential_Energy-OPLS-2005>
176.338470458984

> <r_mmod_Stretch_Energy-OPLS-2005>
126.980560302734

> <r_mmod_Bend_Energy-OPLS-2005>
169.387985229492

> <r_mmod_Torsional_Energy-OPLS-2005>
218.902282714844

> <r_mmod_Improper_Torsional_Energy-OPLS-2005>
4.35640287399292

> <r_mmod_Van_der_Waal_Energy-OPLS-2005>
147.74089050293

> <r_mmod_Electrostatic_Energy-OPLS-2005>
-355.737365722656

> <r_mmod_Solvation_Energy-OPLS-2005>
-200.866500854492

> <b_mmod_Minimization_Converged-OPLS-2005>
0

> <r_mmod_RMS_Derivative-OPLS-2005>
5.21403646469116

$$$$
93
                    3D
 Structure written by MMmdl.
161169  0  0  1  0            999 V2000
  -30.7166  -14.5546   20.4539 C   0  0  0  0  0  0
  -30.4007  -12.3266   19.4681 C   0  0  0  0  0  0
  -29.4981  -12.4792   18.2268 C   0  0  0  0  0  0
  -28.0178  -12.3451   18.6294 C   0  0  0  0  0  0
  -27.6445  -13.2293   19.8504 C   0  0  2  0  0  0
  -28.6846  -13.1203   20.9853 C   0  0  0  0  0  0
  -25.2521  -13.8211   20.5689 C   0  0  0  0  0  0
  -24.1805  -13.0455   20.9194 C   0  0  0  0  0  0
  -24.6391  -11.6931   20.8738 C   0  0  0  0  0  0
  -23.9071  -10.4303   21.0403 C   0  0  0  0  0  0
  -24.3623   -9.4217   21.9181 C   0  0  0  0  0  0
  -23.6299   -8.2251   22.0752 C   0  0  0  0  0  0
  -22.4280   -8.0285   21.3544 C   0  0  0  0  0  0
  -21.9915   -9.0259   20.4646 C   0  0  0  0  0  0
  -22.7242  -10.2139   20.3055 C   0  0  0  0  0  0
  -21.6856   -6.0738   22.5280 C   0  0  0  0  0  0
  -21.4016   -6.5642   23.8213 C   0  0  0  0  0  0
  -21.3661   -5.6794   24.9175 C   0  0  0  0  0  0
  -21.6044   -4.3056   24.7226 C   0  0  0  0  0  0
  -21.8819   -3.8149   23.4347 C   0  0  0  0  0  0
  -21.9194   -4.6965   22.3403 C   0  0  0  0  0  0
  -22.7826  -13.5232   21.1862 C   0  0  0  0  0  0
  -22.1661   -4.2151   21.0980 F   0  0  0  0  0  0
  -21.5629   -3.4539   25.7738 F   0  0  0  0  0  0
  -30.0111  -13.3854   20.4202 N   0  0  0  0  0  0
  -26.2946  -12.9419   20.3275 N   0  0  0  0  0  0
  -25.9319  -11.6560   20.5743 N   0  0  0  0  0  0
  -22.0478  -12.8218   22.0420 N   0  0  0  0  0  0
  -25.4230  -15.1933   20.4126 N   0  0  0  0  0  0
  -31.9203  -14.5404   20.1857 O   0  0  0  0  0  0
  -21.6645   -6.8882   21.4241 O   0  0  0  0  0  0
  -22.3505  -14.5537   20.6713 O   0  0  0  0  0  0
  -24.6178  -31.8656   23.2076 C   0  0  0  0  0  0
  -25.9058  -32.4808   23.8383 C   0  0  1  0  0  0
  -27.2221  -27.3959   20.1150 C   0  0  0  0  0  0
  -25.5903  -33.8607   24.2314 N   0  0  0  0  0  0
  -23.4077  -30.4885   21.5485 C   0  0  2  0  0  0
  -24.8545  -28.9479   20.1160 C   0  0  0  0  0  0
  -22.7428  -29.4648   22.4974 C   0  0  0  0  0  0
  -18.0275  -28.1380   22.8491 C   0  0  0  0  0  0
  -24.1488  -36.7310   23.2639 C   0  0  0  0  0  0
  -25.9398  -30.8198   21.3667 C   0  0  0  0  0  0
  -26.0165  -29.4499   20.7174 C   0  0  0  0  0  0
  -27.2076  -28.6813   20.7136 C   0  0  0  0  0  0
  -26.0492  -26.9182   19.5003 C   0  0  0  0  0  0
  -24.8670  -27.6828   19.5025 C   0  0  0  0  0  0
  -23.6188  -29.8201   20.1636 C   0  0  0  0  0  0
  -25.4110  -36.3104   24.0337 C   0  0  1  0  0  0
  -20.5869  -28.3671   23.1308 C   0  0  2  0  0  0
  -20.6766  -26.9404   22.5415 C   0  0  0  0  0  0
  -19.5744  -26.6385   21.5213 C   0  0  0  0  0  0
  -18.1923  -26.7925   22.1625 C   0  0  0  0  0  0
  -19.1526  -28.8842   23.2897 C   0  0  0  0  0  0
  -18.9453  -30.1447   23.8908 C   0  0  0  0  0  0
  -17.6455  -30.6585   24.0565 C   0  0  0  0  0  0
  -25.9038  -34.9469   23.5125 C   0  0  0  0  0  0
  -16.5346  -29.9087   23.6327 C   0  0  0  0  0  0
  -16.7264  -28.6504   23.0348 C   0  0  0  0  0  0
  -26.4477  -31.6592   25.0719 C   0  0  0  0  0  0
  -25.3737  -31.3703   26.1463 C   0  0  0  0  0  0
  -27.0313  -30.3030   24.6110 C   0  0  0  0  0  0
  -27.6050  -32.4315   25.7482 C   0  0  0  0  0  0
  -27.5581  -37.1810   24.8466 C   0  0  0  0  0  0
  -21.4152  -29.3035   22.3712 N   0  0  0  0  0  0
  -26.4295  -37.3789   23.9407 N   0  0  0  0  0  0
  -24.6734  -31.0732   22.0990 N   0  0  0  0  0  0
  -23.4185  -28.8193   23.3031 O   0  0  0  0  0  0
  -28.3501  -26.5988   20.0953 O   0  0  0  0  0  0
  -26.5603  -34.8923   22.4688 O   0  0  0  0  0  0
  -23.5363  -32.1420   23.7453 O   0  0  0  0  0  0
  -29.3055  -19.2175   20.4407 C   0  0  0  0  0  0
  -31.1303  -19.0201   18.8461 C   0  0  0  0  0  0
  -30.0571  -21.1727   19.1578 C   0  0  0  0  0  0
  -30.2957  -18.4020   19.8099 C   0  0  0  0  0  0
  -29.1987  -20.6167   20.1280 C   0  0  0  0  0  0
  -31.0200  -20.3811   18.5192 C   0  0  0  0  0  0
  -30.5955  -16.9408   19.9979 C   0  0  0  0  0  0
  -29.9853  -15.8467   20.5483 C   0  0  0  0  0  0
  -28.6300  -23.0072   21.0307 C   0  0  0  0  0  0
  -27.9862  -24.1808   20.7660 C   0  0  0  0  0  0
  -26.8307  -21.4896   19.9832 C   0  0  0  0  0  0
  -29.8819  -25.6770   21.6781 C   0  0  0  0  0  0
  -28.1516  -21.5531   20.7667 C   0  0  1  0  0  0
  -28.4422  -25.6119   21.1499 C   0  0  1  0  0  0
  -31.8621  -20.9439   17.5620 N   0  0  0  0  0  0
  -31.4509  -12.3743   19.1755 H   0  0  0  0  0  0
  -30.2672  -11.3438   19.9228 H   0  0  0  0  0  0
  -29.7516  -11.7250   17.4808 H   0  0  0  0  0  0
  -29.6700  -13.4483   17.7558 H   0  0  0  0  0  0
  -27.8380  -11.2951   18.8629 H   0  0  0  0  0  0
  -27.3727  -12.5810   17.7824 H   0  0  0  0  0  0
  -27.6566  -14.2598   19.4950 H   0  0  0  0  0  0
  -28.6651  -12.1249   21.4313 H   0  0  0  0  0  0
  -28.4538  -13.8172   21.7920 H   0  0  0  0  0  0
  -25.2768   -9.5694   22.4755 H   0  0  0  0  0  0
  -24.0010   -7.4643   22.7471 H   0  0  0  0  0  0
  -21.0847   -8.8777   19.8952 H   0  0  0  0  0  0
  -22.3698  -10.9677   19.6164 H   0  0  0  0  0  0
  -21.2008   -7.6150   23.9717 H   0  0  0  0  0  0
  -21.1483   -6.0525   25.9078 H   0  0  0  0  0  0
  -22.0596   -2.7611   23.2847 H   0  0  0  0  0  0
  -22.4103  -11.9882   22.4806 H   0  0  0  0  0  0
  -21.1094  -13.1235   22.2628 H   0  0  0  0  0  0
  -24.6602  -15.8513   20.5298 H   0  0  0  0  0  0
  -26.2810  -15.6330   20.1035 H   0  0  0  0  0  0
  -26.7128  -32.5513   23.1143 H   0  0  0  0  0  0
  -25.0054  -33.9765   25.0460 H   0  0  0  0  0  0
  -22.6980  -31.3062   21.4075 H   0  0  0  0  0  0
  -23.3745  -35.9648   23.3314 H   0  0  0  0  0  0
  -24.3581  -36.8914   22.2051 H   0  0  0  0  0  0
  -23.7246  -37.6521   23.6647 H   0  0  0  0  0  0
  -26.0566  -31.5827   20.5956 H   0  0  0  0  0  0
  -26.8261  -30.8743   21.9870 H   0  0  0  0  0  0
  -28.1060  -29.0622   21.1789 H   0  0  0  0  0  0
  -26.0493  -25.9479   19.0244 H   0  0  0  0  0  0
  -23.9749  -27.2920   19.0327 H   0  0  0  0  0  0
  -23.7315  -30.5946   19.4041 H   0  0  0  0  0  0
  -22.7414  -29.2431   19.8660 H   0  0  0  0  0  0
  -25.1288  -36.1969   25.0830 H   0  0  0  0  0  0
  -20.9961  -28.3238   24.1429 H   0  0  0  0  0  0
  -20.5672  -26.2278   23.3605 H   0  0  0  0  0  0
  -21.6637  -26.7446   22.1206 H   0  0  0  0  0  0
  -19.6907  -25.6300   21.1234 H   0  0  0  0  0  0
  -19.6684  -27.3203   20.6750 H   0  0  0  0  0  0
  -17.4194  -26.6675   21.4027 H   0  0  0  0  0  0
  -18.0324  -26.0065   22.9019 H   0  0  0  0  0  0
  -19.7929  -30.7259   24.2284 H   0  0  0  0  0  0
  -17.5010  -31.6267   24.5165 H   0  0  0  0  0  0
  -15.5347  -30.2994   23.7644 H   0  0  0  0  0  0
  -15.8664  -28.0828   22.7057 H   0  0  0  0  0  0
  -24.5907  -30.7057   25.7795 H   0  0  0  0  0  0
  -24.8933  -32.2861   26.4918 H   0  0  0  0  0  0
  -25.8083  -30.8863   27.0217 H   0  0  0  0  0  0
  -26.2864  -29.6790   24.1157 H   0  0  0  0  0  0
  -27.4070  -29.7268   25.4576 H   0  0  0  0  0  0
  -27.8705  -30.4346   23.9275 H   0  0  0  0  0  0
  -27.2667  -33.3603   26.2087 H   0  0  0  0  0  0
  -28.3844  -32.6893   25.0299 H   0  0  0  0  0  0
  -28.0737  -31.8424   26.5375 H   0  0  0  0  0  0
  -28.2606  -38.0099   24.7504 H   0  0  0  0  0  0
  -28.1069  -36.2630   24.6302 H   0  0  0  0  0  0
  -27.2298  -37.1474   25.8869 H   0  0  0  0  0  0
  -20.9317  -29.8756   21.6930 H   0  0  0  0  0  0
  -26.0186  -38.2870   24.1399 H   0  0  0  0  0  0
  -28.6407  -18.7784   21.1717 H   0  0  0  0  0  0
  -31.8811  -18.4348   18.3332 H   0  0  0  0  0  0
  -29.9661  -22.2178   18.8952 H   0  0  0  0  0  0
  -31.5653  -16.7320   19.5687 H   0  0  0  0  0  0
  -29.0144  -15.9208   21.0138 H   0  0  0  0  0  0
  -29.5902  -23.0511   21.5236 H   0  0  0  0  0  0
  -27.0293  -24.1455   20.2682 H   0  0  0  0  0  0
  -26.4802  -20.4607   19.8941 H   0  0  0  0  0  0
  -26.9477  -21.8869   18.9745 H   0  0  0  0  0  0
  -26.0414  -22.0534   20.4810 H   0  0  0  0  0  0
  -30.0103  -25.0616   22.5687 H   0  0  0  0  0  0
  -30.1457  -26.6982   21.9541 H   0  0  0  0  0  0
  -30.5963  -25.3427   20.9254 H   0  0  0  0  0  0
  -27.9554  -21.1426   21.7586 H   0  0  0  0  0  0
  -27.7891  -25.9169   21.9707 H   0  0  0  0  0  0
  -32.7166  -20.4558   17.3100 H   0  0  0  0  0  0
  -31.9587  -21.9544   17.5275 H   0  0  0  0  0  0
  1 25  1  0  0  0
  1 30  2  0  0  0
  1 78  1  0  0  0
  2  3  1  0  0  0
  2 25  1  0  0  0
  2 86  1  0  0  0
  2 87  1  0  0  0
  3  4  1  0  0  0
  3 88  1  0  0  0
  3 89  1  0  0  0
  4  5  1  0  0  0
  4 90  1  0  0  0
  4 91  1  0  0  0
  5  6  1  0  0  0
  5 26  1  0  0  0
  5 92  1  0  0  0
  6 25  1  0  0  0
  6 93  1  0  0  0
  6 94  1  0  0  0
  7  8  2  0  0  0
  7 26  1  0  0  0
  7 29  1  0  0  0
  8  9  1  0  0  0
  8 22  1  0  0  0
  9 10  1  0  0  0
  9 27  2  0  0  0
 10 11  2  0  0  0
 10 15  1  0  0  0
 11 12  1  0  0  0
 11 95  1  0  0  0
 12 13  2  0  0  0
 12 96  1  0  0  0
 13 14  1  0  0  0
 13 31  1  0  0  0
 14 15  2  0  0  0
 14 97  1  0  0  0
 15 98  1  0  0  0
 16 17  2  0  0  0
 16 21  1  0  0  0
 16 31  1  0  0  0
 17 18  1  0  0  0
 17 99  1  0  0  0
 18 19  2  0  0  0
 18100  1  0  0  0
 19 20  1  0  0  0
 19 24  1  0  0  0
 20 21  2  0  0  0
 20101  1  0  0  0
 21 23  1  0  0  0
 22 28  1  0  0  0
 22 32  2  0  0  0
 26 27  1  0  0  0
 28102  1  0  0  0
 28103  1  0  0  0
 29104  1  0  0  0
 29105  1  0  0  0
 33 34  1  0  0  0
 33 66  1  0  0  0
 33 70  2  0  0  0
 34 36  1  0  0  0
 34 59  1  0  0  0
 34106  1  0  0  0
 35 44  2  0  0  0
 35 45  1  0  0  0
 35 68  1  0  0  0
 36 56  1  0  0  0
 36107  1  0  0  0
 37 39  1  0  0  0
 37 47  1  0  0  0
 37 66  1  0  0  0
 37108  1  0  0  0
 38 43  2  0  0  0
 38 46  1  0  0  0
 38 47  1  0  0  0
 39 64  1  0  0  0
 39 67  2  0  0  0
 40 52  1  0  0  0
 40 53  2  0  0  0
 40 58  1  0  0  0
 41109  1  0  0  0
 41110  1  0  0  0
 41111  1  0  0  0
 41 48  1  0  0  0
 42 43  1  0  0  0
 42 66  1  0  0  0
 42112  1  0  0  0
 42113  1  0  0  0
 43 44  1  0  0  0
 44114  1  0  0  0
 45 46  2  0  0  0
 45115  1  0  0  0
 46116  1  0  0  0
 47117  1  0  0  0
 47118  1  0  0  0
 48 56  1  0  0  0
 48 65  1  0  0  0
 48119  1  0  0  0
 49 50  1  0  0  0
 49 53  1  0  0  0
 49 64  1  0  0  0
 49120  1  0  0  0
 50 51  1  0  0  0
 50121  1  0  0  0
 50122  1  0  0  0
 51 52  1  0  0  0
 51123  1  0  0  0
 51124  1  0  0  0
 52125  1  0  0  0
 52126  1  0  0  0
 53 54  1  0  0  0
 54 55  2  0  0  0
 54127  1  0  0  0
 55 57  1  0  0  0
 55128  1  0  0  0
 56 69  2  0  0  0
 57 58  2  0  0  0
 57129  1  0  0  0
 58130  1  0  0  0
 59 60  1  0  0  0
 59 61  1  0  0  0
 59 62  1  0  0  0
 60131  1  0  0  0
 60132  1  0  0  0
 60133  1  0  0  0
 61134  1  0  0  0
 61135  1  0  0  0
 61136  1  0  0  0
 62137  1  0  0  0
 62138  1  0  0  0
 62139  1  0  0  0
 63 65  1  0  0  0
 63140  1  0  0  0
 63141  1  0  0  0
 63142  1  0  0  0
 64143  1  0  0  0
 65144  1  0  0  0
 68 84  1  0  0  0
 71 74  2  0  0  0
 71 75  1  0  0  0
 71145  1  0  0  0
 72 74  1  0  0  0
 72 76  2  0  0  0
 72146  1  0  0  0
 73 75  2  0  0  0
 73 76  1  0  0  0
 73147  1  0  0  0
 74 77  1  0  0  0
 75 83  1  0  0  0
 76 85  1  0  0  0
 77 78  2  0  0  0
 77148  1  0  0  0
 78149  1  0  0  0
 79 80  2  0  0  0
 79 83  1  0  0  0
 79150  1  0  0  0
 80 84  1  0  0  0
 80151  1  0  0  0
 81152  1  0  0  0
 81153  1  0  0  0
 81154  1  0  0  0
 81 83  1  0  0  0
 82155  1  0  0  0
 82156  1  0  0  0
 82157  1  0  0  0
 82 84  1  0  0  0
 83158  1  0  0  0
 84159  1  0  0  0
 85160  1  0  0  0
 85161  1  0  0  0
M  ISO  4   1 100  68 101  78 100  84 101
M  END
> <chiral flag>
0

> <version>
0

> <s_m_source_file>
/data/baiqing/PycharmProjects/Reinvent-master-3.2/result/LINK_invent/BTK/process_docking_weight1_custom_product_contain_oxygen_bond_distance_aromatic_linkinvent_7_9_3/rearranged_h_0128.sdf

> <i_m_source_file_index>
94

> <r_mmod_Potential_Energy-OPLS-2005>
28.5371074676514

> <r_mmod_Stretch_Energy-OPLS-2005>
53.335807800293

> <r_mmod_Bend_Energy-OPLS-2005>
140.692077636719

> <r_mmod_Torsional_Energy-OPLS-2005>
213.669097900391

> <r_mmod_Improper_Torsional_Energy-OPLS-2005>
8.89960289001465

> <r_mmod_Van_der_Waal_Energy-OPLS-2005>
155.79377746582

> <r_mmod_Electrostatic_Energy-OPLS-2005>
-383.007904052734

> <r_mmod_Solvation_Energy-OPLS-2005>
-194.783447265625

> <b_mmod_Minimization_Converged-OPLS-2005>
0

> <r_mmod_RMS_Derivative-OPLS-2005>
0.159058168530464

$$$$
94
                    3D
 Structure written by MMmdl.
156164  0  0  1  0            999 V2000
  -30.2788  -14.9622   19.8002 C   0  0  0  0  0  0
  -31.2247  -12.7170   19.1684 C   0  0  0  0  0  0
  -30.2565  -12.2595   18.0857 C   0  0  0  0  0  0
  -29.0220  -11.8939   18.8812 C   0  0  0  0  0  0
  -28.5807  -13.0065   20.1029 C   0  0  2  0  0  0
  -29.8184  -12.9321   20.9920 C   0  0  0  0  0  0
  -24.8178  -14.1844   20.5789 C   0  0  0  0  0  0
  -23.7723  -13.2918   20.7429 C   0  0  0  0  0  0
  -24.2497  -11.9872   20.8941 C   0  0  0  0  0  0
  -23.7312  -10.5907   21.0559 C   0  0  0  0  0  0
  -24.2613   -9.5893   21.9229 C   0  0  0  0  0  0
  -23.6210   -8.3285   22.0667 C   0  0  0  0  0  0
  -22.4371   -8.0520   21.3415 C   0  0  0  0  0  0
  -21.9684   -9.0111   20.4289 C   0  0  0  0  0  0
  -22.6138  -10.2472   20.2788 C   0  0  0  0  0  0
  -21.7127   -6.0783   22.5255 C   0  0  0  0  0  0
  -21.4219   -6.5719   23.8159 C   0  0  0  0  0  0
  -21.3750   -5.6875   24.9134 C   0  0  0  0  0  0
  -21.6042   -4.3123   24.7208 C   0  0  0  0  0  0
  -21.8772   -3.8164   23.4346 C   0  0  0  0  0  0
  -21.9269   -4.6975   22.3394 C   0  0  0  0  0  0
  -22.4083  -13.6726   21.0677 C   0  0  0  0  0  0
  -22.1676   -4.2112   21.0983 F   0  0  0  0  0  0
  -21.5573   -3.4619   25.7738 F   0  0  0  0  0  0
  -30.5669  -13.6538   20.0993 N   0  0  0  0  0  0
  -25.9383  -13.4800   20.9083 N   0  0  0  0  0  0
  -25.1460  -12.4879   21.6249 N   0  0  0  0  0  0
  -21.7874  -12.9282   21.9787 N   0  0  0  0  0  0
  -24.8922  -15.5360   20.3221 N   0  0  0  0  0  0
  -31.3343  -15.5913   19.8086 O   0  0  0  0  0  0
  -21.7114   -6.8840   21.4135 O   0  0  0  0  0  0
  -21.9553  -14.7045   20.6029 O   0  0  0  0  0  0
  -24.6793  -31.8070   23.1565 C   0  0  0  0  0  0
  -25.9407  -32.4487   23.8089 C   0  0  1  0  0  0
  -27.0332  -26.6322   20.3271 C   0  0  0  0  0  0
  -25.6005  -33.8318   24.1976 N   0  0  0  0  0  0
  -23.4962  -30.4223   21.5120 C   0  0  2  0  0  0
  -24.9232  -28.7699   20.1117 C   0  0  0  0  0  0
  -22.7717  -29.4381   22.4708 C   0  0  0  0  0  0
  -18.0346  -28.1408   22.8474 C   0  0  0  0  0  0
  -24.1506  -36.7162   23.2645 C   0  0  0  0  0  0
  -26.0738  -30.5228   21.4277 C   0  0  0  0  0  0
  -26.1060  -29.0850   20.7900 C   0  0  0  0  0  0
  -27.1653  -28.0405   20.8602 C   0  0  0  0  0  0
  -25.8669  -26.5484   19.5409 C   0  0  0  0  0  0
  -24.8504  -27.5365   19.4499 C   0  0  0  0  0  0
  -23.7388  -29.7413   20.1368 C   0  0  0  0  0  0
  -25.4153  -36.2908   24.0281 C   0  0  1  0  0  0
  -20.5972  -28.3772   23.1160 C   0  0  2  0  0  0
  -20.6804  -26.9436   22.5403 C   0  0  0  0  0  0
  -19.5771  -26.6370   21.5229 C   0  0  0  0  0  0
  -18.1968  -26.7940   22.1642 C   0  0  0  0  0  0
  -19.1606  -28.8916   23.2802 C   0  0  0  0  0  0
  -18.9503  -30.1504   23.8837 C   0  0  0  0  0  0
  -17.6487  -30.6593   24.0554 C   0  0  0  0  0  0
  -25.9134  -34.9297   23.4963 C   0  0  0  0  0  0
  -16.5383  -29.9068   23.6343 C   0  0  0  0  0  0
  -16.7325  -28.6486   23.0375 C   0  0  0  0  0  0
  -26.4580  -31.6511   25.0707 C   0  0  0  0  0  0
  -25.3633  -31.3833   26.1309 C   0  0  0  0  0  0
  -27.0491  -30.2839   24.6609 C   0  0  0  0  0  0
  -27.6046  -32.4359   25.7491 C   0  0  0  0  0  0
  -27.5579  -37.1728   24.8453 C   0  0  0  0  0  0
  -21.4371  -29.3035   22.3462 N   0  0  0  0  0  0
  -26.4279  -37.3666   23.9411 N   0  0  0  0  0  0
  -24.7746  -30.9536   22.0818 N   0  0  0  0  0  0
  -23.4197  -28.7965   23.3015 O   0  0  0  0  0  0
  -27.8474  -25.3257   20.4500 O   0  0  0  0  0  0
  -26.5772  -34.8856   22.4579 O   0  0  0  0  0  0
  -23.5822  -32.1173   23.6529 O   0  0  0  0  0  0
  -27.7722  -13.6644   22.2335 C   0  0  0  0  0  0
  -26.7251  -13.2349   18.8032 C   0  0  0  0  0  0
  -27.4454  -11.8994   21.6773 C   0  0  0  0  0  0
  -27.4039  -14.8620   19.5061 C   0  0  0  0  0  0
  -27.6813  -15.1266   21.1449 C   0  0  0  0  0  0
  -26.7897  -11.6578   19.8976 C   0  0  0  0  0  0
  -27.5851  -20.0623   21.2525 C   0  0  0  0  0  0
  -27.6680  -10.7332   22.6142 C   0  0  0  0  0  0
  -27.8667  -21.7723   20.5322 C   0  0  0  0  0  0
  -27.8142  -18.2783   20.7172 C   0  0  0  0  0  0
  -27.3889  -23.6479   20.8043 C   0  0  0  0  0  0
  -28.9301  -15.4117   19.2960 N   0  0  0  0  0  0
  -27.1468  -20.1325   22.4062 O   0  0  0  0  0  0
  -27.7593  -16.7039   21.5129 O   0  0  0  0  0  0
  -26.4559  -10.4361   19.4139 F   0  0  0  0  0  0
  -32.0725  -13.2185   18.6999 H   0  0  0  0  0  0
  -31.6611  -11.8603   19.6846 H   0  0  0  0  0  0
  -30.6530  -11.4073   17.5323 H   0  0  0  0  0  0
  -30.0692  -13.0547   17.3603 H   0  0  0  0  0  0
  -29.2284  -10.9348   19.3599 H   0  0  0  0  0  0
  -28.3284  -11.6247   18.0746 H   0  0  0  0  0  0
  -28.7966  -13.2735   19.0860 H   0  0  0  0  0  0
  -30.1575  -11.9140   21.1912 H   0  0  0  0  0  0
  -30.0042  -13.4925   21.9110 H   0  0  0  0  0  0
  -25.1264   -9.8127   22.5239 H   0  0  0  0  0  0
  -24.0240   -7.5967   22.7539 H   0  0  0  0  0  0
  -21.0853   -8.8016   19.8409 H   0  0  0  0  0  0
  -22.2058  -10.9674   19.5835 H   0  0  0  0  0  0
  -21.2298   -7.6248   23.9642 H   0  0  0  0  0  0
  -21.1602   -6.0645   25.9034 H   0  0  0  0  0  0
  -22.0430   -2.7602   23.2856 H   0  0  0  0  0  0
  -22.2423  -12.1281   22.3900 H   0  0  0  0  0  0
  -20.8587  -13.1808   22.2859 H   0  0  0  0  0  0
  -24.0587  -16.1044   20.2102 H   0  0  0  0  0  0
  -25.7313  -16.0768   20.4977 H   0  0  0  0  0  0
  -26.7465  -32.4926   23.0771 H   0  0  0  0  0  0
  -25.0031  -33.9369   25.0050 H   0  0  0  0  0  0
  -22.8201  -31.2636   21.3405 H   0  0  0  0  0  0
  -23.3799  -35.9457   23.3208 H   0  0  0  0  0  0
  -24.3593  -36.8919   22.2081 H   0  0  0  0  0  0
  -23.7228  -37.6295   23.6782 H   0  0  0  0  0  0
  -26.2844  -31.2402   20.6340 H   0  0  0  0  0  0
  -26.9257  -30.5829   22.0922 H   0  0  0  0  0  0
  -28.0494  -28.2676   21.4366 H   0  0  0  0  0  0
  -25.6706  -25.6103   19.0411 H   0  0  0  0  0  0
  -23.9606  -27.2983   18.8848 H   0  0  0  0  0  0
  -23.9204  -30.5098   19.3851 H   0  0  0  0  0  0
  -22.8344  -29.2255   19.8098 H   0  0  0  0  0  0
  -25.1357  -36.1664   25.0769 H   0  0  0  0  0  0
  -21.0088  -28.3380   24.1271 H   0  0  0  0  0  0
  -20.5688  -26.2396   23.3662 H   0  0  0  0  0  0
  -21.6667  -26.7386   22.1211 H   0  0  0  0  0  0
  -19.6918  -25.6265   21.1298 H   0  0  0  0  0  0
  -19.6691  -27.3147   20.6731 H   0  0  0  0  0  0
  -17.4230  -26.6711   21.4039 H   0  0  0  0  0  0
  -18.0328  -26.0095   22.9044 H   0  0  0  0  0  0
  -19.7974  -30.7358   24.2159 H   0  0  0  0  0  0
  -17.5027  -31.6265   24.5167 H   0  0  0  0  0  0
  -15.5374  -30.2940   23.7699 H   0  0  0  0  0  0
  -15.8738  -28.0781   22.7118 H   0  0  0  0  0  0
  -24.5849  -30.7154   25.7589 H   0  0  0  0  0  0
  -24.8785  -32.3055   26.4519 H   0  0  0  0  0  0
  -25.7788  -30.9124   27.0227 H   0  0  0  0  0  0
  -26.3188  -29.6456   24.1613 H   0  0  0  0  0  0
  -27.3902  -29.7288   25.5358 H   0  0  0  0  0  0
  -27.9185  -30.3940   24.0126 H   0  0  0  0  0  0
  -27.2620  -33.3754   26.1831 H   0  0  0  0  0  0
  -28.3945  -32.6765   25.0363 H   0  0  0  0  0  0
  -28.0604  -31.8648   26.5583 H   0  0  0  0  0  0
  -28.2520  -38.0097   24.7568 H   0  0  0  0  0  0
  -28.1158  -36.2625   24.6198 H   0  0  0  0  0  0
  -27.2302  -37.1245   25.8853 H   0  0  0  0  0  0
  -20.9642  -29.8685   21.6548 H   0  0  0  0  0  0
  -26.0103  -38.2704   24.1454 H   0  0  0  0  0  0
  -28.0214  -13.8289   23.2720 H   0  0  0  0  0  0
  -26.4892  -13.1481   17.7524 H   0  0  0  0  0  0
  -28.7210  -10.6626   22.8907 H   0  0  0  0  0  0
  -27.3819   -9.7995   22.1330 H   0  0  0  0  0  0
  -27.0826  -10.8583   23.5232 H   0  0  0  0  0  0
  -27.6520  -21.6056   19.4772 H   0  0  0  0  0  0
  -28.9550  -21.8093   20.5691 H   0  0  0  0  0  0
  -28.8122  -18.2925   20.2796 H   0  0  0  0  0  0
  -27.1507  -18.1766   19.8590 H   0  0  0  0  0  0
  -27.3610  -23.7015   21.8936 H   0  0  0  0  0  0
  -26.3301  -23.6628   20.5403 H   0  0  0  0  0  0
  -28.9666  -16.3590   18.9524 H   0  0  0  0  0  0
  1 25  1  0  0  0
  1 30  2  0  0  0
  1 82  1  0  0  0
  2  3  1  0  0  0
  2 25  1  0  0  0
  2 86  1  0  0  0
  2 87  1  0  0  0
  3  4  1  0  0  0
  3 88  1  0  0  0
  3 89  1  0  0  0
  4  5  1  0  0  0
  4 90  1  0  0  0
  4 91  1  0  0  0
  5  6  1  0  0  0
  5 26  1  0  0  0
  5 92  1  0  0  0
  6 25  1  0  0  0
  6 93  1  0  0  0
  6 94  1  0  0  0
  7  8  2  0  0  0
  7 26  1  0  0  0
  7 29  1  0  0  0
  8  9  1  0  0  0
  8 22  1  0  0  0
  9 10  1  0  0  0
  9 27  2  0  0  0
 10 11  2  0  0  0
 10 15  1  0  0  0
 11 12  1  0  0  0
 11 95  1  0  0  0
 12 13  2  0  0  0
 12 96  1  0  0  0
 13 14  1  0  0  0
 13 31  1  0  0  0
 14 15  2  0  0  0
 14 97  1  0  0  0
 15 98  1  0  0  0
 16 17  2  0  0  0
 16 21  1  0  0  0
 16 31  1  0  0  0
 17 18  1  0  0  0
 17 99  1  0  0  0
 18 19  2  0  0  0
 18100  1  0  0  0
 19 20  1  0  0  0
 19 24  1  0  0  0
 20 21  2  0  0  0
 20101  1  0  0  0
 21 23  1  0  0  0
 22 28  1  0  0  0
 22 32  2  0  0  0
 26 27  1  0  0  0
 28102  1  0  0  0
 28103  1  0  0  0
 29104  1  0  0  0
 29105  1  0  0  0
 33 34  1  0  0  0
 33 66  1  0  0  0
 33 70  2  0  0  0
 34 36  1  0  0  0
 34 59  1  0  0  0
 34106  1  0  0  0
 35 44  2  0  0  0
 35 45  1  0  0  0
 35 68  1  0  0  0
 36 56  1  0  0  0
 36107  1  0  0  0
 37 39  1  0  0  0
 37 47  1  0  0  0
 37 66  1  0  0  0
 37108  1  0  0  0
 38 43  2  0  0  0
 38 46  1  0  0  0
 38 47  1  0  0  0
 39 64  1  0  0  0
 39 67  2  0  0  0
 40 52  1  0  0  0
 40 53  2  0  0  0
 40 58  1  0  0  0
 41109  1  0  0  0
 41110  1  0  0  0
 41111  1  0  0  0
 41 48  1  0  0  0
 42 43  1  0  0  0
 42 66  1  0  0  0
 42112  1  0  0  0
 42113  1  0  0  0
 43 44  1  0  0  0
 44114  1  0  0  0
 45 46  2  0  0  0
 45115  1  0  0  0
 46116  1  0  0  0
 47117  1  0  0  0
 47118  1  0  0  0
 48 56  1  0  0  0
 48 65  1  0  0  0
 48119  1  0  0  0
 49 50  1  0  0  0
 49 53  1  0  0  0
 49 64  1  0  0  0
 49120  1  0  0  0
 50 51  1  0  0  0
 50121  1  0  0  0
 50122  1  0  0  0
 51 52  1  0  0  0
 51123  1  0  0  0
 51124  1  0  0  0
 52125  1  0  0  0
 52126  1  0  0  0
 53 54  1  0  0  0
 54 55  2  0  0  0
 54127  1  0  0  0
 55 57  1  0  0  0
 55128  1  0  0  0
 56 69  2  0  0  0
 57 58  2  0  0  0
 57129  1  0  0  0
 58130  1  0  0  0
 59 60  1  0  0  0
 59 61  1  0  0  0
 59 62  1  0  0  0
 60131  1  0  0  0
 60132  1  0  0  0
 60133  1  0  0  0
 61134  1  0  0  0
 61135  1  0  0  0
 61136  1  0  0  0
 62137  1  0  0  0
 62138  1  0  0  0
 62139  1  0  0  0
 63 65  1  0  0  0
 63140  1  0  0  0
 63141  1  0  0  0
 63142  1  0  0  0
 64143  1  0  0  0
 65144  1  0  0  0
 68 81  1  0  0  0
 71 73  2  0  0  0
 71 75  1  0  0  0
 71145  1  0  0  0
 72 74  1  0  0  0
 72 76  2  0  0  0
 72146  1  0  0  0
 73 76  1  0  0  0
 73 78  1  0  0  0
 74 75  2  0  0  0
 74 82  1  0  0  0
 75 84  1  0  0  0
 76 85  1  0  0  0
 77 79  1  0  0  0
 77 80  1  0  0  0
 77 83  2  0  0  0
 78147  1  0  0  0
 78148  1  0  0  0
 78149  1  0  0  0
 79 81  1  0  0  0
 79150  1  0  0  0
 79151  1  0  0  0
 80 84  1  0  0  0
 80152  1  0  0  0
 80153  1  0  0  0
 81154  1  0  0  0
 81155  1  0  0  0
 82156  1  0  0  0
M  ISO  4   1 100  68 101  81 101  82 100
M  END
> <chiral flag>
0

> <version>
0

> <s_m_source_file>
/data/baiqing/PycharmProjects/Reinvent-master-3.2/result/LINK_invent/BTK/process_docking_weight1_custom_product_contain_oxygen_bond_distance_aromatic_linkinvent_7_9_3/rearranged_h_0128.sdf

> <i_m_source_file_index>
95

> <r_mmod_Potential_Energy-OPLS-2005>
12221.7568359375

> <r_mmod_Stretch_Energy-OPLS-2005>
6346.95263671875

> <r_mmod_Bend_Energy-OPLS-2005>
1167.94958496094

> <r_mmod_Torsional_Energy-OPLS-2005>
591.97607421875

> <r_mmod_Improper_Torsional_Energy-OPLS-2005>
45.8567276000977

> <r_mmod_Van_der_Waal_Energy-OPLS-2005>
2899.009765625

> <r_mmod_Electrostatic_Energy-OPLS-2005>
-396.901580810547

> <r_mmod_Solvation_Energy-OPLS-2005>
-227.71159362793

> <b_mmod_Minimization_Converged-OPLS-2005>
0

> <r_mmod_RMS_Derivative-OPLS-2005>
5.70190906524658

$$$$
