0
                    3D
 Structure written by MMmdl.
157166  0  0  1  0            999 V2000
  -30.5871  -14.7748   20.4571 C   0  0  0  0  0  0
  -30.4410  -12.4787   19.4629 C   0  0  0  0  0  0
  -29.5122  -12.5010   18.2291 C   0  0  0  0  0  0
  -28.0388  -12.3149   18.6478 C   0  0  0  0  0  0
  -27.6355  -13.2274   19.8378 C   0  0  2  0  0  0
  -28.6828  -13.1793   20.9700 C   0  0  0  0  0  0
  -25.2492  -13.8184   20.5702 C   0  0  0  0  0  0
  -24.1785  -13.0422   20.9213 C   0  0  0  0  0  0
  -24.6379  -11.6900   20.8737 C   0  0  0  0  0  0
  -23.9051  -10.4285   21.0402 C   0  0  0  0  0  0
  -24.3603   -9.4208   21.9184 C   0  0  0  0  0  0
  -23.6292   -8.2232   22.0743 C   0  0  0  0  0  0
  -22.4273   -8.0268   21.3536 C   0  0  0  0  0  0
  -21.9904   -9.0241   20.4640 C   0  0  0  0  0  0
  -22.7222  -10.2126   20.3059 C   0  0  0  0  0  0
  -21.6847   -6.0736   22.5282 C   0  0  0  0  0  0
  -21.4012   -6.5640   23.8219 C   0  0  0  0  0  0
  -21.3656   -5.6791   24.9178 C   0  0  0  0  0  0
  -21.6036   -4.3051   24.7228 C   0  0  0  0  0  0
  -21.8818   -3.8146   23.4349 C   0  0  0  0  0  0
  -21.9190   -4.6965   22.3406 C   0  0  0  0  0  0
  -22.7813  -13.5210   21.1872 C   0  0  0  0  0  0
  -22.1663   -4.2158   21.0982 F   0  0  0  0  0  0
  -21.5628   -3.4526   25.7739 F   0  0  0  0  0  0
  -29.9749  -13.5445   20.3766 N   0  0  0  0  0  0
  -26.2904  -12.9378   20.3239 N   0  0  0  0  0  0
  -25.9302  -11.6522   20.5720 N   0  0  0  0  0  0
  -22.0453  -12.8216   22.0432 N   0  0  0  0  0  0
  -25.4168  -15.1923   20.4144 N   0  0  0  0  0  0
  -31.7952  -14.8702   20.2197 O   0  0  0  0  0  0
  -21.6629   -6.8873   21.4243 O   0  0  0  0  0  0
  -22.3502  -14.5513   20.6704 O   0  0  0  0  0  0
  -24.6329  -31.8551   23.1960 C   0  0  0  0  0  0
  -25.9140  -32.4751   23.8323 C   0  0  1  0  0  0
  -27.2195  -27.2576   20.1304 C   0  0  0  0  0  0
  -25.5926  -33.8550   24.2249 N   0  0  0  0  0  0
  -23.4303  -30.4773   21.5401 C   0  0  2  0  0  0
  -24.8774  -28.9190   20.1138 C   0  0  0  0  0  0
  -22.7505  -29.4618   22.4906 C   0  0  0  0  0  0
  -18.0303  -28.1396   22.8503 C   0  0  0  0  0  0
  -24.1486  -36.7284   23.2639 C   0  0  0  0  0  0
  -25.9756  -30.7683   21.3747 C   0  0  0  0  0  0
  -26.0511  -29.3886   20.7183 C   0  0  0  0  0  0
  -27.2292  -28.5722   20.7095 C   0  0  0  0  0  0
  -26.0235  -26.8514   19.5047 C   0  0  0  0  0  0
  -24.8684  -27.6584   19.4958 C   0  0  0  0  0  0
  -23.6493  -29.8083   20.1580 C   0  0  0  0  0  0
  -25.4108  -36.3066   24.0329 C   0  0  1  0  0  0
  -20.5905  -28.3724   23.1272 C   0  0  2  0  0  0
  -20.6796  -26.9438   22.5416 C   0  0  0  0  0  0
  -19.5762  -26.6391   21.5231 C   0  0  0  0  0  0
  -18.1942  -26.7941   22.1643 C   0  0  0  0  0  0
  -19.1555  -28.8874   23.2887 C   0  0  0  0  0  0
  -18.9469  -30.1469   23.8912 C   0  0  0  0  0  0
  -17.6464  -30.6597   24.0563 C   0  0  0  0  0  0
  -25.9054  -34.9438   23.5095 C   0  0  0  0  0  0
  -16.5357  -29.9091   23.6326 C   0  0  0  0  0  0
  -16.7286  -28.6503   23.0366 C   0  0  0  0  0  0
  -26.4499  -31.6575   25.0717 C   0  0  0  0  0  0
  -25.3701  -31.3744   26.1422 C   0  0  0  0  0  0
  -27.0334  -30.2984   24.6207 C   0  0  0  0  0  0
  -27.6057  -32.4312   25.7493 C   0  0  0  0  0  0
  -27.5575  -37.1794   24.8462 C   0  0  0  0  0  0
  -21.4214  -29.3059   22.3642 N   0  0  0  0  0  0
  -26.4285  -37.3764   23.9410 N   0  0  0  0  0  0
  -24.6990  -31.0504   22.0943 N   0  0  0  0  0  0
  -23.4205  -28.8175   23.3017 O   0  0  0  0  0  0
  -28.3071  -26.3550   20.1260 O   0  0  0  0  0  0
  -26.5627  -34.8920   22.4665 O   0  0  0  0  0  0
  -23.5472  -32.1377   23.7238 O   0  0  0  0  0  0
  -30.5629  -19.9814   21.8619 C   0  0  0  0  0  0
  -29.4559  -18.5180   20.2692 C   0  0  0  0  0  0
  -30.9211  -17.5495   21.9577 C   0  0  0  0  0  0
  -29.6939  -19.8856   20.7477 C   0  0  0  0  0  0
  -31.1605  -18.8486   22.4523 C   0  0  0  0  0  0
  -30.0635  -17.3236   20.8611 C   0  0  0  0  0  0
  -28.6535  -23.5591   18.6866 C   0  0  0  0  0  0
  -29.2316  -21.2077   18.7234 C   0  0  0  0  0  0
  -28.5711  -23.6375   20.0309 C   0  0  0  0  0  0
  -28.9857  -22.3199   18.0045 C   0  0  0  0  0  0
  -28.8481  -22.3580   20.8159 C   0  0  0  0  0  0
  -28.1153  -24.9939   20.7481 C   0  0  0  0  0  0
  -29.2065  -21.1722   20.1307 N   0  0  0  0  0  0
  -32.0000  -19.0156   23.5519 N   0  0  0  0  0  0
  -29.7739  -15.9062   20.5000 N   0  0  0  0  0  0
  -28.7247  -22.3505   22.0451 O   0  0  0  0  0  0
  -29.0571  -22.2781   16.6697 O   0  0  0  0  0  0
  -31.4778  -12.6300   19.1554 H   0  0  0  0  0  0
  -30.4112  -11.5083   19.9599 H   0  0  0  0  0  0
  -29.8057  -11.7215   17.5254 H   0  0  0  0  0  0
  -29.6257  -13.4495   17.7020 H   0  0  0  0  0  0
  -27.9109  -11.2702   18.9312 H   0  0  0  0  0  0
  -27.3761  -12.4799   17.7982 H   0  0  0  0  0  0
  -27.6196  -14.2426   19.4412 H   0  0  0  0  0  0
  -28.7303  -12.1854   21.4177 H   0  0  0  0  0  0
  -28.4128  -13.8677   21.7728 H   0  0  0  0  0  0
  -25.2758   -9.5693   22.4753 H   0  0  0  0  0  0
  -24.0009   -7.4625   22.7460 H   0  0  0  0  0  0
  -21.0840   -8.8747   19.8958 H   0  0  0  0  0  0
  -22.3676  -10.9650   19.6158 H   0  0  0  0  0  0
  -21.2004   -7.6149   23.9729 H   0  0  0  0  0  0
  -21.1478   -6.0517   25.9085 H   0  0  0  0  0  0
  -22.0602   -2.7610   23.2839 H   0  0  0  0  0  0
  -22.4050  -11.9891   22.4868 H   0  0  0  0  0  0
  -21.1068  -13.1252   22.2605 H   0  0  0  0  0  0
  -24.6460  -15.8415   20.5329 H   0  0  0  0  0  0
  -26.2591  -15.6378   20.0749 H   0  0  0  0  0  0
  -26.7206  -32.5401   23.1073 H   0  0  0  0  0  0
  -25.0039  -33.9677   25.0372 H   0  0  0  0  0  0
  -22.7287  -31.3002   21.3909 H   0  0  0  0  0  0
  -23.3750  -35.9614   23.3291 H   0  0  0  0  0  0
  -24.3585  -36.8915   22.2056 H   0  0  0  0  0  0
  -23.7239  -37.6483   23.6668 H   0  0  0  0  0  0
  -26.1061  -31.5271   20.6019 H   0  0  0  0  0  0
  -26.8563  -30.8230   22.0037 H   0  0  0  0  0  0
  -28.1314  -28.9285   21.1858 H   0  0  0  0  0  0
  -25.9738  -25.8829   19.0269 H   0  0  0  0  0  0
  -23.9692  -27.2931   19.0184 H   0  0  0  0  0  0
  -23.7742  -30.5824   19.3994 H   0  0  0  0  0  0
  -22.7670  -29.2420   19.8547 H   0  0  0  0  0  0
  -25.1288  -36.1914   25.0820 H   0  0  0  0  0  0
  -21.0019  -28.3303   24.1382 H   0  0  0  0  0  0
  -20.5735  -26.2321   23.3622 H   0  0  0  0  0  0
  -21.6656  -26.7472   22.1182 H   0  0  0  0  0  0
  -19.6922  -25.6299   21.1263 H   0  0  0  0  0  0
  -19.6692  -27.3202   20.6760 H   0  0  0  0  0  0
  -17.4215  -26.6712   21.4033 H   0  0  0  0  0  0
  -18.0328  -26.0084   22.9035 H   0  0  0  0  0  0
  -19.7935  -30.7288   24.2299 H   0  0  0  0  0  0
  -17.5008  -31.6285   24.5157 H   0  0  0  0  0  0
  -15.5356  -30.2998   23.7626 H   0  0  0  0  0  0
  -15.8693  -28.0812   22.7083 H   0  0  0  0  0  0
  -24.5879  -30.7099   25.7736 H   0  0  0  0  0  0
  -24.8891  -32.2921   26.4811 H   0  0  0  0  0  0
  -25.7989  -30.8932   27.0220 H   0  0  0  0  0  0
  -26.2917  -29.6745   24.1208 H   0  0  0  0  0  0
  -27.3977  -29.7238   25.4734 H   0  0  0  0  0  0
  -27.8812  -30.4248   23.9473 H   0  0  0  0  0  0
  -27.2671  -33.3619   26.2056 H   0  0  0  0  0  0
  -28.3875  -32.6857   25.0325 H   0  0  0  0  0  0
  -28.0718  -31.8445   26.5419 H   0  0  0  0  0  0
  -28.2580  -38.0101   24.7507 H   0  0  0  0  0  0
  -28.1083  -36.2630   24.6284 H   0  0  0  0  0  0
  -27.2300  -37.1439   25.8867 H   0  0  0  0  0  0
  -20.9398  -29.8735   21.6810 H   0  0  0  0  0  0
  -26.0164  -38.2836   24.1416 H   0  0  0  0  0  0
  -30.8075  -20.9556   22.2617 H   0  0  0  0  0  0
  -28.7934  -18.3836   19.4255 H   0  0  0  0  0  0
  -31.3773  -16.7045   22.4539 H   0  0  0  0  0  0
  -28.4323  -24.4444   18.1055 H   0  0  0  0  0  0
  -29.5026  -20.2712   18.2571 H   0  0  0  0  0  0
  -28.6497  -25.0398   21.6962 H   0  0  0  0  0  0
  -27.0701  -24.8621   21.0298 H   0  0  0  0  0  0
  -32.3139  -19.9417   23.8256 H   0  0  0  0  0  0
  -32.6223  -18.2665   23.8417 H   0  0  0  0  0  0
  -28.7955  -15.7019   20.3711 H   0  0  0  0  0  0
  -28.8519  -23.1435   16.3362 H   0  0  0  0  0  0
  1 25  1  0  0  0
  1 30  2  0  0  0
  1 85  1  0  0  0
  2  3  1  0  0  0
  2 25  1  0  0  0
  2 88  1  0  0  0
  2 89  1  0  0  0
  3  4  1  0  0  0
  3 90  1  0  0  0
  3 91  1  0  0  0
  4  5  1  0  0  0
  4 92  1  0  0  0
  4 93  1  0  0  0
  5  6  1  0  0  0
  5 26  1  0  0  0
  5 94  1  0  0  0
  6 25  1  0  0  0
  6 95  1  0  0  0
  6 96  1  0  0  0
  7  8  2  0  0  0
  7 26  1  0  0  0
  7 29  1  0  0  0
  8  9  1  0  0  0
  8 22  1  0  0  0
  9 10  1  0  0  0
  9 27  2  0  0  0
 10 11  2  0  0  0
 10 15  1  0  0  0
 11 12  1  0  0  0
 11 97  1  0  0  0
 12 13  2  0  0  0
 12 98  1  0  0  0
 13 14  1  0  0  0
 13 31  1  0  0  0
 14 15  2  0  0  0
 14 99  1  0  0  0
 15100  1  0  0  0
 16 17  2  0  0  0
 16 21  1  0  0  0
 16 31  1  0  0  0
 17 18  1  0  0  0
 17101  1  0  0  0
 18 19  2  0  0  0
 18102  1  0  0  0
 19 20  1  0  0  0
 19 24  1  0  0  0
 20 21  2  0  0  0
 20103  1  0  0  0
 21 23  1  0  0  0
 22 28  1  0  0  0
 22 32  2  0  0  0
 26 27  1  0  0  0
 28104  1  0  0  0
 28105  1  0  0  0
 29106  1  0  0  0
 29107  1  0  0  0
 33 34  1  0  0  0
 33 66  1  0  0  0
 33 70  2  0  0  0
 34 36  1  0  0  0
 34 59  1  0  0  0
 34108  1  0  0  0
 35 44  2  0  0  0
 35 45  1  0  0  0
 35 68  1  0  0  0
 36 56  1  0  0  0
 36109  1  0  0  0
 37 39  1  0  0  0
 37 47  1  0  0  0
 37 66  1  0  0  0
 37110  1  0  0  0
 38 43  2  0  0  0
 38 46  1  0  0  0
 38 47  1  0  0  0
 39 64  1  0  0  0
 39 67  2  0  0  0
 40 52  1  0  0  0
 40 53  2  0  0  0
 40 58  1  0  0  0
 41111  1  0  0  0
 41112  1  0  0  0
 41113  1  0  0  0
 41 48  1  0  0  0
 42 43  1  0  0  0
 42 66  1  0  0  0
 42114  1  0  0  0
 42115  1  0  0  0
 43 44  1  0  0  0
 44116  1  0  0  0
 45 46  2  0  0  0
 45117  1  0  0  0
 46118  1  0  0  0
 47119  1  0  0  0
 47120  1  0  0  0
 48 56  1  0  0  0
 48 65  1  0  0  0
 48121  1  0  0  0
 49 50  1  0  0  0
 49 53  1  0  0  0
 49 64  1  0  0  0
 49122  1  0  0  0
 50 51  1  0  0  0
 50123  1  0  0  0
 50124  1  0  0  0
 51 52  1  0  0  0
 51125  1  0  0  0
 51126  1  0  0  0
 52127  1  0  0  0
 52128  1  0  0  0
 53 54  1  0  0  0
 54 55  2  0  0  0
 54129  1  0  0  0
 55 57  1  0  0  0
 55130  1  0  0  0
 56 69  2  0  0  0
 57 58  2  0  0  0
 57131  1  0  0  0
 58132  1  0  0  0
 59 60  1  0  0  0
 59 61  1  0  0  0
 59 62  1  0  0  0
 60133  1  0  0  0
 60134  1  0  0  0
 60135  1  0  0  0
 61136  1  0  0  0
 61137  1  0  0  0
 61138  1  0  0  0
 62139  1  0  0  0
 62140  1  0  0  0
 62141  1  0  0  0
 63 65  1  0  0  0
 63142  1  0  0  0
 63143  1  0  0  0
 63144  1  0  0  0
 64145  1  0  0  0
 65146  1  0  0  0
 68 82  1  0  0  0
 71 74  2  0  0  0
 71 75  1  0  0  0
 71147  1  0  0  0
 72 74  1  0  0  0
 72 76  2  0  0  0
 72148  1  0  0  0
 73 75  2  0  0  0
 73 76  1  0  0  0
 73149  1  0  0  0
 74 83  1  0  0  0
 75 84  1  0  0  0
 76 85  1  0  0  0
 77 79  2  0  0  0
 77 80  1  0  0  0
 77150  1  0  0  0
 78 80  2  0  0  0
 78 83  1  0  0  0
 78151  1  0  0  0
 79 81  1  0  0  0
 79 82  1  0  0  0
 80 87  1  0  0  0
 81 83  1  0  0  0
 81 86  2  0  0  0
 82152  1  0  0  0
 82153  1  0  0  0
 84154  1  0  0  0
 84155  1  0  0  0
 85156  1  0  0  0
 87157  1  0  0  0
M  ISO  4   1 100  68 101  82 101  85 100
M  END
> <chiral flag>
0

> <version>
0

> <s_m_source_file>
/data/baiqing/PycharmProjects/Reinvent-master-3.2/result/LINK_invent/BTK/process_docking_weight1_custom_product_contain_oxygen_bond_distance_aromatic_linkinvent_7_9_3/rearranged_h_0082.sdf

> <i_m_source_file_index>
1

> <r_mmod_Potential_Energy-OPLS-2005>
274.566162109375

> <r_mmod_Stretch_Energy-OPLS-2005>
146.205825805664

> <r_mmod_Bend_Energy-OPLS-2005>
164.689422607422

> <r_mmod_Torsional_Energy-OPLS-2005>
278.048309326172

> <r_mmod_Improper_Torsional_Energy-OPLS-2005>
10.0312747955322

> <r_mmod_Van_der_Waal_Energy-OPLS-2005>
158.777206420898

> <r_mmod_Electrostatic_Energy-OPLS-2005>
-334.05859375

> <r_mmod_Solvation_Energy-OPLS-2005>
-245.242721557617

> <b_mmod_Minimization_Converged-OPLS-2005>
0

> <r_mmod_RMS_Derivative-OPLS-2005>
2.01923561096191

$$$$
1
                    3D
 Structure written by MMmdl.
151159  0  0  1  0            999 V2000
  -30.5637  -14.6532   20.4355 C   0  0  0  0  0  0
  -30.4472  -12.3903   19.4346 C   0  0  0  0  0  0
  -29.5106  -12.4839   18.2102 C   0  0  0  0  0  0
  -28.0363  -12.3128   18.6315 C   0  0  0  0  0  0
  -27.6516  -13.1941   19.8468 C   0  0  2  0  0  0
  -28.6972  -13.0593   20.9757 C   0  0  0  0  0  0
  -25.2631  -13.8116   20.5621 C   0  0  0  0  0  0
  -24.1897  -13.0421   20.9194 C   0  0  0  0  0  0
  -24.6429  -11.6869   20.8733 C   0  0  0  0  0  0
  -23.9090  -10.4279   21.0447 C   0  0  0  0  0  0
  -24.3643   -9.4183   21.9200 C   0  0  0  0  0  0
  -23.6318   -8.2223   22.0772 C   0  0  0  0  0  0
  -22.4284   -8.0285   21.3568 C   0  0  0  0  0  0
  -21.9937   -9.0257   20.4653 C   0  0  0  0  0  0
  -22.7282  -10.2135   20.3072 C   0  0  0  0  0  0
  -21.6848   -6.0746   22.5284 C   0  0  0  0  0  0
  -21.4006   -6.5651   23.8222 C   0  0  0  0  0  0
  -21.3640   -5.6807   24.9190 C   0  0  0  0  0  0
  -21.6046   -4.3071   24.7227 C   0  0  0  0  0  0
  -21.8818   -3.8182   23.4339 C   0  0  0  0  0  0
  -21.9194   -4.6985   22.3401 C   0  0  0  0  0  0
  -22.7925  -13.5244   21.1825 C   0  0  0  0  0  0
  -22.1675   -4.2186   21.0968 F   0  0  0  0  0  0
  -21.5613   -3.4543   25.7728 F   0  0  0  0  0  0
  -30.0060  -13.4061   20.4050 N   0  0  0  0  0  0
  -26.2996  -12.9231   20.3200 N   0  0  0  0  0  0
  -25.9343  -11.6411   20.5718 N   0  0  0  0  0  0
  -22.0540  -12.8258   22.0382 N   0  0  0  0  0  0
  -25.4345  -15.1830   20.3997 N   0  0  0  0  0  0
  -31.7459  -14.8449   20.1313 O   0  0  0  0  0  0
  -21.6635   -6.8885   21.4253 O   0  0  0  0  0  0
  -22.3636  -14.5536   20.6639 O   0  0  0  0  0  0
  -24.6238  -31.8610   23.2026 C   0  0  0  0  0  0
  -25.9123  -32.4789   23.8337 C   0  0  1  0  0  0
  -27.2027  -27.3314   20.1133 C   0  0  0  0  0  0
  -25.5949  -33.8584   24.2268 N   0  0  0  0  0  0
  -23.4174  -30.4876   21.5453 C   0  0  2  0  0  0
  -24.8609  -28.9345   20.1175 C   0  0  0  0  0  0
  -22.7439  -29.4652   22.4946 C   0  0  0  0  0  0
  -18.0287  -28.1421   22.8506 C   0  0  0  0  0  0
  -24.1488  -36.7260   23.2626 C   0  0  0  0  0  0
  -25.9560  -30.7939   21.3691 C   0  0  0  0  0  0
  -26.0276  -29.4158   20.7273 C   0  0  0  0  0  0
  -27.2098  -28.6210   20.7254 C   0  0  0  0  0  0
  -26.0198  -26.8890   19.4943 C   0  0  0  0  0  0
  -24.8541  -27.6744   19.4978 C   0  0  0  0  0  0
  -23.6295  -29.8175   20.1619 C   0  0  0  0  0  0
  -25.4114  -36.3067   24.0319 C   0  0  1  0  0  0
  -20.5907  -28.3689   23.1310 C   0  0  2  0  0  0
  -20.6790  -26.9420   22.5414 C   0  0  0  0  0  0
  -19.5746  -26.6423   21.5219 C   0  0  0  0  0  0
  -18.1931  -26.7966   22.1646 C   0  0  0  0  0  0
  -19.1549  -28.8868   23.2916 C   0  0  0  0  0  0
  -18.9458  -30.1505   23.8888 C   0  0  0  0  0  0
  -17.6450  -30.6603   24.0587 C   0  0  0  0  0  0
  -25.9061  -34.9439   23.5084 C   0  0  0  0  0  0
  -16.5342  -29.9110   23.6371 C   0  0  0  0  0  0
  -16.7272  -28.6554   23.0338 C   0  0  0  0  0  0
  -26.4505  -31.6572   25.0688 C   0  0  0  0  0  0
  -25.3741  -31.3748   26.1428 C   0  0  0  0  0  0
  -27.0327  -30.3011   24.6074 C   0  0  0  0  0  0
  -27.6118  -32.4273   25.7423 C   0  0  0  0  0  0
  -27.5614  -37.1743   24.8435 C   0  0  0  0  0  0
  -21.4151  -29.3058   22.3672 N   0  0  0  0  0  0
  -26.4273  -37.3788   23.9461 N   0  0  0  0  0  0
  -24.6869  -31.0652   22.0963 N   0  0  0  0  0  0
  -23.4148  -28.8200   23.3042 O   0  0  0  0  0  0
  -28.2825  -26.4631   20.0393 O   0  0  0  0  0  0
  -26.5566  -34.8913   22.4636 O   0  0  0  0  0  0
  -23.5409  -32.1406   23.7385 O   0  0  0  0  0  0
  -30.3477  -19.3191   20.2594 C   0  0  0  0  0  0
  -30.7280  -17.9380   20.4472 C   0  0  0  0  0  0
  -29.0090  -19.5224   20.0445 C   0  0  0  0  0  0
  -29.6876  -17.0328   20.3944 C   0  0  0  0  0  0
  -28.4796  -25.5704   21.0853 C   0  0  0  0  0  0
  -28.2077  -20.7707   19.7191 C   0  0  0  0  0  0
  -28.4944  -24.1937   21.1426 C   0  0  0  0  0  0
  -28.1586  -23.2456   20.0408 C   0  0  0  0  0  0
  -28.8146  -23.5705   22.5011 C   0  0  0  0  0  0
  -29.6519  -15.6640   20.6026 N   0  0  0  0  0  0
  -28.6129  -21.9638   20.2512 N   0  0  0  0  0  0
  -27.2004  -20.6555   19.0132 O   0  0  0  0  0  0
  -27.4870  -23.5640   19.0533 O   0  0  0  0  0  0
  -28.2090  -17.9438   20.0255 S   0  0  0  0  0  0
  -31.4865  -12.5347   19.1345 H   0  0  0  0  0  0
  -30.3935  -11.3987   19.8850 H   0  0  0  0  0  0
  -29.7834  -11.7192   17.4812 H   0  0  0  0  0  0
  -29.6415  -13.4426   17.7057 H   0  0  0  0  0  0
  -27.8971  -11.2610   18.8882 H   0  0  0  0  0  0
  -27.3737  -12.5098   17.7891 H   0  0  0  0  0  0
  -27.6652  -14.2194   19.4821 H   0  0  0  0  0  0
  -28.7222  -12.0440   21.3725 H   0  0  0  0  0  0
  -28.4417  -13.7034   21.8200 H   0  0  0  0  0  0
  -25.2804   -9.5644   22.4744 H   0  0  0  0  0  0
  -24.0026   -7.4620   22.7496 H   0  0  0  0  0  0
  -21.0868   -8.8788   19.8967 H   0  0  0  0  0  0
  -22.3767  -10.9665   19.6157 H   0  0  0  0  0  0
  -21.2001   -7.6157   23.9736 H   0  0  0  0  0  0
  -21.1448   -6.0534   25.9091 H   0  0  0  0  0  0
  -22.0602   -2.7653   23.2827 H   0  0  0  0  0  0
  -22.4143  -11.9910   22.4767 H   0  0  0  0  0  0
  -21.1139  -13.1263   22.2518 H   0  0  0  0  0  0
  -24.6568  -15.8264   20.5029 H   0  0  0  0  0  0
  -26.2633  -15.6207   20.0247 H   0  0  0  0  0  0
  -26.7193  -32.5460   23.1071 H   0  0  0  0  0  0
  -25.0177  -33.9717   25.0462 H   0  0  0  0  0  0
  -22.7145  -31.3134   21.4036 H   0  0  0  0  0  0
  -23.3779  -35.9566   23.3184 H   0  0  0  0  0  0
  -24.3658  -36.8976   22.2086 H   0  0  0  0  0  0
  -23.7171  -37.6409   23.6679 H   0  0  0  0  0  0
  -26.0696  -31.5446   20.5875 H   0  0  0  0  0  0
  -26.8454  -30.8577   21.9850 H   0  0  0  0  0  0
  -28.1118  -28.9790   21.2019 H   0  0  0  0  0  0
  -26.0007  -25.9141   19.0263 H   0  0  0  0  0  0
  -23.9594  -27.2997   19.0171 H   0  0  0  0  0  0
  -23.7438  -30.5864   19.3949 H   0  0  0  0  0  0
  -22.7514  -29.2419   19.8636 H   0  0  0  0  0  0
  -25.1286  -36.1887   25.0800 H   0  0  0  0  0  0
  -21.0045  -28.3256   24.1419 H   0  0  0  0  0  0
  -20.5749  -26.2263   23.3590 H   0  0  0  0  0  0
  -21.6651  -26.7518   22.1175 H   0  0  0  0  0  0
  -19.6881  -25.6327   21.1250 H   0  0  0  0  0  0
  -19.6715  -27.3255   20.6756 H   0  0  0  0  0  0
  -17.4231  -26.6762   21.4015 H   0  0  0  0  0  0
  -18.0317  -26.0119   22.9052 H   0  0  0  0  0  0
  -19.7933  -30.7369   24.2200 H   0  0  0  0  0  0
  -17.4998  -31.6268   24.5200 H   0  0  0  0  0  0
  -15.5342  -30.2977   23.7709 H   0  0  0  0  0  0
  -15.8696  -28.0888   22.6979 H   0  0  0  0  0  0
  -24.5886  -30.7117   25.7747 H   0  0  0  0  0  0
  -24.8941  -32.2940   26.4812 H   0  0  0  0  0  0
  -25.8071  -30.8936   27.0199 H   0  0  0  0  0  0
  -26.2847  -29.6757   24.1163 H   0  0  0  0  0  0
  -27.4140  -29.7282   25.4526 H   0  0  0  0  0  0
  -27.8671  -30.4344   23.9182 H   0  0  0  0  0  0
  -27.2806  -33.3633   26.1925 H   0  0  0  0  0  0
  -28.3931  -32.6716   25.0208 H   0  0  0  0  0  0
  -28.0717  -31.8384   26.5364 H   0  0  0  0  0  0
  -28.2478  -38.0180   24.7739 H   0  0  0  0  0  0
  -28.1234  -36.2753   24.5904 H   0  0  0  0  0  0
  -27.2378  -37.0962   25.8820 H   0  0  0  0  0  0
  -20.9270  -29.8745   21.6890 H   0  0  0  0  0  0
  -26.0109  -38.2804   24.1642 H   0  0  0  0  0  0
  -31.0708  -20.1242   20.2669 H   0  0  0  0  0  0
  -31.7575  -17.6763   20.6400 H   0  0  0  0  0  0
  -28.6799  -26.1355   21.9858 H   0  0  0  0  0  0
  -29.2805  -24.2908   23.1746 H   0  0  0  0  0  0
  -29.5070  -22.7318   22.4421 H   0  0  0  0  0  0
  -27.8935  -23.2217   22.9698 H   0  0  0  0  0  0
  -28.7276  -15.3009   20.7763 H   0  0  0  0  0  0
  -29.3109  -21.8839   20.9725 H   0  0  0  0  0  0
  1 25  1  0  0  0
  1 30  2  0  0  0
  1 80  1  0  0  0
  2  3  1  0  0  0
  2 25  1  0  0  0
  2 85  1  0  0  0
  2 86  1  0  0  0
  3  4  1  0  0  0
  3 87  1  0  0  0
  3 88  1  0  0  0
  4  5  1  0  0  0
  4 89  1  0  0  0
  4 90  1  0  0  0
  5  6  1  0  0  0
  5 26  1  0  0  0
  5 91  1  0  0  0
  6 25  1  0  0  0
  6 92  1  0  0  0
  6 93  1  0  0  0
  7  8  2  0  0  0
  7 26  1  0  0  0
  7 29  1  0  0  0
  8  9  1  0  0  0
  8 22  1  0  0  0
  9 10  1  0  0  0
  9 27  2  0  0  0
 10 11  2  0  0  0
 10 15  1  0  0  0
 11 12  1  0  0  0
 11 94  1  0  0  0
 12 13  2  0  0  0
 12 95  1  0  0  0
 13 14  1  0  0  0
 13 31  1  0  0  0
 14 15  2  0  0  0
 14 96  1  0  0  0
 15 97  1  0  0  0
 16 17  2  0  0  0
 16 21  1  0  0  0
 16 31  1  0  0  0
 17 18  1  0  0  0
 17 98  1  0  0  0
 18 19  2  0  0  0
 18 99  1  0  0  0
 19 20  1  0  0  0
 19 24  1  0  0  0
 20 21  2  0  0  0
 20100  1  0  0  0
 21 23  1  0  0  0
 22 28  1  0  0  0
 22 32  2  0  0  0
 26 27  1  0  0  0
 28101  1  0  0  0
 28102  1  0  0  0
 29103  1  0  0  0
 29104  1  0  0  0
 33 34  1  0  0  0
 33 66  1  0  0  0
 33 70  2  0  0  0
 34 36  1  0  0  0
 34 59  1  0  0  0
 34105  1  0  0  0
 35 44  2  0  0  0
 35 45  1  0  0  0
 35 68  1  0  0  0
 36 56  1  0  0  0
 36106  1  0  0  0
 37 39  1  0  0  0
 37 47  1  0  0  0
 37 66  1  0  0  0
 37107  1  0  0  0
 38 43  2  0  0  0
 38 46  1  0  0  0
 38 47  1  0  0  0
 39 64  1  0  0  0
 39 67  2  0  0  0
 40 52  1  0  0  0
 40 53  2  0  0  0
 40 58  1  0  0  0
 41108  1  0  0  0
 41109  1  0  0  0
 41110  1  0  0  0
 41 48  1  0  0  0
 42 43  1  0  0  0
 42 66  1  0  0  0
 42111  1  0  0  0
 42112  1  0  0  0
 43 44  1  0  0  0
 44113  1  0  0  0
 45 46  2  0  0  0
 45114  1  0  0  0
 46115  1  0  0  0
 47116  1  0  0  0
 47117  1  0  0  0
 48 56  1  0  0  0
 48 65  1  0  0  0
 48118  1  0  0  0
 49 50  1  0  0  0
 49 53  1  0  0  0
 49 64  1  0  0  0
 49119  1  0  0  0
 50 51  1  0  0  0
 50120  1  0  0  0
 50121  1  0  0  0
 51 52  1  0  0  0
 51122  1  0  0  0
 51123  1  0  0  0
 52124  1  0  0  0
 52125  1  0  0  0
 53 54  1  0  0  0
 54 55  2  0  0  0
 54126  1  0  0  0
 55 57  1  0  0  0
 55127  1  0  0  0
 56 69  2  0  0  0
 57 58  2  0  0  0
 57128  1  0  0  0
 58129  1  0  0  0
 59 60  1  0  0  0
 59 61  1  0  0  0
 59 62  1  0  0  0
 60130  1  0  0  0
 60131  1  0  0  0
 60132  1  0  0  0
 61133  1  0  0  0
 61134  1  0  0  0
 61135  1  0  0  0
 62136  1  0  0  0
 62137  1  0  0  0
 62138  1  0  0  0
 63 65  1  0  0  0
 63139  1  0  0  0
 63140  1  0  0  0
 63141  1  0  0  0
 64142  1  0  0  0
 65143  1  0  0  0
 68 75  1  0  0  0
 71 72  1  0  0  0
 71 73  2  0  0  0
 71144  1  0  0  0
 72 74  2  0  0  0
 72145  1  0  0  0
 73 76  1  0  0  0
 73 84  1  0  0  0
 74 80  1  0  0  0
 74 84  1  0  0  0
 75 77  2  0  0  0
 75146  1  0  0  0
 76 81  1  0  0  0
 76 82  2  0  0  0
 77 78  1  0  0  0
 77 79  1  0  0  0
 78 81  1  0  0  0
 78 83  2  0  0  0
 79147  1  0  0  0
 79148  1  0  0  0
 79149  1  0  0  0
 80150  1  0  0  0
 81151  1  0  0  0
M  ISO  4   1 100  68 101  75 101  80 100
M  END
> <chiral flag>
0

> <version>
0

> <s_m_source_file>
/data/baiqing/PycharmProjects/Reinvent-master-3.2/result/LINK_invent/BTK/process_docking_weight1_custom_product_contain_oxygen_bond_distance_aromatic_linkinvent_7_9_3/rearranged_h_0082.sdf

> <i_m_source_file_index>
2

> <r_mmod_Potential_Energy-OPLS-2005>
-69.1425170898438

> <r_mmod_Stretch_Energy-OPLS-2005>
61.051025390625

> <r_mmod_Bend_Energy-OPLS-2005>
150.677139282227

> <r_mmod_Torsional_Energy-OPLS-2005>
270.292694091797

> <r_mmod_Improper_Torsional_Energy-OPLS-2005>
7.0465292930603

> <r_mmod_Van_der_Waal_Energy-OPLS-2005>
125.461608886719

> <r_mmod_Electrostatic_Energy-OPLS-2005>
-477.071197509766

> <r_mmod_Solvation_Energy-OPLS-2005>
-261.276000976562

> <b_mmod_Minimization_Converged-OPLS-2005>
0

> <r_mmod_RMS_Derivative-OPLS-2005>
5.72595643997192

$$$$
2
                    3D
 Structure written by MMmdl.
154163  0  0  1  0            999 V2000
  -30.6662  -14.5417   20.5339 C   0  0  0  0  0  0
  -30.4294  -12.3389   19.4338 C   0  0  0  0  0  0
  -29.4998  -12.4990   18.2121 C   0  0  0  0  0  0
  -28.0213  -12.3504   18.6252 C   0  0  0  0  0  0
  -27.6565  -13.2080   19.8665 C   0  0  2  0  0  0
  -28.7002  -13.0272   20.9921 C   0  0  0  0  0  0
  -25.2573  -13.8156   20.5672 C   0  0  0  0  0  0
  -24.1833  -13.0434   20.9189 C   0  0  0  0  0  0
  -24.6387  -11.6901   20.8741 C   0  0  0  0  0  0
  -23.9054  -10.4289   21.0409 C   0  0  0  0  0  0
  -24.3609   -9.4205   21.9185 C   0  0  0  0  0  0
  -23.6286   -8.2241   22.0754 C   0  0  0  0  0  0
  -22.4270   -8.0278   21.3545 C   0  0  0  0  0  0
  -21.9902   -9.0252   20.4649 C   0  0  0  0  0  0
  -22.7227  -10.2133   20.3057 C   0  0  0  0  0  0
  -21.6852   -6.0732   22.5278 C   0  0  0  0  0  0
  -21.4014   -6.5637   23.8211 C   0  0  0  0  0  0
  -21.3658   -5.6790   24.9174 C   0  0  0  0  0  0
  -21.6044   -4.3053   24.7225 C   0  0  0  0  0  0
  -21.8819   -3.8144   23.4347 C   0  0  0  0  0  0
  -21.9193   -4.6960   22.3403 C   0  0  0  0  0  0
  -22.7857  -13.5237   21.1850 C   0  0  0  0  0  0
  -22.1662   -4.2145   21.0980 F   0  0  0  0  0  0
  -21.5628   -3.4538   25.7738 F   0  0  0  0  0  0
  -30.0229  -13.3437   20.4304 N   0  0  0  0  0  0
  -26.3000  -12.9323   20.3326 N   0  0  0  0  0  0
  -25.9312  -11.6486   20.5757 N   0  0  0  0  0  0
  -22.0493  -12.8236   22.0405 N   0  0  0  0  0  0
  -25.4286  -15.1872   20.4053 N   0  0  0  0  0  0
  -31.8258  -14.6977   20.1395 O   0  0  0  0  0  0
  -21.6637   -6.8875   21.4240 O   0  0  0  0  0  0
  -22.3547  -14.5545   20.6695 O   0  0  0  0  0  0
  -24.6176  -31.8654   23.2071 C   0  0  0  0  0  0
  -25.9055  -32.4808   23.8381 C   0  0  1  0  0  0
  -27.2325  -27.4032   20.1090 C   0  0  0  0  0  0
  -25.5899  -33.8607   24.2313 N   0  0  0  0  0  0
  -23.4082  -30.4871   21.5480 C   0  0  2  0  0  0
  -24.8568  -28.9462   20.1166 C   0  0  0  0  0  0
  -22.7429  -29.4645   22.4977 C   0  0  0  0  0  0
  -18.0277  -28.1380   22.8492 C   0  0  0  0  0  0
  -24.1486  -36.7311   23.2640 C   0  0  0  0  0  0
  -25.9396  -30.8219   21.3647 C   0  0  0  0  0  0
  -26.0188  -29.4522   20.7147 C   0  0  0  0  0  0
  -27.2133  -28.6891   20.7055 C   0  0  0  0  0  0
  -26.0566  -26.9170   19.5046 C   0  0  0  0  0  0
  -24.8718  -27.6789   19.5071 C   0  0  0  0  0  0
  -23.6195  -29.8167   20.1640 C   0  0  0  0  0  0
  -25.4106  -36.3104   24.0337 C   0  0  1  0  0  0
  -20.5870  -28.3672   23.1312 C   0  0  2  0  0  0
  -20.6765  -26.9404   22.5419 C   0  0  0  0  0  0
  -19.5744  -26.6389   21.5215 C   0  0  0  0  0  0
  -18.1923  -26.7927   22.1625 C   0  0  0  0  0  0
  -19.1527  -28.8843   23.2898 C   0  0  0  0  0  0
  -18.9453  -30.1449   23.8908 C   0  0  0  0  0  0
  -17.6454  -30.6585   24.0567 C   0  0  0  0  0  0
  -25.9035  -34.9469   23.5124 C   0  0  0  0  0  0
  -16.5346  -29.9086   23.6329 C   0  0  0  0  0  0
  -16.7267  -28.6505   23.0347 C   0  0  0  0  0  0
  -26.4474  -31.6593   25.0717 C   0  0  0  0  0  0
  -25.3736  -31.3708   26.1466 C   0  0  0  0  0  0
  -27.0303  -30.3029   24.6106 C   0  0  0  0  0  0
  -27.6052  -32.4310   25.7476 C   0  0  0  0  0  0
  -27.5579  -37.1809   24.8464 C   0  0  0  0  0  0
  -21.4153  -29.3033   22.3715 N   0  0  0  0  0  0
  -26.4292  -37.3789   23.9409 N   0  0  0  0  0  0
  -24.6734  -31.0729   22.0983 N   0  0  0  0  0  0
  -23.4186  -28.8192   23.3037 O   0  0  0  0  0  0
  -28.3677  -26.6156   20.0896 O   0  0  0  0  0  0
  -26.5603  -34.8925   22.4689 O   0  0  0  0  0  0
  -23.5359  -32.1418   23.7446 O   0  0  0  0  0  0
  -31.7171  -18.8603   21.4201 C   0  0  0  0  0  0
  -31.4646  -17.4757   21.3140 C   0  0  0  0  0  0
  -29.1765  -17.9691   20.6808 C   0  0  0  0  0  0
  -30.7322  -19.8478   21.1675 C   0  0  0  0  0  0
  -30.7890  -21.3063   21.2588 C   0  0  0  0  0  0
  -30.1861  -17.0018   20.9454 C   0  0  0  0  0  0
  -29.4468  -19.3635   20.7778 C   0  0  0  0  0  0
  -29.5878  -21.9199   20.9446 C   0  0  0  0  0  0
  -28.4965  -24.1142   20.4746 C   0  0  0  0  0  0
  -32.0179  -22.0658   21.6778 C   0  0  0  0  0  0
  -28.3938  -25.5511   21.0734 C   0  0  0  0  0  0
  -29.8807  -15.5913   20.8965 N   0  0  0  0  0  0
  -29.3709  -23.2704   21.0760 N   0  0  0  0  0  0
  -27.8075  -23.7961   19.5006 O   0  0  0  0  0  0
  -28.3651  -20.7402   20.4841 S   0  0  0  0  0  0
  -31.4725  -12.4490   19.1320 H   0  0  0  0  0  0
  -30.3442  -11.3357   19.8546 H   0  0  0  0  0  0
  -29.7502  -11.7608   17.4490 H   0  0  0  0  0  0
  -29.6569  -13.4767   17.7539 H   0  0  0  0  0  0
  -27.8444  -11.2960   18.8410 H   0  0  0  0  0  0
  -27.3689  -12.6017   17.7881 H   0  0  0  0  0  0
  -27.6868  -14.2485   19.5432 H   0  0  0  0  0  0
  -28.6912  -12.0004   21.3608 H   0  0  0  0  0  0
  -28.4598  -13.6518   21.8539 H   0  0  0  0  0  0
  -25.2756   -9.5682   22.4756 H   0  0  0  0  0  0
  -23.9997   -7.4631   22.7472 H   0  0  0  0  0  0
  -21.0833   -8.8770   19.8956 H   0  0  0  0  0  0
  -22.3686  -10.9671   19.6164 H   0  0  0  0  0  0
  -21.2007   -7.6144   23.9712 H   0  0  0  0  0  0
  -21.1480   -6.0522   25.9077 H   0  0  0  0  0  0
  -22.0600   -2.7607   23.2848 H   0  0  0  0  0  0
  -22.4104  -11.9897   22.4799 H   0  0  0  0  0  0
  -21.1112  -13.1271   22.2608 H   0  0  0  0  0  0
  -24.6570  -15.8382   20.5029 H   0  0  0  0  0  0
  -26.2659  -15.6202   20.0386 H   0  0  0  0  0  0
  -26.7127  -32.5515   23.1145 H   0  0  0  0  0  0
  -25.0047  -33.9763   25.0457 H   0  0  0  0  0  0
  -22.6987  -31.3049   21.4058 H   0  0  0  0  0  0
  -23.3742  -35.9649   23.3310 H   0  0  0  0  0  0
  -24.3581  -36.8916   22.2052 H   0  0  0  0  0  0
  -23.7243  -37.6521   23.6648 H   0  0  0  0  0  0
  -26.0548  -31.5853   20.5939 H   0  0  0  0  0  0
  -26.8263  -30.8775   21.9844 H   0  0  0  0  0  0
  -28.1120  -29.0758   21.1659 H   0  0  0  0  0  0
  -26.0583  -25.9430   19.0353 H   0  0  0  0  0  0
  -23.9796  -27.2835   19.0418 H   0  0  0  0  0  0
  -23.7305  -30.5902   19.4032 H   0  0  0  0  0  0
  -22.7427  -29.2378   19.8677 H   0  0  0  0  0  0
  -25.1282  -36.1968   25.0831 H   0  0  0  0  0  0
  -20.9964  -28.3238   24.1431 H   0  0  0  0  0  0
  -20.5673  -26.2277   23.3608 H   0  0  0  0  0  0
  -21.6635  -26.7447   22.1210 H   0  0  0  0  0  0
  -19.6905  -25.6304   21.1235 H   0  0  0  0  0  0
  -19.6682  -27.3208   20.6752 H   0  0  0  0  0  0
  -17.4195  -26.6683   21.4022 H   0  0  0  0  0  0
  -18.0318  -26.0065   22.9017 H   0  0  0  0  0  0
  -19.7929  -30.7264   24.2278 H   0  0  0  0  0  0
  -17.5009  -31.6265   24.5168 H   0  0  0  0  0  0
  -15.5346  -30.2991   23.7646 H   0  0  0  0  0  0
  -15.8667  -28.0831   22.7049 H   0  0  0  0  0  0
  -24.5896  -30.7070   25.7802 H   0  0  0  0  0  0
  -24.8942  -32.2868   26.4930 H   0  0  0  0  0  0
  -25.8085  -30.8861   27.0217 H   0  0  0  0  0  0
  -26.2849  -29.6791   24.1158 H   0  0  0  0  0  0
  -27.4063  -29.7265   25.4570 H   0  0  0  0  0  0
  -27.8690  -30.4340   23.9264 H   0  0  0  0  0  0
  -27.2677  -33.3602   26.2080 H   0  0  0  0  0  0
  -28.3845  -32.6884   25.0290 H   0  0  0  0  0  0
  -28.0740  -31.8418   26.5368 H   0  0  0  0  0  0
  -28.2606  -38.0097   24.7504 H   0  0  0  0  0  0
  -28.1065  -36.2629   24.6294 H   0  0  0  0  0  0
  -27.2302  -37.1468   25.8870 H   0  0  0  0  0  0
  -20.9320  -29.8749   21.6927 H   0  0  0  0  0  0
  -26.0181  -38.2869   24.1401 H   0  0  0  0  0  0
  -32.7035  -19.1793   21.7232 H   0  0  0  0  0  0
  -32.2643  -16.7854   21.5460 H   0  0  0  0  0  0
  -28.1808  -17.6575   20.3987 H   0  0  0  0  0  0
  -32.9265  -21.4822   21.5316 H   0  0  0  0  0  0
  -31.9721  -22.3390   22.7323 H   0  0  0  0  0  0
  -32.1411  -22.9836   21.1019 H   0  0  0  0  0  0
  -29.2486  -25.7307   21.7263 H   0  0  0  0  0  0
  -27.5137  -25.5820   21.7190 H   0  0  0  0  0  0
  -28.9185  -15.3380   21.0623 H   0  0  0  0  0  0
  -29.9569  -23.7251   21.7617 H   0  0  0  0  0  0
  1 25  1  0  0  0
  1 30  2  0  0  0
  1 82  1  0  0  0
  2  3  1  0  0  0
  2 25  1  0  0  0
  2 86  1  0  0  0
  2 87  1  0  0  0
  3  4  1  0  0  0
  3 88  1  0  0  0
  3 89  1  0  0  0
  4  5  1  0  0  0
  4 90  1  0  0  0
  4 91  1  0  0  0
  5  6  1  0  0  0
  5 26  1  0  0  0
  5 92  1  0  0  0
  6 25  1  0  0  0
  6 93  1  0  0  0
  6 94  1  0  0  0
  7  8  2  0  0  0
  7 26  1  0  0  0
  7 29  1  0  0  0
  8  9  1  0  0  0
  8 22  1  0  0  0
  9 10  1  0  0  0
  9 27  2  0  0  0
 10 11  2  0  0  0
 10 15  1  0  0  0
 11 12  1  0  0  0
 11 95  1  0  0  0
 12 13  2  0  0  0
 12 96  1  0  0  0
 13 14  1  0  0  0
 13 31  1  0  0  0
 14 15  2  0  0  0
 14 97  1  0  0  0
 15 98  1  0  0  0
 16 17  2  0  0  0
 16 21  1  0  0  0
 16 31  1  0  0  0
 17 18  1  0  0  0
 17 99  1  0  0  0
 18 19  2  0  0  0
 18100  1  0  0  0
 19 20  1  0  0  0
 19 24  1  0  0  0
 20 21  2  0  0  0
 20101  1  0  0  0
 21 23  1  0  0  0
 22 28  1  0  0  0
 22 32  2  0  0  0
 26 27  1  0  0  0
 28102  1  0  0  0
 28103  1  0  0  0
 29104  1  0  0  0
 29105  1  0  0  0
 33 34  1  0  0  0
 33 66  1  0  0  0
 33 70  2  0  0  0
 34 36  1  0  0  0
 34 59  1  0  0  0
 34106  1  0  0  0
 35 44  2  0  0  0
 35 45  1  0  0  0
 35 68  1  0  0  0
 36 56  1  0  0  0
 36107  1  0  0  0
 37 39  1  0  0  0
 37 47  1  0  0  0
 37 66  1  0  0  0
 37108  1  0  0  0
 38 43  2  0  0  0
 38 46  1  0  0  0
 38 47  1  0  0  0
 39 64  1  0  0  0
 39 67  2  0  0  0
 40 52  1  0  0  0
 40 53  2  0  0  0
 40 58  1  0  0  0
 41109  1  0  0  0
 41110  1  0  0  0
 41111  1  0  0  0
 41 48  1  0  0  0
 42 43  1  0  0  0
 42 66  1  0  0  0
 42112  1  0  0  0
 42113  1  0  0  0
 43 44  1  0  0  0
 44114  1  0  0  0
 45 46  2  0  0  0
 45115  1  0  0  0
 46116  1  0  0  0
 47117  1  0  0  0
 47118  1  0  0  0
 48 56  1  0  0  0
 48 65  1  0  0  0
 48119  1  0  0  0
 49 50  1  0  0  0
 49 53  1  0  0  0
 49 64  1  0  0  0
 49120  1  0  0  0
 50 51  1  0  0  0
 50121  1  0  0  0
 50122  1  0  0  0
 51 52  1  0  0  0
 51123  1  0  0  0
 51124  1  0  0  0
 52125  1  0  0  0
 52126  1  0  0  0
 53 54  1  0  0  0
 54 55  2  0  0  0
 54127  1  0  0  0
 55 57  1  0  0  0
 55128  1  0  0  0
 56 69  2  0  0  0
 57 58  2  0  0  0
 57129  1  0  0  0
 58130  1  0  0  0
 59 60  1  0  0  0
 59 61  1  0  0  0
 59 62  1  0  0  0
 60131  1  0  0  0
 60132  1  0  0  0
 60133  1  0  0  0
 61134  1  0  0  0
 61135  1  0  0  0
 61136  1  0  0  0
 62137  1  0  0  0
 62138  1  0  0  0
 62139  1  0  0  0
 63 65  1  0  0  0
 63140  1  0  0  0
 63141  1  0  0  0
 63142  1  0  0  0
 64143  1  0  0  0
 65144  1  0  0  0
 68 81  1  0  0  0
 71 72  2  0  0  0
 71 74  1  0  0  0
 71145  1  0  0  0
 72 76  1  0  0  0
 72146  1  0  0  0
 73 76  2  0  0  0
 73 77  1  0  0  0
 73147  1  0  0  0
 74 75  1  0  0  0
 74 77  2  0  0  0
 75 78  2  0  0  0
 75 80  1  0  0  0
 76 82  1  0  0  0
 77 85  1  0  0  0
 78 83  1  0  0  0
 78 85  1  0  0  0
 79 81  1  0  0  0
 79 83  1  0  0  0
 79 84  2  0  0  0
 80148  1  0  0  0
 80149  1  0  0  0
 80150  1  0  0  0
 81151  1  0  0  0
 81152  1  0  0  0
 82153  1  0  0  0
 83154  1  0  0  0
M  ISO  4   1 100  68 101  81 101  82 100
M  END
> <chiral flag>
0

> <version>
0

> <s_m_source_file>
/data/baiqing/PycharmProjects/Reinvent-master-3.2/result/LINK_invent/BTK/process_docking_weight1_custom_product_contain_oxygen_bond_distance_aromatic_linkinvent_7_9_3/rearranged_h_0082.sdf

> <i_m_source_file_index>
3

> <r_mmod_Potential_Energy-OPLS-2005>
-52.936882019043

> <r_mmod_Stretch_Energy-OPLS-2005>
46.0800094604492

> <r_mmod_Bend_Energy-OPLS-2005>
123.081314086914

> <r_mmod_Torsional_Energy-OPLS-2005>
248.708602905273

> <r_mmod_Improper_Torsional_Energy-OPLS-2005>
5.23486757278442

> <r_mmod_Van_der_Waal_Energy-OPLS-2005>
140.234893798828

> <r_mmod_Electrostatic_Energy-OPLS-2005>
-394.544830322266

> <r_mmod_Solvation_Energy-OPLS-2005>
-243.289596557617

> <b_mmod_Minimization_Converged-OPLS-2005>
0

> <r_mmod_RMS_Derivative-OPLS-2005>
0.310044586658478

$$$$
3
                    3D
 Structure written by MMmdl.
156165  0  0  1  0            999 V2000
  -30.5830  -14.8060   20.4449 C   0  0  0  0  0  0
  -30.4291  -12.4882   19.4962 C   0  0  0  0  0  0
  -29.5139  -12.5259   18.2512 C   0  0  0  0  0  0
  -28.0396  -12.3422   18.6576 C   0  0  0  0  0  0
  -27.6408  -13.2418   19.8576 C   0  0  2  0  0  0
  -28.6812  -13.1944   20.9982 C   0  0  0  0  0  0
  -25.2499  -13.8229   20.5715 C   0  0  0  0  0  0
  -24.1788  -13.0462   20.9202 C   0  0  0  0  0  0
  -24.6392  -11.6937   20.8726 C   0  0  0  0  0  0
  -23.9049  -10.4318   21.0388 C   0  0  0  0  0  0
  -24.3605   -9.4235   21.9173 C   0  0  0  0  0  0
  -23.6295   -8.2257   22.0728 C   0  0  0  0  0  0
  -22.4276   -8.0282   21.3529 C   0  0  0  0  0  0
  -21.9913   -9.0248   20.4623 C   0  0  0  0  0  0
  -22.7218  -10.2143   20.3039 C   0  0  0  0  0  0
  -21.6857   -6.0736   22.5271 C   0  0  0  0  0  0
  -21.4017   -6.5635   23.8211 C   0  0  0  0  0  0
  -21.3663   -5.6786   24.9180 C   0  0  0  0  0  0
  -21.6053   -4.3052   24.7217 C   0  0  0  0  0  0
  -21.8813   -3.8144   23.4335 C   0  0  0  0  0  0
  -21.9196   -4.6966   22.3399 C   0  0  0  0  0  0
  -22.7814  -13.5241   21.1861 C   0  0  0  0  0  0
  -22.1647   -4.2157   21.0977 F   0  0  0  0  0  0
  -21.5643   -3.4521   25.7723 F   0  0  0  0  0  0
  -29.9827  -13.5593   20.4271 N   0  0  0  0  0  0
  -26.2928  -12.9447   20.3324 N   0  0  0  0  0  0
  -25.9327  -11.6575   20.5751 N   0  0  0  0  0  0
  -22.0448  -12.8232   22.0408 N   0  0  0  0  0  0
  -25.4228  -15.1955   20.4143 N   0  0  0  0  0  0
  -31.7459  -14.9106   20.0418 O   0  0  0  0  0  0
  -21.6638   -6.8877   21.4231 O   0  0  0  0  0  0
  -22.3498  -14.5551   20.6710 O   0  0  0  0  0  0
  -24.6356  -31.8516   23.1962 C   0  0  0  0  0  0
  -25.9175  -32.4729   23.8309 C   0  0  1  0  0  0
  -27.2095  -27.1931   20.1419 C   0  0  0  0  0  0
  -25.5971  -33.8533   24.2218 N   0  0  0  0  0  0
  -23.4362  -30.4740   21.5400 C   0  0  2  0  0  0
  -24.8855  -28.9166   20.1091 C   0  0  0  0  0  0
  -22.7525  -29.4582   22.4881 C   0  0  0  0  0  0
  -18.0296  -28.1398   22.8475 C   0  0  0  0  0  0
  -24.1499  -36.7254   23.2642 C   0  0  0  0  0  0
  -25.9893  -30.7379   21.3935 C   0  0  0  0  0  0
  -26.0577  -29.3543   20.7373 C   0  0  0  0  0  0
  -27.2186  -28.5023   20.7535 C   0  0  0  0  0  0
  -26.0248  -26.8688   19.4385 C   0  0  0  0  0  0
  -24.8781  -27.6821   19.4477 C   0  0  0  0  0  0
  -23.6597  -29.8091   20.1563 C   0  0  0  0  0  0
  -25.4134  -36.3035   24.0309 C   0  0  1  0  0  0
  -20.5903  -28.3712   23.1244 C   0  0  2  0  0  0
  -20.6777  -26.9421   22.5403 C   0  0  0  0  0  0
  -19.5753  -26.6384   21.5206 C   0  0  0  0  0  0
  -18.1937  -26.7940   22.1620 C   0  0  0  0  0  0
  -19.1555  -28.8865   23.2859 C   0  0  0  0  0  0
  -18.9471  -30.1461   23.8881 C   0  0  0  0  0  0
  -17.6472  -30.6595   24.0560 C   0  0  0  0  0  0
  -25.9080  -34.9416   23.5056 C   0  0  0  0  0  0
  -16.5359  -29.9094   23.6344 C   0  0  0  0  0  0
  -16.7279  -28.6513   23.0355 C   0  0  0  0  0  0
  -26.4532  -31.6569   25.0715 C   0  0  0  0  0  0
  -25.3721  -31.3742   26.1398 C   0  0  0  0  0  0
  -27.0392  -30.2966   24.6271 C   0  0  0  0  0  0
  -27.6092  -32.4319   25.7477 C   0  0  0  0  0  0
  -27.5585  -37.1783   24.8469 C   0  0  0  0  0  0
  -21.4227  -29.3053   22.3626 N   0  0  0  0  0  0
  -26.4302  -37.3743   23.9409 N   0  0  0  0  0  0
  -24.7057  -31.0409   22.0980 N   0  0  0  0  0  0
  -23.4195  -28.8114   23.3008 O   0  0  0  0  0  0
  -28.2626  -26.2239   20.2191 O   0  0  0  0  0  0
  -26.5663  -34.8911   22.4634 O   0  0  0  0  0  0
  -23.5495  -32.1376   23.7216 O   0  0  0  0  0  0
  -29.0036  -19.6196   18.5771 C   0  0  0  0  0  0
  -29.6299  -18.6104   20.7027 C   0  0  0  0  0  0
  -29.3801  -17.1913   18.7319 C   0  0  0  0  0  0
  -29.2880  -19.8275   19.9465 C   0  0  0  0  0  0
  -29.0454  -18.3399   17.9814 C   0  0  0  0  0  0
  -29.6785  -17.2600   20.1136 C   0  0  0  0  0  0
  -28.7548  -23.6408   20.3503 C   0  0  0  0  0  0
  -30.1493  -23.4673   20.6656 C   0  0  0  0  0  0
  -28.2634  -22.2242   20.1898 C   0  0  0  0  0  0
  -31.0286  -24.4675   20.8428 C   0  0  0  0  0  0
  -27.9759  -24.8006   20.1915 C   0  0  0  0  0  0
  -30.4992  -21.9802   20.7655 C   0  0  0  0  0  0
  -29.2637  -21.2690   20.3983 N   0  0  0  0  0  0
  -28.7424  -18.2100   16.6249 N   0  0  0  0  0  0
  -29.8523  -15.9414   20.8149 N   0  0  0  0  0  0
  -27.1014  -21.9149   19.9093 O   0  0  0  0  0  0
  -31.4688  -12.6116   19.1929 H   0  0  0  0  0  0
  -30.3763  -11.5137   19.9832 H   0  0  0  0  0  0
  -29.8029  -11.7498   17.5430 H   0  0  0  0  0  0
  -29.6402  -13.4757   17.7278 H   0  0  0  0  0  0
  -27.8997  -11.2915   18.9205 H   0  0  0  0  0  0
  -27.3829  -12.5317   17.8069 H   0  0  0  0  0  0
  -27.6322  -14.2636   19.4752 H   0  0  0  0  0  0
  -28.7249  -12.2010   21.4474 H   0  0  0  0  0  0
  -28.4010  -13.8800   21.7971 H   0  0  0  0  0  0
  -25.2744   -9.5720   22.4768 H   0  0  0  0  0  0
  -24.0001   -7.4655   22.7451 H   0  0  0  0  0  0
  -21.0837   -8.8732   19.8944 H   0  0  0  0  0  0
  -22.3641  -10.9664   19.6138 H   0  0  0  0  0  0
  -21.1991   -7.6132   23.9715 H   0  0  0  0  0  0
  -21.1500   -6.0510   25.9081 H   0  0  0  0  0  0
  -22.0595   -2.7597   23.2824 H   0  0  0  0  0  0
  -22.4030  -11.9865   22.4768 H   0  0  0  0  0  0
  -21.1066  -13.1258   22.2605 H   0  0  0  0  0  0
  -24.6617  -15.8563   20.5262 H   0  0  0  0  0  0
  -26.2817  -15.6326   20.1044 H   0  0  0  0  0  0
  -26.7231  -32.5340   23.1036 H   0  0  0  0  0  0
  -25.0113  -33.9677   25.0361 H   0  0  0  0  0  0
  -22.7364  -31.2994   21.3894 H   0  0  0  0  0  0
  -23.3777  -35.9566   23.3271 H   0  0  0  0  0  0
  -24.3597  -36.8920   22.2065 H   0  0  0  0  0  0
  -23.7240  -37.6439   23.6695 H   0  0  0  0  0  0
  -26.1454  -31.4925   20.6216 H   0  0  0  0  0  0
  -26.8622  -30.7833   22.0324 H   0  0  0  0  0  0
  -28.1079  -28.8269   21.2741 H   0  0  0  0  0  0
  -25.9433  -25.9523   18.8743 H   0  0  0  0  0  0
  -23.9882  -27.3500   18.9330 H   0  0  0  0  0  0
  -23.7906  -30.5858   19.4025 H   0  0  0  0  0  0
  -22.7764  -29.2473   19.8460 H   0  0  0  0  0  0
  -25.1322  -36.1859   25.0801 H   0  0  0  0  0  0
  -21.0003  -28.3287   24.1360 H   0  0  0  0  0  0
  -20.5660  -26.2324   23.3623 H   0  0  0  0  0  0
  -21.6642  -26.7429   22.1191 H   0  0  0  0  0  0
  -19.6916  -25.6286   21.1256 H   0  0  0  0  0  0
  -19.6699  -27.3178   20.6726 H   0  0  0  0  0  0
  -17.4209  -26.6685   21.4031 H   0  0  0  0  0  0
  -18.0341  -26.0082   22.9010 H   0  0  0  0  0  0
  -19.7951  -30.7292   24.2243 H   0  0  0  0  0  0
  -17.5027  -31.6281   24.5151 H   0  0  0  0  0  0
  -15.5362  -30.2989   23.7688 H   0  0  0  0  0  0
  -15.8678  -28.0831   22.7084 H   0  0  0  0  0  0
  -24.5915  -30.7085   25.7692 H   0  0  0  0  0  0
  -24.8900  -32.2915   26.4768 H   0  0  0  0  0  0
  -25.7989  -30.8933   27.0197 H   0  0  0  0  0  0
  -26.2988  -29.6690   24.1284 H   0  0  0  0  0  0
  -27.4029  -29.7258   25.4829 H   0  0  0  0  0  0
  -27.8886  -30.4221   23.9553 H   0  0  0  0  0  0
  -27.2717  -33.3651   26.1976 H   0  0  0  0  0  0
  -28.3915  -32.6809   25.0302 H   0  0  0  0  0  0
  -28.0712  -31.8478   26.5435 H   0  0  0  0  0  0
  -28.2575  -38.0107   24.7536 H   0  0  0  0  0  0
  -28.1109  -36.2638   24.6260 H   0  0  0  0  0  0
  -27.2303  -37.1369   25.8872 H   0  0  0  0  0  0
  -20.9420  -29.8776   21.6826 H   0  0  0  0  0  0
  -26.0156  -38.2801   24.1445 H   0  0  0  0  0  0
  -28.7589  -20.4727   17.9595 H   0  0  0  0  0  0
  -29.8483  -18.7141   21.7580 H   0  0  0  0  0  0
  -29.3747  -16.2269   18.2429 H   0  0  0  0  0  0
  -30.7352  -25.5032   20.7608 H   0  0  0  0  0  0
  -32.0639  -24.2636   21.0770 H   0  0  0  0  0  0
  -26.9317  -24.6147   20.0099 H   0  0  0  0  0  0
  -30.8055  -21.7230   21.7800 H   0  0  0  0  0  0
  -31.3070  -21.7273   20.0771 H   0  0  0  0  0  0
  -28.2705  -18.9708   16.1458 H   0  0  0  0  0  0
  -28.5130  -17.2952   16.2464 H   0  0  0  0  0  0
  -29.0843  -15.7161   21.4306 H   0  0  0  0  0  0
  1 25  1  0  0  0
  1 30  2  0  0  0
  1 85  1  0  0  0
  2  3  1  0  0  0
  2 25  1  0  0  0
  2 87  1  0  0  0
  2 88  1  0  0  0
  3  4  1  0  0  0
  3 89  1  0  0  0
  3 90  1  0  0  0
  4  5  1  0  0  0
  4 91  1  0  0  0
  4 92  1  0  0  0
  5  6  1  0  0  0
  5 26  1  0  0  0
  5 93  1  0  0  0
  6 25  1  0  0  0
  6 94  1  0  0  0
  6 95  1  0  0  0
  7  8  2  0  0  0
  7 26  1  0  0  0
  7 29  1  0  0  0
  8  9  1  0  0  0
  8 22  1  0  0  0
  9 10  1  0  0  0
  9 27  2  0  0  0
 10 11  2  0  0  0
 10 15  1  0  0  0
 11 12  1  0  0  0
 11 96  1  0  0  0
 12 13  2  0  0  0
 12 97  1  0  0  0
 13 14  1  0  0  0
 13 31  1  0  0  0
 14 15  2  0  0  0
 14 98  1  0  0  0
 15 99  1  0  0  0
 16 17  2  0  0  0
 16 21  1  0  0  0
 16 31  1  0  0  0
 17 18  1  0  0  0
 17100  1  0  0  0
 18 19  2  0  0  0
 18101  1  0  0  0
 19 20  1  0  0  0
 19 24  1  0  0  0
 20 21  2  0  0  0
 20102  1  0  0  0
 21 23  1  0  0  0
 22 28  1  0  0  0
 22 32  2  0  0  0
 26 27  1  0  0  0
 28103  1  0  0  0
 28104  1  0  0  0
 29105  1  0  0  0
 29106  1  0  0  0
 33 34  1  0  0  0
 33 66  1  0  0  0
 33 70  2  0  0  0
 34 36  1  0  0  0
 34 59  1  0  0  0
 34107  1  0  0  0
 35 44  2  0  0  0
 35 45  1  0  0  0
 35 68  1  0  0  0
 36 56  1  0  0  0
 36108  1  0  0  0
 37 39  1  0  0  0
 37 47  1  0  0  0
 37 66  1  0  0  0
 37109  1  0  0  0
 38 43  2  0  0  0
 38 46  1  0  0  0
 38 47  1  0  0  0
 39 64  1  0  0  0
 39 67  2  0  0  0
 40 52  1  0  0  0
 40 53  2  0  0  0
 40 58  1  0  0  0
 41110  1  0  0  0
 41111  1  0  0  0
 41112  1  0  0  0
 41 48  1  0  0  0
 42 43  1  0  0  0
 42 66  1  0  0  0
 42113  1  0  0  0
 42114  1  0  0  0
 43 44  1  0  0  0
 44115  1  0  0  0
 45 46  2  0  0  0
 45116  1  0  0  0
 46117  1  0  0  0
 47118  1  0  0  0
 47119  1  0  0  0
 48 56  1  0  0  0
 48 65  1  0  0  0
 48120  1  0  0  0
 49 50  1  0  0  0
 49 53  1  0  0  0
 49 64  1  0  0  0
 49121  1  0  0  0
 50 51  1  0  0  0
 50122  1  0  0  0
 50123  1  0  0  0
 51 52  1  0  0  0
 51124  1  0  0  0
 51125  1  0  0  0
 52126  1  0  0  0
 52127  1  0  0  0
 53 54  1  0  0  0
 54 55  2  0  0  0
 54128  1  0  0  0
 55 57  1  0  0  0
 55129  1  0  0  0
 56 69  2  0  0  0
 57 58  2  0  0  0
 57130  1  0  0  0
 58131  1  0  0  0
 59 60  1  0  0  0
 59 61  1  0  0  0
 59 62  1  0  0  0
 60132  1  0  0  0
 60133  1  0  0  0
 60134  1  0  0  0
 61135  1  0  0  0
 61136  1  0  0  0
 61137  1  0  0  0
 62138  1  0  0  0
 62139  1  0  0  0
 62140  1  0  0  0
 63 65  1  0  0  0
 63141  1  0  0  0
 63142  1  0  0  0
 63143  1  0  0  0
 64144  1  0  0  0
 65145  1  0  0  0
 68 81  1  0  0  0
 71 74  2  0  0  0
 71 75  1  0  0  0
 71146  1  0  0  0
 72 74  1  0  0  0
 72 76  2  0  0  0
 72147  1  0  0  0
 73 75  2  0  0  0
 73 76  1  0  0  0
 73148  1  0  0  0
 74 83  1  0  0  0
 75 84  1  0  0  0
 76 85  1  0  0  0
 77 78  1  0  0  0
 77 79  1  0  0  0
 77 81  2  0  0  0
 78 80  2  0  0  0
 78 82  1  0  0  0
 79 83  1  0  0  0
 79 86  2  0  0  0
 80149  1  0  0  0
 80150  1  0  0  0
 81151  1  0  0  0
 82 83  1  0  0  0
 82152  1  0  0  0
 82153  1  0  0  0
 84154  1  0  0  0
 84155  1  0  0  0
 85156  1  0  0  0
M  ISO  4   1 100  68 101  81 101  85 100
M  END
> <chiral flag>
0

> <version>
0

> <s_m_source_file>
/data/baiqing/PycharmProjects/Reinvent-master-3.2/result/LINK_invent/BTK/process_docking_weight1_custom_product_contain_oxygen_bond_distance_aromatic_linkinvent_7_9_3/rearranged_h_0082.sdf

> <i_m_source_file_index>
4

> <r_mmod_Potential_Energy-OPLS-2005>
457.926391601562

> <r_mmod_Stretch_Energy-OPLS-2005>
158.311141967773

> <r_mmod_Bend_Energy-OPLS-2005>
232.005767822266

> <r_mmod_Torsional_Energy-OPLS-2005>
320.142944335938

> <r_mmod_Improper_Torsional_Energy-OPLS-2005>
8.05356121063232

> <r_mmod_Van_der_Waal_Energy-OPLS-2005>
133.388580322266

> <r_mmod_Electrostatic_Energy-OPLS-2005>
-292.097900390625

> <r_mmod_Solvation_Energy-OPLS-2005>
-228.0302734375

> <b_mmod_Minimization_Converged-OPLS-2005>
0

> <r_mmod_RMS_Derivative-OPLS-2005>
2.72665619850159

$$$$
4
                    3D
 Structure written by MMmdl.
152161  0  0  1  0            999 V2000
  -30.5991  -14.7467   20.5127 C   0  0  0  0  0  0
  -30.4454  -12.4605   19.4806 C   0  0  0  0  0  0
  -29.5176  -12.5200   18.2439 C   0  0  0  0  0  0
  -28.0440  -12.3414   18.6537 C   0  0  0  0  0  0
  -27.6549  -13.2263   19.8681 C   0  0  2  0  0  0
  -28.6974  -13.1258   21.0072 C   0  0  0  0  0  0
  -25.2560  -13.8175   20.5736 C   0  0  0  0  0  0
  -24.1801  -13.0447   20.9146 C   0  0  0  0  0  0
  -24.6364  -11.6908   20.8689 C   0  0  0  0  0  0
  -23.9038  -10.4308   21.0389 C   0  0  0  0  0  0
  -24.3593   -9.4226   21.9174 C   0  0  0  0  0  0
  -23.6265   -8.2254   22.0745 C   0  0  0  0  0  0
  -22.4237   -8.0278   21.3539 C   0  0  0  0  0  0
  -21.9878   -9.0251   20.4652 C   0  0  0  0  0  0
  -22.7202  -10.2136   20.3057 C   0  0  0  0  0  0
  -21.6848   -6.0702   22.5253 C   0  0  0  0  0  0
  -21.4037   -6.5621   23.8184 C   0  0  0  0  0  0
  -21.3654   -5.6779   24.9157 C   0  0  0  0  0  0
  -21.6038   -4.3027   24.7218 C   0  0  0  0  0  0
  -21.8812   -3.8119   23.4345 C   0  0  0  0  0  0
  -21.9208   -4.6944   22.3402 C   0  0  0  0  0  0
  -22.7846  -13.5266   21.1818 C   0  0  0  0  0  0
  -22.1666   -4.2105   21.0996 F   0  0  0  0  0  0
  -21.5626   -3.4539   25.7748 F   0  0  0  0  0  0
  -30.0088  -13.5004   20.4464 N   0  0  0  0  0  0
  -26.2985  -12.9354   20.3336 N   0  0  0  0  0  0
  -25.9311  -11.6482   20.5747 N   0  0  0  0  0  0
  -22.0477  -12.8299   22.0379 N   0  0  0  0  0  0
  -25.4350  -15.1903   20.4237 N   0  0  0  0  0  0
  -31.7266  -14.9219   20.0372 O   0  0  0  0  0  0
  -21.6625   -6.8853   21.4226 O   0  0  0  0  0  0
  -22.3577  -14.5597   20.6695 O   0  0  0  0  0  0
  -24.6389  -31.8501   23.1973 C   0  0  0  0  0  0
  -25.9187  -32.4738   23.8330 C   0  0  1  0  0  0
  -27.2141  -27.2383   20.1493 C   0  0  0  0  0  0
  -25.6010  -33.8543   24.2281 N   0  0  0  0  0  0
  -23.4384  -30.4746   21.5387 C   0  0  2  0  0  0
  -24.8888  -28.9234   20.1081 C   0  0  0  0  0  0
  -22.7556  -29.4605   22.4877 C   0  0  0  0  0  0
  -18.0304  -28.1472   22.8454 C   0  0  0  0  0  0
  -24.1502  -36.7258   23.2630 C   0  0  0  0  0  0
  -25.9855  -30.7582   21.3835 C   0  0  0  0  0  0
  -26.0605  -29.3805   20.7262 C   0  0  0  0  0  0
  -27.2305  -28.5496   20.7386 C   0  0  0  0  0  0
  -26.0281  -26.8545   19.4890 C   0  0  0  0  0  0
  -24.8799  -27.6693   19.4770 C   0  0  0  0  0  0
  -23.6598  -29.8124   20.1536 C   0  0  0  0  0  0
  -25.4124  -36.3035   24.0314 C   0  0  1  0  0  0
  -20.5914  -28.3792   23.1256 C   0  0  2  0  0  0
  -20.6815  -26.9516   22.5429 C   0  0  0  0  0  0
  -19.5823  -26.6437   21.5234 C   0  0  0  0  0  0
  -18.1977  -26.8022   22.1576 C   0  0  0  0  0  0
  -19.1551  -28.8950   23.2848 C   0  0  0  0  0  0
  -18.9444  -30.1522   23.8912 C   0  0  0  0  0  0
  -17.6450  -30.6652   24.0575 C   0  0  0  0  0  0
  -25.9073  -34.9407   23.5070 C   0  0  0  0  0  0
  -16.5355  -29.9148   23.6352 C   0  0  0  0  0  0
  -16.7286  -28.6576   23.0357 C   0  0  0  0  0  0
  -26.4552  -31.6560   25.0735 C   0  0  0  0  0  0
  -25.3743  -31.3757   26.1445 C   0  0  0  0  0  0
  -27.0342  -30.2917   24.6275 C   0  0  0  0  0  0
  -27.6151  -32.4291   25.7471 C   0  0  0  0  0  0
  -27.5594  -37.1765   24.8435 C   0  0  0  0  0  0
  -21.4257  -29.3058   22.3593 N   0  0  0  0  0  0
  -26.4286  -37.3760   23.9411 N   0  0  0  0  0  0
  -24.7052  -31.0473   22.0952 N   0  0  0  0  0  0
  -23.4215  -28.8138   23.3010 O   0  0  0  0  0  0
  -28.2358  -26.2621   20.2303 O   0  0  0  0  0  0
  -26.5621  -34.8898   22.4621 O   0  0  0  0  0  0
  -23.5534  -32.1311   23.7265 O   0  0  0  0  0  0
  -28.8879  -19.3971   21.9059 C   0  0  0  0  0  0
  -29.9631  -19.4987   19.8034 C   0  0  0  0  0  0
  -29.1562  -17.9933   21.9870 C   0  0  0  0  0  0
  -30.2518  -18.0799   19.8705 C   0  0  0  0  0  0
  -29.2277  -20.2358   20.7975 C   0  0  0  0  0  0
  -29.8149  -17.2617   20.9603 C   0  0  0  0  0  0
  -28.2863  -23.6831   20.7354 C   0  0  0  0  0  0
  -27.8340  -22.5441   21.3337 C   0  0  0  0  0  0
  -26.8080  -22.3424   22.1789 C   0  0  0  0  0  0
  -27.8518  -25.0092   20.8111 C   0  0  0  0  0  0
  -29.3521  -22.8107   20.0205 C   0  0  0  0  0  0
  -28.7777  -21.6617   20.7761 N   0  0  0  0  0  0
  -29.8614  -15.7770   21.0707 N   0  0  0  0  0  0
  -31.4840  -12.5958   19.1775 H   0  0  0  0  0  0
  -30.3938  -11.4770   19.9494 H   0  0  0  0  0  0
  -29.8068  -11.7496   17.5279 H   0  0  0  0  0  0
  -29.6422  -13.4748   17.7330 H   0  0  0  0  0  0
  -27.8969  -11.2908   18.9050 H   0  0  0  0  0  0
  -27.3899  -12.5514   17.8059 H   0  0  0  0  0  0
  -27.6626  -14.2544   19.5078 H   0  0  0  0  0  0
  -28.7337  -12.1141   21.4099 H   0  0  0  0  0  0
  -28.4075  -13.7702   21.8396 H   0  0  0  0  0  0
  -25.2743   -9.5690   22.4728 H   0  0  0  0  0  0
  -23.9961   -7.4645   22.7503 H   0  0  0  0  0  0
  -21.0789   -8.8787   19.8995 H   0  0  0  0  0  0
  -22.3651  -10.9662   19.6147 H   0  0  0  0  0  0
  -21.2032   -7.6123   23.9673 H   0  0  0  0  0  0
  -21.1491   -6.0531   25.9076 H   0  0  0  0  0  0
  -22.0607   -2.7572   23.2876 H   0  0  0  0  0  0
  -22.4086  -11.9979   22.4815 H   0  0  0  0  0  0
  -21.1094  -13.1370   22.2564 H   0  0  0  0  0  0
  -24.6861  -15.8581   20.5685 H   0  0  0  0  0  0
  -26.3180  -15.6276   20.1847 H   0  0  0  0  0  0
  -26.7263  -32.5372   23.1072 H   0  0  0  0  0  0
  -25.0201  -33.9661   25.0463 H   0  0  0  0  0  0
  -22.7376  -31.2965   21.3967 H   0  0  0  0  0  0
  -23.3766  -35.9582   23.3225 H   0  0  0  0  0  0
  -24.3643  -36.8936   22.2067 H   0  0  0  0  0  0
  -23.7246  -37.6440   23.6689 H   0  0  0  0  0  0
  -26.1344  -31.5183   20.6159 H   0  0  0  0  0  0
  -26.8586  -30.8074   22.0219 H   0  0  0  0  0  0
  -28.1223  -28.8880   21.2474 H   0  0  0  0  0  0
  -25.9735  -25.8805   19.0179 H   0  0  0  0  0  0
  -23.9846  -27.3105   18.9886 H   0  0  0  0  0  0
  -23.7846  -30.5897   19.3998 H   0  0  0  0  0  0
  -22.7771  -29.2463   19.8508 H   0  0  0  0  0  0
  -25.1297  -36.1862   25.0815 H   0  0  0  0  0  0
  -21.0009  -28.3403   24.1377 H   0  0  0  0  0  0
  -20.5773  -26.2416   23.3630 H   0  0  0  0  0  0
  -21.6670  -26.7584   22.1202 H   0  0  0  0  0  0
  -19.6986  -25.6330   21.1328 H   0  0  0  0  0  0
  -19.6787  -27.3184   20.6715 H   0  0  0  0  0  0
  -17.4271  -26.6781   21.3936 H   0  0  0  0  0  0
  -18.0310  -26.0206   22.9003 H   0  0  0  0  0  0
  -19.7906  -30.7331   24.2310 H   0  0  0  0  0  0
  -17.4999  -31.6317   24.5167 H   0  0  0  0  0  0
  -15.5349  -30.3036   23.7694 H   0  0  0  0  0  0
  -15.8681  -28.0891   22.7100 H   0  0  0  0  0  0
  -24.6043  -30.6947   25.7778 H   0  0  0  0  0  0
  -24.8798  -32.2947   26.4629 H   0  0  0  0  0  0
  -25.8074  -30.9145   27.0339 H   0  0  0  0  0  0
  -26.2882  -29.6717   24.1302 H   0  0  0  0  0  0
  -27.3922  -29.7175   25.4835 H   0  0  0  0  0  0
  -27.8849  -30.4075   23.9550 H   0  0  0  0  0  0
  -27.2806  -33.3622   26.2009 H   0  0  0  0  0  0
  -28.3961  -32.6808   25.0277 H   0  0  0  0  0  0
  -28.0831  -31.8449   26.5402 H   0  0  0  0  0  0
  -28.2561  -38.0113   24.7563 H   0  0  0  0  0  0
  -28.1139  -36.2664   24.6116 H   0  0  0  0  0  0
  -27.2360  -37.1241   25.8848 H   0  0  0  0  0  0
  -20.9507  -29.8662   21.6654 H   0  0  0  0  0  0
  -26.0133  -38.2803   24.1503 H   0  0  0  0  0  0
  -28.3699  -19.8355   22.7507 H   0  0  0  0  0  0
  -30.2889  -20.0256   18.9106 H   0  0  0  0  0  0
  -28.8135  -17.4832   22.8807 H   0  0  0  0  0  0
  -30.7697  -17.6264   19.0334 H   0  0  0  0  0  0
  -26.1730  -23.1505   22.5146 H   0  0  0  0  0  0
  -26.5555  -21.3571   22.5497 H   0  0  0  0  0  0
  -27.0110  -25.1822   21.4720 H   0  0  0  0  0  0
  -30.3969  -22.9673   20.2925 H   0  0  0  0  0  0
  -29.2567  -22.6821   18.9394 H   0  0  0  0  0  0
  -29.1199  -15.4116   21.6482 H   0  0  0  0  0  0
  1 25  1  0  0  0
  1 30  2  0  0  0
  1 83  1  0  0  0
  2  3  1  0  0  0
  2 25  1  0  0  0
  2 84  1  0  0  0
  2 85  1  0  0  0
  3  4  1  0  0  0
  3 86  1  0  0  0
  3 87  1  0  0  0
  4  5  1  0  0  0
  4 88  1  0  0  0
  4 89  1  0  0  0
  5  6  1  0  0  0
  5 26  1  0  0  0
  5 90  1  0  0  0
  6 25  1  0  0  0
  6 91  1  0  0  0
  6 92  1  0  0  0
  7  8  2  0  0  0
  7 26  1  0  0  0
  7 29  1  0  0  0
  8  9  1  0  0  0
  8 22  1  0  0  0
  9 10  1  0  0  0
  9 27  2  0  0  0
 10 11  2  0  0  0
 10 15  1  0  0  0
 11 12  1  0  0  0
 11 93  1  0  0  0
 12 13  2  0  0  0
 12 94  1  0  0  0
 13 14  1  0  0  0
 13 31  1  0  0  0
 14 15  2  0  0  0
 14 95  1  0  0  0
 15 96  1  0  0  0
 16 17  2  0  0  0
 16 21  1  0  0  0
 16 31  1  0  0  0
 17 18  1  0  0  0
 17 97  1  0  0  0
 18 19  2  0  0  0
 18 98  1  0  0  0
 19 20  1  0  0  0
 19 24  1  0  0  0
 20 21  2  0  0  0
 20 99  1  0  0  0
 21 23  1  0  0  0
 22 28  1  0  0  0
 22 32  2  0  0  0
 26 27  1  0  0  0
 28100  1  0  0  0
 28101  1  0  0  0
 29102  1  0  0  0
 29103  1  0  0  0
 33 34  1  0  0  0
 33 66  1  0  0  0
 33 70  2  0  0  0
 34 36  1  0  0  0
 34 59  1  0  0  0
 34104  1  0  0  0
 35 44  2  0  0  0
 35 45  1  0  0  0
 35 68  1  0  0  0
 36 56  1  0  0  0
 36105  1  0  0  0
 37 39  1  0  0  0
 37 47  1  0  0  0
 37 66  1  0  0  0
 37106  1  0  0  0
 38 43  2  0  0  0
 38 46  1  0  0  0
 38 47  1  0  0  0
 39 64  1  0  0  0
 39 67  2  0  0  0
 40 52  1  0  0  0
 40 53  2  0  0  0
 40 58  1  0  0  0
 41107  1  0  0  0
 41108  1  0  0  0
 41109  1  0  0  0
 41 48  1  0  0  0
 42 43  1  0  0  0
 42 66  1  0  0  0
 42110  1  0  0  0
 42111  1  0  0  0
 43 44  1  0  0  0
 44112  1  0  0  0
 45 46  2  0  0  0
 45113  1  0  0  0
 46114  1  0  0  0
 47115  1  0  0  0
 47116  1  0  0  0
 48 56  1  0  0  0
 48 65  1  0  0  0
 48117  1  0  0  0
 49 50  1  0  0  0
 49 53  1  0  0  0
 49 64  1  0  0  0
 49118  1  0  0  0
 50 51  1  0  0  0
 50119  1  0  0  0
 50120  1  0  0  0
 51 52  1  0  0  0
 51121  1  0  0  0
 51122  1  0  0  0
 52123  1  0  0  0
 52124  1  0  0  0
 53 54  1  0  0  0
 54 55  2  0  0  0
 54125  1  0  0  0
 55 57  1  0  0  0
 55126  1  0  0  0
 56 69  2  0  0  0
 57 58  2  0  0  0
 57127  1  0  0  0
 58128  1  0  0  0
 59 60  1  0  0  0
 59 61  1  0  0  0
 59 62  1  0  0  0
 60129  1  0  0  0
 60130  1  0  0  0
 60131  1  0  0  0
 61132  1  0  0  0
 61133  1  0  0  0
 61134  1  0  0  0
 62135  1  0  0  0
 62136  1  0  0  0
 62137  1  0  0  0
 63 65  1  0  0  0
 63138  1  0  0  0
 63139  1  0  0  0
 63140  1  0  0  0
 64141  1  0  0  0
 65142  1  0  0  0
 68 80  1  0  0  0
 71 73  2  0  0  0
 71 75  1  0  0  0
 71143  1  0  0  0
 72 74  1  0  0  0
 72 75  2  0  0  0
 72144  1  0  0  0
 73 76  1  0  0  0
 73145  1  0  0  0
 74 76  2  0  0  0
 74146  1  0  0  0
 75 82  1  0  0  0
 76 83  1  0  0  0
 77 78  1  0  0  0
 77 80  2  0  0  0
 77 81  1  0  0  0
 78 79  2  0  0  0
 78 82  1  0  0  0
 79147  1  0  0  0
 79148  1  0  0  0
 80149  1  0  0  0
 81 82  1  0  0  0
 81150  1  0  0  0
 81151  1  0  0  0
 83152  1  0  0  0
M  ISO  4   1 100  68 101  80 101  83 100
M  END
> <chiral flag>
0

> <version>
0

> <s_m_source_file>
/data/baiqing/PycharmProjects/Reinvent-master-3.2/result/LINK_invent/BTK/process_docking_weight1_custom_product_contain_oxygen_bond_distance_aromatic_linkinvent_7_9_3/rearranged_h_0082.sdf

> <i_m_source_file_index>
5

> <r_mmod_Potential_Energy-OPLS-2005>
226.987380981445

> <r_mmod_Stretch_Energy-OPLS-2005>
113.60848236084

> <r_mmod_Bend_Energy-OPLS-2005>
242.175262451172

> <r_mmod_Torsional_Energy-OPLS-2005>
236.091171264648

> <r_mmod_Improper_Torsional_Energy-OPLS-2005>
2.83409118652344

> <r_mmod_Van_der_Waal_Energy-OPLS-2005>
133.378509521484

> <r_mmod_Electrostatic_Energy-OPLS-2005>
-395.5166015625

> <r_mmod_Solvation_Energy-OPLS-2005>
-206.816101074219

> <b_mmod_Minimization_Converged-OPLS-2005>
0

> <r_mmod_RMS_Derivative-OPLS-2005>
7.42397308349609

$$$$
5
                    3D
 Structure written by MMmdl.
148156  0  0  1  0            999 V2000
  -30.5467  -14.8505   20.4467 C   0  0  0  0  0  0
  -30.4489  -12.5216   19.4825 C   0  0  0  0  0  0
  -29.5196  -12.5244   18.2458 C   0  0  0  0  0  0
  -28.0499  -12.3229   18.6629 C   0  0  0  0  0  0
  -27.6420  -13.2331   19.8500 C   0  0  2  0  0  0
  -28.6872  -13.1907   20.9869 C   0  0  0  0  0  0
  -25.2525  -13.8191   20.5712 C   0  0  0  0  0  0
  -24.1812  -13.0435   20.9206 C   0  0  0  0  0  0
  -24.6402  -11.6909   20.8741 C   0  0  0  0  0  0
  -23.9073  -10.4292   21.0397 C   0  0  0  0  0  0
  -24.3618   -9.4208   21.9178 C   0  0  0  0  0  0
  -23.6289   -8.2246   22.0751 C   0  0  0  0  0  0
  -22.4269   -8.0287   21.3545 C   0  0  0  0  0  0
  -21.9905   -9.0262   20.4650 C   0  0  0  0  0  0
  -22.7237  -10.2139   20.3054 C   0  0  0  0  0  0
  -21.6860   -6.0737   22.5278 C   0  0  0  0  0  0
  -21.4021   -6.5638   23.8213 C   0  0  0  0  0  0
  -21.3656   -5.6789   24.9172 C   0  0  0  0  0  0
  -21.6041   -4.3051   24.7217 C   0  0  0  0  0  0
  -21.8819   -3.8148   23.4340 C   0  0  0  0  0  0
  -21.9196   -4.6968   22.3399 C   0  0  0  0  0  0
  -22.7835  -13.5227   21.1855 C   0  0  0  0  0  0
  -22.1663   -4.2155   21.0978 F   0  0  0  0  0  0
  -21.5623   -3.4536   25.7730 F   0  0  0  0  0  0
  -29.9800  -13.5857   20.4072 N   0  0  0  0  0  0
  -26.2947  -12.9396   20.3275 N   0  0  0  0  0  0
  -25.9334  -11.6537   20.5728 N   0  0  0  0  0  0
  -22.0483  -12.8233   22.0422 N   0  0  0  0  0  0
  -25.4221  -15.1919   20.4158 N   0  0  0  0  0  0
  -31.7292  -14.9847   20.1113 O   0  0  0  0  0  0
  -21.6639   -6.8881   21.4240 O   0  0  0  0  0  0
  -22.3522  -14.5532   20.6696 O   0  0  0  0  0  0
  -24.6373  -31.8501   23.1925 C   0  0  0  0  0  0
  -25.9171  -32.4726   23.8305 C   0  0  1  0  0  0
  -27.2217  -27.1998   20.1489 C   0  0  0  0  0  0
  -25.5944  -33.8523   24.2238 N   0  0  0  0  0  0
  -23.4401  -30.4704   21.5357 C   0  0  2  0  0  0
  -24.8930  -28.9076   20.1092 C   0  0  0  0  0  0
  -22.7544  -29.4575   22.4864 C   0  0  0  0  0  0
  -18.0309  -28.1386   22.8486 C   0  0  0  0  0  0
  -24.1498  -36.7268   23.2639 C   0  0  0  0  0  0
  -25.9912  -30.7435   21.3841 C   0  0  0  0  0  0
  -26.0668  -29.3592   20.7290 C   0  0  0  0  0  0
  -27.2366  -28.5184   20.7381 C   0  0  0  0  0  0
  -26.0300  -26.8369   19.4877 C   0  0  0  0  0  0
  -24.8836  -27.6575   19.4727 C   0  0  0  0  0  0
  -23.6656  -29.8018   20.1536 C   0  0  0  0  0  0
  -25.4117  -36.3045   24.0324 C   0  0  1  0  0  0
  -20.5921  -28.3707   23.1237 C   0  0  2  0  0  0
  -20.6796  -26.9418   22.5380 C   0  0  0  0  0  0
  -19.5751  -26.6384   21.5207 C   0  0  0  0  0  0
  -18.1947  -26.7915   22.1657 C   0  0  0  0  0  0
  -19.1564  -28.8865   23.2857 C   0  0  0  0  0  0
  -18.9478  -30.1470   23.8876 C   0  0  0  0  0  0
  -17.6473  -30.6589   24.0551 C   0  0  0  0  0  0
  -25.9057  -34.9417   23.5084 C   0  0  0  0  0  0
  -16.5366  -29.9076   23.6331 C   0  0  0  0  0  0
  -16.7295  -28.6495   23.0349 C   0  0  0  0  0  0
  -26.4512  -31.6550   25.0709 C   0  0  0  0  0  0
  -25.3739  -31.3744   26.1449 C   0  0  0  0  0  0
  -27.0327  -30.2943   24.6231 C   0  0  0  0  0  0
  -27.6092  -32.4266   25.7469 C   0  0  0  0  0  0
  -27.5570  -37.1795   24.8473 C   0  0  0  0  0  0
  -21.4241  -29.3049   22.3615 N   0  0  0  0  0  0
  -26.4291  -37.3745   23.9399 N   0  0  0  0  0  0
  -24.7089  -31.0407   22.0934 N   0  0  0  0  0  0
  -23.4210  -28.8115   23.2990 O   0  0  0  0  0  0
  -28.2464  -26.2045   20.1976 O   0  0  0  0  0  0
  -26.5625  -34.8902   22.4653 O   0  0  0  0  0  0
  -23.5506  -32.1357   23.7173 O   0  0  0  0  0  0
  -28.5535  -18.2244   20.9048 C   0  0  0  0  0  0
  -30.7812  -18.2719   20.0869 C   0  0  0  0  0  0
  -28.4368  -19.6623   20.7562 C   0  0  0  0  0  0
  -30.6682  -19.7120   19.9497 C   0  0  0  0  0  0
  -29.7169  -17.4472   20.5673 C   0  0  0  0  0  0
  -29.4989  -20.4834   20.2716 C   0  0  0  0  0  0
  -27.9189  -24.9565   20.8439 C   0  0  0  0  0  0
  -28.2631  -23.5848   20.8033 C   0  0  0  0  0  0
  -29.6991  -15.9384   20.7113 N   0  0  0  0  0  0
  -30.7771  -22.9160   20.0466 O   0  0  0  0  0  0
  -28.9089  -22.4461   18.4329 O   0  0  0  0  0  0
  -29.4172  -22.3904   19.8175 S   0  0  0  0  0  0
  -31.4830  -12.6766   19.1718 H   0  0  0  0  0  0
  -30.4283  -11.5495   19.9782 H   0  0  0  0  0  0
  -29.8187  -11.7456   17.5432 H   0  0  0  0  0  0
  -29.6228  -13.4718   17.7146 H   0  0  0  0  0  0
  -27.9302  -11.2761   18.9459 H   0  0  0  0  0  0
  -27.3878  -12.4845   17.8117 H   0  0  0  0  0  0
  -27.6268  -14.2478   19.4524 H   0  0  0  0  0  0
  -28.7497  -12.1920   21.4220 H   0  0  0  0  0  0
  -28.4006  -13.8590   21.8005 H   0  0  0  0  0  0
  -25.2758   -9.5692   22.4753 H   0  0  0  0  0  0
  -24.0004   -7.4641   22.7467 H   0  0  0  0  0  0
  -21.0832   -8.8776   19.8961 H   0  0  0  0  0  0
  -22.3680  -10.9677   19.6168 H   0  0  0  0  0  0
  -21.2016   -7.6142   23.9713 H   0  0  0  0  0  0
  -21.1476   -6.0518   25.9073 H   0  0  0  0  0  0
  -22.0601   -2.7609   23.2834 H   0  0  0  0  0  0
  -22.4091  -11.9896   22.4819 H   0  0  0  0  0  0
  -21.1111  -13.1279   22.2629 H   0  0  0  0  0  0
  -24.6495  -15.8405   20.5198 H   0  0  0  0  0  0
  -26.2606  -15.6324   20.0614 H   0  0  0  0  0  0
  -26.7232  -32.5369   23.1035 H   0  0  0  0  0  0
  -25.0074  -33.9641   25.0375 H   0  0  0  0  0  0
  -22.7402  -31.2948   21.3833 H   0  0  0  0  0  0
  -23.3750  -35.9610   23.3301 H   0  0  0  0  0  0
  -24.3599  -36.8889   22.2054 H   0  0  0  0  0  0
  -23.7268  -37.6480   23.6652 H   0  0  0  0  0  0
  -26.1376  -31.4995   20.6115 H   0  0  0  0  0  0
  -26.8657  -30.7971   22.0210 H   0  0  0  0  0  0
  -28.1312  -28.8521   21.2449 H   0  0  0  0  0  0
  -25.9739  -25.8704   19.0067 H   0  0  0  0  0  0
  -23.9894  -27.3082   18.9750 H   0  0  0  0  0  0
  -23.7980  -30.5777   19.3983 H   0  0  0  0  0  0
  -22.7839  -29.2388   19.8434 H   0  0  0  0  0  0
  -25.1304  -36.1886   25.0819 H   0  0  0  0  0  0
  -21.0026  -28.3288   24.1353 H   0  0  0  0  0  0
  -20.5724  -26.2309   23.3582 H   0  0  0  0  0  0
  -21.6653  -26.7446   22.1147 H   0  0  0  0  0  0
  -19.6902  -25.6297   21.1236 H   0  0  0  0  0  0
  -19.6656  -27.3191   20.6724 H   0  0  0  0  0  0
  -17.4188  -26.6616   21.4098 H   0  0  0  0  0  0
  -18.0397  -26.0085   22.9095 H   0  0  0  0  0  0
  -19.7953  -30.7295   24.2229 H   0  0  0  0  0  0
  -17.5022  -31.6268   24.5144 H   0  0  0  0  0  0
  -15.5358  -30.2960   23.7666 H   0  0  0  0  0  0
  -15.8701  -28.0801   22.7062 H   0  0  0  0  0  0
  -24.5704  -30.7388   25.7714 H   0  0  0  0  0  0
  -24.9214  -32.2962   26.5115 H   0  0  0  0  0  0
  -25.8003  -30.8617   27.0083 H   0  0  0  0  0  0
  -26.2896  -29.6694   24.1269 H   0  0  0  0  0  0
  -27.3982  -29.7218   25.4765 H   0  0  0  0  0  0
  -27.8806  -30.4171   23.9490 H   0  0  0  0  0  0
  -27.2737  -33.3591   26.2015 H   0  0  0  0  0  0
  -28.3913  -32.6778   25.0290 H   0  0  0  0  0  0
  -28.0730  -31.8393   26.5403 H   0  0  0  0  0  0
  -28.2593  -38.0084   24.7494 H   0  0  0  0  0  0
  -28.1060  -36.2614   24.6332 H   0  0  0  0  0  0
  -27.2278  -37.1493   25.8875 H   0  0  0  0  0  0
  -20.9425  -29.8769   21.6817 H   0  0  0  0  0  0
  -26.0167  -38.2823   24.1371 H   0  0  0  0  0  0
  -27.6843  -17.7010   21.2788 H   0  0  0  0  0  0
  -31.7088  -17.8034   19.7883 H   0  0  0  0  0  0
  -27.4992  -20.1387   21.0026 H   0  0  0  0  0  0
  -31.5108  -20.2503   19.5395 H   0  0  0  0  0  0
  -27.1763  -25.1830   21.5972 H   0  0  0  0  0  0
  -27.7396  -22.9729   21.5227 H   0  0  0  0  0  0
  -28.7984  -15.5933   21.0076 H   0  0  0  0  0  0
  1 25  1  0  0  0
  1 30  2  0  0  0
  1 79  1  0  0  0
  2  3  1  0  0  0
  2 25  1  0  0  0
  2 83  1  0  0  0
  2 84  1  0  0  0
  3  4  1  0  0  0
  3 85  1  0  0  0
  3 86  1  0  0  0
  4  5  1  0  0  0
  4 87  1  0  0  0
  4 88  1  0  0  0
  5  6  1  0  0  0
  5 26  1  0  0  0
  5 89  1  0  0  0
  6 25  1  0  0  0
  6 90  1  0  0  0
  6 91  1  0  0  0
  7  8  2  0  0  0
  7 26  1  0  0  0
  7 29  1  0  0  0
  8  9  1  0  0  0
  8 22  1  0  0  0
  9 10  1  0  0  0
  9 27  2  0  0  0
 10 11  2  0  0  0
 10 15  1  0  0  0
 11 12  1  0  0  0
 11 92  1  0  0  0
 12 13  2  0  0  0
 12 93  1  0  0  0
 13 14  1  0  0  0
 13 31  1  0  0  0
 14 15  2  0  0  0
 14 94  1  0  0  0
 15 95  1  0  0  0
 16 17  2  0  0  0
 16 21  1  0  0  0
 16 31  1  0  0  0
 17 18  1  0  0  0
 17 96  1  0  0  0
 18 19  2  0  0  0
 18 97  1  0  0  0
 19 20  1  0  0  0
 19 24  1  0  0  0
 20 21  2  0  0  0
 20 98  1  0  0  0
 21 23  1  0  0  0
 22 28  1  0  0  0
 22 32  2  0  0  0
 26 27  1  0  0  0
 28 99  1  0  0  0
 28100  1  0  0  0
 29101  1  0  0  0
 29102  1  0  0  0
 33 34  1  0  0  0
 33 66  1  0  0  0
 33 70  2  0  0  0
 34 36  1  0  0  0
 34 59  1  0  0  0
 34103  1  0  0  0
 35 44  2  0  0  0
 35 45  1  0  0  0
 35 68  1  0  0  0
 36 56  1  0  0  0
 36104  1  0  0  0
 37 39  1  0  0  0
 37 47  1  0  0  0
 37 66  1  0  0  0
 37105  1  0  0  0
 38 43  2  0  0  0
 38 46  1  0  0  0
 38 47  1  0  0  0
 39 64  1  0  0  0
 39 67  2  0  0  0
 40 52  1  0  0  0
 40 53  2  0  0  0
 40 58  1  0  0  0
 41106  1  0  0  0
 41107  1  0  0  0
 41108  1  0  0  0
 41 48  1  0  0  0
 42 43  1  0  0  0
 42 66  1  0  0  0
 42109  1  0  0  0
 42110  1  0  0  0
 43 44  1  0  0  0
 44111  1  0  0  0
 45 46  2  0  0  0
 45112  1  0  0  0
 46113  1  0  0  0
 47114  1  0  0  0
 47115  1  0  0  0
 48 56  1  0  0  0
 48 65  1  0  0  0
 48116  1  0  0  0
 49 50  1  0  0  0
 49 53  1  0  0  0
 49 64  1  0  0  0
 49117  1  0  0  0
 50 51  1  0  0  0
 50118  1  0  0  0
 50119  1  0  0  0
 51 52  1  0  0  0
 51120  1  0  0  0
 51121  1  0  0  0
 52122  1  0  0  0
 52123  1  0  0  0
 53 54  1  0  0  0
 54 55  2  0  0  0
 54124  1  0  0  0
 55 57  1  0  0  0
 55125  1  0  0  0
 56 69  2  0  0  0
 57 58  2  0  0  0
 57126  1  0  0  0
 58127  1  0  0  0
 59 60  1  0  0  0
 59 61  1  0  0  0
 59 62  1  0  0  0
 60128  1  0  0  0
 60129  1  0  0  0
 60130  1  0  0  0
 61131  1  0  0  0
 61132  1  0  0  0
 61133  1  0  0  0
 62134  1  0  0  0
 62135  1  0  0  0
 62136  1  0  0  0
 63 65  1  0  0  0
 63137  1  0  0  0
 63138  1  0  0  0
 63139  1  0  0  0
 64140  1  0  0  0
 65141  1  0  0  0
 68 77  1  0  0  0
 71 73  2  0  0  0
 71 75  1  0  0  0
 71142  1  0  0  0
 72 74  1  0  0  0
 72 75  2  0  0  0
 72143  1  0  0  0
 73 76  1  0  0  0
 73144  1  0  0  0
 74 76  2  0  0  0
 74145  1  0  0  0
 75 79  1  0  0  0
 76 82  1  0  0  0
 77 78  2  0  0  0
 77146  1  0  0  0
 78147  1  0  0  0
 78 82  1  0  0  0
 79148  1  0  0  0
 80 82  2  0  0  0
 81 82  2  0  0  0
M  ISO  4   1 100  68 101  77 101  79 100
M  END
> <chiral flag>
0

> <version>
0

> <s_m_source_file>
/data/baiqing/PycharmProjects/Reinvent-master-3.2/result/LINK_invent/BTK/process_docking_weight1_custom_product_contain_oxygen_bond_distance_aromatic_linkinvent_7_9_3/rearranged_h_0082.sdf

> <i_m_source_file_index>
6

> <r_mmod_Potential_Energy-OPLS-2005>
354.689819335938

> <r_mmod_Stretch_Energy-OPLS-2005>
171.801345825195

> <r_mmod_Bend_Energy-OPLS-2005>
280.892791748047

> <r_mmod_Torsional_Energy-OPLS-2005>
222.723602294922

> <r_mmod_Improper_Torsional_Energy-OPLS-2005>
4.70763826370239

> <r_mmod_Van_der_Waal_Energy-OPLS-2005>
127.200622558594

> <r_mmod_Electrostatic_Energy-OPLS-2005>
-327.058410644531

> <r_mmod_Solvation_Energy-OPLS-2005>
-266.222534179688

> <b_mmod_Minimization_Converged-OPLS-2005>
0

> <r_mmod_RMS_Derivative-OPLS-2005>
1.38890588283539

$$$$
6
                    3D
 Structure written by MMmdl.
151159  0  0  1  0            999 V2000
  -30.6594  -14.5465   20.5148 C   0  0  0  0  0  0
  -30.4274  -12.3357   19.4375 C   0  0  0  0  0  0
  -29.4992  -12.5091   18.2161 C   0  0  0  0  0  0
  -28.0193  -12.3641   18.6252 C   0  0  0  0  0  0
  -27.6575  -13.2121   19.8744 C   0  0  2  0  0  0
  -28.7026  -13.0222   20.9978 C   0  0  0  0  0  0
  -25.2559  -13.8158   20.5693 C   0  0  0  0  0  0
  -24.1812  -13.0422   20.9141 C   0  0  0  0  0  0
  -24.6382  -11.6896   20.8716 C   0  0  0  0  0  0
  -23.9053  -10.4280   21.0384 C   0  0  0  0  0  0
  -24.3609   -9.4204   21.9167 C   0  0  0  0  0  0
  -23.6290   -8.2240   22.0745 C   0  0  0  0  0  0
  -22.4270   -8.0270   21.3541 C   0  0  0  0  0  0
  -21.9902   -9.0232   20.4639 C   0  0  0  0  0  0
  -22.7223  -10.2113   20.3043 C   0  0  0  0  0  0
  -21.6853   -6.0734   22.5278 C   0  0  0  0  0  0
  -21.4009   -6.5638   23.8209 C   0  0  0  0  0  0
  -21.3665   -5.6793   24.9173 C   0  0  0  0  0  0
  -21.6050   -4.3057   24.7227 C   0  0  0  0  0  0
  -21.8819   -3.8150   23.4347 C   0  0  0  0  0  0
  -21.9190   -4.6964   22.3404 C   0  0  0  0  0  0
  -22.7841  -13.5220   21.1825 C   0  0  0  0  0  0
  -22.1659   -4.2154   21.0982 F   0  0  0  0  0  0
  -21.5636   -3.4538   25.7739 F   0  0  0  0  0  0
  -30.0281  -13.3388   20.4400 N   0  0  0  0  0  0
  -26.3008  -12.9341   20.3391 N   0  0  0  0  0  0
  -25.9321  -11.6493   20.5780 N   0  0  0  0  0  0
  -22.0505  -12.8204   22.0394 N   0  0  0  0  0  0
  -25.4250  -15.1884   20.4186 N   0  0  0  0  0  0
  -31.8136  -14.7048   20.1073 O   0  0  0  0  0  0
  -21.6638   -6.8869   21.4237 O   0  0  0  0  0  0
  -22.3509  -14.5531   20.6690 O   0  0  0  0  0  0
  -24.6181  -31.8661   23.2083 C   0  0  0  0  0  0
  -25.9058  -32.4817   23.8387 C   0  0  1  0  0  0
  -27.2296  -27.4072   20.0988 C   0  0  0  0  0  0
  -25.5906  -33.8615   24.2323 N   0  0  0  0  0  0
  -23.4097  -30.4898   21.5483 C   0  0  2  0  0  0
  -24.8580  -28.9545   20.1107 C   0  0  0  0  0  0
  -22.7438  -29.4649   22.4960 C   0  0  0  0  0  0
  -18.0286  -28.1388   22.8489 C   0  0  0  0  0  0
  -24.1485  -36.7310   23.2635 C   0  0  0  0  0  0
  -25.9424  -30.8242   21.3657 C   0  0  0  0  0  0
  -26.0219  -29.4579   20.7085 C   0  0  0  0  0  0
  -27.2160  -28.6925   20.6987 C   0  0  0  0  0  0
  -26.0525  -26.9275   19.4920 C   0  0  0  0  0  0
  -24.8696  -27.6894   19.4982 C   0  0  0  0  0  0
  -23.6209  -29.8242   20.1627 C   0  0  0  0  0  0
  -25.4107  -36.3110   24.0338 C   0  0  1  0  0  0
  -20.5878  -28.3684   23.1290 C   0  0  2  0  0  0
  -20.6781  -26.9413   22.5407 C   0  0  0  0  0  0
  -19.5755  -26.6389   21.5211 C   0  0  0  0  0  0
  -18.1932  -26.7934   22.1621 C   0  0  0  0  0  0
  -19.1537  -28.8852   23.2891 C   0  0  0  0  0  0
  -18.9462  -30.1458   23.8901 C   0  0  0  0  0  0
  -17.6462  -30.6589   24.0567 C   0  0  0  0  0  0
  -25.9041  -34.9476   23.5129 C   0  0  0  0  0  0
  -16.5352  -29.9093   23.6325 C   0  0  0  0  0  0
  -16.7274  -28.6511   23.0344 C   0  0  0  0  0  0
  -26.4476  -31.6596   25.0724 C   0  0  0  0  0  0
  -25.3746  -31.3699   26.1477 C   0  0  0  0  0  0
  -27.0302  -30.3031   24.6106 C   0  0  0  0  0  0
  -27.6047  -32.4315   25.7493 C   0  0  0  0  0  0
  -27.5589  -37.1806   24.8461 C   0  0  0  0  0  0
  -21.4160  -29.3048   22.3696 N   0  0  0  0  0  0
  -26.4291  -37.3803   23.9418 N   0  0  0  0  0  0
  -24.6752  -31.0746   22.0988 N   0  0  0  0  0  0
  -23.4190  -28.8189   23.3019 O   0  0  0  0  0  0
  -28.3265  -26.5682   20.1358 O   0  0  0  0  0  0
  -26.5603  -34.8924   22.4691 O   0  0  0  0  0  0
  -23.5359  -32.1420   23.7458 O   0  0  0  0  0  0
  -31.0592  -19.0424   19.8069 C   0  0  0  0  0  0
  -31.1103  -17.6669   20.1469 C   0  0  0  0  0  0
  -28.7241  -19.1363   20.4299 C   0  0  0  0  0  0
  -29.8698  -19.8045   19.9353 C   0  0  0  0  0  0
  -29.9525  -16.9896   20.6058 C   0  0  0  0  0  0
  -28.7692  -17.7546   20.7522 C   0  0  0  0  0  0
  -28.5719  -24.2707   21.0628 C   0  0  0  0  0  0
  -28.2542  -25.5953   21.1189 C   0  0  0  0  0  0
  -29.8226  -21.2355   19.4146 C   0  0  0  0  0  0
  -29.0920  -23.5258   19.9140 C   0  0  0  0  0  0
  -29.8814  -15.5806   20.9196 N   0  0  0  0  0  0
  -29.2453  -22.1957   20.1821 N   0  0  0  0  0  0
  -30.3599  -21.4558   18.3230 O   0  0  0  0  0  0
  -29.3644  -24.0543   18.8301 O   0  0  0  0  0  0
  -27.6407  -17.1367   21.1761 F   0  0  0  0  0  0
  -31.4725  -12.4385   19.1387 H   0  0  0  0  0  0
  -30.3344  -11.3308   19.8519 H   0  0  0  0  0  0
  -29.7480  -11.7782   17.4458 H   0  0  0  0  0  0
  -29.6609  -13.4913   17.7688 H   0  0  0  0  0  0
  -27.8342  -11.3083   18.8272 H   0  0  0  0  0  0
  -27.3701  -12.6319   17.7901 H   0  0  0  0  0  0
  -27.6879  -14.2561   19.5627 H   0  0  0  0  0  0
  -28.6902  -11.9926   21.3580 H   0  0  0  0  0  0
  -28.4637  -13.6384   21.8658 H   0  0  0  0  0  0
  -25.2749   -9.5698   22.4739 H   0  0  0  0  0  0
  -24.0012   -7.4637   22.7463 H   0  0  0  0  0  0
  -21.0839   -8.8731   19.8944 H   0  0  0  0  0  0
  -22.3664  -10.9644   19.6155 H   0  0  0  0  0  0
  -21.1989   -7.6142   23.9719 H   0  0  0  0  0  0
  -21.1493   -6.0519   25.9078 H   0  0  0  0  0  0
  -22.0597   -2.7615   23.2843 H   0  0  0  0  0  0
  -22.4132  -11.9865   22.4772 H   0  0  0  0  0  0
  -21.1124  -13.1219   22.2615 H   0  0  0  0  0  0
  -24.6653  -15.8412   20.5732 H   0  0  0  0  0  0
  -26.3084  -15.6536   20.2479 H   0  0  0  0  0  0
  -26.7133  -32.5516   23.1152 H   0  0  0  0  0  0
  -25.0059  -33.9778   25.0468 H   0  0  0  0  0  0
  -22.6999  -31.3074   21.4081 H   0  0  0  0  0  0
  -23.3755  -35.9636   23.3292 H   0  0  0  0  0  0
  -24.3574  -36.8929   22.2049 H   0  0  0  0  0  0
  -23.7223  -37.6506   23.6651 H   0  0  0  0  0  0
  -26.0593  -31.5917   20.5993 H   0  0  0  0  0  0
  -26.8272  -30.8751   21.9886 H   0  0  0  0  0  0
  -28.1123  -29.0687   21.1717 H   0  0  0  0  0  0
  -26.0493  -25.9470   19.0365 H   0  0  0  0  0  0
  -23.9737  -27.2944   19.0388 H   0  0  0  0  0  0
  -23.7338  -30.6010   19.4053 H   0  0  0  0  0  0
  -22.7437  -29.2478   19.8624 H   0  0  0  0  0  0
  -25.1282  -36.1973   25.0833 H   0  0  0  0  0  0
  -20.9979  -28.3262   24.1407 H   0  0  0  0  0  0
  -20.5680  -26.2300   23.3607 H   0  0  0  0  0  0
  -21.6651  -26.7453   22.1196 H   0  0  0  0  0  0
  -19.6915  -25.6300   21.1237 H   0  0  0  0  0  0
  -19.6689  -27.3203   20.6746 H   0  0  0  0  0  0
  -17.4205  -26.6684   21.4022 H   0  0  0  0  0  0
  -18.0332  -26.0070   22.9011 H   0  0  0  0  0  0
  -19.7939  -30.7284   24.2255 H   0  0  0  0  0  0
  -17.5017  -31.6265   24.5174 H   0  0  0  0  0  0
  -15.5352  -30.2998   23.7650 H   0  0  0  0  0  0
  -15.8673  -28.0837   22.7045 H   0  0  0  0  0  0
  -24.5921  -30.7044   25.7813 H   0  0  0  0  0  0
  -24.8939  -32.2853   26.4933 H   0  0  0  0  0  0
  -25.8105  -30.8860   27.0227 H   0  0  0  0  0  0
  -26.2844  -29.6805   24.1147 H   0  0  0  0  0  0
  -27.4050  -29.7249   25.4559 H   0  0  0  0  0  0
  -27.8689  -30.4334   23.9266 H   0  0  0  0  0  0
  -27.2662  -33.3604   26.2088 H   0  0  0  0  0  0
  -28.3852  -32.6893   25.0326 H   0  0  0  0  0  0
  -28.0724  -31.8435   26.5399 H   0  0  0  0  0  0
  -28.2592  -38.0123   24.7546 H   0  0  0  0  0  0
  -28.1108  -36.2657   24.6242 H   0  0  0  0  0  0
  -27.2313  -37.1394   25.8866 H   0  0  0  0  0  0
  -20.9335  -29.8765   21.6904 H   0  0  0  0  0  0
  -26.0181  -38.2877   24.1445 H   0  0  0  0  0  0
  -31.9497  -19.5159   19.4159 H   0  0  0  0  0  0
  -32.0481  -17.1467   20.0236 H   0  0  0  0  0  0
  -27.7839  -19.6616   20.5140 H   0  0  0  0  0  0
  -28.4167  -23.7224   21.9809 H   0  0  0  0  0  0
  -27.8779  -26.0156   22.0428 H   0  0  0  0  0  0
  -28.9819  -15.2940   21.2750 H   0  0  0  0  0  0
  -28.9273  -21.8824   21.0844 H   0  0  0  0  0  0
  1 25  1  0  0  0
  1 30  2  0  0  0
  1 81  1  0  0  0
  2  3  1  0  0  0
  2 25  1  0  0  0
  2 86  1  0  0  0
  2 87  1  0  0  0
  3  4  1  0  0  0
  3 88  1  0  0  0
  3 89  1  0  0  0
  4  5  1  0  0  0
  4 90  1  0  0  0
  4 91  1  0  0  0
  5  6  1  0  0  0
  5 26  1  0  0  0
  5 92  1  0  0  0
  6 25  1  0  0  0
  6 93  1  0  0  0
  6 94  1  0  0  0
  7  8  2  0  0  0
  7 26  1  0  0  0
  7 29  1  0  0  0
  8  9  1  0  0  0
  8 22  1  0  0  0
  9 10  1  0  0  0
  9 27  2  0  0  0
 10 11  2  0  0  0
 10 15  1  0  0  0
 11 12  1  0  0  0
 11 95  1  0  0  0
 12 13  2  0  0  0
 12 96  1  0  0  0
 13 14  1  0  0  0
 13 31  1  0  0  0
 14 15  2  0  0  0
 14 97  1  0  0  0
 15 98  1  0  0  0
 16 17  2  0  0  0
 16 21  1  0  0  0
 16 31  1  0  0  0
 17 18  1  0  0  0
 17 99  1  0  0  0
 18 19  2  0  0  0
 18100  1  0  0  0
 19 20  1  0  0  0
 19 24  1  0  0  0
 20 21  2  0  0  0
 20101  1  0  0  0
 21 23  1  0  0  0
 22 28  1  0  0  0
 22 32  2  0  0  0
 26 27  1  0  0  0
 28102  1  0  0  0
 28103  1  0  0  0
 29104  1  0  0  0
 29105  1  0  0  0
 33 34  1  0  0  0
 33 66  1  0  0  0
 33 70  2  0  0  0
 34 36  1  0  0  0
 34 59  1  0  0  0
 34106  1  0  0  0
 35 44  2  0  0  0
 35 45  1  0  0  0
 35 68  1  0  0  0
 36 56  1  0  0  0
 36107  1  0  0  0
 37 39  1  0  0  0
 37 47  1  0  0  0
 37 66  1  0  0  0
 37108  1  0  0  0
 38 43  2  0  0  0
 38 46  1  0  0  0
 38 47  1  0  0  0
 39 64  1  0  0  0
 39 67  2  0  0  0
 40 52  1  0  0  0
 40 53  2  0  0  0
 40 58  1  0  0  0
 41109  1  0  0  0
 41110  1  0  0  0
 41111  1  0  0  0
 41 48  1  0  0  0
 42 43  1  0  0  0
 42 66  1  0  0  0
 42112  1  0  0  0
 42113  1  0  0  0
 43 44  1  0  0  0
 44114  1  0  0  0
 45 46  2  0  0  0
 45115  1  0  0  0
 46116  1  0  0  0
 47117  1  0  0  0
 47118  1  0  0  0
 48 56  1  0  0  0
 48 65  1  0  0  0
 48119  1  0  0  0
 49 50  1  0  0  0
 49 53  1  0  0  0
 49 64  1  0  0  0
 49120  1  0  0  0
 50 51  1  0  0  0
 50121  1  0  0  0
 50122  1  0  0  0
 51 52  1  0  0  0
 51123  1  0  0  0
 51124  1  0  0  0
 52125  1  0  0  0
 52126  1  0  0  0
 53 54  1  0  0  0
 54 55  2  0  0  0
 54127  1  0  0  0
 55 57  1  0  0  0
 55128  1  0  0  0
 56 69  2  0  0  0
 57 58  2  0  0  0
 57129  1  0  0  0
 58130  1  0  0  0
 59 60  1  0  0  0
 59 61  1  0  0  0
 59 62  1  0  0  0
 60131  1  0  0  0
 60132  1  0  0  0
 60133  1  0  0  0
 61134  1  0  0  0
 61135  1  0  0  0
 61136  1  0  0  0
 62137  1  0  0  0
 62138  1  0  0  0
 62139  1  0  0  0
 63 65  1  0  0  0
 63140  1  0  0  0
 63141  1  0  0  0
 63142  1  0  0  0
 64143  1  0  0  0
 65144  1  0  0  0
 68 78  1  0  0  0
 71 72  2  0  0  0
 71 74  1  0  0  0
 71145  1  0  0  0
 72 75  1  0  0  0
 72146  1  0  0  0
 73 74  2  0  0  0
 73 76  1  0  0  0
 73147  1  0  0  0
 74 79  1  0  0  0
 75 76  2  0  0  0
 75 81  1  0  0  0
 76 85  1  0  0  0
 77 78  2  0  0  0
 77 80  1  0  0  0
 77148  1  0  0  0
 78149  1  0  0  0
 79 82  1  0  0  0
 79 83  2  0  0  0
 80 82  1  0  0  0
 80 84  2  0  0  0
 81150  1  0  0  0
 82151  1  0  0  0
M  ISO  4   1 100  68 101  78 101  81 100
M  END
> <chiral flag>
0

> <version>
0

> <s_m_source_file>
/data/baiqing/PycharmProjects/Reinvent-master-3.2/result/LINK_invent/BTK/process_docking_weight1_custom_product_contain_oxygen_bond_distance_aromatic_linkinvent_7_9_3/rearranged_h_0082.sdf

> <i_m_source_file_index>
7

> <r_mmod_Potential_Energy-OPLS-2005>
-186.356536865234

> <r_mmod_Stretch_Energy-OPLS-2005>
46.5533752441406

> <r_mmod_Bend_Energy-OPLS-2005>
122.296653747559

> <r_mmod_Torsional_Energy-OPLS-2005>
241.884567260742

> <r_mmod_Improper_Torsional_Energy-OPLS-2005>
5.23585414886475

> <r_mmod_Van_der_Waal_Energy-OPLS-2005>
151.097885131836

> <r_mmod_Electrostatic_Energy-OPLS-2005>
-508.726165771484

> <r_mmod_Solvation_Energy-OPLS-2005>
-268.882598876953

> <b_mmod_Minimization_Converged-OPLS-2005>
0

> <r_mmod_RMS_Derivative-OPLS-2005>
1.2514910697937

$$$$
7
                    3D
 Structure written by MMmdl.
153162  0  0  1  0            999 V2000
  -30.6002  -14.6708   20.4955 C   0  0  0  0  0  0
  -30.4443  -12.4101   19.4575 C   0  0  0  0  0  0
  -29.5120  -12.5106   18.2284 C   0  0  0  0  0  0
  -28.0349  -12.3429   18.6390 C   0  0  0  0  0  0
  -27.6537  -13.2157   19.8639 C   0  0  2  0  0  0
  -28.6983  -13.0749   20.9945 C   0  0  0  0  0  0
  -25.2567  -13.8167   20.5686 C   0  0  0  0  0  0
  -24.1833  -13.0437   20.9195 C   0  0  0  0  0  0
  -24.6396  -11.6906   20.8740 C   0  0  0  0  0  0
  -23.9063  -10.4291   21.0406 C   0  0  0  0  0  0
  -24.3614   -9.4207   21.9184 C   0  0  0  0  0  0
  -23.6290   -8.2243   22.0754 C   0  0  0  0  0  0
  -22.4272   -8.0281   21.3544 C   0  0  0  0  0  0
  -21.9906   -9.0256   20.4648 C   0  0  0  0  0  0
  -22.7235  -10.2135   20.3057 C   0  0  0  0  0  0
  -21.6853   -6.0734   22.5278 C   0  0  0  0  0  0
  -21.4015   -6.5638   23.8212 C   0  0  0  0  0  0
  -21.3659   -5.6791   24.9174 C   0  0  0  0  0  0
  -21.6044   -4.3054   24.7225 C   0  0  0  0  0  0
  -21.8819   -3.8146   23.4346 C   0  0  0  0  0  0
  -21.9193   -4.6962   22.3402 C   0  0  0  0  0  0
  -22.7855  -13.5234   21.1855 C   0  0  0  0  0  0
  -22.1661   -4.2147   21.0979 F   0  0  0  0  0  0
  -21.5628   -3.4538   25.7738 F   0  0  0  0  0  0
  -30.0115  -13.4317   20.4333 N   0  0  0  0  0  0
  -26.2991  -12.9343   20.3315 N   0  0  0  0  0  0
  -25.9324  -11.6501   20.5754 N   0  0  0  0  0  0
  -22.0493  -12.8231   22.0411 N   0  0  0  0  0  0
  -25.4285  -15.1889   20.4091 N   0  0  0  0  0  0
  -31.7608  -14.8438   20.1095 O   0  0  0  0  0  0
  -21.6638   -6.8878   21.4241 O   0  0  0  0  0  0
  -22.3544  -14.5541   20.6701 O   0  0  0  0  0  0
  -24.6270  -31.8588   23.2015 C   0  0  0  0  0  0
  -25.9111  -32.4775   23.8350 C   0  0  1  0  0  0
  -27.2251  -27.3103   20.1272 C   0  0  0  0  0  0
  -25.5922  -33.8576   24.2277 N   0  0  0  0  0  0
  -23.4222  -30.4810   21.5440 C   0  0  2  0  0  0
  -24.8716  -28.9339   20.1120 C   0  0  0  0  0  0
  -22.7483  -29.4616   22.4932 C   0  0  0  0  0  0
  -18.0288  -28.1386   22.8488 C   0  0  0  0  0  0
  -24.1489  -36.7293   23.2638 C   0  0  0  0  0  0
  -25.9640  -30.7873   21.3744 C   0  0  0  0  0  0
  -26.0408  -29.4131   20.7184 C   0  0  0  0  0  0
  -27.2243  -28.6137   20.7151 C   0  0  0  0  0  0
  -26.0394  -26.8891   19.4886 C   0  0  0  0  0  0
  -24.8731  -27.6772   19.4866 C   0  0  0  0  0  0
  -23.6389  -29.8143   20.1601 C   0  0  0  0  0  0
  -25.4113  -36.3082   24.0329 C   0  0  1  0  0  0
  -20.5889  -28.3691   23.1281 C   0  0  2  0  0  0
  -20.6779  -26.9413   22.5410 C   0  0  0  0  0  0
  -19.5752  -26.6384   21.5214 C   0  0  0  0  0  0
  -18.1933  -26.7928   22.1628 C   0  0  0  0  0  0
  -19.1541  -28.8856   23.2879 C   0  0  0  0  0  0
  -18.9462  -30.1458   23.8895 C   0  0  0  0  0  0
  -17.6462  -30.6588   24.0562 C   0  0  0  0  0  0
  -25.9050  -34.9450   23.5104 C   0  0  0  0  0  0
  -16.5353  -29.9085   23.6330 C   0  0  0  0  0  0
  -16.7275  -28.6502   23.0352 C   0  0  0  0  0  0
  -26.4494  -31.6586   25.0721 C   0  0  0  0  0  0
  -25.3727  -31.3727   26.1450 C   0  0  0  0  0  0
  -27.0334  -30.3007   24.6178 C   0  0  0  0  0  0
  -27.6057  -32.4317   25.7490 C   0  0  0  0  0  0
  -27.5579  -37.1801   24.8465 C   0  0  0  0  0  0
  -21.4194  -29.3042   22.3675 N   0  0  0  0  0  0
  -26.4292  -37.3776   23.9407 N   0  0  0  0  0  0
  -24.6898  -31.0590   22.0971 N   0  0  0  0  0  0
  -23.4200  -28.8156   23.3018 O   0  0  0  0  0  0
  -28.3165  -26.4280   20.1490 O   0  0  0  0  0  0
  -26.5620  -34.8918   22.4672 O   0  0  0  0  0  0
  -23.5429  -32.1389   23.7335 O   0  0  0  0  0  0
  -28.5161  -19.3207   20.8431 C   0  0  0  0  0  0
  -30.7660  -19.3616   20.0233 C   0  0  0  0  0  0
  -28.6180  -17.9053   21.0133 C   0  0  0  0  0  0
  -30.8693  -17.9412   20.1872 C   0  0  0  0  0  0
  -29.6651  -23.6395   19.1751 C   0  0  0  0  0  0
  -28.6863  -22.5067   20.8126 C   0  0  0  0  0  0
  -28.7849  -23.7983   20.2849 C   0  0  0  0  0  0
  -29.5823  -20.1024   20.3256 C   0  0  0  0  0  0
  -29.7866  -17.1631   20.6803 C   0  0  0  0  0  0
  -30.0315  -22.3182   19.0812 C   0  0  0  0  0  0
  -28.0654  -25.1079   20.7843 C   0  0  0  0  0  0
  -29.4505  -21.5557   20.0955 N   0  0  0  0  0  0
  -29.7697  -15.7031   20.8638 N   0  0  0  0  0  0
  -30.8268  -21.7469   18.1371 O   0  0  0  0  0  0
  -31.4840  -12.5460   19.1549 H   0  0  0  0  0  0
  -30.3906  -11.4154   19.9027 H   0  0  0  0  0  0
  -29.7815  -11.7561   17.4882 H   0  0  0  0  0  0
  -29.6488  -13.4777   17.7419 H   0  0  0  0  0  0
  -27.8760  -11.2898   18.8739 H   0  0  0  0  0  0
  -27.3803  -12.5678   17.7961 H   0  0  0  0  0  0
  -27.6700  -14.2497   19.5195 H   0  0  0  0  0  0
  -28.7173  -12.0518   21.3730 H   0  0  0  0  0  0
  -28.4374  -13.7005   21.8494 H   0  0  0  0  0  0
  -25.2760   -9.5682   22.4757 H   0  0  0  0  0  0
  -23.9999   -7.4634   22.7473 H   0  0  0  0  0  0
  -21.0836   -8.8776   19.8954 H   0  0  0  0  0  0
  -22.3694  -10.9674   19.6166 H   0  0  0  0  0  0
  -21.2008   -7.6147   23.9715 H   0  0  0  0  0  0
  -21.1480   -6.0521   25.9076 H   0  0  0  0  0  0
  -22.0599   -2.7608   23.2847 H   0  0  0  0  0  0
  -22.4104  -11.9892   22.4803 H   0  0  0  0  0  0
  -21.1112  -13.1264   22.2614 H   0  0  0  0  0  0
  -24.6574  -15.8401   20.5087 H   0  0  0  0  0  0
  -26.2662  -15.6226   20.0429 H   0  0  0  0  0  0
  -26.7181  -32.5448   23.1101 H   0  0  0  0  0  0
  -25.0067  -33.9720   25.0419 H   0  0  0  0  0  0
  -22.7165  -31.3016   21.3993 H   0  0  0  0  0  0
  -23.3751  -35.9627   23.3301 H   0  0  0  0  0  0
  -24.3581  -36.8913   22.2053 H   0  0  0  0  0  0
  -23.7243  -37.6496   23.6660 H   0  0  0  0  0  0
  -26.0950  -31.5496   20.6051 H   0  0  0  0  0  0
  -26.8442  -30.8383   22.0036 H   0  0  0  0  0  0
  -28.1211  -28.9750   21.1985 H   0  0  0  0  0  0
  -26.0074  -25.9252   19.0000 H   0  0  0  0  0  0
  -23.9792  -27.3058   19.0045 H   0  0  0  0  0  0
  -23.7583  -30.5901   19.4030 H   0  0  0  0  0  0
  -22.7593  -29.2431   19.8576 H   0  0  0  0  0  0
  -25.1294  -36.1935   25.0821 H   0  0  0  0  0  0
  -20.9981  -28.3267   24.1402 H   0  0  0  0  0  0
  -20.5687  -26.2298   23.3609 H   0  0  0  0  0  0
  -21.6646  -26.7448   22.1197 H   0  0  0  0  0  0
  -19.6914  -25.6295   21.1243 H   0  0  0  0  0  0
  -19.6687  -27.3195   20.6744 H   0  0  0  0  0  0
  -17.4201  -26.6671   21.4034 H   0  0  0  0  0  0
  -18.0337  -26.0072   22.9028 H   0  0  0  0  0  0
  -19.7938  -30.7276   24.2263 H   0  0  0  0  0  0
  -17.5015  -31.6268   24.5163 H   0  0  0  0  0  0
  -15.5354  -30.2986   23.7655 H   0  0  0  0  0  0
  -15.8675  -28.0820   22.7068 H   0  0  0  0  0  0
  -24.5890  -30.7094   25.7774 H   0  0  0  0  0  0
  -24.8936  -32.2898   26.4888 H   0  0  0  0  0  0
  -25.8048  -30.8887   27.0217 H   0  0  0  0  0  0
  -26.2907  -29.6758   24.1204 H   0  0  0  0  0  0
  -27.4031  -29.7263   25.4683 H   0  0  0  0  0  0
  -27.8778  -30.4290   23.9402 H   0  0  0  0  0  0
  -27.2673  -33.3622   26.2062 H   0  0  0  0  0  0
  -28.3869  -32.6868   25.0317 H   0  0  0  0  0  0
  -28.0721  -31.8443   26.5409 H   0  0  0  0  0  0
  -28.2598  -38.0096   24.7510 H   0  0  0  0  0  0
  -28.1073  -36.2628   24.6295 H   0  0  0  0  0  0
  -27.2296  -37.1455   25.8868 H   0  0  0  0  0  0
  -20.9375  -29.8759   21.6879 H   0  0  0  0  0  0
  -26.0175  -38.2852   24.1403 H   0  0  0  0  0  0
  -27.5854  -19.8060   21.0989 H   0  0  0  0  0  0
  -31.6284  -19.8875   19.6416 H   0  0  0  0  0  0
  -27.7550  -17.3830   21.4017 H   0  0  0  0  0  0
  -31.7986  -17.4588   19.9199 H   0  0  0  0  0  0
  -29.9807  -24.4246   18.5014 H   0  0  0  0  0  0
  -28.1132  -22.1687   21.6654 H   0  0  0  0  0  0
  -28.3365  -25.2241   21.8341 H   0  0  0  0  0  0
  -27.0009  -24.8747   20.8027 H   0  0  0  0  0  0
  -28.8908  -15.3509   21.2106 H   0  0  0  0  0  0
  -31.0900  -22.4303   17.5284 H   0  0  0  0  0  0
  1 25  1  0  0  0
  1 30  2  0  0  0
  1 83  1  0  0  0
  2  3  1  0  0  0
  2 25  1  0  0  0
  2 85  1  0  0  0
  2 86  1  0  0  0
  3  4  1  0  0  0
  3 87  1  0  0  0
  3 88  1  0  0  0
  4  5  1  0  0  0
  4 89  1  0  0  0
  4 90  1  0  0  0
  5  6  1  0  0  0
  5 26  1  0  0  0
  5 91  1  0  0  0
  6 25  1  0  0  0
  6 92  1  0  0  0
  6 93  1  0  0  0
  7  8  2  0  0  0
  7 26  1  0  0  0
  7 29  1  0  0  0
  8  9  1  0  0  0
  8 22  1  0  0  0
  9 10  1  0  0  0
  9 27  2  0  0  0
 10 11  2  0  0  0
 10 15  1  0  0  0
 11 12  1  0  0  0
 11 94  1  0  0  0
 12 13  2  0  0  0
 12 95  1  0  0  0
 13 14  1  0  0  0
 13 31  1  0  0  0
 14 15  2  0  0  0
 14 96  1  0  0  0
 15 97  1  0  0  0
 16 17  2  0  0  0
 16 21  1  0  0  0
 16 31  1  0  0  0
 17 18  1  0  0  0
 17 98  1  0  0  0
 18 19  2  0  0  0
 18 99  1  0  0  0
 19 20  1  0  0  0
 19 24  1  0  0  0
 20 21  2  0  0  0
 20100  1  0  0  0
 21 23  1  0  0  0
 22 28  1  0  0  0
 22 32  2  0  0  0
 26 27  1  0  0  0
 28101  1  0  0  0
 28102  1  0  0  0
 29103  1  0  0  0
 29104  1  0  0  0
 33 34  1  0  0  0
 33 66  1  0  0  0
 33 70  2  0  0  0
 34 36  1  0  0  0
 34 59  1  0  0  0
 34105  1  0  0  0
 35 44  2  0  0  0
 35 45  1  0  0  0
 35 68  1  0  0  0
 36 56  1  0  0  0
 36106  1  0  0  0
 37 39  1  0  0  0
 37 47  1  0  0  0
 37 66  1  0  0  0
 37107  1  0  0  0
 38 43  2  0  0  0
 38 46  1  0  0  0
 38 47  1  0  0  0
 39 64  1  0  0  0
 39 67  2  0  0  0
 40 52  1  0  0  0
 40 53  2  0  0  0
 40 58  1  0  0  0
 41108  1  0  0  0
 41109  1  0  0  0
 41110  1  0  0  0
 41 48  1  0  0  0
 42 43  1  0  0  0
 42 66  1  0  0  0
 42111  1  0  0  0
 42112  1  0  0  0
 43 44  1  0  0  0
 44113  1  0  0  0
 45 46  2  0  0  0
 45114  1  0  0  0
 46115  1  0  0  0
 47116  1  0  0  0
 47117  1  0  0  0
 48 56  1  0  0  0
 48 65  1  0  0  0
 48118  1  0  0  0
 49 50  1  0  0  0
 49 53  1  0  0  0
 49 64  1  0  0  0
 49119  1  0  0  0
 50 51  1  0  0  0
 50120  1  0  0  0
 50121  1  0  0  0
 51 52  1  0  0  0
 51122  1  0  0  0
 51123  1  0  0  0
 52124  1  0  0  0
 52125  1  0  0  0
 53 54  1  0  0  0
 54 55  2  0  0  0
 54126  1  0  0  0
 55 57  1  0  0  0
 55127  1  0  0  0
 56 69  2  0  0  0
 57 58  2  0  0  0
 57128  1  0  0  0
 58129  1  0  0  0
 59 60  1  0  0  0
 59 61  1  0  0  0
 59 62  1  0  0  0
 60130  1  0  0  0
 60131  1  0  0  0
 60132  1  0  0  0
 61133  1  0  0  0
 61134  1  0  0  0
 61135  1  0  0  0
 62136  1  0  0  0
 62137  1  0  0  0
 62138  1  0  0  0
 63 65  1  0  0  0
 63139  1  0  0  0
 63140  1  0  0  0
 63141  1  0  0  0
 64142  1  0  0  0
 65143  1  0  0  0
 68 81  1  0  0  0
 71 73  2  0  0  0
 71 78  1  0  0  0
 71144  1  0  0  0
 72 74  1  0  0  0
 72 78  2  0  0  0
 72145  1  0  0  0
 73 79  1  0  0  0
 73146  1  0  0  0
 74 79  2  0  0  0
 74147  1  0  0  0
 75 77  1  0  0  0
 75 80  2  0  0  0
 75148  1  0  0  0
 76 77  2  0  0  0
 76 82  1  0  0  0
 76149  1  0  0  0
 77 81  1  0  0  0
 78 82  1  0  0  0
 79 83  1  0  0  0
 80 82  1  0  0  0
 80 84  1  0  0  0
 81150  1  0  0  0
 81151  1  0  0  0
 83152  1  0  0  0
 84153  1  0  0  0
M  ISO  4   1 100  68 101  81 101  83 100
M  END
> <chiral flag>
0

> <version>
0

> <s_m_source_file>
/data/baiqing/PycharmProjects/Reinvent-master-3.2/result/LINK_invent/BTK/process_docking_weight1_custom_product_contain_oxygen_bond_distance_aromatic_linkinvent_7_9_3/rearranged_h_0082.sdf

> <i_m_source_file_index>
8

> <r_mmod_Potential_Energy-OPLS-2005>
61.5745162963867

> <r_mmod_Stretch_Energy-OPLS-2005>
84.8765869140625

> <r_mmod_Bend_Energy-OPLS-2005>
141.335784912109

> <r_mmod_Torsional_Energy-OPLS-2005>
241.407318115234

> <r_mmod_Improper_Torsional_Energy-OPLS-2005>
4.03644323348999

> <r_mmod_Van_der_Waal_Energy-OPLS-2005>
138.155502319336

> <r_mmod_Electrostatic_Energy-OPLS-2005>
-383.978576660156

> <r_mmod_Solvation_Energy-OPLS-2005>
-221.501205444336

> <b_mmod_Minimization_Converged-OPLS-2005>
0

> <r_mmod_RMS_Derivative-OPLS-2005>
0.195507824420929

$$$$
8
                    3D
 Structure written by MMmdl.
149158  0  0  1  0            999 V2000
  -30.5740  -14.7508   20.4693 C   0  0  0  0  0  0
  -30.4506  -12.4588   19.4657 C   0  0  0  0  0  0
  -29.5165  -12.5143   18.2341 C   0  0  0  0  0  0
  -28.0419  -12.3314   18.6477 C   0  0  0  0  0  0
  -27.6485  -13.2211   19.8559 C   0  0  2  0  0  0
  -28.6960  -13.1241   20.9884 C   0  0  0  0  0  0
  -25.2539  -13.8158   20.5679 C   0  0  0  0  0  0
  -24.1822  -13.0423   20.9209 C   0  0  0  0  0  0
  -24.6400  -11.6899   20.8750 C   0  0  0  0  0  0
  -23.9069  -10.4284   21.0411 C   0  0  0  0  0  0
  -24.3618   -9.4199   21.9188 C   0  0  0  0  0  0
  -23.6291   -8.2236   22.0756 C   0  0  0  0  0  0
  -22.4274   -8.0277   21.3545 C   0  0  0  0  0  0
  -21.9911   -9.0252   20.4648 C   0  0  0  0  0  0
  -22.7242  -10.2131   20.3059 C   0  0  0  0  0  0
  -21.6851   -6.0734   22.5279 C   0  0  0  0  0  0
  -21.4013   -6.5639   23.8212 C   0  0  0  0  0  0
  -21.3659   -5.6792   24.9174 C   0  0  0  0  0  0
  -21.6044   -4.3054   24.7225 C   0  0  0  0  0  0
  -21.8819   -3.8146   23.4346 C   0  0  0  0  0  0
  -21.9192   -4.6962   22.3402 C   0  0  0  0  0  0
  -22.7844  -13.5218   21.1865 C   0  0  0  0  0  0
  -22.1661   -4.2148   21.0980 F   0  0  0  0  0  0
  -21.5629   -3.4538   25.7739 F   0  0  0  0  0  0
  -30.0001  -13.4984   20.4176 N   0  0  0  0  0  0
  -26.2969  -12.9349   20.3289 N   0  0  0  0  0  0
  -25.9329  -11.6504   20.5754 N   0  0  0  0  0  0
  -22.0483  -12.8214   22.0421 N   0  0  0  0  0  0
  -25.4218  -15.1876   20.4051 N   0  0  0  0  0  0
  -31.7526  -14.9133   20.1371 O   0  0  0  0  0  0
  -21.6636   -6.8876   21.4241 O   0  0  0  0  0  0
  -22.3533  -14.5525   20.6709 O   0  0  0  0  0  0
  -24.6337  -31.8549   23.1986 C   0  0  0  0  0  0
  -25.9156  -32.4753   23.8334 C   0  0  1  0  0  0
  -27.2260  -27.2543   20.1117 C   0  0  0  0  0  0
  -25.5944  -33.8555   24.2254 N   0  0  0  0  0  0
  -23.4307  -30.4797   21.5433 C   0  0  2  0  0  0
  -24.8773  -28.9302   20.1106 C   0  0  0  0  0  0
  -22.7516  -29.4605   22.4908 C   0  0  0  0  0  0
  -18.0295  -28.1389   22.8483 C   0  0  0  0  0  0
  -24.1490  -36.7281   23.2639 C   0  0  0  0  0  0
  -25.9800  -30.7651   21.3805 C   0  0  0  0  0  0
  -26.0531  -29.3889   20.7176 C   0  0  0  0  0  0
  -27.2276  -28.5641   20.7084 C   0  0  0  0  0  0
  -26.0092  -26.8626   19.4989 C   0  0  0  0  0  0
  -24.8609  -27.6740   19.4930 C   0  0  0  0  0  0
  -23.6493  -29.8182   20.1588 C   0  0  0  0  0  0
  -25.4118  -36.3068   24.0324 C   0  0  1  0  0  0
  -20.5902  -28.3706   23.1261 C   0  0  2  0  0  0
  -20.6784  -26.9421   22.5404 C   0  0  0  0  0  0
  -19.5755  -26.6385   21.5211 C   0  0  0  0  0  0
  -18.1937  -26.7930   22.1626 C   0  0  0  0  0  0
  -19.1549  -28.8863   23.2867 C   0  0  0  0  0  0
  -18.9469  -30.1463   23.8887 C   0  0  0  0  0  0
  -17.6467  -30.6589   24.0562 C   0  0  0  0  0  0
  -25.9061  -34.9439   23.5091 C   0  0  0  0  0  0
  -16.5358  -29.9084   23.6333 C   0  0  0  0  0  0
  -16.7281  -28.6502   23.0354 C   0  0  0  0  0  0
  -26.4511  -31.6582   25.0731 C   0  0  0  0  0  0
  -25.3724  -31.3738   26.1443 C   0  0  0  0  0  0
  -27.0363  -30.2995   24.6234 C   0  0  0  0  0  0
  -27.6058  -32.4328   25.7509 C   0  0  0  0  0  0
  -27.5579  -37.1797   24.8465 C   0  0  0  0  0  0
  -21.4221  -29.3051   22.3650 N   0  0  0  0  0  0
  -26.4290  -37.3769   23.9408 N   0  0  0  0  0  0
  -24.7009  -31.0507   22.0969 N   0  0  0  0  0  0
  -23.4209  -28.8139   23.3006 O   0  0  0  0  0  0
  -28.3164  -26.3407   20.1783 O   0  0  0  0  0  0
  -26.5633  -34.8915   22.4660 O   0  0  0  0  0  0
  -23.5483  -32.1375   23.7273 O   0  0  0  0  0  0
  -28.3545  -19.3300   19.9913 C   0  0  0  0  0  0
  -30.5668  -19.6337   20.7255 C   0  0  0  0  0  0
  -28.5010  -17.9112   20.1167 C   0  0  0  0  0  0
  -30.7469  -18.2015   20.8233 C   0  0  0  0  0  0
  -29.3636  -20.2939   20.2959 C   0  0  0  0  0  0
  -29.7042  -17.2759   20.5266 C   0  0  0  0  0  0
  -28.6488  -23.7647   19.8539 C   0  0  0  0  0  0
  -28.4603  -22.5188   19.1304 C   0  0  0  0  0  0
  -29.3401  -22.9801   20.8743 C   0  0  0  0  0  0
  -28.2379  -25.0630   19.5412 C   0  0  0  0  0  0
  -29.1311  -21.7616   20.1292 N   0  0  0  0  0  0
  -29.7050  -15.8007   20.7201 N   0  0  0  0  0  0
  -27.9000  -22.2909   18.0756 O   0  0  0  0  0  0
  -29.8478  -23.3033   21.9306 O   0  0  0  0  0  0
  -31.4871  -12.6099   19.1590 H   0  0  0  0  0  0
  -30.4166  -11.4739   19.9340 H   0  0  0  0  0  0
  -29.7994  -11.7480   17.5112 H   0  0  0  0  0  0
  -29.6368  -13.4724   17.7258 H   0  0  0  0  0  0
  -27.8998  -11.2808   18.9035 H   0  0  0  0  0  0
  -27.3835  -12.5292   17.8011 H   0  0  0  0  0  0
  -27.6488  -14.2464   19.4862 H   0  0  0  0  0  0
  -28.7344  -12.1114   21.3927 H   0  0  0  0  0  0
  -28.4265  -13.7698   21.8258 H   0  0  0  0  0  0
  -25.2763   -9.5673   22.4762 H   0  0  0  0  0  0
  -23.9998   -7.4627   22.7474 H   0  0  0  0  0  0
  -21.0841   -8.8774   19.8952 H   0  0  0  0  0  0
  -22.3702  -10.9671   19.6168 H   0  0  0  0  0  0
  -21.2005   -7.6147   23.9715 H   0  0  0  0  0  0
  -21.1481   -6.0522   25.9078 H   0  0  0  0  0  0
  -22.0599   -2.7608   23.2847 H   0  0  0  0  0  0
  -22.4096  -11.9876   22.4812 H   0  0  0  0  0  0
  -21.1101  -13.1243   22.2624 H   0  0  0  0  0  0
  -24.6449  -15.8332   20.4974 H   0  0  0  0  0  0
  -26.2473  -15.6169   20.0115 H   0  0  0  0  0  0
  -26.7223  -32.5398   23.1075 H   0  0  0  0  0  0
  -25.0085  -33.9690   25.0395 H   0  0  0  0  0  0
  -22.7278  -31.3028   21.3986 H   0  0  0  0  0  0
  -23.3755  -35.9611   23.3296 H   0  0  0  0  0  0
  -24.3580  -36.8912   22.2055 H   0  0  0  0  0  0
  -23.7241  -37.6478   23.6670 H   0  0  0  0  0  0
  -26.1229  -31.5281   20.6140 H   0  0  0  0  0  0
  -26.8558  -30.8104   22.0163 H   0  0  0  0  0  0
  -28.1265  -28.9115   21.1980 H   0  0  0  0  0  0
  -25.8875  -25.8929   19.0430 H   0  0  0  0  0  0
  -23.9563  -27.3098   19.0253 H   0  0  0  0  0  0
  -23.7762  -30.5966   19.4055 H   0  0  0  0  0  0
  -22.7667  -29.2545   19.8510 H   0  0  0  0  0  0
  -25.1300  -36.1911   25.0817 H   0  0  0  0  0  0
  -20.9994  -28.3284   24.1382 H   0  0  0  0  0  0
  -20.5686  -26.2315   23.3611 H   0  0  0  0  0  0
  -21.6651  -26.7443   22.1196 H   0  0  0  0  0  0
  -19.6919  -25.6292   21.1246 H   0  0  0  0  0  0
  -19.6691  -27.3190   20.6736 H   0  0  0  0  0  0
  -17.4206  -26.6674   21.4031 H   0  0  0  0  0  0
  -18.0342  -26.0075   22.9025 H   0  0  0  0  0  0
  -19.7944  -30.7283   24.2252 H   0  0  0  0  0  0
  -17.5020  -31.6268   24.5165 H   0  0  0  0  0  0
  -15.5358  -30.2983   23.7663 H   0  0  0  0  0  0
  -15.8681  -28.0818   22.7075 H   0  0  0  0  0  0
  -24.5904  -30.7082   25.7767 H   0  0  0  0  0  0
  -24.8910  -32.2909   26.4847 H   0  0  0  0  0  0
  -25.8032  -30.8927   27.0233 H   0  0  0  0  0  0
  -26.2957  -29.6736   24.1241 H   0  0  0  0  0  0
  -27.4018  -29.7265   25.4766 H   0  0  0  0  0  0
  -27.8847  -30.4261   23.9504 H   0  0  0  0  0  0
  -27.2660  -33.3635   26.2065 H   0  0  0  0  0  0
  -28.3881  -32.6878   25.0348 H   0  0  0  0  0  0
  -28.0711  -31.8468   26.5444 H   0  0  0  0  0  0
  -28.2592  -38.0099   24.7515 H   0  0  0  0  0  0
  -28.1080  -36.2629   24.6288 H   0  0  0  0  0  0
  -27.2296  -37.1441   25.8868 H   0  0  0  0  0  0
  -20.9409  -29.8778   21.6857 H   0  0  0  0  0  0
  -26.0167  -38.2841   24.1411 H   0  0  0  0  0  0
  -27.3918  -19.6921   19.6584 H   0  0  0  0  0  0
  -31.4144  -20.2538   20.9801 H   0  0  0  0  0  0
  -27.6402  -17.3007   19.8860 H   0  0  0  0  0  0
  -31.7001  -17.8230   21.1645 H   0  0  0  0  0  0
  -27.7683  -25.1745   18.5753 H   0  0  0  0  0  0
  -28.7878  -15.4347   20.9226 H   0  0  0  0  0  0
  1 25  1  0  0  0
  1 30  2  0  0  0
  1 82  1  0  0  0
  2  3  1  0  0  0
  2 25  1  0  0  0
  2 85  1  0  0  0
  2 86  1  0  0  0
  3  4  1  0  0  0
  3 87  1  0  0  0
  3 88  1  0  0  0
  4  5  1  0  0  0
  4 89  1  0  0  0
  4 90  1  0  0  0
  5  6  1  0  0  0
  5 26  1  0  0  0
  5 91  1  0  0  0
  6 25  1  0  0  0
  6 92  1  0  0  0
  6 93  1  0  0  0
  7  8  2  0  0  0
  7 26  1  0  0  0
  7 29  1  0  0  0
  8  9  1  0  0  0
  8 22  1  0  0  0
  9 10  1  0  0  0
  9 27  2  0  0  0
 10 11  2  0  0  0
 10 15  1  0  0  0
 11 12  1  0  0  0
 11 94  1  0  0  0
 12 13  2  0  0  0
 12 95  1  0  0  0
 13 14  1  0  0  0
 13 31  1  0  0  0
 14 15  2  0  0  0
 14 96  1  0  0  0
 15 97  1  0  0  0
 16 17  2  0  0  0
 16 21  1  0  0  0
 16 31  1  0  0  0
 17 18  1  0  0  0
 17 98  1  0  0  0
 18 19  2  0  0  0
 18 99  1  0  0  0
 19 20  1  0  0  0
 19 24  1  0  0  0
 20 21  2  0  0  0
 20100  1  0  0  0
 21 23  1  0  0  0
 22 28  1  0  0  0
 22 32  2  0  0  0
 26 27  1  0  0  0
 28101  1  0  0  0
 28102  1  0  0  0
 29103  1  0  0  0
 29104  1  0  0  0
 33 34  1  0  0  0
 33 66  1  0  0  0
 33 70  2  0  0  0
 34 36  1  0  0  0
 34 59  1  0  0  0
 34105  1  0  0  0
 35 44  2  0  0  0
 35 45  1  0  0  0
 35 68  1  0  0  0
 36 56  1  0  0  0
 36106  1  0  0  0
 37 39  1  0  0  0
 37 47  1  0  0  0
 37 66  1  0  0  0
 37107  1  0  0  0
 38 43  2  0  0  0
 38 46  1  0  0  0
 38 47  1  0  0  0
 39 64  1  0  0  0
 39 67  2  0  0  0
 40 52  1  0  0  0
 40 53  2  0  0  0
 40 58  1  0  0  0
 41108  1  0  0  0
 41109  1  0  0  0
 41110  1  0  0  0
 41 48  1  0  0  0
 42 43  1  0  0  0
 42 66  1  0  0  0
 42111  1  0  0  0
 42112  1  0  0  0
 43 44  1  0  0  0
 44113  1  0  0  0
 45 46  2  0  0  0
 45114  1  0  0  0
 46115  1  0  0  0
 47116  1  0  0  0
 47117  1  0  0  0
 48 56  1  0  0  0
 48 65  1  0  0  0
 48118  1  0  0  0
 49 50  1  0  0  0
 49 53  1  0  0  0
 49 64  1  0  0  0
 49119  1  0  0  0
 50 51  1  0  0  0
 50120  1  0  0  0
 50121  1  0  0  0
 51 52  1  0  0  0
 51122  1  0  0  0
 51123  1  0  0  0
 52124  1  0  0  0
 52125  1  0  0  0
 53 54  1  0  0  0
 54 55  2  0  0  0
 54126  1  0  0  0
 55 57  1  0  0  0
 55127  1  0  0  0
 56 69  2  0  0  0
 57 58  2  0  0  0
 57128  1  0  0  0
 58129  1  0  0  0
 59 60  1  0  0  0
 59 61  1  0  0  0
 59 62  1  0  0  0
 60130  1  0  0  0
 60131  1  0  0  0
 60132  1  0  0  0
 61133  1  0  0  0
 61134  1  0  0  0
 61135  1  0  0  0
 62136  1  0  0  0
 62137  1  0  0  0
 62138  1  0  0  0
 63 65  1  0  0  0
 63139  1  0  0  0
 63140  1  0  0  0
 63141  1  0  0  0
 64142  1  0  0  0
 65143  1  0  0  0
 68 80  1  0  0  0
 71 73  2  0  0  0
 71 75  1  0  0  0
 71144  1  0  0  0
 72 74  1  0  0  0
 72 75  2  0  0  0
 72145  1  0  0  0
 73 76  1  0  0  0
 73146  1  0  0  0
 74 76  2  0  0  0
 74147  1  0  0  0
 75 81  1  0  0  0
 76 82  1  0  0  0
 77 78  1  0  0  0
 77 79  1  0  0  0
 77 80  2  0  0  0
 78 81  1  0  0  0
 78 83  2  0  0  0
 79 81  1  0  0  0
 79 84  2  0  0  0
 80148  1  0  0  0
 82149  1  0  0  0
M  ISO  4   1 100  68 101  80 101  82 100
M  END
> <chiral flag>
0

> <version>
0

> <s_m_source_file>
/data/baiqing/PycharmProjects/Reinvent-master-3.2/result/LINK_invent/BTK/process_docking_weight1_custom_product_contain_oxygen_bond_distance_aromatic_linkinvent_7_9_3/rearranged_h_0082.sdf

> <i_m_source_file_index>
9

> <r_mmod_Potential_Energy-OPLS-2005>
205.04655456543

> <r_mmod_Stretch_Energy-OPLS-2005>
112.029167175293

> <r_mmod_Bend_Energy-OPLS-2005>
265.751098632812

> <r_mmod_Torsional_Energy-OPLS-2005>
227.429061889648

> <r_mmod_Improper_Torsional_Energy-OPLS-2005>
5.86768484115601

> <r_mmod_Van_der_Waal_Energy-OPLS-2005>
136.00553894043

> <r_mmod_Electrostatic_Energy-OPLS-2005>
-398.190032958984

> <r_mmod_Solvation_Energy-OPLS-2005>
-233.616638183594

> <b_mmod_Minimization_Converged-OPLS-2005>
0

> <r_mmod_RMS_Derivative-OPLS-2005>
0.452697724103928

$$$$
9
                    3D
 Structure written by MMmdl.
150158  0  0  1  0            999 V2000
  -30.6023  -14.6861   20.4894 C   0  0  0  0  0  0
  -30.4451  -12.4195   19.4598 C   0  0  0  0  0  0
  -29.5129  -12.5131   18.2301 C   0  0  0  0  0  0
  -28.0363  -12.3433   18.6418 C   0  0  0  0  0  0
  -27.6533  -13.2194   19.8643 C   0  0  2  0  0  0
  -28.6996  -13.0894   20.9944 C   0  0  0  0  0  0
  -25.2547  -13.8164   20.5679 C   0  0  0  0  0  0
  -24.1813  -13.0424   20.9158 C   0  0  0  0  0  0
  -24.6395  -11.6902   20.8720 C   0  0  0  0  0  0
  -23.9063  -10.4286   21.0395 C   0  0  0  0  0  0
  -24.3614   -9.4205   21.9176 C   0  0  0  0  0  0
  -23.6287   -8.2243   22.0753 C   0  0  0  0  0  0
  -22.4268   -8.0279   21.3546 C   0  0  0  0  0  0
  -21.9902   -9.0251   20.4646 C   0  0  0  0  0  0
  -22.7232  -10.2129   20.3050 C   0  0  0  0  0  0
  -21.6854   -6.0728   22.5276 C   0  0  0  0  0  0
  -21.4018   -6.5632   23.8211 C   0  0  0  0  0  0
  -21.3659   -5.6785   24.9174 C   0  0  0  0  0  0
  -21.6043   -4.3049   24.7224 C   0  0  0  0  0  0
  -21.8820   -3.8140   23.4346 C   0  0  0  0  0  0
  -21.9194   -4.6955   22.3400 C   0  0  0  0  0  0
  -22.7839  -13.5221   21.1832 C   0  0  0  0  0  0
  -22.1663   -4.2142   21.0977 F   0  0  0  0  0  0
  -21.5626   -3.4535   25.7737 F   0  0  0  0  0  0
  -30.0115  -13.4467   20.4300 N   0  0  0  0  0  0
  -26.2994  -12.9356   20.3337 N   0  0  0  0  0  0
  -25.9331  -11.6505   20.5757 N   0  0  0  0  0  0
  -22.0486  -12.8226   22.0403 N   0  0  0  0  0  0
  -25.4227  -15.1888   20.4140 N   0  0  0  0  0  0
  -31.7645  -14.8538   20.1066 O   0  0  0  0  0  0
  -21.6637   -6.8873   21.4240 O   0  0  0  0  0  0
  -22.3518  -14.5527   20.6683 O   0  0  0  0  0  0
  -24.6276  -31.8579   23.2014 C   0  0  0  0  0  0
  -25.9116  -32.4768   23.8348 C   0  0  1  0  0  0
  -27.2274  -27.3013   20.1247 C   0  0  0  0  0  0
  -25.5921  -33.8569   24.2275 N   0  0  0  0  0  0
  -23.4232  -30.4800   21.5440 C   0  0  2  0  0  0
  -24.8728  -28.9313   20.1118 C   0  0  0  0  0  0
  -22.7484  -29.4610   22.4931 C   0  0  0  0  0  0
  -18.0285  -28.1389   22.8484 C   0  0  0  0  0  0
  -24.1488  -36.7292   23.2637 C   0  0  0  0  0  0
  -25.9658  -30.7819   21.3775 C   0  0  0  0  0  0
  -26.0413  -29.4065   20.7221 C   0  0  0  0  0  0
  -27.2219  -28.6016   20.7223 C   0  0  0  0  0  0
  -26.0404  -26.8865   19.4816 C   0  0  0  0  0  0
  -24.8745  -27.6763   19.4827 C   0  0  0  0  0  0
  -23.6406  -29.8135   20.1599 C   0  0  0  0  0  0
  -25.4109  -36.3076   24.0330 C   0  0  1  0  0  0
  -20.5886  -28.3692   23.1282 C   0  0  2  0  0  0
  -20.6777  -26.9412   22.5413 C   0  0  0  0  0  0
  -19.5753  -26.6383   21.5215 C   0  0  0  0  0  0
  -18.1931  -26.7931   22.1623 C   0  0  0  0  0  0
  -19.1538  -28.8858   23.2878 C   0  0  0  0  0  0
  -18.9460  -30.1458   23.8895 C   0  0  0  0  0  0
  -17.6459  -30.6589   24.0562 C   0  0  0  0  0  0
  -25.9048  -34.9446   23.5105 C   0  0  0  0  0  0
  -16.5350  -29.9087   23.6331 C   0  0  0  0  0  0
  -16.7270  -28.6505   23.0351 C   0  0  0  0  0  0
  -26.4492  -31.6582   25.0725 C   0  0  0  0  0  0
  -25.3719  -31.3737   26.1451 C   0  0  0  0  0  0
  -27.0334  -30.2998   24.6202 C   0  0  0  0  0  0
  -27.6053  -32.4317   25.7490 C   0  0  0  0  0  0
  -27.5587  -37.1788   24.8454 C   0  0  0  0  0  0
  -21.4196  -29.3039   22.3672 N   0  0  0  0  0  0
  -26.4284  -37.3776   23.9418 N   0  0  0  0  0  0
  -24.6908  -31.0570   22.0977 N   0  0  0  0  0  0
  -23.4197  -28.8149   23.3020 O   0  0  0  0  0  0
  -28.3282  -26.4251   20.1453 O   0  0  0  0  0  0
  -26.5622  -34.8917   22.4675 O   0  0  0  0  0  0
  -23.5434  -32.1388   23.7328 O   0  0  0  0  0  0
  -30.7636  -19.4068   20.0556 C   0  0  0  0  0  0
  -30.8747  -17.9815   20.1798 C   0  0  0  0  0  0
  -28.5285  -19.3341   20.9146 C   0  0  0  0  0  0
  -29.5916  -20.1389   20.4158 C   0  0  0  0  0  0
  -29.8046  -17.1891   20.6781 C   0  0  0  0  0  0
  -28.6355  -17.9136   21.0389 C   0  0  0  0  0  0
  -28.1086  -25.0501   20.4229 C   0  0  0  0  0  0
  -28.9623  -23.9902   20.1910 C   0  0  0  0  0  0
  -28.6016  -22.5679   20.5330 C   0  0  0  0  0  0
  -29.5527  -21.6116   20.2496 N   0  0  0  0  0  0
  -29.7778  -15.7258   20.8472 N   0  0  0  0  0  0
  -27.5213  -22.2598   21.0396 O   0  0  0  0  0  0
  -30.1605  -24.2319   19.6384 O   0  0  0  0  0  0
  -27.5747  -17.2173   21.5144 F   0  0  0  0  0  0
  -31.4846  -12.5543   19.1561 H   0  0  0  0  0  0
  -30.3914  -11.4270   19.9102 H   0  0  0  0  0  0
  -29.7845  -11.7571   17.4921 H   0  0  0  0  0  0
  -29.6469  -13.4789   17.7409 H   0  0  0  0  0  0
  -27.8801  -11.2906   18.8798 H   0  0  0  0  0  0
  -27.3811  -12.5644   17.7985 H   0  0  0  0  0  0
  -27.6650  -14.2522   19.5151 H   0  0  0  0  0  0
  -28.7220  -12.0694   21.3813 H   0  0  0  0  0  0
  -28.4382  -13.7223   21.8438 H   0  0  0  0  0  0
  -25.2760   -9.5682   22.4747 H   0  0  0  0  0  0
  -23.9995   -7.4636   22.7475 H   0  0  0  0  0  0
  -21.0832   -8.8770   19.8954 H   0  0  0  0  0  0
  -22.3690  -10.9666   19.6158 H   0  0  0  0  0  0
  -21.2016   -7.6141   23.9713 H   0  0  0  0  0  0
  -21.1477   -6.0516   25.9076 H   0  0  0  0  0  0
  -22.0600   -2.7603   23.2848 H   0  0  0  0  0  0
  -22.4099  -11.9892   22.4799 H   0  0  0  0  0  0
  -21.1112  -13.1270   22.2614 H   0  0  0  0  0  0
  -24.6613  -15.8414   20.5615 H   0  0  0  0  0  0
  -26.2981  -15.6516   20.2056 H   0  0  0  0  0  0
  -26.7184  -32.5435   23.1095 H   0  0  0  0  0  0
  -25.0056  -33.9710   25.0410 H   0  0  0  0  0  0
  -22.7179  -31.3010   21.3992 H   0  0  0  0  0  0
  -23.3756  -35.9616   23.3275 H   0  0  0  0  0  0
  -24.3592  -36.8934   22.2056 H   0  0  0  0  0  0
  -23.7230  -37.6482   23.6675 H   0  0  0  0  0  0
  -26.0993  -31.5440   20.6085 H   0  0  0  0  0  0
  -26.8452  -30.8325   22.0078 H   0  0  0  0  0  0
  -28.1182  -28.9590   21.2097 H   0  0  0  0  0  0
  -26.0048  -25.9256   18.9881 H   0  0  0  0  0  0
  -23.9810  -27.3082   18.9974 H   0  0  0  0  0  0
  -23.7605  -30.5898   19.4033 H   0  0  0  0  0  0
  -22.7606  -29.2433   19.8570 H   0  0  0  0  0  0
  -25.1283  -36.1925   25.0821 H   0  0  0  0  0  0
  -20.9972  -28.3269   24.1405 H   0  0  0  0  0  0
  -20.5679  -26.2297   23.3613 H   0  0  0  0  0  0
  -21.6646  -26.7447   22.1205 H   0  0  0  0  0  0
  -19.6914  -25.6293   21.1247 H   0  0  0  0  0  0
  -19.6692  -27.3190   20.6743 H   0  0  0  0  0  0
  -17.4201  -26.6675   21.4027 H   0  0  0  0  0  0
  -18.0329  -26.0077   22.9022 H   0  0  0  0  0  0
  -19.7936  -30.7276   24.2263 H   0  0  0  0  0  0
  -17.5014  -31.6272   24.5161 H   0  0  0  0  0  0
  -15.5352  -30.2988   23.7660 H   0  0  0  0  0  0
  -15.8669  -28.0822   22.7071 H   0  0  0  0  0  0
  -24.5880  -30.7101   25.7781 H   0  0  0  0  0  0
  -24.8926  -32.2912   26.4876 H   0  0  0  0  0  0
  -25.8030  -30.8910   27.0229 H   0  0  0  0  0  0
  -26.2915  -29.6748   24.1217 H   0  0  0  0  0  0
  -27.4004  -29.7258   25.4722 H   0  0  0  0  0  0
  -27.8797  -30.4271   23.9447 H   0  0  0  0  0  0
  -27.2664  -33.3614   26.2075 H   0  0  0  0  0  0
  -28.3854  -32.6884   25.0309 H   0  0  0  0  0  0
  -28.0733  -31.8439   26.5397 H   0  0  0  0  0  0
  -28.2569  -38.0122   24.7555 H   0  0  0  0  0  0
  -28.1119  -36.2657   24.6204 H   0  0  0  0  0  0
  -27.2319  -37.1346   25.8858 H   0  0  0  0  0  0
  -20.9377  -29.8755   21.6874 H   0  0  0  0  0  0
  -26.0164  -38.2842   24.1452 H   0  0  0  0  0  0
  -31.6166  -19.9458   19.6667 H   0  0  0  0  0  0
  -31.7985  -17.5059   19.8832 H   0  0  0  0  0  0
  -27.5965  -19.7889   21.2115 H   0  0  0  0  0  0
  -27.1386  -24.8862   20.8759 H   0  0  0  0  0  0
  -30.3835  -22.0286   19.8485 H   0  0  0  0  0  0
  -28.8880  -15.4006   21.1947 H   0  0  0  0  0  0
  -30.2117  -25.1691   19.4958 H   0  0  0  0  0  0
  1 25  1  0  0  0
  1 30  2  0  0  0
  1 81  1  0  0  0
  2  3  1  0  0  0
  2 25  1  0  0  0
  2 85  1  0  0  0
  2 86  1  0  0  0
  3  4  1  0  0  0
  3 87  1  0  0  0
  3 88  1  0  0  0
  4  5  1  0  0  0
  4 89  1  0  0  0
  4 90  1  0  0  0
  5  6  1  0  0  0
  5 26  1  0  0  0
  5 91  1  0  0  0
  6 25  1  0  0  0
  6 92  1  0  0  0
  6 93  1  0  0  0
  7  8  2  0  0  0
  7 26  1  0  0  0
  7 29  1  0  0  0
  8  9  1  0  0  0
  8 22  1  0  0  0
  9 10  1  0  0  0
  9 27  2  0  0  0
 10 11  2  0  0  0
 10 15  1  0  0  0
 11 12  1  0  0  0
 11 94  1  0  0  0
 12 13  2  0  0  0
 12 95  1  0  0  0
 13 14  1  0  0  0
 13 31  1  0  0  0
 14 15  2  0  0  0
 14 96  1  0  0  0
 15 97  1  0  0  0
 16 17  2  0  0  0
 16 21  1  0  0  0
 16 31  1  0  0  0
 17 18  1  0  0  0
 17 98  1  0  0  0
 18 19  2  0  0  0
 18 99  1  0  0  0
 19 20  1  0  0  0
 19 24  1  0  0  0
 20 21  2  0  0  0
 20100  1  0  0  0
 21 23  1  0  0  0
 22 28  1  0  0  0
 22 32  2  0  0  0
 26 27  1  0  0  0
 28101  1  0  0  0
 28102  1  0  0  0
 29103  1  0  0  0
 29104  1  0  0  0
 33 34  1  0  0  0
 33 66  1  0  0  0
 33 70  2  0  0  0
 34 36  1  0  0  0
 34 59  1  0  0  0
 34105  1  0  0  0
 35 44  2  0  0  0
 35 45  1  0  0  0
 35 68  1  0  0  0
 36 56  1  0  0  0
 36106  1  0  0  0
 37 39  1  0  0  0
 37 47  1  0  0  0
 37 66  1  0  0  0
 37107  1  0  0  0
 38 43  2  0  0  0
 38 46  1  0  0  0
 38 47  1  0  0  0
 39 64  1  0  0  0
 39 67  2  0  0  0
 40 52  1  0  0  0
 40 53  2  0  0  0
 40 58  1  0  0  0
 41108  1  0  0  0
 41109  1  0  0  0
 41110  1  0  0  0
 41 48  1  0  0  0
 42 43  1  0  0  0
 42 66  1  0  0  0
 42111  1  0  0  0
 42112  1  0  0  0
 43 44  1  0  0  0
 44113  1  0  0  0
 45 46  2  0  0  0
 45114  1  0  0  0
 46115  1  0  0  0
 47116  1  0  0  0
 47117  1  0  0  0
 48 56  1  0  0  0
 48 65  1  0  0  0
 48118  1  0  0  0
 49 50  1  0  0  0
 49 53  1  0  0  0
 49 64  1  0  0  0
 49119  1  0  0  0
 50 51  1  0  0  0
 50120  1  0  0  0
 50121  1  0  0  0
 51 52  1  0  0  0
 51122  1  0  0  0
 51123  1  0  0  0
 52124  1  0  0  0
 52125  1  0  0  0
 53 54  1  0  0  0
 54 55  2  0  0  0
 54126  1  0  0  0
 55 57  1  0  0  0
 55127  1  0  0  0
 56 69  2  0  0  0
 57 58  2  0  0  0
 57128  1  0  0  0
 58129  1  0  0  0
 59 60  1  0  0  0
 59 61  1  0  0  0
 59 62  1  0  0  0
 60130  1  0  0  0
 60131  1  0  0  0
 60132  1  0  0  0
 61133  1  0  0  0
 61134  1  0  0  0
 61135  1  0  0  0
 62136  1  0  0  0
 62137  1  0  0  0
 62138  1  0  0  0
 63 65  1  0  0  0
 63139  1  0  0  0
 63140  1  0  0  0
 63141  1  0  0  0
 64142  1  0  0  0
 65143  1  0  0  0
 68 77  1  0  0  0
 71 72  2  0  0  0
 71 74  1  0  0  0
 71144  1  0  0  0
 72 75  1  0  0  0
 72145  1  0  0  0
 73 74  2  0  0  0
 73 76  1  0  0  0
 73146  1  0  0  0
 74 80  1  0  0  0
 75 76  2  0  0  0
 75 81  1  0  0  0
 76 84  1  0  0  0
 77 78  2  0  0  0
 77147  1  0  0  0
 78 79  1  0  0  0
 78 83  1  0  0  0
 79 80  1  0  0  0
 79 82  2  0  0  0
 80148  1  0  0  0
 81149  1  0  0  0
 83150  1  0  0  0
M  ISO  4   1 100  68 101  77 101  81 100
M  END
> <chiral flag>
0

> <version>
0

> <s_m_source_file>
/data/baiqing/PycharmProjects/Reinvent-master-3.2/result/LINK_invent/BTK/process_docking_weight1_custom_product_contain_oxygen_bond_distance_aromatic_linkinvent_7_9_3/rearranged_h_0082.sdf

> <i_m_source_file_index>
10

> <r_mmod_Potential_Energy-OPLS-2005>
-27.2929592132568

> <r_mmod_Stretch_Energy-OPLS-2005>
88.6991806030273

> <r_mmod_Bend_Energy-OPLS-2005>
147.536422729492

> <r_mmod_Torsional_Energy-OPLS-2005>
205.766189575195

> <r_mmod_Improper_Torsional_Energy-OPLS-2005>
3.61781811714172

> <r_mmod_Van_der_Waal_Energy-OPLS-2005>
145.098480224609

> <r_mmod_Electrostatic_Energy-OPLS-2005>
-467.958587646484

> <r_mmod_Solvation_Energy-OPLS-2005>
-211.342819213867

> <b_mmod_Minimization_Converged-OPLS-2005>
0

> <r_mmod_RMS_Derivative-OPLS-2005>
0.558009803295135

$$$$
10
                    3D
 Structure written by MMmdl.
163172  0  0  1  0            999 V2000
  -30.7333  -14.4569   20.5873 C   0  0  0  0  0  0
  -30.4093  -12.2975   19.4330 C   0  0  0  0  0  0
  -29.4921  -12.5055   18.2113 C   0  0  0  0  0  0
  -28.0119  -12.3737   18.6182 C   0  0  0  0  0  0
  -27.6578  -13.2172   19.8724 C   0  0  2  0  0  0
  -28.6967  -13.0174   20.9973 C   0  0  0  0  0  0
  -25.2555  -13.8173   20.5691 C   0  0  0  0  0  0
  -24.1812  -13.0435   20.9178 C   0  0  0  0  0  0
  -24.6389  -11.6914   20.8742 C   0  0  0  0  0  0
  -23.9059  -10.4293   21.0407 C   0  0  0  0  0  0
  -24.3605   -9.4206   21.9185 C   0  0  0  0  0  0
  -23.6285   -8.2239   22.0747 C   0  0  0  0  0  0
  -22.4269   -8.0275   21.3540 C   0  0  0  0  0  0
  -21.9907   -9.0245   20.4637 C   0  0  0  0  0  0
  -22.7229  -10.2130   20.3054 C   0  0  0  0  0  0
  -21.6853   -6.0729   22.5279 C   0  0  0  0  0  0
  -21.4022   -6.5638   23.8218 C   0  0  0  0  0  0
  -21.3662   -5.6791   24.9178 C   0  0  0  0  0  0
  -21.6044   -4.3053   24.7229 C   0  0  0  0  0  0
  -21.8818   -3.8143   23.4357 C   0  0  0  0  0  0
  -21.9190   -4.6958   22.3408 C   0  0  0  0  0  0
  -22.7837  -13.5221   21.1845 C   0  0  0  0  0  0
  -22.1645   -4.2139   21.0987 F   0  0  0  0  0  0
  -21.5639   -3.4543   25.7751 F   0  0  0  0  0  0
  -30.0314  -13.2976   20.4460 N   0  0  0  0  0  0
  -26.3002  -12.9373   20.3374 N   0  0  0  0  0  0
  -25.9318  -11.6512   20.5772 N   0  0  0  0  0  0
  -22.0481  -12.8210   22.0405 N   0  0  0  0  0  0
  -25.4262  -15.1896   20.4128 N   0  0  0  0  0  0
  -31.8623  -14.5725   20.1013 O   0  0  0  0  0  0
  -21.6634   -6.8869   21.4241 O   0  0  0  0  0  0
  -22.3520  -14.5522   20.6697 O   0  0  0  0  0  0
  -24.6149  -31.8702   23.2141 C   0  0  0  0  0  0
  -25.9048  -32.4838   23.8429 C   0  0  1  0  0  0
  -27.2242  -27.4383   20.1118 C   0  0  0  0  0  0
  -25.5925  -33.8641   24.2359 N   0  0  0  0  0  0
  -23.4041  -30.4936   21.5531 C   0  0  2  0  0  0
  -24.8517  -28.9661   20.1129 C   0  0  0  0  0  0
  -22.7411  -29.4666   22.5001 C   0  0  0  0  0  0
  -18.0264  -28.1390   22.8489 C   0  0  0  0  0  0
  -24.1484  -36.7321   23.2636 C   0  0  0  0  0  0
  -25.9316  -30.8349   21.3713 C   0  0  0  0  0  0
  -26.0075  -29.4664   20.7291 C   0  0  0  0  0  0
  -27.1969  -28.7020   20.7427 C   0  0  0  0  0  0
  -26.0726  -26.9748   19.4502 C   0  0  0  0  0  0
  -24.8791  -27.7167   19.4708 C   0  0  0  0  0  0
  -23.6116  -29.8289   20.1661 C   0  0  0  0  0  0
  -25.4106  -36.3126   24.0339 C   0  0  1  0  0  0
  -20.5861  -28.3662   23.1325 C   0  0  2  0  0  0
  -20.6754  -26.9397   22.5429 C   0  0  0  0  0  0
  -19.5728  -26.6372   21.5231 C   0  0  0  0  0  0
  -18.1897  -26.7933   22.1632 C   0  0  0  0  0  0
  -19.1518  -28.8838   23.2903 C   0  0  0  0  0  0
  -18.9454  -30.1455   23.8894 C   0  0  0  0  0  0
  -17.6466  -30.6602   24.0556 C   0  0  0  0  0  0
  -25.9036  -34.9487   23.5134 C   0  0  0  0  0  0
  -16.5345  -29.9099   23.6330 C   0  0  0  0  0  0
  -16.7261  -28.6527   23.0341 C   0  0  0  0  0  0
  -26.4467  -31.6619   25.0754 C   0  0  0  0  0  0
  -25.3725  -31.3739   26.1504 C   0  0  0  0  0  0
  -27.0311  -30.3058   24.6149 C   0  0  0  0  0  0
  -27.6054  -32.4341   25.7501 C   0  0  0  0  0  0
  -27.5581  -37.1813   24.8463 C   0  0  0  0  0  0
  -21.4138  -29.3027   22.3721 N   0  0  0  0  0  0
  -26.4295  -37.3805   23.9409 N   0  0  0  0  0  0
  -24.6681  -31.0808   22.1048 N   0  0  0  0  0  0
  -23.4178  -28.8217   23.3051 O   0  0  0  0  0  0
  -28.3462  -26.6482   20.0759 O   0  0  0  0  0  0
  -26.5569  -34.8928   22.4681 O   0  0  0  0  0  0
  -23.5336  -32.1459   23.7520 O   0  0  0  0  0  0
  -28.7940  -19.6959   22.3043 C   0  0  0  0  0  0
  -29.3944  -20.3106   20.0347 C   0  0  0  0  0  0
  -29.1434  -18.3497   22.0323 C   0  0  0  0  0  0
  -29.7340  -18.9713   19.7669 C   0  0  0  0  0  0
  -28.9116  -20.6948   21.3036 C   0  0  0  0  0  0
  -29.6191  -17.9697   20.7567 C   0  0  0  0  0  0
  -28.5401  -22.6744   22.7730 C   0  0  0  0  0  0
  -28.5483  -22.1233   21.5395 C   0  0  0  0  0  0
  -30.0575  -16.5893   20.4109 C   0  0  0  0  0  0
  -25.7718  -23.8244   20.6370 C   0  0  0  0  0  0
  -28.1395  -24.1231   23.0652 C   0  0  0  0  0  0
  -28.1013  -23.0035   20.3734 C   0  0  0  0  0  0
  -27.6364  -24.9365   21.8346 C   0  0  1  0  0  0
  -25.2697  -22.7746   19.6439 C   0  0  0  0  0  0
  -28.6831  -25.9593   21.2888 C   0  0  0  0  0  0
  -30.0390  -15.5337   21.1426 N   0  0  0  0  0  0
  -27.1089  -23.9974   20.8199 N   0  0  0  0  0  0
  -24.9210  -24.4910   21.2308 O   0  0  0  0  0  0
  -31.4563  -12.3649   19.1329 H   0  0  0  0  0  0
  -30.2833  -11.2914   19.8376 H   0  0  0  0  0  0
  -29.7294  -11.7797   17.4327 H   0  0  0  0  0  0
  -29.6703  -13.4899   17.7768 H   0  0  0  0  0  0
  -27.8142  -11.3193   18.8126 H   0  0  0  0  0  0
  -27.3657  -12.6525   17.7853 H   0  0  0  0  0  0
  -27.6976  -14.2643   19.5707 H   0  0  0  0  0  0
  -28.6622  -11.9937   21.3738 H   0  0  0  0  0  0
  -28.4623  -13.6552   21.8512 H   0  0  0  0  0  0
  -25.2745   -9.5687   22.4761 H   0  0  0  0  0  0
  -23.9989   -7.4635   22.7469 H   0  0  0  0  0  0
  -21.0833   -8.8759   19.8946 H   0  0  0  0  0  0
  -22.3673  -10.9666   19.6165 H   0  0  0  0  0  0
  -21.2017   -7.6148   23.9720 H   0  0  0  0  0  0
  -21.1485   -6.0524   25.9080 H   0  0  0  0  0  0
  -22.0596   -2.7605   23.2867 H   0  0  0  0  0  0
  -22.4096  -11.9874   22.4796 H   0  0  0  0  0  0
  -21.1102  -13.1245   22.2608 H   0  0  0  0  0  0
  -24.6694  -15.8522   20.5386 H   0  0  0  0  0  0
  -26.2988  -15.6283   20.1460 H   0  0  0  0  0  0
  -26.7134  -32.5556   23.1213 H   0  0  0  0  0  0
  -25.0172  -33.9813   25.0568 H   0  0  0  0  0  0
  -22.6955  -31.3119   21.4131 H   0  0  0  0  0  0
  -23.3753  -35.9652   23.3309 H   0  0  0  0  0  0
  -24.3591  -36.8925   22.2053 H   0  0  0  0  0  0
  -23.7221  -37.6524   23.6633 H   0  0  0  0  0  0
  -26.0379  -31.5964   20.5971 H   0  0  0  0  0  0
  -26.8230  -30.8958   21.9837 H   0  0  0  0  0  0
  -28.0880  -29.0768   21.2264 H   0  0  0  0  0  0
  -26.0999  -26.0306   18.9266 H   0  0  0  0  0  0
  -23.9991  -27.3318   18.9749 H   0  0  0  0  0  0
  -23.7081  -30.6046   19.4059 H   0  0  0  0  0  0
  -22.7375  -29.2433   19.8752 H   0  0  0  0  0  0
  -25.1274  -36.2012   25.0833 H   0  0  0  0  0  0
  -20.9960  -28.3223   24.1447 H   0  0  0  0  0  0
  -20.5665  -26.2257   23.3606 H   0  0  0  0  0  0
  -21.6621  -26.7446   22.1214 H   0  0  0  0  0  0
  -19.6892  -25.6274   21.1290 H   0  0  0  0  0  0
  -19.6671  -27.3165   20.6747 H   0  0  0  0  0  0
  -17.4169  -26.6687   21.4027 H   0  0  0  0  0  0
  -18.0271  -26.0081   22.9023 H   0  0  0  0  0  0
  -19.7941  -30.7263   24.2246 H   0  0  0  0  0  0
  -17.5028  -31.6293   24.5144 H   0  0  0  0  0  0
  -15.5348  -30.3008   23.7657 H   0  0  0  0  0  0
  -15.8656  -28.0867   22.7040 H   0  0  0  0  0  0
  -24.5901  -30.7077   25.7851 H   0  0  0  0  0  0
  -24.8898  -32.2892   26.4937 H   0  0  0  0  0  0
  -25.8072  -30.8926   27.0272 H   0  0  0  0  0  0
  -26.2883  -29.6817   24.1167 H   0  0  0  0  0  0
  -27.4038  -29.7296   25.4628 H   0  0  0  0  0  0
  -27.8723  -30.4386   23.9343 H   0  0  0  0  0  0
  -27.2697  -33.3642   26.2101 H   0  0  0  0  0  0
  -28.3835  -32.6918   25.0302 H   0  0  0  0  0  0
  -28.0753  -31.8458   26.5389 H   0  0  0  0  0  0
  -28.2604  -38.0107   24.7519 H   0  0  0  0  0  0
  -28.1064  -36.2637   24.6272 H   0  0  0  0  0  0
  -27.2294  -37.1451   25.8865 H   0  0  0  0  0  0
  -20.9296  -29.8729   21.6930 H   0  0  0  0  0  0
  -26.0190  -38.2888   24.1413 H   0  0  0  0  0  0
  -28.4282  -19.9433   23.2903 H   0  0  0  0  0  0
  -29.5199  -21.0387   19.2460 H   0  0  0  0  0  0
  -29.0560  -17.6077   22.8143 H   0  0  0  0  0  0
  -30.1048  -18.7213   18.7831 H   0  0  0  0  0  0
  -28.8355  -22.0943   23.6354 H   0  0  0  0  0  0
  -30.4604  -16.5378   19.3919 H   0  0  0  0  0  0
  -28.9687  -24.6331   23.5564 H   0  0  0  0  0  0
  -27.3361  -24.0772   23.8029 H   0  0  0  0  0  0
  -27.7200  -22.3803   19.5672 H   0  0  0  0  0  0
  -28.9773  -23.4945   19.9498 H   0  0  0  0  0  0
  -26.8327  -25.5754   22.2048 H   0  0  0  0  0  0
  -25.6540  -22.9766   18.6440 H   0  0  0  0  0  0
  -24.1809  -22.7829   19.5844 H   0  0  0  0  0  0
  -25.5724  -21.7719   19.9484 H   0  0  0  0  0  0
  -29.6267  -25.4436   21.1088 H   0  0  0  0  0  0
  -28.9051  -26.6983   22.0612 H   0  0  0  0  0  0
  1 25  1  0  0  0
  1 30  2  0  0  0
  1 86  1  0  0  0
  2  3  1  0  0  0
  2 25  1  0  0  0
  2 89  1  0  0  0
  2 90  1  0  0  0
  3  4  1  0  0  0
  3 91  1  0  0  0
  3 92  1  0  0  0
  4  5  1  0  0  0
  4 93  1  0  0  0
  4 94  1  0  0  0
  5  6  1  0  0  0
  5 26  1  0  0  0
  5 95  1  0  0  0
  6 25  1  0  0  0
  6 96  1  0  0  0
  6 97  1  0  0  0
  7  8  2  0  0  0
  7 26  1  0  0  0
  7 29  1  0  0  0
  8  9  1  0  0  0
  8 22  1  0  0  0
  9 10  1  0  0  0
  9 27  2  0  0  0
 10 11  2  0  0  0
 10 15  1  0  0  0
 11 12  1  0  0  0
 11 98  1  0  0  0
 12 13  2  0  0  0
 12 99  1  0  0  0
 13 14  1  0  0  0
 13 31  1  0  0  0
 14 15  2  0  0  0
 14100  1  0  0  0
 15101  1  0  0  0
 16 17  2  0  0  0
 16 21  1  0  0  0
 16 31  1  0  0  0
 17 18  1  0  0  0
 17102  1  0  0  0
 18 19  2  0  0  0
 18103  1  0  0  0
 19 20  1  0  0  0
 19 24  1  0  0  0
 20 21  2  0  0  0
 20104  1  0  0  0
 21 23  1  0  0  0
 22 28  1  0  0  0
 22 32  2  0  0  0
 26 27  1  0  0  0
 28105  1  0  0  0
 28106  1  0  0  0
 29107  1  0  0  0
 29108  1  0  0  0
 33 34  1  0  0  0
 33 66  1  0  0  0
 33 70  2  0  0  0
 34 36  1  0  0  0
 34 59  1  0  0  0
 34109  1  0  0  0
 35 44  2  0  0  0
 35 45  1  0  0  0
 35 68  1  0  0  0
 36 56  1  0  0  0
 36110  1  0  0  0
 37 39  1  0  0  0
 37 47  1  0  0  0
 37 66  1  0  0  0
 37111  1  0  0  0
 38 43  2  0  0  0
 38 46  1  0  0  0
 38 47  1  0  0  0
 39 64  1  0  0  0
 39 67  2  0  0  0
 40 52  1  0  0  0
 40 53  2  0  0  0
 40 58  1  0  0  0
 41112  1  0  0  0
 41113  1  0  0  0
 41114  1  0  0  0
 41 48  1  0  0  0
 42 43  1  0  0  0
 42 66  1  0  0  0
 42115  1  0  0  0
 42116  1  0  0  0
 43 44  1  0  0  0
 44117  1  0  0  0
 45 46  2  0  0  0
 45118  1  0  0  0
 46119  1  0  0  0
 47120  1  0  0  0
 47121  1  0  0  0
 48 56  1  0  0  0
 48 65  1  0  0  0
 48122  1  0  0  0
 49 50  1  0  0  0
 49 53  1  0  0  0
 49 64  1  0  0  0
 49123  1  0  0  0
 50 51  1  0  0  0
 50124  1  0  0  0
 50125  1  0  0  0
 51 52  1  0  0  0
 51126  1  0  0  0
 51127  1  0  0  0
 52128  1  0  0  0
 52129  1  0  0  0
 53 54  1  0  0  0
 54 55  2  0  0  0
 54130  1  0  0  0
 55 57  1  0  0  0
 55131  1  0  0  0
 56 69  2  0  0  0
 57 58  2  0  0  0
 57132  1  0  0  0
 58133  1  0  0  0
 59 60  1  0  0  0
 59 61  1  0  0  0
 59 62  1  0  0  0
 60134  1  0  0  0
 60135  1  0  0  0
 60136  1  0  0  0
 61137  1  0  0  0
 61138  1  0  0  0
 61139  1  0  0  0
 62140  1  0  0  0
 62141  1  0  0  0
 62142  1  0  0  0
 63 65  1  0  0  0
 63143  1  0  0  0
 63144  1  0  0  0
 63145  1  0  0  0
 64146  1  0  0  0
 65147  1  0  0  0
 68 85  1  0  0  0
 71 73  2  0  0  0
 71 75  1  0  0  0
 71148  1  0  0  0
 72 74  1  0  0  0
 72 75  2  0  0  0
 72149  1  0  0  0
 73 76  1  0  0  0
 73150  1  0  0  0
 74 76  2  0  0  0
 74151  1  0  0  0
 75 78  1  0  0  0
 76 79  1  0  0  0
 77 78  2  0  0  0
 77 81  1  0  0  0
 77152  1  0  0  0
 78 82  1  0  0  0
 79 86  2  0  0  0
 79153  1  0  0  0
 80 84  1  0  0  0
 80 87  1  0  0  0
 80 88  2  0  0  0
 81 83  1  0  0  0
 81154  1  0  0  0
 81155  1  0  0  0
 82 87  1  0  0  0
 82156  1  0  0  0
 82157  1  0  0  0
 83 85  1  0  0  0
 83 87  1  0  0  0
 83158  1  0  0  0
 84159  1  0  0  0
 84160  1  0  0  0
 84161  1  0  0  0
 85162  1  0  0  0
 85163  1  0  0  0
M  ISO  4   1 100  68 101  85 101  86 100
M  END
> <chiral flag>
0

> <version>
0

> <s_m_source_file>
/data/baiqing/PycharmProjects/Reinvent-master-3.2/result/LINK_invent/BTK/process_docking_weight1_custom_product_contain_oxygen_bond_distance_aromatic_linkinvent_7_9_3/rearranged_h_0082.sdf

> <i_m_source_file_index>
11

> <r_mmod_Potential_Energy-OPLS-2005>
37.4874572753906

> <r_mmod_Stretch_Energy-OPLS-2005>
43.8168487548828

> <r_mmod_Bend_Energy-OPLS-2005>
110.399360656738

> <r_mmod_Torsional_Energy-OPLS-2005>
252.150787353516

> <r_mmod_Improper_Torsional_Energy-OPLS-2005>
4.71779918670654

> <r_mmod_Van_der_Waal_Energy-OPLS-2005>
178.150314331055

> <r_mmod_Electrostatic_Energy-OPLS-2005>
-367.613128662109

> <r_mmod_Solvation_Energy-OPLS-2005>
-198.330322265625

> <b_mmod_Minimization_Converged-OPLS-2005>
0

> <r_mmod_RMS_Derivative-OPLS-2005>
1.80672121047974

$$$$
11
                    3D
 Structure written by MMmdl.
152160  0  0  1  0            999 V2000
  -30.6534  -14.5523   20.5140 C   0  0  0  0  0  0
  -30.4278  -12.3407   19.4368 C   0  0  0  0  0  0
  -29.4993  -12.5099   18.2147 C   0  0  0  0  0  0
  -28.0188  -12.3664   18.6231 C   0  0  0  0  0  0
  -27.6566  -13.2143   19.8726 C   0  0  2  0  0  0
  -28.7017  -13.0225   20.9955 C   0  0  0  0  0  0
  -25.2545  -13.8162   20.5676 C   0  0  0  0  0  0
  -24.1805  -13.0421   20.9135 C   0  0  0  0  0  0
  -24.6386  -11.6897   20.8709 C   0  0  0  0  0  0
  -23.9064  -10.4276   21.0386 C   0  0  0  0  0  0
  -24.3616   -9.4198   21.9172 C   0  0  0  0  0  0
  -23.6291   -8.2237   22.0749 C   0  0  0  0  0  0
  -22.4273   -8.0271   21.3543 C   0  0  0  0  0  0
  -21.9907   -9.0234   20.4640 C   0  0  0  0  0  0
  -22.7231  -10.2115   20.3046 C   0  0  0  0  0  0
  -21.6850   -6.0738   22.5279 C   0  0  0  0  0  0
  -21.4010   -6.5643   23.8212 C   0  0  0  0  0  0
  -21.3662   -5.6795   24.9172 C   0  0  0  0  0  0
  -21.6046   -4.3059   24.7222 C   0  0  0  0  0  0
  -21.8820   -3.8153   23.4343 C   0  0  0  0  0  0
  -21.9188   -4.6968   22.3399 C   0  0  0  0  0  0
  -22.7833  -13.5211   21.1817 C   0  0  0  0  0  0
  -22.1656   -4.2162   21.0974 F   0  0  0  0  0  0
  -21.5629   -3.4537   25.7730 F   0  0  0  0  0  0
  -30.0260  -13.3425   20.4386 N   0  0  0  0  0  0
  -26.3000  -12.9353   20.3371 N   0  0  0  0  0  0
  -25.9323  -11.6501   20.5772 N   0  0  0  0  0  0
  -22.0497  -12.8204   22.0398 N   0  0  0  0  0  0
  -25.4225  -15.1888   20.4159 N   0  0  0  0  0  0
  -31.8070  -14.7131   20.1074 O   0  0  0  0  0  0
  -21.6635   -6.8875   21.4241 O   0  0  0  0  0  0
  -22.3498  -14.5513   20.6676 O   0  0  0  0  0  0
  -24.6180  -31.8668   23.2077 C   0  0  0  0  0  0
  -25.9057  -32.4822   23.8389 C   0  0  1  0  0  0
  -27.2299  -27.4040   20.1023 C   0  0  0  0  0  0
  -25.5897  -33.8617   24.2324 N   0  0  0  0  0  0
  -23.4098  -30.4888   21.5486 C   0  0  2  0  0  0
  -24.8594  -28.9540   20.1108 C   0  0  0  0  0  0
  -22.7442  -29.4649   22.4967 C   0  0  0  0  0  0
  -18.0284  -28.1392   22.8499 C   0  0  0  0  0  0
  -24.1484  -36.7311   23.2632 C   0  0  0  0  0  0
  -25.9424  -30.8232   21.3667 C   0  0  0  0  0  0
  -26.0223  -29.4560   20.7110 C   0  0  0  0  0  0
  -27.2161  -28.6891   20.7039 C   0  0  0  0  0  0
  -26.0533  -26.9261   19.4932 C   0  0  0  0  0  0
  -24.8707  -27.6895   19.4974 C   0  0  0  0  0  0
  -23.6229  -29.8249   20.1622 C   0  0  0  0  0  0
  -25.4108  -36.3112   24.0336 C   0  0  1  0  0  0
  -20.5882  -28.3689   23.1305 C   0  0  2  0  0  0
  -20.6783  -26.9420   22.5418 C   0  0  0  0  0  0
  -19.5755  -26.6398   21.5224 C   0  0  0  0  0  0
  -18.1932  -26.7939   22.1631 C   0  0  0  0  0  0
  -19.1535  -28.8855   23.2905 C   0  0  0  0  0  0
  -18.9459  -30.1459   23.8917 C   0  0  0  0  0  0
  -17.6456  -30.6595   24.0567 C   0  0  0  0  0  0
  -25.9044  -34.9474   23.5139 C   0  0  0  0  0  0
  -16.5347  -29.9099   23.6320 C   0  0  0  0  0  0
  -16.7270  -28.6516   23.0347 C   0  0  0  0  0  0
  -26.4471  -31.6591   25.0720 C   0  0  0  0  0  0
  -25.3726  -31.3694   26.1458 C   0  0  0  0  0  0
  -27.0296  -30.3026   24.6102 C   0  0  0  0  0  0
  -27.6053  -32.4296   25.7480 C   0  0  0  0  0  0
  -27.5594  -37.1798   24.8458 C   0  0  0  0  0  0
  -21.4166  -29.3048   22.3708 N   0  0  0  0  0  0
  -26.4291  -37.3806   23.9425 N   0  0  0  0  0  0
  -24.6751  -31.0743   22.0992 N   0  0  0  0  0  0
  -23.4193  -28.8186   23.3024 O   0  0  0  0  0  0
  -28.3243  -26.5600   20.1428 O   0  0  0  0  0  0
  -26.5618  -34.8926   22.4709 O   0  0  0  0  0  0
  -23.5359  -32.1429   23.7449 O   0  0  0  0  0  0
  -31.0348  -19.0534   19.8099 C   0  0  0  0  0  0
  -31.0897  -17.6771   20.1469 C   0  0  0  0  0  0
  -28.7018  -19.1411   20.4426 C   0  0  0  0  0  0
  -29.8444  -19.8131   19.9446 C   0  0  0  0  0  0
  -29.9359  -16.9960   20.6084 C   0  0  0  0  0  0
  -28.7504  -17.7585   20.7619 C   0  0  0  0  0  0
  -28.2484  -25.6012   21.1394 C   0  0  0  0  0  0
  -29.7938  -21.2444   19.4234 C   0  0  0  0  0  0
  -28.5477  -24.2693   21.1033 C   0  0  0  0  0  0
  -29.0610  -23.5377   19.9303 C   0  0  0  0  0  0
  -29.8708  -15.5846   20.9185 N   0  0  0  0  0  0
  -29.2198  -22.2067   20.1866 N   0  0  0  0  0  0
  -30.3284  -21.4659   18.3305 O   0  0  0  0  0  0
  -29.3197  -24.0719   18.8459 O   0  0  0  0  0  0
  -28.3560  -23.5627   22.2322 O   0  0  0  0  0  0
  -27.6256  -17.1366   21.1902 F   0  0  0  0  0  0
  -31.4726  -12.4460   19.1380 H   0  0  0  0  0  0
  -30.3376  -11.3365   19.8531 H   0  0  0  0  0  0
  -29.7490  -11.7783   17.4452 H   0  0  0  0  0  0
  -29.6602  -13.4914   17.7654 H   0  0  0  0  0  0
  -27.8319  -11.3108   18.8242 H   0  0  0  0  0  0
  -27.3705  -12.6353   17.7883 H   0  0  0  0  0  0
  -27.6869  -14.2589   19.5612 H   0  0  0  0  0  0
  -28.6911  -11.9910   21.3496 H   0  0  0  0  0  0
  -28.4631  -13.6353   21.8660 H   0  0  0  0  0  0
  -25.2758   -9.5686   22.4744 H   0  0  0  0  0  0
  -24.0006   -7.4635   22.7473 H   0  0  0  0  0  0
  -21.0839   -8.8739   19.8947 H   0  0  0  0  0  0
  -22.3674  -10.9648   19.6158 H   0  0  0  0  0  0
  -21.2003   -7.6148   23.9725 H   0  0  0  0  0  0
  -21.1486   -6.0518   25.9079 H   0  0  0  0  0  0
  -22.0603   -2.7619   23.2831 H   0  0  0  0  0  0
  -22.4111  -11.9858   22.4772 H   0  0  0  0  0  0
  -21.1123  -13.1236   22.2620 H   0  0  0  0  0  0
  -24.6635  -15.8409   20.5771 H   0  0  0  0  0  0
  -26.3056  -15.6548   20.2472 H   0  0  0  0  0  0
  -26.7127  -32.5522   23.1145 H   0  0  0  0  0  0
  -25.0006  -33.9780   25.0436 H   0  0  0  0  0  0
  -22.6995  -31.3064   21.4080 H   0  0  0  0  0  0
  -23.3760  -35.9630   23.3281 H   0  0  0  0  0  0
  -24.3572  -36.8945   22.2051 H   0  0  0  0  0  0
  -23.7211  -37.6496   23.6658 H   0  0  0  0  0  0
  -26.0596  -31.5894   20.5985 H   0  0  0  0  0  0
  -26.8273  -30.8756   21.9895 H   0  0  0  0  0  0
  -28.1108  -29.0634   21.1817 H   0  0  0  0  0  0
  -26.0501  -25.9457   19.0378 H   0  0  0  0  0  0
  -23.9771  -27.2955   19.0342 H   0  0  0  0  0  0
  -23.7371  -30.6029   19.4056 H   0  0  0  0  0  0
  -22.7450  -29.2511   19.8605 H   0  0  0  0  0  0
  -25.1277  -36.1977   25.0831 H   0  0  0  0  0  0
  -20.9979  -28.3260   24.1424 H   0  0  0  0  0  0
  -20.5697  -26.2300   23.3612 H   0  0  0  0  0  0
  -21.6649  -26.7474   22.1194 H   0  0  0  0  0  0
  -19.6917  -25.6311   21.1249 H   0  0  0  0  0  0
  -19.6688  -27.3216   20.6758 H   0  0  0  0  0  0
  -17.4206  -26.6695   21.4030 H   0  0  0  0  0  0
  -18.0325  -26.0076   22.9020 H   0  0  0  0  0  0
  -19.7934  -30.7283   24.2287 H   0  0  0  0  0  0
  -17.5008  -31.6273   24.5172 H   0  0  0  0  0  0
  -15.5347  -30.3008   23.7631 H   0  0  0  0  0  0
  -15.8673  -28.0840   22.7047 H   0  0  0  0  0  0
  -24.5904  -30.7045   25.7773 H   0  0  0  0  0  0
  -24.8908  -32.2850   26.4903 H   0  0  0  0  0  0
  -25.8063  -30.8847   27.0218 H   0  0  0  0  0  0
  -26.2845  -29.6795   24.1140 H   0  0  0  0  0  0
  -27.4042  -29.7245   25.4561 H   0  0  0  0  0  0
  -27.8691  -30.4329   23.9269 H   0  0  0  0  0  0
  -27.2691  -33.3592   26.2081 H   0  0  0  0  0  0
  -28.3851  -32.6866   25.0297 H   0  0  0  0  0  0
  -28.0738  -31.8403   26.5373 H   0  0  0  0  0  0
  -28.2582  -38.0129   24.7569 H   0  0  0  0  0  0
  -28.1128  -36.2668   24.6205 H   0  0  0  0  0  0
  -27.2323  -37.1342   25.8860 H   0  0  0  0  0  0
  -20.9336  -29.8749   21.6907 H   0  0  0  0  0  0
  -26.0185  -38.2879   24.1456 H   0  0  0  0  0  0
  -31.9230  -19.5297   19.4160 H   0  0  0  0  0  0
  -32.0290  -17.1597   20.0187 H   0  0  0  0  0  0
  -27.7619  -19.6668   20.5322 H   0  0  0  0  0  0
  -27.8826  -26.0527   22.0525 H   0  0  0  0  0  0
  -28.9730  -15.2941   21.2754 H   0  0  0  0  0  0
  -28.9023  -21.9384   21.1065 H   0  0  0  0  0  0
  -28.0244  -24.1618   22.8878 H   0  0  0  0  0  0
  1 25  1  0  0  0
  1 30  2  0  0  0
  1 81  1  0  0  0
  2  3  1  0  0  0
  2 25  1  0  0  0
  2 87  1  0  0  0
  2 88  1  0  0  0
  3  4  1  0  0  0
  3 89  1  0  0  0
  3 90  1  0  0  0
  4  5  1  0  0  0
  4 91  1  0  0  0
  4 92  1  0  0  0
  5  6  1  0  0  0
  5 26  1  0  0  0
  5 93  1  0  0  0
  6 25  1  0  0  0
  6 94  1  0  0  0
  6 95  1  0  0  0
  7  8  2  0  0  0
  7 26  1  0  0  0
  7 29  1  0  0  0
  8  9  1  0  0  0
  8 22  1  0  0  0
  9 10  1  0  0  0
  9 27  2  0  0  0
 10 11  2  0  0  0
 10 15  1  0  0  0
 11 12  1  0  0  0
 11 96  1  0  0  0
 12 13  2  0  0  0
 12 97  1  0  0  0
 13 14  1  0  0  0
 13 31  1  0  0  0
 14 15  2  0  0  0
 14 98  1  0  0  0
 15 99  1  0  0  0
 16 17  2  0  0  0
 16 21  1  0  0  0
 16 31  1  0  0  0
 17 18  1  0  0  0
 17100  1  0  0  0
 18 19  2  0  0  0
 18101  1  0  0  0
 19 20  1  0  0  0
 19 24  1  0  0  0
 20 21  2  0  0  0
 20102  1  0  0  0
 21 23  1  0  0  0
 22 28  1  0  0  0
 22 32  2  0  0  0
 26 27  1  0  0  0
 28103  1  0  0  0
 28104  1  0  0  0
 29105  1  0  0  0
 29106  1  0  0  0
 33 34  1  0  0  0
 33 66  1  0  0  0
 33 70  2  0  0  0
 34 36  1  0  0  0
 34 59  1  0  0  0
 34107  1  0  0  0
 35 44  2  0  0  0
 35 45  1  0  0  0
 35 68  1  0  0  0
 36 56  1  0  0  0
 36108  1  0  0  0
 37 39  1  0  0  0
 37 47  1  0  0  0
 37 66  1  0  0  0
 37109  1  0  0  0
 38 43  2  0  0  0
 38 46  1  0  0  0
 38 47  1  0  0  0
 39 64  1  0  0  0
 39 67  2  0  0  0
 40 52  1  0  0  0
 40 53  2  0  0  0
 40 58  1  0  0  0
 41110  1  0  0  0
 41111  1  0  0  0
 41112  1  0  0  0
 41 48  1  0  0  0
 42 43  1  0  0  0
 42 66  1  0  0  0
 42113  1  0  0  0
 42114  1  0  0  0
 43 44  1  0  0  0
 44115  1  0  0  0
 45 46  2  0  0  0
 45116  1  0  0  0
 46117  1  0  0  0
 47118  1  0  0  0
 47119  1  0  0  0
 48 56  1  0  0  0
 48 65  1  0  0  0
 48120  1  0  0  0
 49 50  1  0  0  0
 49 53  1  0  0  0
 49 64  1  0  0  0
 49121  1  0  0  0
 50 51  1  0  0  0
 50122  1  0  0  0
 50123  1  0  0  0
 51 52  1  0  0  0
 51124  1  0  0  0
 51125  1  0  0  0
 52126  1  0  0  0
 52127  1  0  0  0
 53 54  1  0  0  0
 54 55  2  0  0  0
 54128  1  0  0  0
 55 57  1  0  0  0
 55129  1  0  0  0
 56 69  2  0  0  0
 57 58  2  0  0  0
 57130  1  0  0  0
 58131  1  0  0  0
 59 60  1  0  0  0
 59 61  1  0  0  0
 59 62  1  0  0  0
 60132  1  0  0  0
 60133  1  0  0  0
 60134  1  0  0  0
 61135  1  0  0  0
 61136  1  0  0  0
 61137  1  0  0  0
 62138  1  0  0  0
 62139  1  0  0  0
 62140  1  0  0  0
 63 65  1  0  0  0
 63141  1  0  0  0
 63142  1  0  0  0
 63143  1  0  0  0
 64144  1  0  0  0
 65145  1  0  0  0
 68 77  1  0  0  0
 71 72  2  0  0  0
 71 74  1  0  0  0
 71146  1  0  0  0
 72 75  1  0  0  0
 72147  1  0  0  0
 73 74  2  0  0  0
 73 76  1  0  0  0
 73148  1  0  0  0
 74 78  1  0  0  0
 75 76  2  0  0  0
 75 81  1  0  0  0
 76 86  1  0  0  0
 77 79  2  0  0  0
 77149  1  0  0  0
 78 82  1  0  0  0
 78 83  2  0  0  0
 79 80  1  0  0  0
 79 85  1  0  0  0
 80 82  1  0  0  0
 80 84  2  0  0  0
 81150  1  0  0  0
 82151  1  0  0  0
 85152  1  0  0  0
M  ISO  4   1 100  68 101  77 101  81 100
M  END
> <chiral flag>
0

> <version>
0

> <s_m_source_file>
/data/baiqing/PycharmProjects/Reinvent-master-3.2/result/LINK_invent/BTK/process_docking_weight1_custom_product_contain_oxygen_bond_distance_aromatic_linkinvent_7_9_3/rearranged_h_0082.sdf

> <i_m_source_file_index>
12

> <r_mmod_Potential_Energy-OPLS-2005>
-218.07048034668

> <r_mmod_Stretch_Energy-OPLS-2005>
48.0517692565918

> <r_mmod_Bend_Energy-OPLS-2005>
122.458106994629

> <r_mmod_Torsional_Energy-OPLS-2005>
233.806701660156

> <r_mmod_Improper_Torsional_Energy-OPLS-2005>
5.30634450912476

> <r_mmod_Van_der_Waal_Energy-OPLS-2005>
158.123443603516

> <r_mmod_Electrostatic_Energy-OPLS-2005>
-550.209350585938

> <r_mmod_Solvation_Energy-OPLS-2005>
-260.999786376953

> <b_mmod_Minimization_Converged-OPLS-2005>
0

> <r_mmod_RMS_Derivative-OPLS-2005>
1.3526246547699

$$$$
12
                    3D
 Structure written by MMmdl.
156164  0  0  1  0            999 V2000
  -30.6955  -14.5067   20.5564 C   0  0  0  0  0  0
  -30.4230  -12.3247   19.4335 C   0  0  0  0  0  0
  -29.4984  -12.5012   18.2127 C   0  0  0  0  0  0
  -28.0191  -12.3567   18.6246 C   0  0  0  0  0  0
  -27.6561  -13.2113   19.8689 C   0  0  2  0  0  0
  -28.6985  -13.0252   20.9954 C   0  0  0  0  0  0
  -25.2564  -13.8173   20.5675 C   0  0  0  0  0  0
  -24.1829  -13.0439   20.9195 C   0  0  0  0  0  0
  -24.6383  -11.6907   20.8729 C   0  0  0  0  0  0
  -23.9050  -10.4289   21.0389 C   0  0  0  0  0  0
  -24.3613   -9.4213   21.9173 C   0  0  0  0  0  0
  -23.6287   -8.2245   22.0745 C   0  0  0  0  0  0
  -22.4265   -8.0275   21.3538 C   0  0  0  0  0  0
  -21.9896   -9.0244   20.4640 C   0  0  0  0  0  0
  -22.7219  -10.2122   20.3042 C   0  0  0  0  0  0
  -21.6851   -6.0723   22.5273 C   0  0  0  0  0  0
  -21.4017   -6.5627   23.8207 C   0  0  0  0  0  0
  -21.3669   -5.6784   24.9173 C   0  0  0  0  0  0
  -21.6055   -4.3049   24.7226 C   0  0  0  0  0  0
  -21.8826   -3.8136   23.4348 C   0  0  0  0  0  0
  -21.9198   -4.6951   22.3403 C   0  0  0  0  0  0
  -22.7855  -13.5239   21.1865 C   0  0  0  0  0  0
  -22.1664   -4.2135   21.0981 F   0  0  0  0  0  0
  -21.5628   -3.4542   25.7743 F   0  0  0  0  0  0
  -30.0248  -13.3280   20.4333 N   0  0  0  0  0  0
  -26.2993  -12.9350   20.3329 N   0  0  0  0  0  0
  -25.9313  -11.6510   20.5764 N   0  0  0  0  0  0
  -22.0499  -12.8217   22.0414 N   0  0  0  0  0  0
  -25.4283  -15.1891   20.4061 N   0  0  0  0  0  0
  -31.8468  -14.6588   20.1381 O   0  0  0  0  0  0
  -21.6641   -6.8864   21.4228 O   0  0  0  0  0  0
  -22.3545  -14.5546   20.6711 O   0  0  0  0  0  0
  -24.6176  -31.8654   23.2087 C   0  0  0  0  0  0
  -25.9065  -32.4803   23.8384 C   0  0  1  0  0  0
  -27.2383  -27.4061   20.0912 C   0  0  0  0  0  0
  -25.5920  -33.8609   24.2301 N   0  0  0  0  0  0
  -23.4047  -30.4904   21.5501 C   0  0  2  0  0  0
  -24.8508  -28.9549   20.1116 C   0  0  0  0  0  0
  -22.7412  -29.4662   22.4984 C   0  0  0  0  0  0
  -18.0272  -28.1379   22.8496 C   0  0  0  0  0  0
  -24.1490  -36.7304   23.2642 C   0  0  0  0  0  0
  -25.9375  -30.8230   21.3664 C   0  0  0  0  0  0
  -26.0140  -29.4577   20.7066 C   0  0  0  0  0  0
  -27.2056  -28.6917   20.6928 C   0  0  0  0  0  0
  -26.0417  -26.9189   19.5086 C   0  0  0  0  0  0
  -24.8622  -27.6860   19.5099 C   0  0  0  0  0  0
  -23.6127  -29.8231   20.1638 C   0  0  0  0  0  0
  -25.4111  -36.3089   24.0330 C   0  0  1  0  0  0
  -20.5868  -28.3681   23.1303 C   0  0  2  0  0  0
  -20.6774  -26.9417   22.5409 C   0  0  0  0  0  0
  -19.5752  -26.6381   21.5215 C   0  0  0  0  0  0
  -18.1927  -26.7926   22.1619 C   0  0  0  0  0  0
  -19.1524  -28.8846   23.2895 C   0  0  0  0  0  0
  -18.9457  -30.1461   23.8902 C   0  0  0  0  0  0
  -17.6459  -30.6592   24.0581 C   0  0  0  0  0  0
  -25.9047  -34.9463   23.5109 C   0  0  0  0  0  0
  -16.5350  -29.9090   23.6346 C   0  0  0  0  0  0
  -16.7263  -28.6507   23.0360 C   0  0  0  0  0  0
  -26.4479  -31.6606   25.0737 C   0  0  0  0  0  0
  -25.3746  -31.3735   26.1483 C   0  0  0  0  0  0
  -27.0337  -30.3050   24.6162 C   0  0  0  0  0  0
  -27.6038  -32.4359   25.7490 C   0  0  0  0  0  0
  -27.5573  -37.1804   24.8466 C   0  0  0  0  0  0
  -21.4140  -29.3043   22.3706 N   0  0  0  0  0  0
  -26.4292  -37.3779   23.9402 N   0  0  0  0  0  0
  -24.6712  -31.0741   22.0994 N   0  0  0  0  0  0
  -23.4167  -28.8209   23.3039 O   0  0  0  0  0  0
  -28.4043  -26.6492   20.1689 O   0  0  0  0  0  0
  -26.5604  -34.8920   22.4665 O   0  0  0  0  0  0
  -23.5369  -32.1427   23.7476 O   0  0  0  0  0  0
  -29.6704  -17.9908   20.4899 C   0  0  0  0  0  0
  -31.3033  -19.6189   21.2961 C   0  0  0  0  0  0
  -31.5825  -17.2434   21.8063 C   0  0  0  0  0  0
  -30.1266  -19.3403   20.5684 C   0  0  0  0  0  0
  -30.4089  -16.9272   21.0827 C   0  0  0  0  0  0
  -32.0200  -18.5787   21.9149 C   0  0  0  0  0  0
  -29.4539  -20.4378   19.8392 C   0  0  0  0  0  0
  -28.6301  -25.5094   19.4089 C   0  0  0  0  0  0
  -29.1150  -24.2915   20.2364 C   0  0  0  0  0  0
  -28.7564  -22.8920   19.6354 C   0  0  0  0  0  0
  -28.5021  -25.5083   18.1474 N   0  0  0  0  0  0
  -28.9556  -20.1835   18.6315 N   0  0  0  0  0  0
  -29.9634  -15.5642   20.9778 N   0  0  0  0  0  0
  -29.3612  -21.7023   20.3214 N   0  3  0  0  0  0
  -33.1494  -18.8633   22.6060 F   0  0  0  0  0  0
  -31.4677  -12.4244   19.1341 H   0  0  0  0  0  0
  -30.3243  -11.3212   19.8495 H   0  0  0  0  0  0
  -29.7471  -11.7668   17.4442 H   0  0  0  0  0  0
  -29.6615  -13.4829   17.7645 H   0  0  0  0  0  0
  -27.8394  -11.3014   18.8348 H   0  0  0  0  0  0
  -27.3699  -12.6169   17.7886 H   0  0  0  0  0  0
  -27.6886  -14.2545   19.5540 H   0  0  0  0  0  0
  -28.6815  -11.9993   21.3678 H   0  0  0  0  0  0
  -28.4619  -13.6543   21.8551 H   0  0  0  0  0  0
  -25.2758   -9.5700   22.4751 H   0  0  0  0  0  0
  -24.0011   -7.4641   22.7457 H   0  0  0  0  0  0
  -21.0832   -8.8743   19.8947 H   0  0  0  0  0  0
  -22.3664  -10.9655   19.6152 H   0  0  0  0  0  0
  -21.2000   -7.6133   23.9703 H   0  0  0  0  0  0
  -21.1490   -6.0516   25.9075 H   0  0  0  0  0  0
  -22.0597   -2.7594   23.2851 H   0  0  0  0  0  0
  -22.4124  -11.9874   22.4791 H   0  0  0  0  0  0
  -21.1106  -13.1220   22.2625 H   0  0  0  0  0  0
  -24.6565  -15.8404   20.5034 H   0  0  0  0  0  0
  -26.2713  -15.6231   20.0521 H   0  0  0  0  0  0
  -26.7128  -32.5497   23.1136 H   0  0  0  0  0  0
  -25.0108  -33.9788   25.0467 H   0  0  0  0  0  0
  -22.6974  -31.3104   21.4102 H   0  0  0  0  0  0
  -23.3749  -35.9646   23.3322 H   0  0  0  0  0  0
  -24.3574  -36.8912   22.2054 H   0  0  0  0  0  0
  -23.7244  -37.6513   23.6651 H   0  0  0  0  0  0
  -26.0635  -31.5913   20.6025 H   0  0  0  0  0  0
  -26.8192  -30.8667   21.9936 H   0  0  0  0  0  0
  -28.1007  -29.0710   21.1661 H   0  0  0  0  0  0
  -26.0003  -25.9346   19.0640 H   0  0  0  0  0  0
  -23.9635  -27.2859   19.0610 H   0  0  0  0  0  0
  -23.7198  -30.5973   19.4026 H   0  0  0  0  0  0
  -22.7352  -29.2435   19.8696 H   0  0  0  0  0  0
  -25.1288  -36.1952   25.0826 H   0  0  0  0  0  0
  -20.9975  -28.3264   24.1417 H   0  0  0  0  0  0
  -20.5704  -26.2296   23.3606 H   0  0  0  0  0  0
  -21.6644  -26.7483   22.1189 H   0  0  0  0  0  0
  -19.6925  -25.6291   21.1249 H   0  0  0  0  0  0
  -19.6683  -27.3200   20.6758 H   0  0  0  0  0  0
  -17.4200  -26.6698   21.4014 H   0  0  0  0  0  0
  -18.0328  -26.0051   22.8998 H   0  0  0  0  0  0
  -19.7940  -30.7281   24.2260 H   0  0  0  0  0  0
  -17.5020  -31.6280   24.5174 H   0  0  0  0  0  0
  -15.5357  -30.3003   23.7667 H   0  0  0  0  0  0
  -15.8658  -28.0835   22.7073 H   0  0  0  0  0  0
  -24.5893  -30.7115   25.7819 H   0  0  0  0  0  0
  -24.8981  -32.2916   26.4950 H   0  0  0  0  0  0
  -25.8093  -30.8875   27.0231 H   0  0  0  0  0  0
  -26.2908  -29.6784   24.1215 H   0  0  0  0  0  0
  -27.4090  -29.7317   25.4653 H   0  0  0  0  0  0
  -27.8743  -30.4360   23.9342 H   0  0  0  0  0  0
  -27.2624  -33.3642   26.2088 H   0  0  0  0  0  0
  -28.3817  -32.6968   25.0302 H   0  0  0  0  0  0
  -28.0741  -31.8492   26.5393 H   0  0  0  0  0  0
  -28.2597  -38.0093   24.7507 H   0  0  0  0  0  0
  -28.1047  -36.2625   24.6287 H   0  0  0  0  0  0
  -27.2297  -37.1468   25.8871 H   0  0  0  0  0  0
  -20.9307  -29.8735   21.6900 H   0  0  0  0  0  0
  -26.0177  -38.2856   24.1401 H   0  0  0  0  0  0
  -28.7683  -17.7682   19.9363 H   0  0  0  0  0  0
  -31.6859  -20.6273   21.3624 H   0  0  0  0  0  0
  -32.1599  -16.4678   22.2867 H   0  0  0  0  0  0
  -28.6912  -24.3697   21.2382 H   0  0  0  0  0  0
  -30.1956  -24.3726   20.3558 H   0  0  0  0  0  0
  -29.0947  -22.8768   18.5981 H   0  0  0  0  0  0
  -27.6717  -22.7739   19.6022 H   0  0  0  0  0  0
  -28.7397  -24.6186   17.7280 H   0  0  0  0  0  0
  -29.1101  -19.2753   18.2197 H   0  0  0  0  0  0
  -28.4846  -20.8793   18.0800 H   0  0  0  0  0  0
  -28.9843  -15.3859   21.1397 H   0  0  0  0  0  0
  -29.6361  -21.8251   21.2883 H   0  0  0  0  0  0
  1 25  1  0  0  0
  1 30  2  0  0  0
  1 83  1  0  0  0
  2  3  1  0  0  0
  2 25  1  0  0  0
  2 86  1  0  0  0
  2 87  1  0  0  0
  3  4  1  0  0  0
  3 88  1  0  0  0
  3 89  1  0  0  0
  4  5  1  0  0  0
  4 90  1  0  0  0
  4 91  1  0  0  0
  5  6  1  0  0  0
  5 26  1  0  0  0
  5 92  1  0  0  0
  6 25  1  0  0  0
  6 93  1  0  0  0
  6 94  1  0  0  0
  7  8  2  0  0  0
  7 26  1  0  0  0
  7 29  1  0  0  0
  8  9  1  0  0  0
  8 22  1  0  0  0
  9 10  1  0  0  0
  9 27  2  0  0  0
 10 11  2  0  0  0
 10 15  1  0  0  0
 11 12  1  0  0  0
 11 95  1  0  0  0
 12 13  2  0  0  0
 12 96  1  0  0  0
 13 14  1  0  0  0
 13 31  1  0  0  0
 14 15  2  0  0  0
 14 97  1  0  0  0
 15 98  1  0  0  0
 16 17  2  0  0  0
 16 21  1  0  0  0
 16 31  1  0  0  0
 17 18  1  0  0  0
 17 99  1  0  0  0
 18 19  2  0  0  0
 18100  1  0  0  0
 19 20  1  0  0  0
 19 24  1  0  0  0
 20 21  2  0  0  0
 20101  1  0  0  0
 21 23  1  0  0  0
 22 28  1  0  0  0
 22 32  2  0  0  0
 26 27  1  0  0  0
 28102  1  0  0  0
 28103  1  0  0  0
 29104  1  0  0  0
 29105  1  0  0  0
 33 34  1  0  0  0
 33 66  1  0  0  0
 33 70  2  0  0  0
 34 36  1  0  0  0
 34 59  1  0  0  0
 34106  1  0  0  0
 35 44  2  0  0  0
 35 45  1  0  0  0
 35 68  1  0  0  0
 36 56  1  0  0  0
 36107  1  0  0  0
 37 39  1  0  0  0
 37 47  1  0  0  0
 37 66  1  0  0  0
 37108  1  0  0  0
 38 43  2  0  0  0
 38 46  1  0  0  0
 38 47  1  0  0  0
 39 64  1  0  0  0
 39 67  2  0  0  0
 40 52  1  0  0  0
 40 53  2  0  0  0
 40 58  1  0  0  0
 41109  1  0  0  0
 41110  1  0  0  0
 41111  1  0  0  0
 41 48  1  0  0  0
 42 43  1  0  0  0
 42 66  1  0  0  0
 42112  1  0  0  0
 42113  1  0  0  0
 43 44  1  0  0  0
 44114  1  0  0  0
 45 46  2  0  0  0
 45115  1  0  0  0
 46116  1  0  0  0
 47117  1  0  0  0
 47118  1  0  0  0
 48 56  1  0  0  0
 48 65  1  0  0  0
 48119  1  0  0  0
 49 50  1  0  0  0
 49 53  1  0  0  0
 49 64  1  0  0  0
 49120  1  0  0  0
 50 51  1  0  0  0
 50121  1  0  0  0
 50122  1  0  0  0
 51 52  1  0  0  0
 51123  1  0  0  0
 51124  1  0  0  0
 52125  1  0  0  0
 52126  1  0  0  0
 53 54  1  0  0  0
 54 55  2  0  0  0
 54127  1  0  0  0
 55 57  1  0  0  0
 55128  1  0  0  0
 56 69  2  0  0  0
 57 58  2  0  0  0
 57129  1  0  0  0
 58130  1  0  0  0
 59 60  1  0  0  0
 59 61  1  0  0  0
 59 62  1  0  0  0
 60131  1  0  0  0
 60132  1  0  0  0
 60133  1  0  0  0
 61134  1  0  0  0
 61135  1  0  0  0
 61136  1  0  0  0
 62137  1  0  0  0
 62138  1  0  0  0
 62139  1  0  0  0
 63 65  1  0  0  0
 63140  1  0  0  0
 63141  1  0  0  0
 63142  1  0  0  0
 64143  1  0  0  0
 65144  1  0  0  0
 68 78  1  0  0  0
 71 74  2  0  0  0
 71 75  1  0  0  0
 71145  1  0  0  0
 72 74  1  0  0  0
 72 76  2  0  0  0
 72146  1  0  0  0
 73 75  2  0  0  0
 73 76  1  0  0  0
 73147  1  0  0  0
 74 77  1  0  0  0
 75 83  1  0  0  0
 76 85  1  0  0  0
 77 82  1  0  0  0
 77 84  2  0  0  0
 78 79  1  0  0  0
 78 81  2  0  0  0
 79 80  1  0  0  0
 79148  1  0  0  0
 79149  1  0  0  0
 80 84  1  0  0  0
 80150  1  0  0  0
 80151  1  0  0  0
 81152  1  0  0  0
 82153  1  0  0  0
 82154  1  0  0  0
 83155  1  0  0  0
 84156  1  0  0  0
M  CHG  1  84   1
M  ISO  4   1 100  68 101  78 101  83 100
M  END
> <chiral flag>
0

> <version>
0

> <s_m_source_file>
/data/baiqing/PycharmProjects/Reinvent-master-3.2/result/LINK_invent/BTK/process_docking_weight1_custom_product_contain_oxygen_bond_distance_aromatic_linkinvent_7_9_3/rearranged_h_0082.sdf

> <i_m_source_file_index>
13

> <r_mmod_Potential_Energy-OPLS-2005>
-267.201171875

> <r_mmod_Stretch_Energy-OPLS-2005>
46.4590148925781

> <r_mmod_Bend_Energy-OPLS-2005>
100.996055603027

> <r_mmod_Torsional_Energy-OPLS-2005>
226.986267089844

> <r_mmod_Improper_Torsional_Energy-OPLS-2005>
5.41759443283081

> <r_mmod_Van_der_Waal_Energy-OPLS-2005>
159.243118286133

> <r_mmod_Electrostatic_Energy-OPLS-2005>
-373.692260742188

> <r_mmod_Solvation_Energy-OPLS-2005>
-452.543731689453

> <b_mmod_Minimization_Converged-OPLS-2005>
0

> <r_mmod_RMS_Derivative-OPLS-2005>
2.02177906036377

$$$$
13
                    3D
 Structure written by MMmdl.
166176  0  0  1  0            999 V2000
  -30.7777  -14.4320   20.6466 C   0  0  0  0  0  0
  -30.4078  -12.3108   19.4389 C   0  0  0  0  0  0
  -29.4906  -12.5159   18.2127 C   0  0  0  0  0  0
  -28.0100  -12.3803   18.6121 C   0  0  0  0  0  0
  -27.6573  -13.2087   19.8752 C   0  0  2  0  0  0
  -28.6910  -12.9619   20.9890 C   0  0  0  0  0  0
  -25.2534  -13.8152   20.5650 C   0  0  0  0  0  0
  -24.1794  -13.0406   20.9142 C   0  0  0  0  0  0
  -24.6357  -11.6873   20.8703 C   0  0  0  0  0  0
  -23.9064  -10.4241   21.0367 C   0  0  0  0  0  0
  -24.3623   -9.4170   21.9170 C   0  0  0  0  0  0
  -23.6279   -8.2214   22.0767 C   0  0  0  0  0  0
  -22.4263   -8.0257   21.3566 C   0  0  0  0  0  0
  -21.9916   -9.0189   20.4631 C   0  0  0  0  0  0
  -22.7231  -10.2061   20.3024 C   0  0  0  0  0  0
  -21.6811   -6.0767   22.5320 C   0  0  0  0  0  0
  -21.3984   -6.5645   23.8275 C   0  0  0  0  0  0
  -21.3659   -5.6777   24.9216 C   0  0  0  0  0  0
  -21.6026   -4.3047   24.7235 C   0  0  0  0  0  0
  -21.8810   -3.8151   23.4349 C   0  0  0  0  0  0
  -21.9184   -4.7000   22.3424 C   0  0  0  0  0  0
  -22.7774  -13.5119   21.1792 C   0  0  0  0  0  0
  -22.1644   -4.2233   21.0987 F   0  0  0  0  0  0
  -21.5604   -3.4511   25.7710 F   0  0  0  0  0  0
  -30.0290  -13.2956   20.4793 N   0  0  0  0  0  0
  -26.2979  -12.9330   20.3353 N   0  0  0  0  0  0
  -25.9283  -11.6489   20.5756 N   0  0  0  0  0  0
  -22.0353  -12.8064   22.0247 N   0  0  0  0  0  0
  -25.4265  -15.1879   20.4040 N   0  0  0  0  0  0
  -31.8285  -14.5967   20.0242 O   0  0  0  0  0  0
  -21.6579   -6.8907   21.4281 O   0  0  0  0  0  0
  -22.3440  -14.5427   20.6632 O   0  0  0  0  0  0
  -24.6143  -31.8704   23.2128 C   0  0  0  0  0  0
  -25.9044  -32.4829   23.8423 C   0  0  1  0  0  0
  -27.2230  -27.4345   20.0888 C   0  0  0  0  0  0
  -25.5930  -33.8627   24.2360 N   0  0  0  0  0  0
  -23.3994  -30.4969   21.5531 C   0  0  2  0  0  0
  -24.8418  -28.9680   20.1127 C   0  0  0  0  0  0
  -22.7412  -29.4682   22.5003 C   0  0  0  0  0  0
  -18.0277  -28.1366   22.8499 C   0  0  0  0  0  0
  -24.1500  -36.7310   23.2636 C   0  0  0  0  0  0
  -25.9300  -30.8357   21.3656 C   0  0  0  0  0  0
  -26.0036  -29.4714   20.7112 C   0  0  0  0  0  0
  -27.1960  -28.7124   20.6967 C   0  0  0  0  0  0
  -26.0417  -26.9603   19.4706 C   0  0  0  0  0  0
  -24.8565  -27.7117   19.4895 C   0  0  0  0  0  0
  -23.6048  -29.8334   20.1662 C   0  0  0  0  0  0
  -25.4117  -36.3109   24.0351 C   0  0  1  0  0  0
  -20.5868  -28.3655   23.1325 C   0  0  2  0  0  0
  -20.6771  -26.9397   22.5408 C   0  0  0  0  0  0
  -19.5740  -26.6378   21.5211 C   0  0  0  0  0  0
  -18.1922  -26.7913   22.1627 C   0  0  0  0  0  0
  -19.1527  -28.8829   23.2909 C   0  0  0  0  0  0
  -18.9452  -30.1434   23.8917 C   0  0  0  0  0  0
  -17.6456  -30.6578   24.0561 C   0  0  0  0  0  0
  -25.9043  -34.9475   23.5144 C   0  0  0  0  0  0
  -16.5349  -29.9081   23.6315 C   0  0  0  0  0  0
  -16.7269  -28.6493   23.0352 C   0  0  0  0  0  0
  -26.4473  -31.6596   25.0741 C   0  0  0  0  0  0
  -25.3747  -31.3690   26.1495 C   0  0  0  0  0  0
  -27.0311  -30.3055   24.6077 C   0  0  0  0  0  0
  -27.6042  -32.4310   25.7516 C   0  0  0  0  0  0
  -27.5590  -37.1809   24.8468 C   0  0  0  0  0  0
  -21.4140  -29.3045   22.3755 N   0  0  0  0  0  0
  -26.4308  -37.3784   23.9408 N   0  0  0  0  0  0
  -24.6664  -31.0816   22.1018 N   0  0  0  0  0  0
  -23.4213  -28.8206   23.3010 O   0  0  0  0  0  0
  -28.3957  -26.6987   20.1340 O   0  0  0  0  0  0
  -26.5574  -34.8920   22.4684 O   0  0  0  0  0  0
  -23.5345  -32.1464   23.7529 O   0  0  0  0  0  0
  -25.2735  -21.1392   23.4616 C   0  0  0  0  0  0
  -25.2475  -19.9483   24.2016 C   0  0  0  0  0  0
  -27.9145  -15.7586   24.1988 C   0  0  0  0  0  0
  -28.9487  -15.2394   23.4031 C   0  0  0  0  0  0
  -27.0835  -20.2547   22.0789 C   0  0  0  0  0  0
  -28.7614  -17.1672   21.9196 C   0  0  0  0  0  0
  -27.0684  -19.0285   22.8062 C   0  0  0  0  0  0
  -27.7777  -17.7598   22.7536 C   0  0  0  0  0  0
  -26.2059  -21.3159   22.4178 C   0  0  0  0  0  0
  -26.1456  -18.9154   23.8911 C   0  0  0  0  0  0
  -27.3330  -16.9994   23.8778 C   0  0  0  0  0  0
  -29.3253  -15.8986   22.2134 C   0  0  0  0  0  0
  -26.1961  -22.6213   21.6766 C   0  0  0  0  0  0
  -28.2117  -24.6529   18.7729 C   0  0  0  0  0  0
  -27.3505  -23.4179   18.5350 C   0  0  0  0  0  0
  -27.4077  -24.7550   21.3540 C   0  0  0  0  0  0
  -28.3403  -25.2521   20.1982 C   0  0  2  0  0  0
  -26.3177  -17.6915   24.5207 N   0  0  0  0  0  0
  -30.4413  -15.4679   21.4493 N   0  0  0  0  0  0
  -27.3489  -23.3083   21.6293 N   0  0  0  0  0  0
  -25.1322  -23.0679   21.2432 O   0  0  0  0  0  0
  -28.8044  -25.1692   17.8195 O   0  0  0  0  0  0
  -31.4556  -12.3864   19.1369 H   0  0  0  0  0  0
  -30.2952  -11.2952   19.8225 H   0  0  0  0  0  0
  -29.7316  -11.7916   17.4338 H   0  0  0  0  0  0
  -29.6588  -13.5018   17.7770 H   0  0  0  0  0  0
  -27.8100  -11.3243   18.7943 H   0  0  0  0  0  0
  -27.3655  -12.6725   17.7818 H   0  0  0  0  0  0
  -27.7079  -14.2627   19.5991 H   0  0  0  0  0  0
  -28.6752  -11.9151   21.2911 H   0  0  0  0  0  0
  -28.3899  -13.4926   21.8733 H   0  0  0  0  0  0
  -25.2793   -9.5638   22.4730 H   0  0  0  0  0  0
  -23.9965   -7.4632   22.7543 H   0  0  0  0  0  0
  -21.0841   -8.8689   19.8948 H   0  0  0  0  0  0
  -22.3697  -10.9571   19.6095 H   0  0  0  0  0  0
  -21.1927   -7.6156   23.9814 H   0  0  0  0  0  0
  -21.1502   -6.0473   25.9142 H   0  0  0  0  0  0
  -22.0579   -2.7621   23.2786 H   0  0  0  0  0  0
  -21.0899  -13.1017   22.2219 H   0  0  0  0  0  0
  -22.3915  -11.9754   22.4745 H   0  0  0  0  0  0
  -24.6674  -15.8506   20.5207 H   0  0  0  0  0  0
  -26.3040  -15.6280   20.1555 H   0  0  0  0  0  0
  -26.7107  -32.5531   23.1182 H   0  0  0  0  0  0
  -25.0164  -33.9807   25.0557 H   0  0  0  0  0  0
  -22.6872  -31.3133   21.4178 H   0  0  0  0  0  0
  -23.3767  -35.9635   23.3301 H   0  0  0  0  0  0
  -24.3585  -36.8913   22.2047 H   0  0  0  0  0  0
  -23.7262  -37.6525   23.6639 H   0  0  0  0  0  0
  -26.0427  -31.6018   20.5980 H   0  0  0  0  0  0
  -26.8186  -30.8893   21.9824 H   0  0  0  0  0  0
  -28.0902  -29.0914   21.1719 H   0  0  0  0  0  0
  -25.9927  -26.0052   18.9759 H   0  0  0  0  0  0
  -23.9645  -27.3211   19.0181 H   0  0  0  0  0  0
  -23.7157  -30.6102   19.4092 H   0  0  0  0  0  0
  -22.7275  -29.2565   19.8658 H   0  0  0  0  0  0
  -25.1293  -36.1985   25.0847 H   0  0  0  0  0  0
  -20.9959  -28.3210   24.1442 H   0  0  0  0  0  0
  -20.5678  -26.2264   23.3591 H   0  0  0  0  0  0
  -21.6645  -26.7447   22.1194 H   0  0  0  0  0  0
  -19.6909  -25.6293   21.1231 H   0  0  0  0  0  0
  -19.6668  -27.3195   20.6747 H   0  0  0  0  0  0
  -17.4193  -26.6658   21.4031 H   0  0  0  0  0  0
  -18.0332  -26.0043   22.9013 H   0  0  0  0  0  0
  -19.7933  -30.7235   24.2302 H   0  0  0  0  0  0
  -17.5017  -31.6256   24.5161 H   0  0  0  0  0  0
  -15.5352  -30.2992   23.7621 H   0  0  0  0  0  0
  -15.8667  -28.0808   22.7072 H   0  0  0  0  0  0
  -24.5923  -30.7024   25.7848 H   0  0  0  0  0  0
  -24.8930  -32.2842   26.4942 H   0  0  0  0  0  0
  -25.8130  -30.8887   27.0250 H   0  0  0  0  0  0
  -26.2849  -29.6813   24.1147 H   0  0  0  0  0  0
  -27.4137  -29.7289   25.4503 H   0  0  0  0  0  0
  -27.8658  -30.4408   23.9198 H   0  0  0  0  0  0
  -27.2649  -33.3576   26.2157 H   0  0  0  0  0  0
  -28.3848  -32.6905   25.0355 H   0  0  0  0  0  0
  -28.0716  -31.8397   26.5396 H   0  0  0  0  0  0
  -28.2616  -38.0096   24.7513 H   0  0  0  0  0  0
  -28.1088  -36.2632   24.6313 H   0  0  0  0  0  0
  -27.2301  -37.1473   25.8868 H   0  0  0  0  0  0
  -20.9295  -29.8795   21.6999 H   0  0  0  0  0  0
  -26.0212  -38.2879   24.1362 H   0  0  0  0  0  0
  -24.5870  -21.9368   23.7176 H   0  0  0  0  0  0
  -24.5491  -19.8366   25.0195 H   0  0  0  0  0  0
  -27.5916  -15.2148   25.0755 H   0  0  0  0  0  0
  -29.4358  -14.3228   23.7095 H   0  0  0  0  0  0
  -27.7690  -20.3817   21.2521 H   0  0  0  0  0  0
  -29.1049  -17.7252   21.0598 H   0  0  0  0  0  0
  -27.7857  -22.5434   19.0199 H   0  0  0  0  0  0
  -27.2535  -23.2182   17.4674 H   0  0  0  0  0  0
  -26.3503  -23.5803   18.9336 H   0  0  0  0  0  0
  -26.4029  -25.1539   21.2406 H   0  0  0  0  0  0
  -27.7674  -25.2129   22.2765 H   0  0  0  0  0  0
  -29.3444  -24.9634   20.5069 H   0  0  0  0  0  0
  -25.8129  -17.3780   25.3427 H   0  0  0  0  0  0
  -31.1299  -16.1984   21.3294 H   0  0  0  0  0  0
  -28.1577  -22.8738   22.0532 H   0  0  0  0  0  0
  1 25  1  0  0  0
  1 30  2  0  0  0
  1 89  1  0  0  0
  2  3  1  0  0  0
  2 25  1  0  0  0
  2 93  1  0  0  0
  2 94  1  0  0  0
  3  4  1  0  0  0
  3 95  1  0  0  0
  3 96  1  0  0  0
  4  5  1  0  0  0
  4 97  1  0  0  0
  4 98  1  0  0  0
  5  6  1  0  0  0
  5 26  1  0  0  0
  5 99  1  0  0  0
  6 25  1  0  0  0
  6100  1  0  0  0
  6101  1  0  0  0
  7  8  2  0  0  0
  7 26  1  0  0  0
  7 29  1  0  0  0
  8  9  1  0  0  0
  8 22  1  0  0  0
  9 10  1  0  0  0
  9 27  2  0  0  0
 10 11  2  0  0  0
 10 15  1  0  0  0
 11 12  1  0  0  0
 11102  1  0  0  0
 12 13  2  0  0  0
 12103  1  0  0  0
 13 14  1  0  0  0
 13 31  1  0  0  0
 14 15  2  0  0  0
 14104  1  0  0  0
 15105  1  0  0  0
 16 17  2  0  0  0
 16 21  1  0  0  0
 16 31  1  0  0  0
 17 18  1  0  0  0
 17106  1  0  0  0
 18 19  2  0  0  0
 18107  1  0  0  0
 19 20  1  0  0  0
 19 24  1  0  0  0
 20 21  2  0  0  0
 20108  1  0  0  0
 21 23  1  0  0  0
 22 28  1  0  0  0
 22 32  2  0  0  0
 26 27  1  0  0  0
 28109  1  0  0  0
 28110  1  0  0  0
 29111  1  0  0  0
 29112  1  0  0  0
 33 34  1  0  0  0
 33 66  1  0  0  0
 33 70  2  0  0  0
 34 36  1  0  0  0
 34 59  1  0  0  0
 34113  1  0  0  0
 35 44  2  0  0  0
 35 45  1  0  0  0
 35 68  1  0  0  0
 36 56  1  0  0  0
 36114  1  0  0  0
 37 39  1  0  0  0
 37 47  1  0  0  0
 37 66  1  0  0  0
 37115  1  0  0  0
 38 43  2  0  0  0
 38 46  1  0  0  0
 38 47  1  0  0  0
 39 64  1  0  0  0
 39 67  2  0  0  0
 40 52  1  0  0  0
 40 53  2  0  0  0
 40 58  1  0  0  0
 41116  1  0  0  0
 41117  1  0  0  0
 41118  1  0  0  0
 41 48  1  0  0  0
 42 43  1  0  0  0
 42 66  1  0  0  0
 42119  1  0  0  0
 42120  1  0  0  0
 43 44  1  0  0  0
 44121  1  0  0  0
 45 46  2  0  0  0
 45122  1  0  0  0
 46123  1  0  0  0
 47124  1  0  0  0
 47125  1  0  0  0
 48 56  1  0  0  0
 48 65  1  0  0  0
 48126  1  0  0  0
 49 50  1  0  0  0
 49 53  1  0  0  0
 49 64  1  0  0  0
 49127  1  0  0  0
 50 51  1  0  0  0
 50128  1  0  0  0
 50129  1  0  0  0
 51 52  1  0  0  0
 51130  1  0  0  0
 51131  1  0  0  0
 52132  1  0  0  0
 52133  1  0  0  0
 53 54  1  0  0  0
 54 55  2  0  0  0
 54134  1  0  0  0
 55 57  1  0  0  0
 55135  1  0  0  0
 56 69  2  0  0  0
 57 58  2  0  0  0
 57136  1  0  0  0
 58137  1  0  0  0
 59 60  1  0  0  0
 59 61  1  0  0  0
 59 62  1  0  0  0
 60138  1  0  0  0
 60139  1  0  0  0
 60140  1  0  0  0
 61141  1  0  0  0
 61142  1  0  0  0
 61143  1  0  0  0
 62144  1  0  0  0
 62145  1  0  0  0
 62146  1  0  0  0
 63 65  1  0  0  0
 63147  1  0  0  0
 63148  1  0  0  0
 63149  1  0  0  0
 64150  1  0  0  0
 65151  1  0  0  0
 68 87  1  0  0  0
 71 72  2  0  0  0
 71 79  1  0  0  0
 71152  1  0  0  0
 72 80  1  0  0  0
 72153  1  0  0  0
 73 74  1  0  0  0
 73 81  2  0  0  0
 73154  1  0  0  0
 74 82  2  0  0  0
 74155  1  0  0  0
 75 77  1  0  0  0
 75 79  2  0  0  0
 75156  1  0  0  0
 76 78  2  0  0  0
 76 82  1  0  0  0
 76157  1  0  0  0
 77 78  1  0  0  0
 77 80  2  0  0  0
 78 81  1  0  0  0
 79 83  1  0  0  0
 80 88  1  0  0  0
 81 88  1  0  0  0
 82 89  1  0  0  0
 83 90  1  0  0  0
 83 91  2  0  0  0
 84 85  1  0  0  0
 84 87  1  0  0  0
 84 92  2  0  0  0
 85158  1  0  0  0
 85159  1  0  0  0
 85160  1  0  0  0
 86 90  1  0  0  0
 86161  1  0  0  0
 86162  1  0  0  0
 86 87  1  0  0  0
 87163  1  0  0  0
 88164  1  0  0  0
 89165  1  0  0  0
 90166  1  0  0  0
M  ISO  4   1 100  68 101  87 101  89 100
M  END
> <chiral flag>
0

> <version>
0

> <s_m_source_file>
/data/baiqing/PycharmProjects/Reinvent-master-3.2/result/LINK_invent/BTK/process_docking_weight1_custom_product_contain_oxygen_bond_distance_aromatic_linkinvent_7_9_3/rearranged_h_0082.sdf

> <i_m_source_file_index>
14

> <r_mmod_Potential_Energy-OPLS-2005>
-34.2676124572754

> <r_mmod_Stretch_Energy-OPLS-2005>
43.2409172058105

> <r_mmod_Bend_Energy-OPLS-2005>
192.444076538086

> <r_mmod_Torsional_Energy-OPLS-2005>
241.604263305664

> <r_mmod_Improper_Torsional_Energy-OPLS-2005>
5.70371341705322

> <r_mmod_Van_der_Waal_Energy-OPLS-2005>
166.930877685547

> <r_mmod_Electrostatic_Energy-OPLS-2005>
-446.571197509766

> <r_mmod_Solvation_Energy-OPLS-2005>
-249.856323242188

> <b_mmod_Minimization_Converged-OPLS-2005>
0

> <r_mmod_RMS_Derivative-OPLS-2005>
3.43750786781311

$$$$
14
                    3D
 Structure written by MMmdl.
153162  0  0  1  0            999 V2000
  -30.7140  -14.4281   20.6050 C   0  0  0  0  0  0
  -30.4012  -12.2925   19.4023 C   0  0  0  0  0  0
  -29.4755  -12.4980   18.1870 C   0  0  0  0  0  0
  -27.9997  -12.3523   18.6088 C   0  0  0  0  0  0
  -27.6525  -13.1962   19.8645 C   0  0  2  0  0  0
  -28.6902  -12.9743   20.9851 C   0  0  0  0  0  0
  -25.2575  -13.8152   20.5659 C   0  0  0  0  0  0
  -24.1829  -13.0451   20.9180 C   0  0  0  0  0  0
  -24.6353  -11.6900   20.8729 C   0  0  0  0  0  0
  -23.9021  -10.4299   21.0410 C   0  0  0  0  0  0
  -24.3587   -9.4222   21.9188 C   0  0  0  0  0  0
  -23.6291   -8.2244   22.0752 C   0  0  0  0  0  0
  -22.4273   -8.0276   21.3549 C   0  0  0  0  0  0
  -21.9897   -9.0234   20.4635 C   0  0  0  0  0  0
  -22.7196  -10.2129   20.3052 C   0  0  0  0  0  0
  -21.6854   -6.0738   22.5282 C   0  0  0  0  0  0
  -21.4002   -6.5639   23.8217 C   0  0  0  0  0  0
  -21.3657   -5.6796   24.9184 C   0  0  0  0  0  0
  -21.6043   -4.3063   24.7234 C   0  0  0  0  0  0
  -21.8820   -3.8152   23.4356 C   0  0  0  0  0  0
  -21.9191   -4.6966   22.3410 C   0  0  0  0  0  0
  -22.7861  -13.5251   21.1868 C   0  0  0  0  0  0
  -22.1666   -4.2154   21.0988 F   0  0  0  0  0  0
  -21.5631   -3.4549   25.7747 F   0  0  0  0  0  0
  -30.0145  -13.2765   20.4259 N   0  0  0  0  0  0
  -26.2969  -12.9288   20.3300 N   0  0  0  0  0  0
  -25.9263  -11.6462   20.5722 N   0  0  0  0  0  0
  -22.0499  -12.8238   22.0398 N   0  0  0  0  0  0
  -25.4366  -15.1871   20.4067 N   0  0  0  0  0  0
  -31.8487  -14.5666   20.1342 O   0  0  0  0  0  0
  -21.6635   -6.8877   21.4237 O   0  0  0  0  0  0
  -22.3569  -14.5573   20.6723 O   0  0  0  0  0  0
  -24.6174  -31.8628   23.2146 C   0  0  0  0  0  0
  -25.9086  -32.4777   23.8422 C   0  0  1  0  0  0
  -27.2297  -27.4203   20.0916 C   0  0  0  0  0  0
  -25.5956  -33.8590   24.2336 N   0  0  0  0  0  0
  -23.4017  -30.4874   21.5557 C   0  0  2  0  0  0
  -24.8453  -28.9492   20.1151 C   0  0  0  0  0  0
  -22.7397  -29.4638   22.5043 C   0  0  0  0  0  0
  -18.0280  -28.1327   22.8544 C   0  0  0  0  0  0
  -24.1476  -36.7304   23.2639 C   0  0  0  0  0  0
  -25.9307  -30.8201   21.3694 C   0  0  0  0  0  0
  -26.0045  -29.4533   20.7171 C   0  0  0  0  0  0
  -27.1951  -28.6902   20.7137 C   0  0  0  0  0  0
  -26.0515  -26.9279   19.4889 C   0  0  0  0  0  0
  -24.8627  -27.6823   19.5041 C   0  0  0  0  0  0
  -23.6068  -29.8190   20.1693 C   0  0  0  0  0  0
  -25.4095  -36.3085   24.0344 C   0  0  1  0  0  0
  -20.5861  -28.3628   23.1349 C   0  0  2  0  0  0
  -20.6751  -26.9360   22.5438 C   0  0  0  0  0  0
  -19.5716  -26.6360   21.5231 C   0  0  0  0  0  0
  -18.1898  -26.7900   22.1638 C   0  0  0  0  0  0
  -19.1522  -28.8803   23.2937 C   0  0  0  0  0  0
  -18.9454  -30.1423   23.8924 C   0  0  0  0  0  0
  -17.6450  -30.6557   24.0563 C   0  0  0  0  0  0
  -25.9044  -34.9452   23.5125 C   0  0  0  0  0  0
  -16.5348  -29.9049   23.6327 C   0  0  0  0  0  0
  -16.7275  -28.6441   23.0410 C   0  0  0  0  0  0
  -26.4545  -31.6562   25.0754 C   0  0  0  0  0  0
  -25.3851  -31.3662   26.1535 C   0  0  0  0  0  0
  -27.0405  -30.3002   24.6158 C   0  0  0  0  0  0
  -27.6084  -32.4335   25.7529 C   0  0  0  0  0  0
  -27.5567  -37.1793   24.8466 C   0  0  0  0  0  0
  -21.4134  -29.2998   22.3762 N   0  0  0  0  0  0
  -26.4261  -37.3788   23.9446 N   0  0  0  0  0  0
  -24.6676  -31.0714   22.1052 N   0  0  0  0  0  0
  -23.4155  -28.8199   23.3102 O   0  0  0  0  0  0
  -28.3917  -26.6754   20.1188 O   0  0  0  0  0  0
  -26.5575  -34.8904   22.4668 O   0  0  0  0  0  0
  -23.5373  -32.1393   23.7551 O   0  0  0  0  0  0
  -27.0353  -20.4127   21.3994 C   0  0  0  0  0  0
  -27.0196  -21.7907   21.0716 C   0  0  0  0  0  0
  -28.4567  -18.2035   21.5581 C   0  0  0  0  0  0
  -29.3646  -21.6573   20.4665 C   0  0  0  0  0  0
  -28.1997  -19.6118   21.2791 C   0  0  0  0  0  0
  -28.1885  -22.4243   20.5966 C   0  0  0  0  0  0
  -29.3671  -20.2901   20.8070 C   0  0  0  0  0  0
  -29.7766  -17.8670   21.3320 C   0  0  0  0  0  0
  -30.5808  -16.6284   21.5187 C   0  0  0  0  0  0
  -28.4501  -24.3651   19.1048 C   0  0  0  0  0  0
  -28.7194  -25.8849   18.9642 C   0  0  0  0  0  0
  -28.2125  -23.8252   20.3158 N   0  0  0  0  0  0
  -30.0317  -15.4514   21.1661 N   0  0  0  0  0  0
  -31.7386  -16.7315   21.9418 O   0  0  0  0  0  0
  -28.4637  -23.6712   18.0826 O   0  0  0  0  0  0
  -30.7356  -19.2035   20.7494 S   0  0  0  0  0  0
  -31.4462  -12.3739   19.0978 H   0  0  0  0  0  0
  -30.2869  -11.2791   19.7909 H   0  0  0  0  0  0
  -29.7101  -11.7773   17.4022 H   0  0  0  0  0  0
  -29.6394  -13.4863   17.7523 H   0  0  0  0  0  0
  -27.8193  -11.2955   18.8118 H   0  0  0  0  0  0
  -27.3403  -12.6149   17.7794 H   0  0  0  0  0  0
  -27.6974  -14.2411   19.5605 H   0  0  0  0  0  0
  -28.6666  -11.9357   21.3207 H   0  0  0  0  0  0
  -28.4530  -13.5708   21.8666 H   0  0  0  0  0  0
  -25.2730   -9.5720   22.4756 H   0  0  0  0  0  0
  -24.0010   -7.4645   22.7474 H   0  0  0  0  0  0
  -21.0828   -8.8731   19.8935 H   0  0  0  0  0  0
  -22.3647  -10.9663   19.6160 H   0  0  0  0  0  0
  -21.1980   -7.6148   23.9719 H   0  0  0  0  0  0
  -21.1481   -6.0531   25.9084 H   0  0  0  0  0  0
  -22.0598   -2.7615   23.2857 H   0  0  0  0  0  0
  -22.4106  -11.9876   22.4752 H   0  0  0  0  0  0
  -21.1114  -13.1261   22.2603 H   0  0  0  0  0  0
  -24.6695  -15.8432   20.5001 H   0  0  0  0  0  0
  -26.2802  -15.6148   20.0459 H   0  0  0  0  0  0
  -26.7146  -32.5482   23.1171 H   0  0  0  0  0  0
  -25.0204  -33.9762   25.0542 H   0  0  0  0  0  0
  -22.6909  -31.3042   21.4203 H   0  0  0  0  0  0
  -23.3733  -35.9638   23.3283 H   0  0  0  0  0  0
  -24.3564  -36.8946   22.2062 H   0  0  0  0  0  0
  -23.7220  -37.6502   23.6668 H   0  0  0  0  0  0
  -26.0437  -31.5864   20.6012 H   0  0  0  0  0  0
  -26.8168  -30.8706   21.9912 H   0  0  0  0  0  0
  -28.0875  -29.0752   21.1873 H   0  0  0  0  0  0
  -26.0312  -25.9529   19.0246 H   0  0  0  0  0  0
  -23.9693  -27.2786   19.0489 H   0  0  0  0  0  0
  -23.7109  -30.5956   19.4103 H   0  0  0  0  0  0
  -22.7287  -29.2412   19.8759 H   0  0  0  0  0  0
  -25.1238  -36.1949   25.0830 H   0  0  0  0  0  0
  -20.9952  -28.3175   24.1470 H   0  0  0  0  0  0
  -20.5661  -26.2233   23.3624 H   0  0  0  0  0  0
  -21.6620  -26.7406   22.1225 H   0  0  0  0  0  0
  -19.6860  -25.6290   21.1232 H   0  0  0  0  0  0
  -19.6632  -27.3210   20.6792 H   0  0  0  0  0  0
  -17.4184  -26.6759   21.4003 H   0  0  0  0  0  0
  -18.0230  -25.9996   22.8964 H   0  0  0  0  0  0
  -19.7937  -30.7243   24.2286 H   0  0  0  0  0  0
  -17.5002  -31.6248   24.5145 H   0  0  0  0  0  0
  -15.5343  -30.2942   23.7615 H   0  0  0  0  0  0
  -15.8691  -28.0718   22.7157 H   0  0  0  0  0  0
  -24.6025  -30.6985   25.7925 H   0  0  0  0  0  0
  -24.9081  -32.2832   26.5009 H   0  0  0  0  0  0
  -25.8277  -30.8852   27.0270 H   0  0  0  0  0  0
  -26.2959  -29.6706   24.1280 H   0  0  0  0  0  0
  -27.4239  -29.7283   25.4621 H   0  0  0  0  0  0
  -27.8759  -30.4293   23.9268 H   0  0  0  0  0  0
  -27.2642  -33.3621   26.2090 H   0  0  0  0  0  0
  -28.3915  -32.6921   25.0394 H   0  0  0  0  0  0
  -28.0737  -31.8501   26.5483 H   0  0  0  0  0  0
  -28.2556  -38.0113   24.7533 H   0  0  0  0  0  0
  -28.1085  -36.2649   24.6243 H   0  0  0  0  0  0
  -27.2305  -37.1402   25.8870 H   0  0  0  0  0  0
  -20.9289  -29.8704   21.6982 H   0  0  0  0  0  0
  -26.0133  -38.2849   24.1502 H   0  0  0  0  0  0
  -26.1303  -19.9504   21.7696 H   0  0  0  0  0  0
  -26.1010  -22.3528   21.1810 H   0  0  0  0  0  0
  -27.7020  -17.5256   21.9344 H   0  0  0  0  0  0
  -30.2831  -22.1110   20.1236 H   0  0  0  0  0  0
  -28.2388  -26.2615   18.0610 H   0  0  0  0  0  0
  -29.7913  -26.0038   18.8004 H   0  0  0  0  0  0
  -28.1222  -24.4684   21.0918 H   0  0  0  0  0  0
  -29.0303  -15.3756   21.2017 H   0  0  0  0  0  0
  1 25  1  0  0  0
  1 30  2  0  0  0
  1 83  1  0  0  0
  2  3  1  0  0  0
  2 25  1  0  0  0
  2 87  1  0  0  0
  2 88  1  0  0  0
  3  4  1  0  0  0
  3 89  1  0  0  0
  3 90  1  0  0  0
  4  5  1  0  0  0
  4 91  1  0  0  0
  4 92  1  0  0  0
  5  6  1  0  0  0
  5 26  1  0  0  0
  5 93  1  0  0  0
  6 25  1  0  0  0
  6 94  1  0  0  0
  6 95  1  0  0  0
  7  8  2  0  0  0
  7 26  1  0  0  0
  7 29  1  0  0  0
  8  9  1  0  0  0
  8 22  1  0  0  0
  9 10  1  0  0  0
  9 27  2  0  0  0
 10 11  2  0  0  0
 10 15  1  0  0  0
 11 12  1  0  0  0
 11 96  1  0  0  0
 12 13  2  0  0  0
 12 97  1  0  0  0
 13 14  1  0  0  0
 13 31  1  0  0  0
 14 15  2  0  0  0
 14 98  1  0  0  0
 15 99  1  0  0  0
 16 17  2  0  0  0
 16 21  1  0  0  0
 16 31  1  0  0  0
 17 18  1  0  0  0
 17100  1  0  0  0
 18 19  2  0  0  0
 18101  1  0  0  0
 19 20  1  0  0  0
 19 24  1  0  0  0
 20 21  2  0  0  0
 20102  1  0  0  0
 21 23  1  0  0  0
 22 28  1  0  0  0
 22 32  2  0  0  0
 26 27  1  0  0  0
 28103  1  0  0  0
 28104  1  0  0  0
 29105  1  0  0  0
 29106  1  0  0  0
 33 34  1  0  0  0
 33 66  1  0  0  0
 33 70  2  0  0  0
 34 36  1  0  0  0
 34 59  1  0  0  0
 34107  1  0  0  0
 35 44  2  0  0  0
 35 45  1  0  0  0
 35 68  1  0  0  0
 36 56  1  0  0  0
 36108  1  0  0  0
 37 39  1  0  0  0
 37 47  1  0  0  0
 37 66  1  0  0  0
 37109  1  0  0  0
 38 43  2  0  0  0
 38 46  1  0  0  0
 38 47  1  0  0  0
 39 64  1  0  0  0
 39 67  2  0  0  0
 40 52  1  0  0  0
 40 53  2  0  0  0
 40 58  1  0  0  0
 41110  1  0  0  0
 41111  1  0  0  0
 41112  1  0  0  0
 41 48  1  0  0  0
 42 43  1  0  0  0
 42 66  1  0  0  0
 42113  1  0  0  0
 42114  1  0  0  0
 43 44  1  0  0  0
 44115  1  0  0  0
 45 46  2  0  0  0
 45116  1  0  0  0
 46117  1  0  0  0
 47118  1  0  0  0
 47119  1  0  0  0
 48 56  1  0  0  0
 48 65  1  0  0  0
 48120  1  0  0  0
 49 50  1  0  0  0
 49 53  1  0  0  0
 49 64  1  0  0  0
 49121  1  0  0  0
 50 51  1  0  0  0
 50122  1  0  0  0
 50123  1  0  0  0
 51 52  1  0  0  0
 51124  1  0  0  0
 51125  1  0  0  0
 52126  1  0  0  0
 52127  1  0  0  0
 53 54  1  0  0  0
 54 55  2  0  0  0
 54128  1  0  0  0
 55 57  1  0  0  0
 55129  1  0  0  0
 56 69  2  0  0  0
 57 58  2  0  0  0
 57130  1  0  0  0
 58131  1  0  0  0
 59 60  1  0  0  0
 59 61  1  0  0  0
 59 62  1  0  0  0
 60132  1  0  0  0
 60133  1  0  0  0
 60134  1  0  0  0
 61135  1  0  0  0
 61136  1  0  0  0
 61137  1  0  0  0
 62138  1  0  0  0
 62139  1  0  0  0
 62140  1  0  0  0
 63 65  1  0  0  0
 63141  1  0  0  0
 63142  1  0  0  0
 63143  1  0  0  0
 64144  1  0  0  0
 65145  1  0  0  0
 68 81  1  0  0  0
 71 72  2  0  0  0
 71 75  1  0  0  0
 71146  1  0  0  0
 72 76  1  0  0  0
 72147  1  0  0  0
 73 75  1  0  0  0
 73 78  2  0  0  0
 73148  1  0  0  0
 74 76  2  0  0  0
 74 77  1  0  0  0
 74149  1  0  0  0
 75 77  2  0  0  0
 76 82  1  0  0  0
 77 86  1  0  0  0
 78 79  1  0  0  0
 78 86  1  0  0  0
 79 83  1  0  0  0
 79 84  2  0  0  0
 80 81  1  0  0  0
 80 82  1  0  0  0
 80 85  2  0  0  0
 81150  1  0  0  0
 81151  1  0  0  0
 82152  1  0  0  0
 83153  1  0  0  0
M  ISO  4   1 100  68 101  81 101  83 100
M  END
> <chiral flag>
0

> <version>
0

> <s_m_source_file>
/data/baiqing/PycharmProjects/Reinvent-master-3.2/result/LINK_invent/BTK/process_docking_weight1_custom_product_contain_oxygen_bond_distance_aromatic_linkinvent_7_9_3/rearranged_h_0082.sdf

> <i_m_source_file_index>
15

> <r_mmod_Potential_Energy-OPLS-2005>
-179.965515136719

> <r_mmod_Stretch_Energy-OPLS-2005>
37.3661041259766

> <r_mmod_Bend_Energy-OPLS-2005>
109.098472595215

> <r_mmod_Torsional_Energy-OPLS-2005>
277.905395507812

> <r_mmod_Improper_Torsional_Energy-OPLS-2005>
4.37844467163086

> <r_mmod_Van_der_Waal_Energy-OPLS-2005>
154.572158813477

> <r_mmod_Electrostatic_Energy-OPLS-2005>
-527.898803710938

> <r_mmod_Solvation_Energy-OPLS-2005>
-249.403930664062

> <b_mmod_Minimization_Converged-OPLS-2005>
0

> <r_mmod_RMS_Derivative-OPLS-2005>
3.17152142524719

$$$$
15
                    3D
 Structure written by MMmdl.
150159  0  0  1  0            999 V2000
  -30.5238  -14.9207   20.4124 C   0  0  0  0  0  0
  -30.4541  -12.5667   19.4884 C   0  0  0  0  0  0
  -29.5240  -12.5164   18.2532 C   0  0  0  0  0  0
  -28.0596  -12.2979   18.6805 C   0  0  0  0  0  0
  -27.6362  -13.2339   19.8414 C   0  0  2  0  0  0
  -28.6820  -13.2416   20.9771 C   0  0  0  0  0  0
  -25.2500  -13.8189   20.5690 C   0  0  0  0  0  0
  -24.1801  -13.0436   20.9221 C   0  0  0  0  0  0
  -24.6399  -11.6912   20.8760 C   0  0  0  0  0  0
  -23.9073  -10.4298   21.0413 C   0  0  0  0  0  0
  -24.3625   -9.4212   21.9186 C   0  0  0  0  0  0
  -23.6292   -8.2244   22.0758 C   0  0  0  0  0  0
  -22.4271   -8.0282   21.3556 C   0  0  0  0  0  0
  -21.9922   -9.0255   20.4656 C   0  0  0  0  0  0
  -22.7253  -10.2133   20.3062 C   0  0  0  0  0  0
  -21.6849   -6.0733   22.5274 C   0  0  0  0  0  0
  -21.4016   -6.5641   23.8208 C   0  0  0  0  0  0
  -21.3657   -5.6789   24.9168 C   0  0  0  0  0  0
  -21.6047   -4.3052   24.7219 C   0  0  0  0  0  0
  -21.8818   -3.8149   23.4341 C   0  0  0  0  0  0
  -21.9197   -4.6963   22.3399 C   0  0  0  0  0  0
  -22.7818  -13.5222   21.1883 C   0  0  0  0  0  0
  -22.1658   -4.2153   21.0969 F   0  0  0  0  0  0
  -21.5634   -3.4534   25.7737 F   0  0  0  0  0  0
  -29.9631  -13.6485   20.3820 N   0  0  0  0  0  0
  -26.2912  -12.9391   20.3270 N   0  0  0  0  0  0
  -25.9326  -11.6540   20.5756 N   0  0  0  0  0  0
  -22.0467  -12.8203   22.0423 N   0  0  0  0  0  0
  -25.4190  -15.1918   20.4106 N   0  0  0  0  0  0
  -31.7257  -15.0347   20.1439 O   0  0  0  0  0  0
  -21.6635   -6.8886   21.4235 O   0  0  0  0  0  0
  -22.3522  -14.5534   20.6724 O   0  0  0  0  0  0
  -24.6431  -31.8464   23.1866 C   0  0  0  0  0  0
  -25.9196  -32.4698   23.8271 C   0  0  1  0  0  0
  -27.2222  -27.1546   20.1459 C   0  0  0  0  0  0
  -25.5954  -33.8513   24.2194 N   0  0  0  0  0  0
  -23.4465  -30.4630   21.5327 C   0  0  2  0  0  0
  -24.8944  -28.8874   20.1137 C   0  0  0  0  0  0
  -22.7588  -29.4542   22.4864 C   0  0  0  0  0  0
  -18.0314  -28.1394   22.8460 C   0  0  0  0  0  0
  -24.1488  -36.7264   23.2650 C   0  0  0  0  0  0
  -26.0007  -30.7248   21.3808 C   0  0  0  0  0  0
  -26.0723  -29.3348   20.7256 C   0  0  0  0  0  0
  -27.2414  -28.4865   20.7186 C   0  0  0  0  0  0
  -26.0154  -26.7945   19.5098 C   0  0  0  0  0  0
  -24.8765  -27.6284   19.4913 C   0  0  0  0  0  0
  -23.6750  -29.7936   20.1512 C   0  0  0  0  0  0
  -25.4111  -36.3030   24.0338 C   0  0  1  0  0  0
  -20.5920  -28.3720   23.1239 C   0  0  2  0  0  0
  -20.6786  -26.9427   22.5399 C   0  0  0  0  0  0
  -19.5755  -26.6381   21.5205 C   0  0  0  0  0  0
  -18.1940  -26.7926   22.1620 C   0  0  0  0  0  0
  -19.1576  -28.8879   23.2827 C   0  0  0  0  0  0
  -18.9504  -30.1466   23.8859 C   0  0  0  0  0  0
  -17.6504  -30.6588   24.0567 C   0  0  0  0  0  0
  -25.9073  -34.9415   23.5067 C   0  0  0  0  0  0
  -16.5386  -29.9086   23.6332 C   0  0  0  0  0  0
  -16.7306  -28.6518   23.0320 C   0  0  0  0  0  0
  -26.4523  -31.6558   25.0691 C   0  0  0  0  0  0
  -25.3725  -31.3757   26.1403 C   0  0  0  0  0  0
  -27.0393  -30.2978   24.6221 C   0  0  0  0  0  0
  -27.6065  -32.4323   25.7476 C   0  0  0  0  0  0
  -27.5572  -37.1766   24.8467 C   0  0  0  0  0  0
  -21.4287  -29.3047   22.3622 N   0  0  0  0  0  0
  -26.4268  -37.3752   23.9430 N   0  0  0  0  0  0
  -24.7169  -31.0325   22.0893 N   0  0  0  0  0  0
  -23.4233  -28.8085   23.3012 O   0  0  0  0  0  0
  -28.2982  -26.2020   20.1430 O   0  0  0  0  0  0
  -26.5664  -34.8918   22.4643 O   0  0  0  0  0  0
  -23.5553  -32.1328   23.7098 O   0  0  0  0  0  0
  -28.8125  -19.7051   19.2823 C   0  0  0  0  0  0
  -29.0183  -18.2610   19.3463 C   0  0  0  0  0  0
  -30.1634  -18.4683   21.4233 C   0  0  0  0  0  0
  -29.2604  -20.5701   20.3244 C   0  0  0  0  0  0
  -29.7045  -17.5554   20.4073 C   0  0  0  0  0  0
  -29.9267  -19.9002   21.3547 C   0  0  0  0  0  0
  -29.8865  -22.1236   21.8653 C   0  0  0  0  0  0
  -28.8136  -23.3450   19.8567 C   0  0  0  0  0  0
  -28.0975  -24.7129   20.5318 C   0  0  0  0  0  0
  -29.1852  -22.0333   20.6521 N   0  0  0  0  0  0
  -29.6560  -16.0322   20.5415 N   0  0  0  0  0  0
  -30.1751  -23.1481   22.4866 O   0  0  0  0  0  0
  -30.2783  -20.8520   22.2688 O   0  0  0  0  0  0
  -31.4844  -12.7381   19.1714 H   0  0  0  0  0  0
  -30.4550  -11.6109   20.0132 H   0  0  0  0  0  0
  -29.8385  -11.7204   17.5771 H   0  0  0  0  0  0
  -29.6054  -13.4469   17.6898 H   0  0  0  0  0  0
  -27.9690  -11.2598   19.0036 H   0  0  0  0  0  0
  -27.3882  -12.4117   17.8298 H   0  0  0  0  0  0
  -27.6070  -14.2353   19.4128 H   0  0  0  0  0  0
  -28.7641  -12.2602   21.4460 H   0  0  0  0  0  0
  -28.3869  -13.9344   21.7661 H   0  0  0  0  0  0
  -25.2768   -9.5668   22.4770 H   0  0  0  0  0  0
  -23.9990   -7.4640   22.7475 H   0  0  0  0  0  0
  -21.0862   -8.8796   19.8955 H   0  0  0  0  0  0
  -22.3731  -10.9677   19.6178 H   0  0  0  0  0  0
  -21.2003   -7.6148   23.9717 H   0  0  0  0  0  0
  -21.1479   -6.0515   25.9074 H   0  0  0  0  0  0
  -22.0602   -2.7609   23.2839 H   0  0  0  0  0  0
  -22.4064  -11.9847   22.4782 H   0  0  0  0  0  0
  -21.1101  -13.1252   22.2656 H   0  0  0  0  0  0
  -24.6469  -15.8410   20.5169 H   0  0  0  0  0  0
  -26.2573  -15.6347   20.0576 H   0  0  0  0  0  0
  -26.7264  -32.5316   23.1004 H   0  0  0  0  0  0
  -25.0058  -33.9630   25.0316 H   0  0  0  0  0  0
  -22.7462  -31.2865   21.3752 H   0  0  0  0  0  0
  -23.3750  -35.9590   23.3282 H   0  0  0  0  0  0
  -24.3585  -36.8925   22.2061 H   0  0  0  0  0  0
  -23.7235  -37.6457   23.6703 H   0  0  0  0  0  0
  -26.1439  -31.4763   20.6037 H   0  0  0  0  0  0
  -26.8761  -30.7811   22.0152 H   0  0  0  0  0  0
  -28.1464  -28.8284   21.2001 H   0  0  0  0  0  0
  -25.9368  -25.8324   19.0240 H   0  0  0  0  0  0
  -23.9777  -27.2789   19.0018 H   0  0  0  0  0  0
  -23.8257  -30.5699   19.3990 H   0  0  0  0  0  0
  -22.7895  -29.2447   19.8301 H   0  0  0  0  0  0
  -25.1269  -36.1866   25.0826 H   0  0  0  0  0  0
  -20.9993  -28.3292   24.1371 H   0  0  0  0  0  0
  -20.5682  -26.2336   23.3616 H   0  0  0  0  0  0
  -21.6653  -26.7424   22.1196 H   0  0  0  0  0  0
  -19.6938  -25.6288   21.1233 H   0  0  0  0  0  0
  -19.6698  -27.3189   20.6717 H   0  0  0  0  0  0
  -17.4210  -26.6680   21.4011 H   0  0  0  0  0  0
  -18.0337  -26.0077   22.9014 H   0  0  0  0  0  0
  -19.7984  -30.7269   24.2209 H   0  0  0  0  0  0
  -17.5070  -31.6262   24.5175 H   0  0  0  0  0  0
  -15.5385  -30.2981   23.7684 H   0  0  0  0  0  0
  -15.8697  -28.0849   22.7013 H   0  0  0  0  0  0
  -24.5924  -30.7077   25.7763 H   0  0  0  0  0  0
  -24.8891  -32.2943   26.4746 H   0  0  0  0  0  0
  -25.8019  -30.9018   27.0247 H   0  0  0  0  0  0
  -26.2998  -29.6694   24.1256 H   0  0  0  0  0  0
  -27.4091  -29.7274   25.4760 H   0  0  0  0  0  0
  -27.8860  -30.4251   23.9479 H   0  0  0  0  0  0
  -27.2675  -33.3684   26.1932 H   0  0  0  0  0  0
  -28.3927  -32.6781   25.0326 H   0  0  0  0  0  0
  -28.0660  -31.8516   26.5492 H   0  0  0  0  0  0
  -28.2535  -38.0102   24.7530 H   0  0  0  0  0  0
  -28.1105  -36.2635   24.6241 H   0  0  0  0  0  0
  -27.2311  -37.1347   25.8873 H   0  0  0  0  0  0
  -20.9502  -29.8831   21.6858 H   0  0  0  0  0  0
  -26.0138  -38.2817   24.1470 H   0  0  0  0  0  0
  -28.2734  -20.1247   18.4441 H   0  0  0  0  0  0
  -28.5936  -17.6704   18.5483 H   0  0  0  0  0  0
  -30.6565  -18.0736   22.2992 H   0  0  0  0  0  0
  -29.7620  -23.6816   19.4326 H   0  0  0  0  0  0
  -28.2210  -23.0405   18.9946 H   0  0  0  0  0  0
  -28.3461  -24.6999   21.5905 H   0  0  0  0  0  0
  -27.0269  -24.5106   20.5322 H   0  0  0  0  0  0
  -28.7119  -15.6970   20.6510 H   0  0  0  0  0  0
  1 25  1  0  0  0
  1 30  2  0  0  0
  1 81  1  0  0  0
  2  3  1  0  0  0
  2 25  1  0  0  0
  2 84  1  0  0  0
  2 85  1  0  0  0
  3  4  1  0  0  0
  3 86  1  0  0  0
  3 87  1  0  0  0
  4  5  1  0  0  0
  4 88  1  0  0  0
  4 89  1  0  0  0
  5  6  1  0  0  0
  5 26  1  0  0  0
  5 90  1  0  0  0
  6 25  1  0  0  0
  6 91  1  0  0  0
  6 92  1  0  0  0
  7  8  2  0  0  0
  7 26  1  0  0  0
  7 29  1  0  0  0
  8  9  1  0  0  0
  8 22  1  0  0  0
  9 10  1  0  0  0
  9 27  2  0  0  0
 10 11  2  0  0  0
 10 15  1  0  0  0
 11 12  1  0  0  0
 11 93  1  0  0  0
 12 13  2  0  0  0
 12 94  1  0  0  0
 13 14  1  0  0  0
 13 31  1  0  0  0
 14 15  2  0  0  0
 14 95  1  0  0  0
 15 96  1  0  0  0
 16 17  2  0  0  0
 16 21  1  0  0  0
 16 31  1  0  0  0
 17 18  1  0  0  0
 17 97  1  0  0  0
 18 19  2  0  0  0
 18 98  1  0  0  0
 19 20  1  0  0  0
 19 24  1  0  0  0
 20 21  2  0  0  0
 20 99  1  0  0  0
 21 23  1  0  0  0
 22 28  1  0  0  0
 22 32  2  0  0  0
 26 27  1  0  0  0
 28100  1  0  0  0
 28101  1  0  0  0
 29102  1  0  0  0
 29103  1  0  0  0
 33 34  1  0  0  0
 33 66  1  0  0  0
 33 70  2  0  0  0
 34 36  1  0  0  0
 34 59  1  0  0  0
 34104  1  0  0  0
 35 44  2  0  0  0
 35 45  1  0  0  0
 35 68  1  0  0  0
 36 56  1  0  0  0
 36105  1  0  0  0
 37 39  1  0  0  0
 37 47  1  0  0  0
 37 66  1  0  0  0
 37106  1  0  0  0
 38 43  2  0  0  0
 38 46  1  0  0  0
 38 47  1  0  0  0
 39 64  1  0  0  0
 39 67  2  0  0  0
 40 52  1  0  0  0
 40 53  2  0  0  0
 40 58  1  0  0  0
 41107  1  0  0  0
 41108  1  0  0  0
 41109  1  0  0  0
 41 48  1  0  0  0
 42 43  1  0  0  0
 42 66  1  0  0  0
 42110  1  0  0  0
 42111  1  0  0  0
 43 44  1  0  0  0
 44112  1  0  0  0
 45 46  2  0  0  0
 45113  1  0  0  0
 46114  1  0  0  0
 47115  1  0  0  0
 47116  1  0  0  0
 48 56  1  0  0  0
 48 65  1  0  0  0
 48117  1  0  0  0
 49 50  1  0  0  0
 49 53  1  0  0  0
 49 64  1  0  0  0
 49118  1  0  0  0
 50 51  1  0  0  0
 50119  1  0  0  0
 50120  1  0  0  0
 51 52  1  0  0  0
 51121  1  0  0  0
 51122  1  0  0  0
 52123  1  0  0  0
 52124  1  0  0  0
 53 54  1  0  0  0
 54 55  2  0  0  0
 54125  1  0  0  0
 55 57  1  0  0  0
 55126  1  0  0  0
 56 69  2  0  0  0
 57 58  2  0  0  0
 57127  1  0  0  0
 58128  1  0  0  0
 59 60  1  0  0  0
 59 61  1  0  0  0
 59 62  1  0  0  0
 60129  1  0  0  0
 60130  1  0  0  0
 60131  1  0  0  0
 61132  1  0  0  0
 61133  1  0  0  0
 61134  1  0  0  0
 62135  1  0  0  0
 62136  1  0  0  0
 62137  1  0  0  0
 63 65  1  0  0  0
 63138  1  0  0  0
 63139  1  0  0  0
 63140  1  0  0  0
 64141  1  0  0  0
 65142  1  0  0  0
 68 79  1  0  0  0
 71 72  2  0  0  0
 71 74  1  0  0  0
 71143  1  0  0  0
 72 75  1  0  0  0
 72144  1  0  0  0
 73 75  2  0  0  0
 73 76  1  0  0  0
 73145  1  0  0  0
 74 76  2  0  0  0
 74 80  1  0  0  0
 75 81  1  0  0  0
 76 83  1  0  0  0
 77 80  1  0  0  0
 77 82  2  0  0  0
 77 83  1  0  0  0
 78 79  1  0  0  0
 78 80  1  0  0  0
 78146  1  0  0  0
 78147  1  0  0  0
 79148  1  0  0  0
 79149  1  0  0  0
 81150  1  0  0  0
M  ISO  4   1 100  68 101  79 101  81 100
M  END
> <chiral flag>
0

> <version>
0

> <s_m_source_file>
/data/baiqing/PycharmProjects/Reinvent-master-3.2/result/LINK_invent/BTK/process_docking_weight1_custom_product_contain_oxygen_bond_distance_aromatic_linkinvent_7_9_3/rearranged_h_0082.sdf

> <i_m_source_file_index>
16

> <r_mmod_Potential_Energy-OPLS-2005>
500.27490234375

> <r_mmod_Stretch_Energy-OPLS-2005>
213.494232177734

> <r_mmod_Bend_Energy-OPLS-2005>
316.630187988281

> <r_mmod_Torsional_Energy-OPLS-2005>
268.570831298828

> <r_mmod_Improper_Torsional_Energy-OPLS-2005>
7.29577493667603

> <r_mmod_Van_der_Waal_Energy-OPLS-2005>
124.211311340332

> <r_mmod_Electrostatic_Energy-OPLS-2005>
-368.883605957031

> <r_mmod_Solvation_Energy-OPLS-2005>
-234.13996887207

> <b_mmod_Minimization_Converged-OPLS-2005>
0

> <r_mmod_RMS_Derivative-OPLS-2005>
2.8805718421936

$$$$
16
                    3D
 Structure written by MMmdl.
145153  0  0  1  0            999 V2000
  -30.0972  -16.2248   20.2752 C   0  0  0  0  0  0
  -30.3730  -13.5278   19.5300 C   0  0  0  0  0  0
  -29.5683  -12.8245   18.3781 C   0  0  0  0  0  0
  -28.1920  -12.3431   18.8508 C   0  0  0  0  0  0
  -27.5776  -13.3797   19.8097 C   0  0  2  0  0  0
  -28.5583  -13.9570   20.8794 C   0  0  0  0  0  0
  -25.2142  -13.8287   20.5970 C   0  0  0  0  0  0
  -24.1630  -13.0327   20.9353 C   0  0  0  0  0  0
  -24.6485  -11.6912   20.8751 C   0  0  0  0  0  0
  -23.9206  -10.4244   21.0352 C   0  0  0  0  0  0
  -24.3704   -9.4171   21.9165 C   0  0  0  0  0  0
  -23.6330   -8.2235   22.0760 C   0  0  0  0  0  0
  -22.4306   -8.0284   21.3549 C   0  0  0  0  0  0
  -21.9972   -9.0261   20.4642 C   0  0  0  0  0  0
  -22.7353  -10.2104   20.3024 C   0  0  0  0  0  0
  -21.6857   -6.0746   22.5282 C   0  0  0  0  0  0
  -21.4024   -6.5647   23.8215 C   0  0  0  0  0  0
  -21.3662   -5.6797   24.9174 C   0  0  0  0  0  0
  -21.6042   -4.3060   24.7220 C   0  0  0  0  0  0
  -21.8818   -3.8153   23.4341 C   0  0  0  0  0  0
  -21.9193   -4.6974   22.3397 C   0  0  0  0  0  0
  -22.7620  -13.5013   21.1947 C   0  0  0  0  0  0
  -22.1661   -4.2164   21.0974 F   0  0  0  0  0  0
  -21.5624   -3.4540   25.7731 F   0  0  0  0  0  0
  -29.6323  -14.7578   20.1799 N   0  0  0  0  0  0
  -26.2758  -12.9855   20.3383 N   0  0  0  0  0  0
  -25.9467  -11.6824   20.5667 N   0  0  0  0  0  0
  -22.0294  -12.8007   22.0512 N   0  0  0  0  0  0
  -25.3316  -15.2021   20.4571 N   0  0  0  0  0  0
  -31.3439  -16.0463   20.2133 O   0  0  0  0  0  0
  -21.6640   -6.8898   21.4250 O   0  0  0  0  0  0
  -22.3281  -14.5309   20.6775 O   0  0  0  0  0  0
  -24.7191  -31.7533   23.1186 C   0  0  0  0  0  0
  -25.9585  -32.4240   23.7879 C   0  0  1  0  0  0
  -27.2562  -26.3142   20.2448 C   0  0  0  0  0  0
  -25.6005  -33.8090   24.1722 N   0  0  0  0  0  0
  -23.5638  -30.3349   21.4813 C   0  0  2  0  0  0
  -25.0289  -28.5925   20.1258 C   0  0  0  0  0  0
  -22.7925  -29.4055   22.4608 C   0  0  0  0  0  0
  -18.0351  -28.1443   22.8432 C   0  0  0  0  0  0
  -24.1496  -36.7060   23.2665 C   0  0  0  0  0  0
  -26.1574  -30.3551   21.4447 C   0  0  0  0  0  0
  -26.2192  -28.8762   20.8027 C   0  0  0  0  0  0
  -27.2906  -27.7755   20.8245 C   0  0  0  0  0  0
  -26.0321  -26.3420   19.4942 C   0  0  0  0  0  0
  -24.9973  -27.3555   19.4475 C   0  0  0  0  0  0
  -23.8403  -29.5929   20.1337 C   0  0  0  0  0  0
  -25.4161  -36.2766   24.0251 C   0  0  1  0  0  0
  -20.6005  -28.3816   23.1077 C   0  0  2  0  0  0
  -20.6799  -26.9439   22.5421 C   0  0  0  0  0  0
  -19.5784  -26.6355   21.5227 C   0  0  0  0  0  0
  -18.1963  -26.7958   22.1615 C   0  0  0  0  0  0
  -19.1628  -28.8963   23.2720 C   0  0  0  0  0  0
  -18.9530  -30.1536   23.8783 C   0  0  0  0  0  0
  -17.6516  -30.6616   24.0541 C   0  0  0  0  0  0
  -25.9160  -34.9164   23.4855 C   0  0  0  0  0  0
  -16.5402  -29.9093   23.6362 C   0  0  0  0  0  0
  -16.7327  -28.6518   23.0374 C   0  0  0  0  0  0
  -26.4641  -31.6444   25.0663 C   0  0  0  0  0  0
  -25.3612  -31.3883   26.1215 C   0  0  0  0  0  0
  -27.0638  -30.2742   24.6849 C   0  0  0  0  0  0
  -27.6009  -32.4400   25.7509 C   0  0  0  0  0  0
  -27.5546  -37.1687   24.8464 C   0  0  0  0  0  0
  -21.4537  -29.2980   22.3357 N   0  0  0  0  0  0
  -26.4254  -37.3568   23.9400 N   0  0  0  0  0  0
  -24.8416  -30.8579   22.0665 N   0  0  0  0  0  0
  -23.4188  -28.7722   23.3133 O   0  0  0  0  0  0
  -28.2016  -24.9424   20.3497 O   0  0  0  0  0  0
  -26.5865  -34.8817   22.4516 O   0  0  0  0  0  0
  -23.6129  -32.0796   23.5888 O   0  0  0  0  0  0
  -27.9560  -19.1899   19.3942 C   0  0  0  0  0  0
  -28.0921  -17.7952   19.7822 C   0  0  0  0  0  0
  -26.9164  -19.7722   18.7730 C   0  0  0  0  0  0
  -28.3201  -23.1920   20.1231 C   0  0  0  0  0  0
  -28.7441  -21.6275   20.5487 C   0  0  0  0  0  0
  -29.2412  -19.7109   19.9540 C   0  0  1  0  0  0
  -28.8852  -21.4221   22.0563 C   0  0  0  0  0  0
  -29.3609  -17.7593   20.2343 N   0  0  0  0  0  0
  -27.3152  -16.8613   19.6031 O   0  0  0  0  0  0
  -31.3144  -13.8674   19.0968 H   0  0  0  0  0  0
  -30.6762  -12.8011   20.2862 H   0  0  0  0  0  0
  -30.1377  -11.9917   17.9635 H   0  0  0  0  0  0
  -29.4358  -13.5373   17.5631 H   0  0  0  0  0  0
  -28.3212  -11.3956   19.3758 H   0  0  0  0  0  0
  -27.5340  -12.1470   18.0035 H   0  0  0  0  0  0
  -27.3551  -14.2190   19.1494 H   0  0  0  0  0  0
  -28.9466  -13.1802   21.5407 H   0  0  0  0  0  0
  -28.0169  -14.6464   21.5284 H   0  0  0  0  0  0
  -25.2832   -9.5641   22.4765 H   0  0  0  0  0  0
  -24.0010   -7.4634   22.7502 H   0  0  0  0  0  0
  -21.0896   -8.8802   19.8955 H   0  0  0  0  0  0
  -22.3821  -10.9647   19.6136 H   0  0  0  0  0  0
  -21.2027   -7.6156   23.9724 H   0  0  0  0  0  0
  -21.1486   -6.0524   25.9078 H   0  0  0  0  0  0
  -22.0594   -2.7618   23.2827 H   0  0  0  0  0  0
  -22.3936  -11.9704   22.4946 H   0  0  0  0  0  0
  -21.0899  -13.1015   22.2695 H   0  0  0  0  0  0
  -24.5361  -15.8176   20.5786 H   0  0  0  0  0  0
  -26.1610  -15.6992   20.1206 H   0  0  0  0  0  0
  -26.7704  -32.4628   23.0614 H   0  0  0  0  0  0
  -24.9983  -33.9063   24.9763 H   0  0  0  0  0  0
  -22.9109  -31.1813   21.2560 H   0  0  0  0  0  0
  -23.3779  -35.9366   23.3255 H   0  0  0  0  0  0
  -24.3542  -36.8819   22.2093 H   0  0  0  0  0  0
  -23.7242  -37.6199   23.6823 H   0  0  0  0  0  0
  -26.3985  -31.0515   20.6407 H   0  0  0  0  0  0
  -26.9949  -30.4395   22.1238 H   0  0  0  0  0  0
  -28.1737  -28.0111   21.4016 H   0  0  0  0  0  0
  -25.8093  -25.4347   18.9509 H   0  0  0  0  0  0
  -24.1125  -27.1235   18.8707 H   0  0  0  0  0  0
  -24.0447  -30.3360   19.3622 H   0  0  0  0  0  0
  -22.9382  -29.0763   19.8014 H   0  0  0  0  0  0
  -25.1391  -36.1475   25.0740 H   0  0  0  0  0  0
  -21.0062  -28.3474   24.1213 H   0  0  0  0  0  0
  -20.5628  -26.2449   23.3718 H   0  0  0  0  0  0
  -21.6657  -26.7322   22.1264 H   0  0  0  0  0  0
  -19.6936  -25.6236   21.1329 H   0  0  0  0  0  0
  -19.6743  -27.3106   20.6710 H   0  0  0  0  0  0
  -17.4238  -26.6696   21.4015 H   0  0  0  0  0  0
  -18.0335  -26.0132   22.9039 H   0  0  0  0  0  0
  -19.8008  -30.7375   24.2111 H   0  0  0  0  0  0
  -17.5069  -31.6284   24.5167 H   0  0  0  0  0  0
  -15.5401  -30.2965   23.7753 H   0  0  0  0  0  0
  -15.8722  -28.0803   22.7158 H   0  0  0  0  0  0
  -24.5829  -30.7197   25.7516 H   0  0  0  0  0  0
  -24.8780  -32.3150   26.4324 H   0  0  0  0  0  0
  -25.7710  -30.9257   27.0202 H   0  0  0  0  0  0
  -26.3426  -29.6229   24.1904 H   0  0  0  0  0  0
  -27.3964  -29.7350   25.5728 H   0  0  0  0  0  0
  -27.9439  -30.3776   24.0504 H   0  0  0  0  0  0
  -27.2481  -33.3805   26.1752 H   0  0  0  0  0  0
  -28.3992  -32.6796   25.0473 H   0  0  0  0  0  0
  -28.0482  -31.8767   26.5708 H   0  0  0  0  0  0
  -28.2520  -38.0019   24.7496 H   0  0  0  0  0  0
  -28.1082  -36.2535   24.6312 H   0  0  0  0  0  0
  -27.2253  -37.1335   25.8864 H   0  0  0  0  0  0
  -20.9939  -29.8582   21.6315 H   0  0  0  0  0  0
  -26.0047  -38.2600   24.1417 H   0  0  0  0  0  0
  -26.0555  -19.1924   18.4722 H   0  0  0  0  0  0
  -26.9111  -20.8294   18.5527 H   0  0  0  0  0  0
  -27.9342  -23.2429   21.1240 H   0  0  0  0  0  0
  -29.9910  -19.9426   19.1965 H   0  0  0  0  0  0
  -28.9952  -22.3450   22.6275 H   0  0  0  0  0  0
  -29.7732  -20.8253   22.2671 H   0  0  0  0  0  0
  -28.0220  -20.8780   22.4403 H   0  0  0  0  0  0
  1 25  1  0  0  0
  1 30  2  0  0  0
  1 78  1  0  0  0
  2  3  1  0  0  0
  2 25  1  0  0  0
  2 80  1  0  0  0
  2 81  1  0  0  0
  3  4  1  0  0  0
  3 82  1  0  0  0
  3 83  1  0  0  0
  4  5  1  0  0  0
  4 84  1  0  0  0
  4 85  1  0  0  0
  5  6  1  0  0  0
  5 26  1  0  0  0
  5 86  1  0  0  0
  6 25  1  0  0  0
  6 87  1  0  0  0
  6 88  1  0  0  0
  7  8  2  0  0  0
  7 26  1  0  0  0
  7 29  1  0  0  0
  8  9  1  0  0  0
  8 22  1  0  0  0
  9 10  1  0  0  0
  9 27  2  0  0  0
 10 11  2  0  0  0
 10 15  1  0  0  0
 11 12  1  0  0  0
 11 89  1  0  0  0
 12 13  2  0  0  0
 12 90  1  0  0  0
 13 14  1  0  0  0
 13 31  1  0  0  0
 14 15  2  0  0  0
 14 91  1  0  0  0
 15 92  1  0  0  0
 16 17  2  0  0  0
 16 21  1  0  0  0
 16 31  1  0  0  0
 17 18  1  0  0  0
 17 93  1  0  0  0
 18 19  2  0  0  0
 18 94  1  0  0  0
 19 20  1  0  0  0
 19 24  1  0  0  0
 20 21  2  0  0  0
 20 95  1  0  0  0
 21 23  1  0  0  0
 22 28  1  0  0  0
 22 32  2  0  0  0
 26 27  1  0  0  0
 28 96  1  0  0  0
 28 97  1  0  0  0
 29 98  1  0  0  0
 29 99  1  0  0  0
 33 34  1  0  0  0
 33 66  1  0  0  0
 33 70  2  0  0  0
 34 36  1  0  0  0
 34 59  1  0  0  0
 34100  1  0  0  0
 35 44  2  0  0  0
 35 45  1  0  0  0
 35 68  1  0  0  0
 36 56  1  0  0  0
 36101  1  0  0  0
 37 39  1  0  0  0
 37 47  1  0  0  0
 37 66  1  0  0  0
 37102  1  0  0  0
 38 43  2  0  0  0
 38 46  1  0  0  0
 38 47  1  0  0  0
 39 64  1  0  0  0
 39 67  2  0  0  0
 40 52  1  0  0  0
 40 53  2  0  0  0
 40 58  1  0  0  0
 41103  1  0  0  0
 41104  1  0  0  0
 41105  1  0  0  0
 41 48  1  0  0  0
 42 43  1  0  0  0
 42 66  1  0  0  0
 42106  1  0  0  0
 42107  1  0  0  0
 43 44  1  0  0  0
 44108  1  0  0  0
 45 46  2  0  0  0
 45109  1  0  0  0
 46110  1  0  0  0
 47111  1  0  0  0
 47112  1  0  0  0
 48 56  1  0  0  0
 48 65  1  0  0  0
 48113  1  0  0  0
 49 50  1  0  0  0
 49 53  1  0  0  0
 49 64  1  0  0  0
 49114  1  0  0  0
 50 51  1  0  0  0
 50115  1  0  0  0
 50116  1  0  0  0
 51 52  1  0  0  0
 51117  1  0  0  0
 51118  1  0  0  0
 52119  1  0  0  0
 52120  1  0  0  0
 53 54  1  0  0  0
 54 55  2  0  0  0
 54121  1  0  0  0
 55 57  1  0  0  0
 55122  1  0  0  0
 56 69  2  0  0  0
 57 58  2  0  0  0
 57123  1  0  0  0
 58124  1  0  0  0
 59 60  1  0  0  0
 59 61  1  0  0  0
 59 62  1  0  0  0
 60125  1  0  0  0
 60126  1  0  0  0
 60127  1  0  0  0
 61128  1  0  0  0
 61129  1  0  0  0
 61130  1  0  0  0
 62131  1  0  0  0
 62132  1  0  0  0
 62133  1  0  0  0
 63 65  1  0  0  0
 63134  1  0  0  0
 63135  1  0  0  0
 63136  1  0  0  0
 64137  1  0  0  0
 65138  1  0  0  0
 68 74  1  0  0  0
 71 72  1  0  0  0
 71 73  2  0  0  0
 71 76  1  0  0  0
 72 78  1  0  0  0
 72 79  2  0  0  0
 73139  1  0  0  0
 73140  1  0  0  0
 74 75  2  0  0  0
 74141  1  0  0  0
 75 77  1  0  0  0
 75 76  1  0  0  0
 76 78  1  0  0  0
 76142  1  0  0  0
 77143  1  0  0  0
 77144  1  0  0  0
 77145  1  0  0  0
M  ISO  4   1 100  68 101  74 101  78 100
M  END
> <chiral flag>
0

> <version>
0

> <s_m_source_file>
/data/baiqing/PycharmProjects/Reinvent-master-3.2/result/LINK_invent/BTK/process_docking_weight1_custom_product_contain_oxygen_bond_distance_aromatic_linkinvent_7_9_3/rearranged_h_0082.sdf

> <i_m_source_file_index>
17

> <r_mmod_Potential_Energy-OPLS-2005>
5056.2578125

> <r_mmod_Stretch_Energy-OPLS-2005>
2107.06420898438

> <r_mmod_Bend_Energy-OPLS-2005>
1145.46374511719

> <r_mmod_Torsional_Energy-OPLS-2005>
260.384521484375

> <r_mmod_Improper_Torsional_Energy-OPLS-2005>
22.6529693603516

> <r_mmod_Van_der_Waal_Energy-OPLS-2005>
124.78247833252

> <r_mmod_Electrostatic_Energy-OPLS-2005>
-383.471649169922

> <r_mmod_Solvation_Energy-OPLS-2005>
-177.475997924805

> <b_mmod_Minimization_Converged-OPLS-2005>
0

> <r_mmod_RMS_Derivative-OPLS-2005>
0.85579526424408

$$$$
17
                    3D
 Structure written by MMmdl.
160169  0  0  1  0            999 V2000
  -30.7210  -14.4109   20.6161 C   0  0  0  0  0  0
  -30.4237  -12.2878   19.4020 C   0  0  0  0  0  0
  -29.4877  -12.5117   18.1975 C   0  0  0  0  0  0
  -28.0111  -12.3572   18.6130 C   0  0  0  0  0  0
  -27.6637  -13.1771   19.8818 C   0  0  2  0  0  0
  -28.7073  -12.9370   20.9958 C   0  0  0  0  0  0
  -25.2619  -13.8084   20.5686 C   0  0  0  0  0  0
  -24.1838  -13.0405   20.9178 C   0  0  0  0  0  0
  -24.6359  -11.6862   20.8742 C   0  0  0  0  0  0
  -23.9020  -10.4269   21.0416 C   0  0  0  0  0  0
  -24.3583   -9.4189   21.9192 C   0  0  0  0  0  0
  -23.6268   -8.2223   22.0756 C   0  0  0  0  0  0
  -22.4253   -8.0262   21.3541 C   0  0  0  0  0  0
  -21.9880   -9.0235   20.4648 C   0  0  0  0  0  0
  -22.7199  -10.2117   20.3061 C   0  0  0  0  0  0
  -21.6843   -6.0726   22.5281 C   0  0  0  0  0  0
  -21.4007   -6.5634   23.8213 C   0  0  0  0  0  0
  -21.3656   -5.6789   24.9176 C   0  0  0  0  0  0
  -21.6044   -4.3053   24.7228 C   0  0  0  0  0  0
  -21.8820   -3.8142   23.4350 C   0  0  0  0  0  0
  -21.9189   -4.6957   22.3404 C   0  0  0  0  0  0
  -22.7871  -13.5236   21.1838 C   0  0  0  0  0  0
  -22.1659   -4.2145   21.0981 F   0  0  0  0  0  0
  -21.5632   -3.4536   25.7741 F   0  0  0  0  0  0
  -30.0441  -13.2443   20.4508 N   0  0  0  0  0  0
  -26.3024  -12.9188   20.3399 N   0  0  0  0  0  0
  -25.9275  -11.6379   20.5790 N   0  0  0  0  0  0
  -22.0498  -12.8245   22.0397 N   0  0  0  0  0  0
  -25.4374  -15.1793   20.4094 N   0  0  0  0  0  0
  -31.8114  -14.6469   20.0860 O   0  0  0  0  0  0
  -21.6620   -6.8861   21.4239 O   0  0  0  0  0  0
  -22.3569  -14.5547   20.6686 O   0  0  0  0  0  0
  -24.6084  -31.8708   23.2124 C   0  0  0  0  0  0
  -25.8999  -32.4839   23.8408 C   0  0  1  0  0  0
  -27.2454  -27.4791   20.1010 C   0  0  0  0  0  0
  -25.5881  -33.8638   24.2349 N   0  0  0  0  0  0
  -23.3953  -30.4915   21.5515 C   0  0  2  0  0  0
  -24.8449  -28.9571   20.1193 C   0  0  0  0  0  0
  -22.7379  -29.4661   22.5018 C   0  0  0  0  0  0
  -18.0264  -28.1367   22.8494 C   0  0  0  0  0  0
  -24.1484  -36.7324   23.2637 C   0  0  0  0  0  0
  -25.9164  -30.8508   21.3574 C   0  0  0  0  0  0
  -25.9977  -29.4847   20.7138 C   0  0  0  0  0  0
  -27.2005  -28.7529   20.7023 C   0  0  0  0  0  0
  -26.0822  -26.9549   19.4956 C   0  0  0  0  0  0
  -24.8788  -27.6884   19.5100 C   0  0  0  0  0  0
  -23.6027  -29.8174   20.1674 C   0  0  0  0  0  0
  -25.4101  -36.3125   24.0343 C   0  0  1  0  0  0
  -20.5847  -28.3644   23.1340 C   0  0  2  0  0  0
  -20.6752  -26.9388   22.5424 C   0  0  0  0  0  0
  -19.5737  -26.6382   21.5212 C   0  0  0  0  0  0
  -18.1913  -26.7919   22.1617 C   0  0  0  0  0  0
  -19.1511  -28.8824   23.2915 C   0  0  0  0  0  0
  -18.9442  -30.1436   23.8916 C   0  0  0  0  0  0
  -17.6446  -30.6577   24.0568 C   0  0  0  0  0  0
  -25.9026  -34.9487   23.5144 C   0  0  0  0  0  0
  -16.5338  -29.9081   23.6325 C   0  0  0  0  0  0
  -16.7257  -28.6498   23.0341 C   0  0  0  0  0  0
  -26.4454  -31.6603   25.0713 C   0  0  0  0  0  0
  -25.3746  -31.3688   26.1479 C   0  0  0  0  0  0
  -27.0280  -30.3059   24.6042 C   0  0  0  0  0  0
  -27.6041  -32.4312   25.7466 C   0  0  0  0  0  0
  -27.5589  -37.1806   24.8459 C   0  0  0  0  0  0
  -21.4111  -29.3021   22.3757 N   0  0  0  0  0  0
  -26.4291  -37.3804   23.9418 N   0  0  0  0  0  0
  -24.6579  -31.0845   22.0999 N   0  0  0  0  0  0
  -23.4174  -28.8210   23.3047 O   0  0  0  0  0  0
  -28.4405  -26.8079   20.0480 O   0  0  0  0  0  0
  -26.5584  -34.8931   22.4704 O   0  0  0  0  0  0
  -23.5293  -32.1437   23.7553 O   0  0  0  0  0  0
  -31.3296  -18.8045   21.9495 C   0  0  0  0  0  0
  -31.2066  -17.4006   22.0315 C   0  0  0  0  0  0
  -29.5813  -18.8513   20.2601 C   0  0  0  0  0  0
  -30.5072  -19.5464   21.0667 C   0  0  0  0  0  0
  -30.2683  -16.7202   21.2267 C   0  0  0  0  0  0
  -29.4611  -17.4569   20.3308 C   0  0  0  0  0  0
  -31.0646  -21.7895   21.9717 C   0  0  0  0  0  0
  -30.5434  -21.0285   20.9836 C   0  0  0  0  0  0
  -28.6628  -25.7493   20.8495 C   0  0  0  0  0  0
  -31.0917  -23.3127   21.9615 C   0  0  0  0  0  0
  -29.9688  -21.7148   19.7435 C   0  0  0  0  0  0
  -30.3188  -23.2050   19.6395 C   0  0  0  0  0  0
  -30.1319  -25.3325   20.8758 C   0  0  0  0  0  0
  -30.0895  -15.3232   21.3638 N   0  0  0  0  0  0
  -30.1495  -23.8588   20.9549 N   0  3  2  0  0  0
  -27.8142  -25.1460   21.5167 O   0  0  0  0  0  0
  -28.3093  -16.6986   19.2964 Cl  0  0  0  0  0  0
  -31.4661  -12.3942   19.0964 H   0  0  0  0  0  0
  -30.3286  -11.2674   19.7762 H   0  0  0  0  0  0
  -29.7259  -11.8091   17.3980 H   0  0  0  0  0  0
  -29.6497  -13.5094   17.7862 H   0  0  0  0  0  0
  -27.8234  -11.2983   18.7943 H   0  0  0  0  0  0
  -27.3566  -12.6455   17.7894 H   0  0  0  0  0  0
  -27.7100  -14.2188   19.5938 H   0  0  0  0  0  0
  -28.6814  -11.8932   21.3127 H   0  0  0  0  0  0
  -28.4593  -13.5096   21.8900 H   0  0  0  0  0  0
  -25.2730   -9.5669   22.4762 H   0  0  0  0  0  0
  -23.9983   -7.4610   22.7470 H   0  0  0  0  0  0
  -21.0815   -8.8745   19.8951 H   0  0  0  0  0  0
  -22.3659  -10.9655   19.6169 H   0  0  0  0  0  0
  -21.1995   -7.6140   23.9716 H   0  0  0  0  0  0
  -21.1481   -6.0519   25.9079 H   0  0  0  0  0  0
  -22.0603   -2.7605   23.2851 H   0  0  0  0  0  0
  -22.4089  -11.9897   22.4786 H   0  0  0  0  0  0
  -21.1125  -13.1295   22.2605 H   0  0  0  0  0  0
  -24.6730  -15.8371   20.5105 H   0  0  0  0  0  0
  -26.2929  -15.6132   20.0824 H   0  0  0  0  0  0
  -26.7075  -32.5577   23.1185 H   0  0  0  0  0  0
  -25.0049  -33.9811   25.0506 H   0  0  0  0  0  0
  -22.6820  -31.3061   21.4116 H   0  0  0  0  0  0
  -23.3749  -35.9653   23.3290 H   0  0  0  0  0  0
  -24.3591  -36.8943   22.2056 H   0  0  0  0  0  0
  -23.7228  -37.6524   23.6649 H   0  0  0  0  0  0
  -26.0166  -31.6141   20.5845 H   0  0  0  0  0  0
  -26.8089  -30.9129   21.9680 H   0  0  0  0  0  0
  -28.0957  -29.1651   21.1464 H   0  0  0  0  0  0
  -26.1111  -25.9877   19.0143 H   0  0  0  0  0  0
  -23.9933  -27.2778   19.0448 H   0  0  0  0  0  0
  -23.7050  -30.5891   19.4038 H   0  0  0  0  0  0
  -22.7296  -29.2307   19.8765 H   0  0  0  0  0  0
  -25.1273  -36.1993   25.0836 H   0  0  0  0  0  0
  -20.9941  -28.3196   24.1459 H   0  0  0  0  0  0
  -20.5650  -26.2247   23.3599 H   0  0  0  0  0  0
  -21.6626  -26.7430   22.1222 H   0  0  0  0  0  0
  -19.6898  -25.6298   21.1226 H   0  0  0  0  0  0
  -19.6685  -27.3206   20.6754 H   0  0  0  0  0  0
  -17.4189  -26.6679   21.4011 H   0  0  0  0  0  0
  -18.0306  -26.0051   22.9002 H   0  0  0  0  0  0
  -19.7918  -30.7248   24.2289 H   0  0  0  0  0  0
  -17.5001  -31.6260   24.5164 H   0  0  0  0  0  0
  -15.5338  -30.2990   23.7637 H   0  0  0  0  0  0
  -15.8655  -28.0831   22.7034 H   0  0  0  0  0  0
  -24.5911  -30.7039   25.7824 H   0  0  0  0  0  0
  -24.8943  -32.2837   26.4961 H   0  0  0  0  0  0
  -25.8122  -30.8838   27.0215 H   0  0  0  0  0  0
  -26.2805  -29.6821   24.1125 H   0  0  0  0  0  0
  -27.4112  -29.7285   25.4465 H   0  0  0  0  0  0
  -27.8608  -30.4405   23.9134 H   0  0  0  0  0  0
  -27.2665  -33.3591   26.2094 H   0  0  0  0  0  0
  -28.3818  -32.6907   25.0271 H   0  0  0  0  0  0
  -28.0745  -31.8408   26.5338 H   0  0  0  0  0  0
  -28.2584  -38.0127   24.7546 H   0  0  0  0  0  0
  -28.1106  -36.2661   24.6224 H   0  0  0  0  0  0
  -27.2320  -37.1386   25.8865 H   0  0  0  0  0  0
  -20.9260  -29.8748   21.6991 H   0  0  0  0  0  0
  -26.0184  -38.2879   24.1440 H   0  0  0  0  0  0
  -32.0612  -19.2914   22.5773 H   0  0  0  0  0  0
  -31.8293  -16.8513   22.7236 H   0  0  0  0  0  0
  -28.9282  -19.3700   19.5760 H   0  0  0  0  0  0
  -31.4883  -21.3412   22.8577 H   0  0  0  0  0  0
  -32.1102  -23.6483   21.7617 H   0  0  0  0  0  0
  -30.8166  -23.6760   22.9527 H   0  0  0  0  0  0
  -28.8844  -21.5972   19.7497 H   0  0  0  0  0  0
  -30.3396  -21.2136   18.8483 H   0  0  0  0  0  0
  -29.6830  -23.6736   18.8867 H   0  0  0  0  0  0
  -31.3489  -23.3306   19.3007 H   0  0  0  0  0  0
  -30.5939  -25.7755   21.7579 H   0  0  0  0  0  0
  -30.6670  -25.6978   19.9991 H   0  0  0  0  0  0
  -29.1938  -15.0224   21.7152 H   0  0  0  0  0  0
  -29.2139  -23.6483   21.2810 H   0  0  0  0  0  0
  1 25  1  0  0  0
  1 30  2  0  0  0
  1 84  1  0  0  0
  2  3  1  0  0  0
  2 25  1  0  0  0
  2 88  1  0  0  0
  2 89  1  0  0  0
  3  4  1  0  0  0
  3 90  1  0  0  0
  3 91  1  0  0  0
  4  5  1  0  0  0
  4 92  1  0  0  0
  4 93  1  0  0  0
  5  6  1  0  0  0
  5 26  1  0  0  0
  5 94  1  0  0  0
  6 25  1  0  0  0
  6 95  1  0  0  0
  6 96  1  0  0  0
  7  8  2  0  0  0
  7 26  1  0  0  0
  7 29  1  0  0  0
  8  9  1  0  0  0
  8 22  1  0  0  0
  9 10  1  0  0  0
  9 27  2  0  0  0
 10 11  2  0  0  0
 10 15  1  0  0  0
 11 12  1  0  0  0
 11 97  1  0  0  0
 12 13  2  0  0  0
 12 98  1  0  0  0
 13 14  1  0  0  0
 13 31  1  0  0  0
 14 15  2  0  0  0
 14 99  1  0  0  0
 15100  1  0  0  0
 16 17  2  0  0  0
 16 21  1  0  0  0
 16 31  1  0  0  0
 17 18  1  0  0  0
 17101  1  0  0  0
 18 19  2  0  0  0
 18102  1  0  0  0
 19 20  1  0  0  0
 19 24  1  0  0  0
 20 21  2  0  0  0
 20103  1  0  0  0
 21 23  1  0  0  0
 22 28  1  0  0  0
 22 32  2  0  0  0
 26 27  1  0  0  0
 28104  1  0  0  0
 28105  1  0  0  0
 29106  1  0  0  0
 29107  1  0  0  0
 33 34  1  0  0  0
 33 66  1  0  0  0
 33 70  2  0  0  0
 34 36  1  0  0  0
 34 59  1  0  0  0
 34108  1  0  0  0
 35 44  2  0  0  0
 35 45  1  0  0  0
 35 68  1  0  0  0
 36 56  1  0  0  0
 36109  1  0  0  0
 37 39  1  0  0  0
 37 47  1  0  0  0
 37 66  1  0  0  0
 37110  1  0  0  0
 38 43  2  0  0  0
 38 46  1  0  0  0
 38 47  1  0  0  0
 39 64  1  0  0  0
 39 67  2  0  0  0
 40 52  1  0  0  0
 40 53  2  0  0  0
 40 58  1  0  0  0
 41111  1  0  0  0
 41112  1  0  0  0
 41113  1  0  0  0
 41 48  1  0  0  0
 42 43  1  0  0  0
 42 66  1  0  0  0
 42114  1  0  0  0
 42115  1  0  0  0
 43 44  1  0  0  0
 44116  1  0  0  0
 45 46  2  0  0  0
 45117  1  0  0  0
 46118  1  0  0  0
 47119  1  0  0  0
 47120  1  0  0  0
 48 56  1  0  0  0
 48 65  1  0  0  0
 48121  1  0  0  0
 49 50  1  0  0  0
 49 53  1  0  0  0
 49 64  1  0  0  0
 49122  1  0  0  0
 50 51  1  0  0  0
 50123  1  0  0  0
 50124  1  0  0  0
 51 52  1  0  0  0
 51125  1  0  0  0
 51126  1  0  0  0
 52127  1  0  0  0
 52128  1  0  0  0
 53 54  1  0  0  0
 54 55  2  0  0  0
 54129  1  0  0  0
 55 57  1  0  0  0
 55130  1  0  0  0
 56 69  2  0  0  0
 57 58  2  0  0  0
 57131  1  0  0  0
 58132  1  0  0  0
 59 60  1  0  0  0
 59 61  1  0  0  0
 59 62  1  0  0  0
 60133  1  0  0  0
 60134  1  0  0  0
 60135  1  0  0  0
 61136  1  0  0  0
 61137  1  0  0  0
 61138  1  0  0  0
 62139  1  0  0  0
 62140  1  0  0  0
 62141  1  0  0  0
 63 65  1  0  0  0
 63142  1  0  0  0
 63143  1  0  0  0
 63144  1  0  0  0
 64145  1  0  0  0
 65146  1  0  0  0
 68 79  1  0  0  0
 71 72  2  0  0  0
 71 74  1  0  0  0
 71147  1  0  0  0
 72 75  1  0  0  0
 72148  1  0  0  0
 73 74  2  0  0  0
 73 76  1  0  0  0
 73149  1  0  0  0
 74 78  1  0  0  0
 75 76  2  0  0  0
 75 84  1  0  0  0
 76 87  1  0  0  0
 77 78  2  0  0  0
 77 80  1  0  0  0
 77150  1  0  0  0
 78 81  1  0  0  0
 79 83  1  0  0  0
 79 86  2  0  0  0
 80 85  1  0  0  0
 80151  1  0  0  0
 80152  1  0  0  0
 81 82  1  0  0  0
 81153  1  0  0  0
 81154  1  0  0  0
 82 85  1  0  0  0
 82155  1  0  0  0
 82156  1  0  0  0
 83157  1  0  0  0
 83158  1  0  0  0
 83 85  1  0  0  0
 84159  1  0  0  0
 85160  1  0  0  0
M  CHG  1  85   1
M  ISO  4   1 100  68 101  79 101  84 100
M  END
> <chiral flag>
0

> <version>
0

> <s_m_source_file>
/data/baiqing/PycharmProjects/Reinvent-master-3.2/result/LINK_invent/BTK/process_docking_weight1_custom_product_contain_oxygen_bond_distance_aromatic_linkinvent_7_9_3/rearranged_h_0082.sdf

> <i_m_source_file_index>
18

> <r_mmod_Potential_Energy-OPLS-2005>
-259.738006591797

> <r_mmod_Stretch_Energy-OPLS-2005>
32.7250823974609

> <r_mmod_Bend_Energy-OPLS-2005>
94.5408401489258

> <r_mmod_Torsional_Energy-OPLS-2005>
252.995391845703

> <r_mmod_Improper_Torsional_Energy-OPLS-2005>
4.16838550567627

> <r_mmod_Van_der_Waal_Energy-OPLS-2005>
168.482421875

> <r_mmod_Electrostatic_Energy-OPLS-2005>
-383.764129638672

> <r_mmod_Solvation_Energy-OPLS-2005>
-436.78564453125

> <b_mmod_Minimization_Converged-OPLS-2005>
0

> <r_mmod_RMS_Derivative-OPLS-2005>
0.524341821670532

$$$$
18
                    3D
 Structure written by MMmdl.
154162  0  0  1  0            999 V2000
  -30.6011  -14.6146   20.5022 C   0  0  0  0  0  0
  -30.4523  -12.3793   19.4298 C   0  0  0  0  0  0
  -29.5096  -12.5048   18.2128 C   0  0  0  0  0  0
  -28.0341  -12.3352   18.6331 C   0  0  0  0  0  0
  -27.6566  -13.1985   19.8653 C   0  0  2  0  0  0
  -28.7049  -13.0379   20.9901 C   0  0  0  0  0  0
  -25.2618  -13.8109   20.5679 C   0  0  0  0  0  0
  -24.1853  -13.0422   20.9175 C   0  0  0  0  0  0
  -24.6389  -11.6877   20.8738 C   0  0  0  0  0  0
  -23.9043  -10.4283   21.0416 C   0  0  0  0  0  0
  -24.3592   -9.4206   21.9199 C   0  0  0  0  0  0
  -23.6282   -8.2229   22.0760 C   0  0  0  0  0  0
  -22.4266   -8.0265   21.3537 C   0  0  0  0  0  0
  -21.9885   -9.0245   20.4639 C   0  0  0  0  0  0
  -22.7210  -10.2136   20.3069 C   0  0  0  0  0  0
  -21.6848   -6.0721   22.5272 C   0  0  0  0  0  0
  -21.4004   -6.5627   23.8202 C   0  0  0  0  0  0
  -21.3674   -5.6787   24.9166 C   0  0  0  0  0  0
  -21.6045   -4.3053   24.7219 C   0  0  0  0  0  0
  -21.8819   -3.8144   23.4349 C   0  0  0  0  0  0
  -21.9190   -4.6948   22.3403 C   0  0  0  0  0  0
  -22.7882  -13.5259   21.1838 C   0  0  0  0  0  0
  -22.1666   -4.2139   21.0973 F   0  0  0  0  0  0
  -21.5650   -3.4531   25.7741 F   0  0  0  0  0  0
  -30.0185  -13.3818   20.4178 N   0  0  0  0  0  0
  -26.3008  -12.9248   20.3303 N   0  0  0  0  0  0
  -25.9313  -11.6422   20.5740 N   0  0  0  0  0  0
  -22.0494  -12.8280   22.0387 N   0  0  0  0  0  0
  -25.4371  -15.1818   20.4082 N   0  0  0  0  0  0
  -31.7790  -14.8177   20.1924 O   0  0  0  0  0  0
  -21.6641   -6.8866   21.4236 O   0  0  0  0  0  0
  -22.3591  -14.5591   20.6719 O   0  0  0  0  0  0
  -24.6239  -31.8630   23.2082 C   0  0  0  0  0  0
  -25.9103  -32.4804   23.8405 C   0  0  1  0  0  0
  -27.2253  -27.3736   20.1240 C   0  0  0  0  0  0
  -25.5951  -33.8600   24.2358 N   0  0  0  0  0  0
  -23.4129  -30.4886   21.5466 C   0  0  2  0  0  0
  -24.8588  -28.9407   20.1189 C   0  0  0  0  0  0
  -22.7448  -29.4644   22.4937 C   0  0  0  0  0  0
  -18.0282  -28.1412   22.8501 C   0  0  0  0  0  0
  -24.1460  -36.7291   23.2644 C   0  0  0  0  0  0
  -25.9460  -30.8168   21.3638 C   0  0  0  0  0  0
  -26.0219  -29.4408   20.7203 C   0  0  0  0  0  0
  -27.2117  -28.6649   20.7162 C   0  0  0  0  0  0
  -26.0501  -26.9055   19.5065 C   0  0  0  0  0  0
  -24.8690  -27.6758   19.5075 C   0  0  0  0  0  0
  -23.6282  -29.8222   20.1611 C   0  0  0  0  0  0
  -25.4078  -36.3090   24.0350 C   0  0  1  0  0  0
  -20.5890  -28.3684   23.1310 C   0  0  2  0  0  0
  -20.6742  -26.9409   22.5426 C   0  0  0  0  0  0
  -19.5705  -26.6412   21.5225 C   0  0  0  0  0  0
  -18.1895  -26.7950   22.1652 C   0  0  0  0  0  0
  -19.1542  -28.8861   23.2905 C   0  0  0  0  0  0
  -18.9457  -30.1468   23.8917 C   0  0  0  0  0  0
  -17.6453  -30.6595   24.0587 C   0  0  0  0  0  0
  -25.9040  -34.9462   23.5151 C   0  0  0  0  0  0
  -16.5344  -29.9114   23.6337 C   0  0  0  0  0  0
  -16.7269  -28.6541   23.0344 C   0  0  0  0  0  0
  -26.4531  -31.6590   25.0747 C   0  0  0  0  0  0
  -25.3817  -31.3673   26.1519 C   0  0  0  0  0  0
  -27.0383  -30.3037   24.6124 C   0  0  0  0  0  0
  -27.6098  -32.4313   25.7513 C   0  0  0  0  0  0
  -27.5557  -37.1805   24.8473 C   0  0  0  0  0  0
  -21.4172  -29.3036   22.3674 N   0  0  0  0  0  0
  -26.4252  -37.3786   23.9446 N   0  0  0  0  0  0
  -24.6804  -31.0712   22.0983 N   0  0  0  0  0  0
  -23.4188  -28.8173   23.2996 O   0  0  0  0  0  0
  -28.3594  -26.5770   20.0968 O   0  0  0  0  0  0
  -26.5582  -34.8917   22.4700 O   0  0  0  0  0  0
  -23.5421  -32.1414   23.7455 O   0  0  0  0  0  0
  -29.2072  -18.3942   23.0591 C   0  0  0  0  0  0
  -29.2963  -19.5468   22.2572 C   0  0  0  0  0  0
  -29.4297  -17.1168   22.5107 C   0  0  0  0  0  0
  -29.8565  -18.1398   20.3399 C   0  0  0  0  0  0
  -29.6170  -19.4497   20.8847 C   0  0  0  0  0  0
  -29.7584  -16.9593   21.1492 C   0  0  0  0  0  0
  -26.7874  -23.5917   20.4494 C   0  0  0  0  0  0
  -29.7805  -20.7309   20.0655 C   0  0  0  0  0  0
  -28.0624  -24.0324   20.4652 C   0  0  0  0  0  0
  -29.1316  -23.1185   19.9979 C   0  0  0  0  0  0
  -28.3989  -25.4488   21.0200 C   0  0  0  0  0  0
  -29.6879  -15.6184   20.6261 N   0  0  0  0  0  0
  -29.0112  -21.8136   20.3973 N   0  0  0  0  0  0
  -30.5972  -20.7196   19.1372 O   0  0  0  0  0  0
  -30.0803  -23.5282   19.3213 O   0  0  0  0  0  0
  -31.4896  -12.5280   19.1212 H   0  0  0  0  0  0
  -30.4035  -11.3771   19.8588 H   0  0  0  0  0  0
  -29.7728  -11.7709   17.4521 H   0  0  0  0  0  0
  -29.6462  -13.4799   17.7459 H   0  0  0  0  0  0
  -27.8733  -11.2818   18.8660 H   0  0  0  0  0  0
  -27.3749  -12.5669   17.7962 H   0  0  0  0  0  0
  -27.6723  -14.2285   19.5166 H   0  0  0  0  0  0
  -28.7133  -12.0158   21.3725 H   0  0  0  0  0  0
  -28.4583  -13.6716   21.8439 H   0  0  0  0  0  0
  -25.2724   -9.5713   22.4774 H   0  0  0  0  0  0
  -23.9999   -7.4633   22.7477 H   0  0  0  0  0  0
  -21.0814   -8.8754   19.8954 H   0  0  0  0  0  0
  -22.3641  -10.9678   19.6197 H   0  0  0  0  0  0
  -21.1985   -7.6134   23.9704 H   0  0  0  0  0  0
  -21.1511   -6.0514   25.9070 H   0  0  0  0  0  0
  -22.0593   -2.7603   23.2842 H   0  0  0  0  0  0
  -22.4074  -11.9915   22.4763 H   0  0  0  0  0  0
  -21.1133  -13.1371   22.2590 H   0  0  0  0  0  0
  -24.6716  -15.8393   20.5094 H   0  0  0  0  0  0
  -26.2823  -15.6176   20.0652 H   0  0  0  0  0  0
  -26.7166  -32.5512   23.1165 H   0  0  0  0  0  0
  -25.0147  -33.9727   25.0538 H   0  0  0  0  0  0
  -22.7064  -31.3091   21.4039 H   0  0  0  0  0  0
  -23.3711  -35.9641   23.3337 H   0  0  0  0  0  0
  -24.3548  -36.8872   22.2056 H   0  0  0  0  0  0
  -23.7212  -37.6517   23.6615 H   0  0  0  0  0  0
  -26.0524  -31.5735   20.5838 H   0  0  0  0  0  0
  -26.8380  -30.8847   21.9752 H   0  0  0  0  0  0
  -28.1100  -29.0475   21.1770 H   0  0  0  0  0  0
  -26.0460  -25.9375   19.0253 H   0  0  0  0  0  0
  -23.9755  -27.2873   19.0375 H   0  0  0  0  0  0
  -23.7542  -30.6020   19.4066 H   0  0  0  0  0  0
  -22.7483  -29.2562   19.8501 H   0  0  0  0  0  0
  -25.1232  -36.1953   25.0831 H   0  0  0  0  0  0
  -20.9995  -28.3251   24.1433 H   0  0  0  0  0  0
  -20.5625  -26.2294   23.3627 H   0  0  0  0  0  0
  -21.6609  -26.7401   22.1234 H   0  0  0  0  0  0
  -19.6841  -25.6334   21.1223 H   0  0  0  0  0  0
  -19.6650  -27.3260   20.6781 H   0  0  0  0  0  0
  -17.4166  -26.6738   21.4052 H   0  0  0  0  0  0
  -18.0265  -26.0100   22.9054 H   0  0  0  0  0  0
  -19.7928  -30.7287   24.2288 H   0  0  0  0  0  0
  -17.5011  -31.6268   24.5204 H   0  0  0  0  0  0
  -15.5352  -30.3027   23.7631 H   0  0  0  0  0  0
  -15.8673  -28.0867   22.7041 H   0  0  0  0  0  0
  -24.6003  -30.6968   25.7915 H   0  0  0  0  0  0
  -24.8995  -32.2809   26.5002 H   0  0  0  0  0  0
  -25.8247  -30.8891   27.0260 H   0  0  0  0  0  0
  -26.2940  -29.6775   24.1188 H   0  0  0  0  0  0
  -27.4174  -29.7288   25.4584 H   0  0  0  0  0  0
  -27.8754  -30.4392   23.9265 H   0  0  0  0  0  0
  -27.2703  -33.3560   26.2181 H   0  0  0  0  0  0
  -28.3879  -32.6952   25.0333 H   0  0  0  0  0  0
  -28.0797  -31.8392   26.5382 H   0  0  0  0  0  0
  -28.2587  -38.0091   24.7524 H   0  0  0  0  0  0
  -28.1030  -36.2635   24.6262 H   0  0  0  0  0  0
  -27.2303  -37.1429   25.8882 H   0  0  0  0  0  0
  -20.9330  -29.8826   21.6963 H   0  0  0  0  0  0
  -26.0141  -38.2849   24.1484 H   0  0  0  0  0  0
  -28.9478  -18.4892   24.1050 H   0  0  0  0  0  0
  -29.1275  -20.5119   22.7181 H   0  0  0  0  0  0
  -29.3029  -16.2487   23.1420 H   0  0  0  0  0  0
  -30.0790  -18.0460   19.2854 H   0  0  0  0  0  0
  -26.5112  -22.6147   20.0777 H   0  0  0  0  0  0
  -25.9834  -24.2160   20.8135 H   0  0  0  0  0  0
  -29.3949  -25.4164   21.4607 H   0  0  0  0  0  0
  -27.7390  -25.6508   21.8668 H   0  0  0  0  0  0
  -28.7679  -15.2184   20.7048 H   0  0  0  0  0  0
  -28.2683  -21.6292   21.0522 H   0  0  0  0  0  0
  1 25  1  0  0  0
  1 30  2  0  0  0
  1 82  1  0  0  0
  2  3  1  0  0  0
  2 25  1  0  0  0
  2 86  1  0  0  0
  2 87  1  0  0  0
  3  4  1  0  0  0
  3 88  1  0  0  0
  3 89  1  0  0  0
  4  5  1  0  0  0
  4 90  1  0  0  0
  4 91  1  0  0  0
  5  6  1  0  0  0
  5 26  1  0  0  0
  5 92  1  0  0  0
  6 25  1  0  0  0
  6 93  1  0  0  0
  6 94  1  0  0  0
  7  8  2  0  0  0
  7 26  1  0  0  0
  7 29  1  0  0  0
  8  9  1  0  0  0
  8 22  1  0  0  0
  9 10  1  0  0  0
  9 27  2  0  0  0
 10 11  2  0  0  0
 10 15  1  0  0  0
 11 12  1  0  0  0
 11 95  1  0  0  0
 12 13  2  0  0  0
 12 96  1  0  0  0
 13 14  1  0  0  0
 13 31  1  0  0  0
 14 15  2  0  0  0
 14 97  1  0  0  0
 15 98  1  0  0  0
 16 17  2  0  0  0
 16 21  1  0  0  0
 16 31  1  0  0  0
 17 18  1  0  0  0
 17 99  1  0  0  0
 18 19  2  0  0  0
 18100  1  0  0  0
 19 20  1  0  0  0
 19 24  1  0  0  0
 20 21  2  0  0  0
 20101  1  0  0  0
 21 23  1  0  0  0
 22 28  1  0  0  0
 22 32  2  0  0  0
 26 27  1  0  0  0
 28102  1  0  0  0
 28103  1  0  0  0
 29104  1  0  0  0
 29105  1  0  0  0
 33 34  1  0  0  0
 33 66  1  0  0  0
 33 70  2  0  0  0
 34 36  1  0  0  0
 34 59  1  0  0  0
 34106  1  0  0  0
 35 44  2  0  0  0
 35 45  1  0  0  0
 35 68  1  0  0  0
 36 56  1  0  0  0
 36107  1  0  0  0
 37 39  1  0  0  0
 37 47  1  0  0  0
 37 66  1  0  0  0
 37108  1  0  0  0
 38 43  2  0  0  0
 38 46  1  0  0  0
 38 47  1  0  0  0
 39 64  1  0  0  0
 39 67  2  0  0  0
 40 52  1  0  0  0
 40 53  2  0  0  0
 40 58  1  0  0  0
 41109  1  0  0  0
 41110  1  0  0  0
 41111  1  0  0  0
 41 48  1  0  0  0
 42 43  1  0  0  0
 42 66  1  0  0  0
 42112  1  0  0  0
 42113  1  0  0  0
 43 44  1  0  0  0
 44114  1  0  0  0
 45 46  2  0  0  0
 45115  1  0  0  0
 46116  1  0  0  0
 47117  1  0  0  0
 47118  1  0  0  0
 48 56  1  0  0  0
 48 65  1  0  0  0
 48119  1  0  0  0
 49 50  1  0  0  0
 49 53  1  0  0  0
 49 64  1  0  0  0
 49120  1  0  0  0
 50 51  1  0  0  0
 50121  1  0  0  0
 50122  1  0  0  0
 51 52  1  0  0  0
 51123  1  0  0  0
 51124  1  0  0  0
 52125  1  0  0  0
 52126  1  0  0  0
 53 54  1  0  0  0
 54 55  2  0  0  0
 54127  1  0  0  0
 55 57  1  0  0  0
 55128  1  0  0  0
 56 69  2  0  0  0
 57 58  2  0  0  0
 57129  1  0  0  0
 58130  1  0  0  0
 59 60  1  0  0  0
 59 61  1  0  0  0
 59 62  1  0  0  0
 60131  1  0  0  0
 60132  1  0  0  0
 60133  1  0  0  0
 61134  1  0  0  0
 61135  1  0  0  0
 61136  1  0  0  0
 62137  1  0  0  0
 62138  1  0  0  0
 62139  1  0  0  0
 63 65  1  0  0  0
 63140  1  0  0  0
 63141  1  0  0  0
 63142  1  0  0  0
 64143  1  0  0  0
 65144  1  0  0  0
 68 81  1  0  0  0
 71 72  2  0  0  0
 71 73  1  0  0  0
 71145  1  0  0  0
 72 75  1  0  0  0
 72146  1  0  0  0
 73 76  2  0  0  0
 73147  1  0  0  0
 74 75  2  0  0  0
 74 76  1  0  0  0
 74148  1  0  0  0
 75 78  1  0  0  0
 76 82  1  0  0  0
 77 79  2  0  0  0
 77149  1  0  0  0
 77150  1  0  0  0
 78 83  1  0  0  0
 78 84  2  0  0  0
 79 80  1  0  0  0
 79 81  1  0  0  0
 80 83  1  0  0  0
 80 85  2  0  0  0
 81151  1  0  0  0
 81152  1  0  0  0
 82153  1  0  0  0
 83154  1  0  0  0
M  ISO  4   1 100  68 101  81 101  82 100
M  END
> <chiral flag>
0

> <version>
0

> <s_m_source_file>
/data/baiqing/PycharmProjects/Reinvent-master-3.2/result/LINK_invent/BTK/process_docking_weight1_custom_product_contain_oxygen_bond_distance_aromatic_linkinvent_7_9_3/rearranged_h_0082.sdf

> <i_m_source_file_index>
19

> <r_mmod_Potential_Energy-OPLS-2005>
-80.2082214355469

> <r_mmod_Stretch_Energy-OPLS-2005>
58.883960723877

> <r_mmod_Bend_Energy-OPLS-2005>
123.492584228516

> <r_mmod_Torsional_Energy-OPLS-2005>
290.232788085938

> <r_mmod_Improper_Torsional_Energy-OPLS-2005>
12.6887760162354

> <r_mmod_Van_der_Waal_Energy-OPLS-2005>
146.236358642578

> <r_mmod_Electrostatic_Energy-OPLS-2005>
-470.127685546875

> <r_mmod_Solvation_Energy-OPLS-2005>
-277.998687744141

> <b_mmod_Minimization_Converged-OPLS-2005>
0

> <r_mmod_RMS_Derivative-OPLS-2005>
3.7474524974823

$$$$
19
                    3D
 Structure written by MMmdl.
159168  0  0  1  0            999 V2000
  -30.6453  -14.7205   20.5735 C   0  0  0  0  0  0
  -30.4343  -12.4671   19.4765 C   0  0  0  0  0  0
  -29.5136  -12.5325   18.2371 C   0  0  0  0  0  0
  -28.0421  -12.3330   18.6441 C   0  0  0  0  0  0
  -27.6441  -13.2248   19.8470 C   0  0  2  0  0  0
  -28.6773  -13.1268   20.9850 C   0  0  0  0  0  0
  -25.2530  -13.8175   20.5661 C   0  0  0  0  0  0
  -24.1804  -13.0439   20.9168 C   0  0  0  0  0  0
  -24.6380  -11.6917   20.8713 C   0  0  0  0  0  0
  -23.9056  -10.4300   21.0398 C   0  0  0  0  0  0
  -24.3615   -9.4217   21.9179 C   0  0  0  0  0  0
  -23.6291   -8.2251   22.0754 C   0  0  0  0  0  0
  -22.4274   -8.0282   21.3541 C   0  0  0  0  0  0
  -21.9909   -9.0248   20.4638 C   0  0  0  0  0  0
  -22.7232  -10.2130   20.3045 C   0  0  0  0  0  0
  -21.6844   -6.0745   22.5290 C   0  0  0  0  0  0
  -21.4001   -6.5648   23.8221 C   0  0  0  0  0  0
  -21.3655   -5.6801   24.9190 C   0  0  0  0  0  0
  -21.6042   -4.3064   24.7235 C   0  0  0  0  0  0
  -21.8817   -3.8156   23.4357 C   0  0  0  0  0  0
  -21.9189   -4.6972   22.3414 C   0  0  0  0  0  0
  -22.7832  -13.5228   21.1869 C   0  0  0  0  0  0
  -22.1663   -4.2161   21.0991 F   0  0  0  0  0  0
  -21.5632   -3.4547   25.7749 F   0  0  0  0  0  0
  -29.9941  -13.5042   20.4444 N   0  0  0  0  0  0
  -26.2931  -12.9359   20.3208 N   0  0  0  0  0  0
  -25.9295  -11.6514   20.5674 N   0  0  0  0  0  0
  -22.0484  -12.8203   22.0425 N   0  0  0  0  0  0
  -25.4286  -15.1895   20.4116 N   0  0  0  0  0  0
  -31.7481  -14.8738   20.0369 O   0  0  0  0  0  0
  -21.6631   -6.8882   21.4250 O   0  0  0  0  0  0
  -22.3524  -14.5547   20.6744 O   0  0  0  0  0  0
  -24.6294  -31.8569   23.1992 C   0  0  0  0  0  0
  -25.9126  -32.4760   23.8333 C   0  0  1  0  0  0
  -27.2208  -27.2771   20.1316 C   0  0  0  0  0  0
  -25.5923  -33.8564   24.2271 N   0  0  0  0  0  0
  -23.4257  -30.4774   21.5436 C   0  0  2  0  0  0
  -24.8737  -28.9222   20.1132 C   0  0  0  0  0  0
  -22.7494  -29.4606   22.4942 C   0  0  0  0  0  0
  -18.0290  -28.1385   22.8495 C   0  0  0  0  0  0
  -24.1493  -36.7288   23.2643 C   0  0  0  0  0  0
  -25.9700  -30.7729   21.3761 C   0  0  0  0  0  0
  -26.0449  -29.3945   20.7229 C   0  0  0  0  0  0
  -27.2232  -28.5838   20.7223 C   0  0  0  0  0  0
  -26.0302  -26.8645   19.4979 C   0  0  0  0  0  0
  -24.8701  -27.6636   19.4910 C   0  0  0  0  0  0
  -23.6438  -29.8080   20.1603 C   0  0  0  0  0  0
  -25.4115  -36.3070   24.0337 C   0  0  1  0  0  0
  -20.5895  -28.3700   23.1286 C   0  0  2  0  0  0
  -20.6784  -26.9418   22.5411 C   0  0  0  0  0  0
  -19.5751  -26.6384   21.5224 C   0  0  0  0  0  0
  -18.1935  -26.7925   22.1638 C   0  0  0  0  0  0
  -19.1544  -28.8860   23.2882 C   0  0  0  0  0  0
  -18.9462  -30.1463   23.8890 C   0  0  0  0  0  0
  -17.6457  -30.6583   24.0569 C   0  0  0  0  0  0
  -25.9054  -34.9442   23.5102 C   0  0  0  0  0  0
  -16.5351  -29.9077   23.6343 C   0  0  0  0  0  0
  -16.7280  -28.6494   23.0355 C   0  0  0  0  0  0
  -26.4488  -31.6565   25.0710 C   0  0  0  0  0  0
  -25.3701  -31.3704   26.1428 C   0  0  0  0  0  0
  -27.0319  -30.2971   24.6182 C   0  0  0  0  0  0
  -27.6056  -32.4292   25.7476 C   0  0  0  0  0  0
  -27.5579  -37.1808   24.8470 C   0  0  0  0  0  0
  -21.4205  -29.3047   22.3673 N   0  0  0  0  0  0
  -26.4293  -37.3760   23.9400 N   0  0  0  0  0  0
  -24.6945  -31.0537   22.0959 N   0  0  0  0  0  0
  -23.4203  -28.8147   23.3032 O   0  0  0  0  0  0
  -28.3105  -26.3867   20.1263 O   0  0  0  0  0  0
  -26.5635  -34.8916   22.4674 O   0  0  0  0  0  0
  -23.5453  -32.1384   23.7290 O   0  0  0  0  0  0
  -30.0544  -19.6568   21.5879 C   0  0  0  0  0  0
  -29.2264  -19.0949   19.4243 C   0  0  0  0  0  0
  -30.2751  -18.2649   21.8439 C   0  0  0  0  0  0
  -29.4344  -17.6937   19.6914 C   0  0  0  0  0  0
  -29.5114  -20.1359   20.3673 C   0  0  0  0  0  0
  -29.9586  -17.2089   20.9277 C   0  0  0  0  0  0
  -28.7439  -23.8874   20.1693 C   0  0  0  0  0  0
  -28.5595  -22.5201   20.7465 C   0  0  0  0  0  0
  -30.0464  -22.2290   19.1096 C   0  0  0  0  0  0
  -28.8043  -16.8027   24.5169 C   0  0  0  0  0  0
  -28.1209  -25.0539   20.5881 C   0  0  0  0  0  0
  -28.8049  -15.9783   23.4581 C   0  0  0  0  0  0
  -29.7283  -23.7247   19.0542 C   0  0  0  0  0  0
  -30.0658  -15.4793   22.7669 C   0  0  0  0  0  0
  -29.3469  -21.5964   20.0808 N   0  0  0  0  0  0
  -30.0702  -15.7568   21.3118 N   0  0  0  0  0  0
  -27.8063  -22.2292   21.6837 O   0  0  0  0  0  0
  -30.8645  -21.7069   18.3426 O   0  0  0  0  0  0
  -31.4760  -12.5922   19.1772 H   0  0  0  0  0  0
  -30.3846  -11.4793   19.9388 H   0  0  0  0  0  0
  -29.8068  -11.7751   17.5094 H   0  0  0  0  0  0
  -29.6314  -13.4988   17.7429 H   0  0  0  0  0  0
  -27.9143  -11.2820   18.9041 H   0  0  0  0  0  0
  -27.3840  -12.5223   17.7950 H   0  0  0  0  0  0
  -27.6506  -14.2514   19.4808 H   0  0  0  0  0  0
  -28.7092  -12.1170   21.3935 H   0  0  0  0  0  0
  -28.3538  -13.7632   21.8034 H   0  0  0  0  0  0
  -25.2764   -9.5704   22.4750 H   0  0  0  0  0  0
  -24.0003   -7.4651   22.7480 H   0  0  0  0  0  0
  -21.0838   -8.8750   19.8944 H   0  0  0  0  0  0
  -22.3675  -10.9667   19.6147 H   0  0  0  0  0  0
  -21.1976   -7.6153   23.9724 H   0  0  0  0  0  0
  -21.1481   -6.0538   25.9091 H   0  0  0  0  0  0
  -22.0595   -2.7624   23.2855 H   0  0  0  0  0  0
  -22.4093  -11.9832   22.4763 H   0  0  0  0  0  0
  -21.1107  -13.1219   22.2657 H   0  0  0  0  0  0
  -24.6681  -15.8509   20.5172 H   0  0  0  0  0  0
  -26.2928  -15.6256   20.1159 H   0  0  0  0  0  0
  -26.7193  -32.5418   23.1074 H   0  0  0  0  0  0
  -25.0011  -33.9695   25.0380 H   0  0  0  0  0  0
  -22.7217  -31.3000   21.3961 H   0  0  0  0  0  0
  -23.3752  -35.9630   23.3315 H   0  0  0  0  0  0
  -24.3584  -36.8902   22.2055 H   0  0  0  0  0  0
  -23.7263  -37.6497   23.6664 H   0  0  0  0  0  0
  -26.1058  -31.5303   20.6030 H   0  0  0  0  0  0
  -26.8490  -30.8250   22.0069 H   0  0  0  0  0  0
  -28.1223  -28.9410   21.2047 H   0  0  0  0  0  0
  -25.9923  -25.8975   19.0165 H   0  0  0  0  0  0
  -23.9742  -27.2962   19.0101 H   0  0  0  0  0  0
  -23.7672  -30.5832   19.4028 H   0  0  0  0  0  0
  -22.7614  -29.2406   19.8593 H   0  0  0  0  0  0
  -25.1302  -36.1921   25.0836 H   0  0  0  0  0  0
  -20.9998  -28.3273   24.1406 H   0  0  0  0  0  0
  -20.5710  -26.2309   23.3610 H   0  0  0  0  0  0
  -21.6648  -26.7454   22.1189 H   0  0  0  0  0  0
  -19.6911  -25.6300   21.1239 H   0  0  0  0  0  0
  -19.6675  -27.3215   20.6767 H   0  0  0  0  0  0
  -17.4206  -26.6693   21.4037 H   0  0  0  0  0  0
  -18.0324  -26.0066   22.9033 H   0  0  0  0  0  0
  -19.7931  -30.7295   24.2251 H   0  0  0  0  0  0
  -17.4998  -31.6264   24.5169 H   0  0  0  0  0  0
  -15.5345  -30.2966   23.7653 H   0  0  0  0  0  0
  -15.8687  -28.0805   22.7065 H   0  0  0  0  0  0
  -24.5886  -30.7047   25.7733 H   0  0  0  0  0  0
  -24.8896  -32.2876   26.4867 H   0  0  0  0  0  0
  -25.8019  -30.8864   27.0192 H   0  0  0  0  0  0
  -26.2892  -29.6741   24.1177 H   0  0  0  0  0  0
  -27.3967  -29.7227   25.4704 H   0  0  0  0  0  0
  -27.8800  -30.4241   23.9447 H   0  0  0  0  0  0
  -27.2679  -33.3609   26.2037 H   0  0  0  0  0  0
  -28.3868  -32.6826   25.0294 H   0  0  0  0  0  0
  -28.0709  -31.8424   26.5404 H   0  0  0  0  0  0
  -28.2610  -38.0088   24.7492 H   0  0  0  0  0  0
  -28.1064  -36.2624   24.6332 H   0  0  0  0  0  0
  -27.2299  -37.1491   25.8874 H   0  0  0  0  0  0
  -20.9395  -29.8745   21.6853 H   0  0  0  0  0  0
  -26.0183  -38.2847   24.1363 H   0  0  0  0  0  0
  -30.3280  -20.3689   22.3536 H   0  0  0  0  0  0
  -28.8231  -19.3681   18.4602 H   0  0  0  0  0  0
  -30.6998  -18.0278   22.8064 H   0  0  0  0  0  0
  -29.1521  -16.9816   18.9300 H   0  0  0  0  0  0
  -27.8797  -17.1273   24.9716 H   0  0  0  0  0  0
  -29.7270  -17.1691   24.9461 H   0  0  0  0  0  0
  -27.4136  -25.0326   21.4071 H   0  0  0  0  0  0
  -27.8576  -15.6355   23.0611 H   0  0  0  0  0  0
  -30.6189  -24.3327   19.2164 H   0  0  0  0  0  0
  -29.2757  -23.9843   18.0985 H   0  0  0  0  0  0
  -30.9533  -15.9159   23.2271 H   0  0  0  0  0  0
  -30.1505  -14.4136   22.9922 H   0  0  0  0  0  0
  1 25  1  0  0  0
  1 30  2  0  0  0
  1 86  1  0  0  0
  2  3  1  0  0  0
  2 25  1  0  0  0
  2 89  1  0  0  0
  2 90  1  0  0  0
  3  4  1  0  0  0
  3 91  1  0  0  0
  3 92  1  0  0  0
  4  5  1  0  0  0
  4 93  1  0  0  0
  4 94  1  0  0  0
  5  6  1  0  0  0
  5 26  1  0  0  0
  5 95  1  0  0  0
  6 25  1  0  0  0
  6 96  1  0  0  0
  6 97  1  0  0  0
  7  8  2  0  0  0
  7 26  1  0  0  0
  7 29  1  0  0  0
  8  9  1  0  0  0
  8 22  1  0  0  0
  9 10  1  0  0  0
  9 27  2  0  0  0
 10 11  2  0  0  0
 10 15  1  0  0  0
 11 12  1  0  0  0
 11 98  1  0  0  0
 12 13  2  0  0  0
 12 99  1  0  0  0
 13 14  1  0  0  0
 13 31  1  0  0  0
 14 15  2  0  0  0
 14100  1  0  0  0
 15101  1  0  0  0
 16 17  2  0  0  0
 16 21  1  0  0  0
 16 31  1  0  0  0
 17 18  1  0  0  0
 17102  1  0  0  0
 18 19  2  0  0  0
 18103  1  0  0  0
 19 20  1  0  0  0
 19 24  1  0  0  0
 20 21  2  0  0  0
 20104  1  0  0  0
 21 23  1  0  0  0
 22 28  1  0  0  0
 22 32  2  0  0  0
 26 27  1  0  0  0
 28105  1  0  0  0
 28106  1  0  0  0
 29107  1  0  0  0
 29108  1  0  0  0
 33 34  1  0  0  0
 33 66  1  0  0  0
 33 70  2  0  0  0
 34 36  1  0  0  0
 34 59  1  0  0  0
 34109  1  0  0  0
 35 44  2  0  0  0
 35 45  1  0  0  0
 35 68  1  0  0  0
 36 56  1  0  0  0
 36110  1  0  0  0
 37 39  1  0  0  0
 37 47  1  0  0  0
 37 66  1  0  0  0
 37111  1  0  0  0
 38 43  2  0  0  0
 38 46  1  0  0  0
 38 47  1  0  0  0
 39 64  1  0  0  0
 39 67  2  0  0  0
 40 52  1  0  0  0
 40 53  2  0  0  0
 40 58  1  0  0  0
 41112  1  0  0  0
 41113  1  0  0  0
 41114  1  0  0  0
 41 48  1  0  0  0
 42 43  1  0  0  0
 42 66  1  0  0  0
 42115  1  0  0  0
 42116  1  0  0  0
 43 44  1  0  0  0
 44117  1  0  0  0
 45 46  2  0  0  0
 45118  1  0  0  0
 46119  1  0  0  0
 47120  1  0  0  0
 47121  1  0  0  0
 48 56  1  0  0  0
 48 65  1  0  0  0
 48122  1  0  0  0
 49 50  1  0  0  0
 49 53  1  0  0  0
 49 64  1  0  0  0
 49123  1  0  0  0
 50 51  1  0  0  0
 50124  1  0  0  0
 50125  1  0  0  0
 51 52  1  0  0  0
 51126  1  0  0  0
 51127  1  0  0  0
 52128  1  0  0  0
 52129  1  0  0  0
 53 54  1  0  0  0
 54 55  2  0  0  0
 54130  1  0  0  0
 55 57  1  0  0  0
 55131  1  0  0  0
 56 69  2  0  0  0
 57 58  2  0  0  0
 57132  1  0  0  0
 58133  1  0  0  0
 59 60  1  0  0  0
 59 61  1  0  0  0
 59 62  1  0  0  0
 60134  1  0  0  0
 60135  1  0  0  0
 60136  1  0  0  0
 61137  1  0  0  0
 61138  1  0  0  0
 61139  1  0  0  0
 62140  1  0  0  0
 62141  1  0  0  0
 62142  1  0  0  0
 63 65  1  0  0  0
 63143  1  0  0  0
 63144  1  0  0  0
 63145  1  0  0  0
 64146  1  0  0  0
 65147  1  0  0  0
 68 81  1  0  0  0
 71 73  2  0  0  0
 71 75  1  0  0  0
 71148  1  0  0  0
 72 74  1  0  0  0
 72 75  2  0  0  0
 72149  1  0  0  0
 73 76  1  0  0  0
 73150  1  0  0  0
 74 76  2  0  0  0
 74151  1  0  0  0
 75 85  1  0  0  0
 76 86  1  0  0  0
 77 78  1  0  0  0
 77 81  2  0  0  0
 77 83  1  0  0  0
 78 85  1  0  0  0
 78 87  2  0  0  0
 79 83  1  0  0  0
 79 85  1  0  0  0
 79 88  2  0  0  0
 80 82  2  0  0  0
 80152  1  0  0  0
 80153  1  0  0  0
 81154  1  0  0  0
 82 84  1  0  0  0
 82155  1  0  0  0
 83156  1  0  0  0
 83157  1  0  0  0
 84 86  1  0  0  0
 84158  1  0  0  0
 84159  1  0  0  0
M  ISO  4   1 100  68 101  81 101  86 100
M  END
> <chiral flag>
0

> <version>
0

> <s_m_source_file>
/data/baiqing/PycharmProjects/Reinvent-master-3.2/result/LINK_invent/BTK/process_docking_weight1_custom_product_contain_oxygen_bond_distance_aromatic_linkinvent_7_9_3/rearranged_h_0082.sdf

> <i_m_source_file_index>
20

> <r_mmod_Potential_Energy-OPLS-2005>
349.841796875

> <r_mmod_Stretch_Energy-OPLS-2005>
116.438385009766

> <r_mmod_Bend_Energy-OPLS-2005>
197.140472412109

> <r_mmod_Torsional_Energy-OPLS-2005>
328.700500488281

> <r_mmod_Improper_Torsional_Energy-OPLS-2005>
3.62853813171387

> <r_mmod_Van_der_Waal_Energy-OPLS-2005>
138.257873535156

> <r_mmod_Electrostatic_Energy-OPLS-2005>
-287.863098144531

> <r_mmod_Solvation_Energy-OPLS-2005>
-219.447875976562

> <b_mmod_Minimization_Converged-OPLS-2005>
0

> <r_mmod_RMS_Derivative-OPLS-2005>
2.23818039894104

$$$$
20
                    3D
 Structure written by MMmdl.
152161  0  0  1  0            999 V2000
  -30.7177  -14.4977   20.4889 C   0  0  0  0  0  0
  -30.4061  -12.2970   19.4511 C   0  0  0  0  0  0
  -29.4967  -12.4861   18.2189 C   0  0  0  0  0  0
  -28.0148  -12.3599   18.6213 C   0  0  0  0  0  0
  -27.6531  -13.2202   19.8626 C   0  0  2  0  0  0
  -28.6929  -13.0519   20.9916 C   0  0  0  0  0  0
  -25.2547  -13.8194   20.5685 C   0  0  0  0  0  0
  -24.1813  -13.0450   20.9181 C   0  0  0  0  0  0
  -24.6387  -11.6922   20.8725 C   0  0  0  0  0  0
  -23.9065  -10.4297   21.0398 C   0  0  0  0  0  0
  -24.3616   -9.4214   21.9180 C   0  0  0  0  0  0
  -23.6291   -8.2247   22.0751 C   0  0  0  0  0  0
  -22.4274   -8.0279   21.3543 C   0  0  0  0  0  0
  -21.9910   -9.0254   20.4644 C   0  0  0  0  0  0
  -22.7237  -10.2135   20.3050 C   0  0  0  0  0  0
  -21.6855   -6.0730   22.5277 C   0  0  0  0  0  0
  -21.4016   -6.5636   23.8211 C   0  0  0  0  0  0
  -21.3660   -5.6789   24.9173 C   0  0  0  0  0  0
  -21.6045   -4.3053   24.7225 C   0  0  0  0  0  0
  -21.8820   -3.8144   23.4349 C   0  0  0  0  0  0
  -21.9194   -4.6956   22.3403 C   0  0  0  0  0  0
  -22.7835  -13.5232   21.1856 C   0  0  0  0  0  0
  -22.1662   -4.2142   21.0980 F   0  0  0  0  0  0
  -21.5629   -3.4538   25.7740 F   0  0  0  0  0  0
  -30.0244  -13.3252   20.4354 N   0  0  0  0  0  0
  -26.2981  -12.9389   20.3316 N   0  0  0  0  0  0
  -25.9316  -11.6538   20.5740 N   0  0  0  0  0  0
  -22.0487  -12.8214   22.0412 N   0  0  0  0  0  0
  -25.4273  -15.1915   20.4108 N   0  0  0  0  0  0
  -31.9027  -14.5401   20.1478 O   0  0  0  0  0  0
  -21.6642   -6.8874   21.4238 O   0  0  0  0  0  0
  -22.3512  -14.5536   20.6709 O   0  0  0  0  0  0
  -24.6145  -31.8681   23.2105 C   0  0  0  0  0  0
  -25.9039  -32.4823   23.8394 C   0  0  1  0  0  0
  -27.2299  -27.4319   20.0852 C   0  0  0  0  0  0
  -25.5895  -33.8622   24.2323 N   0  0  0  0  0  0
  -23.4016  -30.4926   21.5517 C   0  0  2  0  0  0
  -24.8458  -28.9607   20.1131 C   0  0  0  0  0  0
  -22.7406  -29.4659   22.4993 C   0  0  0  0  0  0
  -18.0268  -28.1371   22.8488 C   0  0  0  0  0  0
  -24.1489  -36.7321   23.2639 C   0  0  0  0  0  0
  -25.9314  -30.8325   21.3632 C   0  0  0  0  0  0
  -26.0079  -29.4676   20.7081 C   0  0  0  0  0  0
  -27.2019  -28.7086   20.6945 C   0  0  0  0  0  0
  -26.0419  -26.9366   19.4980 C   0  0  0  0  0  0
  -24.8575  -27.6945   19.5064 C   0  0  0  0  0  0
  -23.6085  -29.8274   20.1652 C   0  0  0  0  0  0
  -25.4112  -36.3115   24.0334 C   0  0  1  0  0  0
  -20.5858  -28.3657   23.1319 C   0  0  2  0  0  0
  -20.6760  -26.9396   22.5415 C   0  0  0  0  0  0
  -19.5744  -26.6381   21.5205 C   0  0  0  0  0  0
  -18.1921  -26.7916   22.1617 C   0  0  0  0  0  0
  -19.1518  -28.8831   23.2900 C   0  0  0  0  0  0
  -18.9447  -30.1437   23.8909 C   0  0  0  0  0  0
  -17.6451  -30.6580   24.0562 C   0  0  0  0  0  0
  -25.9036  -34.9476   23.5127 C   0  0  0  0  0  0
  -16.5342  -29.9082   23.6324 C   0  0  0  0  0  0
  -16.7258  -28.6498   23.0347 C   0  0  0  0  0  0
  -26.4466  -31.6600   25.0719 C   0  0  0  0  0  0
  -25.3740  -31.3694   26.1471 C   0  0  0  0  0  0
  -27.0298  -30.3048   24.6083 C   0  0  0  0  0  0
  -27.6043  -32.4314   25.7485 C   0  0  0  0  0  0
  -27.5578  -37.1822   24.8469 C   0  0  0  0  0  0
  -21.4133  -29.3030   22.3734 N   0  0  0  0  0  0
  -26.4302  -37.3793   23.9397 N   0  0  0  0  0  0
  -24.6675  -31.0782   22.1005 N   0  0  0  0  0  0
  -23.4181  -28.8195   23.3027 O   0  0  0  0  0  0
  -28.3854  -26.6740   20.1218 O   0  0  0  0  0  0
  -26.5599  -34.8925   22.4688 O   0  0  0  0  0  0
  -23.5339  -32.1430   23.7504 O   0  0  0  0  0  0
  -28.8385  -18.7524   20.9407 C   0  0  0  0  0  0
  -30.7266  -19.2401   19.5244 C   0  0  0  0  0  0
  -28.4411  -20.1113   20.8401 C   0  0  0  0  0  0
  -30.3140  -20.5819   19.4236 C   0  0  0  0  0  0
  -29.9952  -18.2962   20.2738 C   0  0  0  0  0  0
  -29.1481  -21.0666   20.0622 C   0  0  0  0  0  0
  -28.6778  -24.3596   19.4633 C   0  0  0  0  0  0
  -28.7067  -23.5840   20.6792 C   0  0  0  0  0  0
  -30.4907  -16.8987   20.2576 C   0  0  0  0  0  0
  -28.5501  -25.6777   19.1884 C   0  0  0  0  0  0
  -29.9561  -15.7377   20.7210 C   0  0  0  0  0  0
  -28.8672  -23.1170   18.6260 C   0  0  0  0  0  0
  -28.6905  -22.4143   19.9081 N   0  0  0  0  0  0
  -28.8408  -23.8930   21.8454 O   0  0  0  0  0  0
  -31.4555  -12.3527   19.1565 H   0  0  0  0  0  0
  -30.2752  -11.3011   19.8770 H   0  0  0  0  0  0
  -29.7398  -11.7478   17.4535 H   0  0  0  0  0  0
  -29.6782  -13.4643   17.7703 H   0  0  0  0  0  0
  -27.8200  -11.3078   18.8306 H   0  0  0  0  0  0
  -27.3730  -12.6257   17.7808 H   0  0  0  0  0  0
  -27.6826  -14.2608   19.5393 H   0  0  0  0  0  0
  -28.6634  -12.0356   21.3865 H   0  0  0  0  0  0
  -28.4655  -13.7007   21.8378 H   0  0  0  0  0  0
  -25.2759   -9.5688   22.4761 H   0  0  0  0  0  0
  -24.0002   -7.4634   22.7471 H   0  0  0  0  0  0
  -21.0843   -8.8770   19.8948 H   0  0  0  0  0  0
  -22.3693  -10.9671   19.6160 H   0  0  0  0  0  0
  -21.2009   -7.6145   23.9711 H   0  0  0  0  0  0
  -21.1483   -6.0523   25.9077 H   0  0  0  0  0  0
  -22.0600   -2.7605   23.2853 H   0  0  0  0  0  0
  -22.4106  -11.9869   22.4786 H   0  0  0  0  0  0
  -21.1104  -13.1233   22.2629 H   0  0  0  0  0  0
  -24.6655  -15.8522   20.5212 H   0  0  0  0  0  0
  -26.2861  -15.6267   20.0978 H   0  0  0  0  0  0
  -26.7106  -32.5531   23.1155 H   0  0  0  0  0  0
  -25.0046  -33.9786   25.0467 H   0  0  0  0  0  0
  -22.6903  -31.3096   21.4147 H   0  0  0  0  0  0
  -23.3742  -35.9665   23.3323 H   0  0  0  0  0  0
  -24.3576  -36.8918   22.2049 H   0  0  0  0  0  0
  -23.7257  -37.6538   23.6642 H   0  0  0  0  0  0
  -26.0429  -31.5995   20.5957 H   0  0  0  0  0  0
  -26.8196  -30.8854   21.9808 H   0  0  0  0  0  0
  -28.0984  -29.0933   21.1598 H   0  0  0  0  0  0
  -26.0111  -25.9577   19.0419 H   0  0  0  0  0  0
  -23.9609  -27.2943   19.0531 H   0  0  0  0  0  0
  -23.7159  -30.6031   19.4061 H   0  0  0  0  0  0
  -22.7320  -29.2476   19.8701 H   0  0  0  0  0  0
  -25.1294  -36.1984   25.0829 H   0  0  0  0  0  0
  -20.9942  -28.3214   24.1441 H   0  0  0  0  0  0
  -20.5655  -26.2260   23.3597 H   0  0  0  0  0  0
  -21.6633  -26.7437   22.1215 H   0  0  0  0  0  0
  -19.6908  -25.6295   21.1227 H   0  0  0  0  0  0
  -19.6687  -27.3197   20.6741 H   0  0  0  0  0  0
  -17.4190  -26.6656   21.4022 H   0  0  0  0  0  0
  -18.0333  -26.0055   22.9013 H   0  0  0  0  0  0
  -19.7929  -30.7246   24.2284 H   0  0  0  0  0  0
  -17.5012  -31.6263   24.5159 H   0  0  0  0  0  0
  -15.5346  -30.2991   23.7646 H   0  0  0  0  0  0
  -15.8655  -28.0826   22.7057 H   0  0  0  0  0  0
  -24.5908  -30.7048   25.7806 H   0  0  0  0  0  0
  -24.8936  -32.2846   26.4945 H   0  0  0  0  0  0
  -25.8103  -30.8842   27.0213 H   0  0  0  0  0  0
  -26.2836  -29.6811   24.1145 H   0  0  0  0  0  0
  -27.4088  -29.7278   25.4529 H   0  0  0  0  0  0
  -27.8660  -30.4378   23.9215 H   0  0  0  0  0  0
  -27.2662  -33.3601   26.2097 H   0  0  0  0  0  0
  -28.3838  -32.6900   25.0304 H   0  0  0  0  0  0
  -28.0727  -31.8416   26.5375 H   0  0  0  0  0  0
  -28.2625  -38.0090   24.7481 H   0  0  0  0  0  0
  -28.1044  -36.2622   24.6346 H   0  0  0  0  0  0
  -27.2286  -37.1536   25.8870 H   0  0  0  0  0  0
  -20.9288  -29.8761   21.6971 H   0  0  0  0  0  0
  -26.0195  -38.2878   24.1372 H   0  0  0  0  0  0
  -28.2443  -18.0668   21.5285 H   0  0  0  0  0  0
  -31.6198  -18.9385   18.9953 H   0  0  0  0  0  0
  -27.5428  -20.4206   21.3552 H   0  0  0  0  0  0
  -30.9264  -21.2416   18.8271 H   0  0  0  0  0  0
  -31.4531  -16.8281   19.7685 H   0  0  0  0  0  0
  -28.5545  -26.0671   18.1797 H   0  0  0  0  0  0
  -29.0008  -15.7377   21.2222 H   0  0  0  0  0  0
  -29.8515  -23.0022   18.1722 H   0  0  0  0  0  0
  -28.0860  -22.8585   17.9099 H   0  0  0  0  0  0
  1 25  1  0  0  0
  1 30  2  0  0  0
  1 81  1  0  0  0
  2  3  1  0  0  0
  2 25  1  0  0  0
  2 85  1  0  0  0
  2 86  1  0  0  0
  3  4  1  0  0  0
  3 87  1  0  0  0
  3 88  1  0  0  0
  4  5  1  0  0  0
  4 89  1  0  0  0
  4 90  1  0  0  0
  5  6  1  0  0  0
  5 26  1  0  0  0
  5 91  1  0  0  0
  6 25  1  0  0  0
  6 92  1  0  0  0
  6 93  1  0  0  0
  7  8  2  0  0  0
  7 26  1  0  0  0
  7 29  1  0  0  0
  8  9  1  0  0  0
  8 22  1  0  0  0
  9 10  1  0  0  0
  9 27  2  0  0  0
 10 11  2  0  0  0
 10 15  1  0  0  0
 11 12  1  0  0  0
 11 94  1  0  0  0
 12 13  2  0  0  0
 12 95  1  0  0  0
 13 14  1  0  0  0
 13 31  1  0  0  0
 14 15  2  0  0  0
 14 96  1  0  0  0
 15 97  1  0  0  0
 16 17  2  0  0  0
 16 21  1  0  0  0
 16 31  1  0  0  0
 17 18  1  0  0  0
 17 98  1  0  0  0
 18 19  2  0  0  0
 18 99  1  0  0  0
 19 20  1  0  0  0
 19 24  1  0  0  0
 20 21  2  0  0  0
 20100  1  0  0  0
 21 23  1  0  0  0
 22 28  1  0  0  0
 22 32  2  0  0  0
 26 27  1  0  0  0
 28101  1  0  0  0
 28102  1  0  0  0
 29103  1  0  0  0
 29104  1  0  0  0
 33 34  1  0  0  0
 33 66  1  0  0  0
 33 70  2  0  0  0
 34 36  1  0  0  0
 34 59  1  0  0  0
 34105  1  0  0  0
 35 44  2  0  0  0
 35 45  1  0  0  0
 35 68  1  0  0  0
 36 56  1  0  0  0
 36106  1  0  0  0
 37 39  1  0  0  0
 37 47  1  0  0  0
 37 66  1  0  0  0
 37107  1  0  0  0
 38 43  2  0  0  0
 38 46  1  0  0  0
 38 47  1  0  0  0
 39 64  1  0  0  0
 39 67  2  0  0  0
 40 52  1  0  0  0
 40 53  2  0  0  0
 40 58  1  0  0  0
 41108  1  0  0  0
 41109  1  0  0  0
 41110  1  0  0  0
 41 48  1  0  0  0
 42 43  1  0  0  0
 42 66  1  0  0  0
 42111  1  0  0  0
 42112  1  0  0  0
 43 44  1  0  0  0
 44113  1  0  0  0
 45 46  2  0  0  0
 45114  1  0  0  0
 46115  1  0  0  0
 47116  1  0  0  0
 47117  1  0  0  0
 48 56  1  0  0  0
 48 65  1  0  0  0
 48118  1  0  0  0
 49 50  1  0  0  0
 49 53  1  0  0  0
 49 64  1  0  0  0
 49119  1  0  0  0
 50 51  1  0  0  0
 50120  1  0  0  0
 50121  1  0  0  0
 51 52  1  0  0  0
 51122  1  0  0  0
 51123  1  0  0  0
 52124  1  0  0  0
 52125  1  0  0  0
 53 54  1  0  0  0
 54 55  2  0  0  0
 54126  1  0  0  0
 55 57  1  0  0  0
 55127  1  0  0  0
 56 69  2  0  0  0
 57 58  2  0  0  0
 57128  1  0  0  0
 58129  1  0  0  0
 59 60  1  0  0  0
 59 61  1  0  0  0
 59 62  1  0  0  0
 60130  1  0  0  0
 60131  1  0  0  0
 60132  1  0  0  0
 61133  1  0  0  0
 61134  1  0  0  0
 61135  1  0  0  0
 62136  1  0  0  0
 62137  1  0  0  0
 62138  1  0  0  0
 63 65  1  0  0  0
 63139  1  0  0  0
 63140  1  0  0  0
 63141  1  0  0  0
 64142  1  0  0  0
 65143  1  0  0  0
 68 80  1  0  0  0
 71 73  2  0  0  0
 71 75  1  0  0  0
 71144  1  0  0  0
 72 74  1  0  0  0
 72 75  2  0  0  0
 72145  1  0  0  0
 73 76  1  0  0  0
 73146  1  0  0  0
 74 76  2  0  0  0
 74147  1  0  0  0
 75 79  1  0  0  0
 76 83  1  0  0  0
 77 78  1  0  0  0
 77 80  2  0  0  0
 77 82  1  0  0  0
 78 83  1  0  0  0
 78 84  2  0  0  0
 79 81  2  0  0  0
 79148  1  0  0  0
 80149  1  0  0  0
 81150  1  0  0  0
 82 83  1  0  0  0
 82151  1  0  0  0
 82152  1  0  0  0
M  ISO  4   1 100  68 101  80 101  81 100
M  END
> <chiral flag>
0

> <version>
0

> <s_m_source_file>
/data/baiqing/PycharmProjects/Reinvent-master-3.2/result/LINK_invent/BTK/process_docking_weight1_custom_product_contain_oxygen_bond_distance_aromatic_linkinvent_7_9_3/rearranged_h_0082.sdf

> <i_m_source_file_index>
21

> <r_mmod_Potential_Energy-OPLS-2005>
70.7592849731445

> <r_mmod_Stretch_Energy-OPLS-2005>
39.0519981384277

> <r_mmod_Bend_Energy-OPLS-2005>
175.251510620117

> <r_mmod_Torsional_Energy-OPLS-2005>
217.599426269531

> <r_mmod_Improper_Torsional_Energy-OPLS-2005>
9.76528835296631

> <r_mmod_Van_der_Waal_Energy-OPLS-2005>
157.009292602539

> <r_mmod_Electrostatic_Energy-OPLS-2005>
-332.559936523438

> <r_mmod_Solvation_Energy-OPLS-2005>
-217.207504272461

> <b_mmod_Minimization_Converged-OPLS-2005>
0

> <r_mmod_RMS_Derivative-OPLS-2005>
0.792985677719116

$$$$
21
                    3D
 Structure written by MMmdl.
147155  0  0  1  0            999 V2000
  -30.6811  -14.6861   20.3805 C   0  0  0  0  0  0
  -30.4190  -12.4018   19.4683 C   0  0  0  0  0  0
  -29.4974  -12.4502   18.2282 C   0  0  0  0  0  0
  -28.0195  -12.3222   18.6418 C   0  0  0  0  0  0
  -27.6402  -13.2366   19.8374 C   0  0  2  0  0  0
  -28.6924  -13.1866   20.9656 C   0  0  0  0  0  0
  -25.2517  -13.8218   20.5692 C   0  0  0  0  0  0
  -24.1815  -13.0442   20.9211 C   0  0  0  0  0  0
  -24.6423  -11.6930   20.8770 C   0  0  0  0  0  0
  -23.9111  -10.4309   21.0429 C   0  0  0  0  0  0
  -24.3658   -9.4207   21.9180 C   0  0  0  0  0  0
  -23.6324   -8.2239   22.0749 C   0  0  0  0  0  0
  -22.4294   -8.0290   21.3559 C   0  0  0  0  0  0
  -21.9938   -9.0269   20.4656 C   0  0  0  0  0  0
  -22.7283  -10.2145   20.3082 C   0  0  0  0  0  0
  -21.6849   -6.0742   22.5282 C   0  0  0  0  0  0
  -21.3999   -6.5648   23.8211 C   0  0  0  0  0  0
  -21.3656   -5.6802   24.9173 C   0  0  0  0  0  0
  -21.6062   -4.3068   24.7228 C   0  0  0  0  0  0
  -21.8822   -3.8156   23.4345 C   0  0  0  0  0  0
  -21.9189   -4.6970   22.3402 C   0  0  0  0  0  0
  -22.7834  -13.5193   21.1894 C   0  0  0  0  0  0
  -22.1666   -4.2168   21.0980 F   0  0  0  0  0  0
  -21.5630   -3.4543   25.7735 F   0  0  0  0  0  0
  -30.0025  -13.4895   20.3785 N   0  0  0  0  0  0
  -26.2955  -12.9429   20.3267 N   0  0  0  0  0  0
  -25.9355  -11.6567   20.5761 N   0  0  0  0  0  0
  -22.0534  -12.8171   22.0464 N   0  0  0  0  0  0
  -25.4196  -15.1933   20.4100 N   0  0  0  0  0  0
  -31.8866  -14.6819   20.1265 O   0  0  0  0  0  0
  -21.6655   -6.8889   21.4245 O   0  0  0  0  0  0
  -22.3501  -14.5516   20.6788 O   0  0  0  0  0  0
  -24.6275  -31.8587   23.2039 C   0  0  0  0  0  0
  -25.9104  -32.4784   23.8368 C   0  0  1  0  0  0
  -27.2246  -27.3171   20.0799 C   0  0  0  0  0  0
  -25.5891  -33.8585   24.2263 N   0  0  0  0  0  0
  -23.4200  -30.4848   21.5490 C   0  0  2  0  0  0
  -24.8606  -28.9400   20.1072 C   0  0  0  0  0  0
  -22.7476  -29.4613   22.4943 C   0  0  0  0  0  0
  -18.0280  -28.1412   22.8490 C   0  0  0  0  0  0
  -24.1462  -36.7313   23.2650 C   0  0  0  0  0  0
  -25.9630  -30.7866   21.3706 C   0  0  0  0  0  0
  -26.0348  -29.4160   20.7040 C   0  0  0  0  0  0
  -27.2170  -28.6155   20.6819 C   0  0  0  0  0  0
  -26.0138  -26.8849   19.4869 C   0  0  0  0  0  0
  -24.8500  -27.6775   19.4962 C   0  0  0  0  0  0
  -23.6331  -29.8273   20.1618 C   0  0  0  0  0  0
  -25.4086  -36.3095   24.0330 C   0  0  1  0  0  0
  -20.5879  -28.3692   23.1296 C   0  0  2  0  0  0
  -20.6770  -26.9409   22.5439 C   0  0  0  0  0  0
  -19.5746  -26.6391   21.5244 C   0  0  0  0  0  0
  -18.1925  -26.7952   22.1648 C   0  0  0  0  0  0
  -19.1535  -28.8870   23.2892 C   0  0  0  0  0  0
  -18.9463  -30.1473   23.8908 C   0  0  0  0  0  0
  -17.6462  -30.6611   24.0565 C   0  0  0  0  0  0
  -25.9033  -34.9461   23.5093 C   0  0  0  0  0  0
  -16.5354  -29.9117   23.6323 C   0  0  0  0  0  0
  -16.7265  -28.6541   23.0336 C   0  0  0  0  0  0
  -26.4494  -31.6628   25.0757 C   0  0  0  0  0  0
  -25.3735  -31.3779   26.1498 C   0  0  0  0  0  0
  -27.0335  -30.3052   24.6211 C   0  0  0  0  0  0
  -27.6052  -32.4382   25.7513 C   0  0  0  0  0  0
  -27.5547  -37.1808   24.8475 C   0  0  0  0  0  0
  -21.4194  -29.3031   22.3682 N   0  0  0  0  0  0
  -26.4267  -37.3780   23.9413 N   0  0  0  0  0  0
  -24.6901  -31.0573   22.1001 N   0  0  0  0  0  0
  -23.4189  -28.8168   23.3039 O   0  0  0  0  0  0
  -28.3449  -26.4647   20.1344 O   0  0  0  0  0  0
  -26.5620  -34.8936   22.4674 O   0  0  0  0  0  0
  -23.5437  -32.1392   23.7378 O   0  0  0  0  0  0
  -28.9284  -24.0489   19.6304 C   0  0  0  0  0  0
  -28.8936  -19.2642   20.2717 C   0  0  0  0  0  0
  -31.1798  -19.5736   19.6391 C   0  0  0  0  0  0
  -28.6752  -20.6834   20.1510 C   0  0  0  0  0  0
  -30.9666  -20.9761   19.5251 C   0  0  0  0  0  0
  -30.1602  -18.6583   20.0191 C   0  0  0  0  0  0
  -29.7132  -21.5859   19.7752 C   0  0  0  0  0  0
  -28.4015  -25.2628   19.3952 C   0  0  0  0  0  0
  -30.5461  -17.1742   20.1054 C   0  0  0  0  0  0
  -29.9263  -15.9871   20.4520 C   0  0  0  0  0  0
  -29.6037  -23.0072   19.5586 N   0  0  0  0  0  0
  -31.4614  -12.4858   19.1539 H   0  0  0  0  0  0
  -30.3382  -11.4392   19.9764 H   0  0  0  0  0  0
  -29.7572  -11.6384   17.5478 H   0  0  0  0  0  0
  -29.6485  -13.3763   17.6726 H   0  0  0  0  0  0
  -27.8538  -11.2787   18.9125 H   0  0  0  0  0  0
  -27.3643  -12.5202   17.7924 H   0  0  0  0  0  0
  -27.6329  -14.2556   19.4486 H   0  0  0  0  0  0
  -28.7101  -12.2051   21.4403 H   0  0  0  0  0  0
  -28.4464  -13.9006   21.7528 H   0  0  0  0  0  0
  -25.2802   -9.5660   22.4749 H   0  0  0  0  0  0
  -24.0043   -7.4607   22.7451 H   0  0  0  0  0  0
  -21.0865   -8.8820   19.8944 H   0  0  0  0  0  0
  -22.3752  -10.9706   19.6225 H   0  0  0  0  0  0
  -21.1994   -7.6151   23.9709 H   0  0  0  0  0  0
  -21.1471   -6.0536   25.9083 H   0  0  0  0  0  0
  -22.0606   -2.7615   23.2840 H   0  0  0  0  0  0
  -22.4198  -11.9843   22.4839 H   0  0  0  0  0  0
  -21.1159  -13.1175   22.2739 H   0  0  0  0  0  0
  -24.6535  -15.8490   20.5376 H   0  0  0  0  0  0
  -26.2707  -15.6349   20.0871 H   0  0  0  0  0  0
  -26.7170  -32.5440   23.1118 H   0  0  0  0  0  0
  -24.9963  -33.9728   25.0355 H   0  0  0  0  0  0
  -22.7129  -31.3055   21.4117 H   0  0  0  0  0  0
  -23.3704  -35.9675   23.3378 H   0  0  0  0  0  0
  -24.3526  -36.8873   22.2049 H   0  0  0  0  0  0
  -23.7251  -37.6545   23.6641 H   0  0  0  0  0  0
  -26.0835  -31.5492   20.6001 H   0  0  0  0  0  0
  -26.8475  -30.8374   21.9953 H   0  0  0  0  0  0
  -28.1206  -28.9766   21.1507 H   0  0  0  0  0  0
  -25.9274  -25.9090   19.0353 H   0  0  0  0  0  0
  -23.9398  -27.2975   19.0521 H   0  0  0  0  0  0
  -23.7695  -30.6133   19.4180 H   0  0  0  0  0  0
  -22.7475  -29.2720   19.8475 H   0  0  0  0  0  0
  -25.1268  -36.1938   25.0823 H   0  0  0  0  0  0
  -20.9957  -28.3283   24.1420 H   0  0  0  0  0  0
  -20.5666  -26.2304   23.3646 H   0  0  0  0  0  0
  -21.6639  -26.7444   22.1224 H   0  0  0  0  0  0
  -19.6893  -25.6299   21.1289 H   0  0  0  0  0  0
  -19.6696  -27.3203   20.6780 H   0  0  0  0  0  0
  -17.4183  -26.6677   21.4068 H   0  0  0  0  0  0
  -18.0327  -26.0120   22.9070 H   0  0  0  0  0  0
  -19.7938  -30.7289   24.2287 H   0  0  0  0  0  0
  -17.5021  -31.6296   24.5171 H   0  0  0  0  0  0
  -15.5354  -30.3028   23.7649 H   0  0  0  0  0  0
  -15.8668  -28.0881   22.7021 H   0  0  0  0  0  0
  -24.5910  -30.7110   25.7863 H   0  0  0  0  0  0
  -24.8943  -32.2955   26.4920 H   0  0  0  0  0  0
  -25.8081  -30.8989   27.0278 H   0  0  0  0  0  0
  -26.2917  -29.6810   24.1213 H   0  0  0  0  0  0
  -27.4002  -29.7296   25.4720 H   0  0  0  0  0  0
  -27.8801  -30.4349   23.9463 H   0  0  0  0  0  0
  -27.2645  -33.3672   26.2098 H   0  0  0  0  0  0
  -28.3851  -32.6952   25.0334 H   0  0  0  0  0  0
  -28.0744  -31.8520   26.5419 H   0  0  0  0  0  0
  -28.2623  -38.0046   24.7425 H   0  0  0  0  0  0
  -28.0973  -36.2567   24.6409 H   0  0  0  0  0  0
  -27.2263  -37.1605   25.8884 H   0  0  0  0  0  0
  -20.9375  -29.8721   21.6867 H   0  0  0  0  0  0
  -26.0152  -38.2855   24.1418 H   0  0  0  0  0  0
  -28.0621  -18.6330   20.5509 H   0  0  0  0  0  0
  -32.1692  -19.1977   19.4147 H   0  0  0  0  0  0
  -27.6879  -21.0820   20.3319 H   0  0  0  0  0  0
  -31.7971  -21.5989   19.2178 H   0  0  0  0  0  0
  -27.9698  -25.4354   18.4189 H   0  0  0  0  0  0
  -31.5762  -17.0497   19.8009 H   0  0  0  0  0  0
  -28.8934  -15.9944   20.7649 H   0  0  0  0  0  0
  1 25  1  0  0  0
  1 30  2  0  0  0
  1 80  1  0  0  0
  2  3  1  0  0  0
  2 25  1  0  0  0
  2 82  1  0  0  0
  2 83  1  0  0  0
  3  4  1  0  0  0
  3 84  1  0  0  0
  3 85  1  0  0  0
  4  5  1  0  0  0
  4 86  1  0  0  0
  4 87  1  0  0  0
  5  6  1  0  0  0
  5 26  1  0  0  0
  5 88  1  0  0  0
  6 25  1  0  0  0
  6 89  1  0  0  0
  6 90  1  0  0  0
  7  8  2  0  0  0
  7 26  1  0  0  0
  7 29  1  0  0  0
  8  9  1  0  0  0
  8 22  1  0  0  0
  9 10  1  0  0  0
  9 27  2  0  0  0
 10 11  2  0  0  0
 10 15  1  0  0  0
 11 12  1  0  0  0
 11 91  1  0  0  0
 12 13  2  0  0  0
 12 92  1  0  0  0
 13 14  1  0  0  0
 13 31  1  0  0  0
 14 15  2  0  0  0
 14 93  1  0  0  0
 15 94  1  0  0  0
 16 17  2  0  0  0
 16 21  1  0  0  0
 16 31  1  0  0  0
 17 18  1  0  0  0
 17 95  1  0  0  0
 18 19  2  0  0  0
 18 96  1  0  0  0
 19 20  1  0  0  0
 19 24  1  0  0  0
 20 21  2  0  0  0
 20 97  1  0  0  0
 21 23  1  0  0  0
 22 28  1  0  0  0
 22 32  2  0  0  0
 26 27  1  0  0  0
 28 98  1  0  0  0
 28 99  1  0  0  0
 29100  1  0  0  0
 29101  1  0  0  0
 33 34  1  0  0  0
 33 66  1  0  0  0
 33 70  2  0  0  0
 34 36  1  0  0  0
 34 59  1  0  0  0
 34102  1  0  0  0
 35 44  2  0  0  0
 35 45  1  0  0  0
 35 68  1  0  0  0
 36 56  1  0  0  0
 36103  1  0  0  0
 37 39  1  0  0  0
 37 47  1  0  0  0
 37 66  1  0  0  0
 37104  1  0  0  0
 38 43  2  0  0  0
 38 46  1  0  0  0
 38 47  1  0  0  0
 39 64  1  0  0  0
 39 67  2  0  0  0
 40 52  1  0  0  0
 40 53  2  0  0  0
 40 58  1  0  0  0
 41105  1  0  0  0
 41106  1  0  0  0
 41107  1  0  0  0
 41 48  1  0  0  0
 42 43  1  0  0  0
 42 66  1  0  0  0
 42108  1  0  0  0
 42109  1  0  0  0
 43 44  1  0  0  0
 44110  1  0  0  0
 45 46  2  0  0  0
 45111  1  0  0  0
 46112  1  0  0  0
 47113  1  0  0  0
 47114  1  0  0  0
 48 56  1  0  0  0
 48 65  1  0  0  0
 48115  1  0  0  0
 49 50  1  0  0  0
 49 53  1  0  0  0
 49 64  1  0  0  0
 49116  1  0  0  0
 50 51  1  0  0  0
 50117  1  0  0  0
 50118  1  0  0  0
 51 52  1  0  0  0
 51119  1  0  0  0
 51120  1  0  0  0
 52121  1  0  0  0
 52122  1  0  0  0
 53 54  1  0  0  0
 54 55  2  0  0  0
 54123  1  0  0  0
 55 57  1  0  0  0
 55124  1  0  0  0
 56 69  2  0  0  0
 57 58  2  0  0  0
 57125  1  0  0  0
 58126  1  0  0  0
 59 60  1  0  0  0
 59 61  1  0  0  0
 59 62  1  0  0  0
 60127  1  0  0  0
 60128  1  0  0  0
 60129  1  0  0  0
 61130  1  0  0  0
 61131  1  0  0  0
 61132  1  0  0  0
 62133  1  0  0  0
 62134  1  0  0  0
 62135  1  0  0  0
 63 65  1  0  0  0
 63136  1  0  0  0
 63137  1  0  0  0
 63138  1  0  0  0
 64139  1  0  0  0
 65140  1  0  0  0
 68 78  1  0  0  0
 71 78  2  0  0  0
 71 81  2  0  0  0
 72 74  2  0  0  0
 72 76  1  0  0  0
 72141  1  0  0  0
 73 75  1  0  0  0
 73 76  2  0  0  0
 73142  1  0  0  0
 74 77  1  0  0  0
 74143  1  0  0  0
 75 77  2  0  0  0
 75144  1  0  0  0
 76 79  1  0  0  0
 77 81  1  0  0  0
 78145  1  0  0  0
 79 80  2  0  0  0
 79146  1  0  0  0
 80147  1  0  0  0
M  ISO  4   1 100  68 101  78 101  80 100
M  END
> <chiral flag>
0

> <version>
0

> <s_m_source_file>
/data/baiqing/PycharmProjects/Reinvent-master-3.2/result/LINK_invent/BTK/process_docking_weight1_custom_product_contain_oxygen_bond_distance_aromatic_linkinvent_7_9_3/rearranged_h_0082.sdf

> <i_m_source_file_index>
22

> <r_mmod_Potential_Energy-OPLS-2005>
82.9310607910156

> <r_mmod_Stretch_Energy-OPLS-2005>
82.2533264160156

> <r_mmod_Bend_Energy-OPLS-2005>
168.811172485352

> <r_mmod_Torsional_Energy-OPLS-2005>
143.308029174805

> <r_mmod_Improper_Torsional_Energy-OPLS-2005>
5.65193557739258

> <r_mmod_Van_der_Waal_Energy-OPLS-2005>
148.050308227539

> <r_mmod_Electrostatic_Energy-OPLS-2005>
-338.421569824219

> <r_mmod_Solvation_Energy-OPLS-2005>
-192.750015258789

> <b_mmod_Minimization_Converged-OPLS-2005>
0

> <r_mmod_RMS_Derivative-OPLS-2005>
3.83032059669495

$$$$
22
                    3D
 Structure written by MMmdl.
157166  0  0  1  0            999 V2000
  -30.5922  -14.7658   20.4632 C   0  0  0  0  0  0
  -30.4486  -12.4650   19.4843 C   0  0  0  0  0  0
  -29.5264  -12.5108   18.2447 C   0  0  0  0  0  0
  -28.0478  -12.3391   18.6497 C   0  0  0  0  0  0
  -27.6495  -13.2321   19.8554 C   0  0  2  0  0  0
  -28.6930  -13.1533   20.9920 C   0  0  0  0  0  0
  -25.2543  -13.8189   20.5705 C   0  0  0  0  0  0
  -24.1821  -13.0440   20.9187 C   0  0  0  0  0  0
  -24.6404  -11.6920   20.8728 C   0  0  0  0  0  0
  -23.9072  -10.4296   21.0391 C   0  0  0  0  0  0
  -24.3625   -9.4213   21.9173 C   0  0  0  0  0  0
  -23.6296   -8.2255   22.0758 C   0  0  0  0  0  0
  -22.4270   -8.0289   21.3558 C   0  0  0  0  0  0
  -21.9900   -9.0255   20.4660 C   0  0  0  0  0  0
  -22.7233  -10.2133   20.3052 C   0  0  0  0  0  0
  -21.6853   -6.0736   22.5275 C   0  0  0  0  0  0
  -21.4019   -6.5635   23.8211 C   0  0  0  0  0  0
  -21.3661   -5.6789   24.9172 C   0  0  0  0  0  0
  -21.6037   -4.3050   24.7222 C   0  0  0  0  0  0
  -21.8818   -3.8143   23.4340 C   0  0  0  0  0  0
  -21.9194   -4.6965   22.3394 C   0  0  0  0  0  0
  -22.7841  -13.5227   21.1828 C   0  0  0  0  0  0
  -22.1659   -4.2151   21.0971 F   0  0  0  0  0  0
  -21.5629   -3.4532   25.7732 F   0  0  0  0  0  0
  -29.9981  -13.5204   20.4209 N   0  0  0  0  0  0
  -26.2980  -12.9405   20.3283 N   0  0  0  0  0  0
  -25.9337  -11.6545   20.5724 N   0  0  0  0  0  0
  -22.0477  -12.8245   22.0403 N   0  0  0  0  0  0
  -25.4240  -15.1919   20.4181 N   0  0  0  0  0  0
  -31.7672  -14.8942   20.1057 O   0  0  0  0  0  0
  -21.6640   -6.8881   21.4238 O   0  0  0  0  0  0
  -22.3522  -14.5523   20.6662 O   0  0  0  0  0  0
  -24.6328  -31.8533   23.1972 C   0  0  0  0  0  0
  -25.9147  -32.4744   23.8320 C   0  0  1  0  0  0
  -27.2357  -27.2632   20.1222 C   0  0  0  0  0  0
  -25.5945  -33.8548   24.2246 N   0  0  0  0  0  0
  -23.4313  -30.4752   21.5389 C   0  0  2  0  0  0
  -24.8831  -28.9220   20.1075 C   0  0  0  0  0  0
  -22.7509  -29.4595   22.4889 C   0  0  0  0  0  0
  -18.0299  -28.1384   22.8481 C   0  0  0  0  0  0
  -24.1499  -36.7281   23.2638 C   0  0  0  0  0  0
  -25.9780  -30.7645   21.3807 C   0  0  0  0  0  0
  -26.0535  -29.3875   20.7210 C   0  0  0  0  0  0
  -27.2292  -28.5675   20.7253 C   0  0  0  0  0  0
  -26.0353  -26.8600   19.4931 C   0  0  0  0  0  0
  -24.8789  -27.6645   19.4846 C   0  0  0  0  0  0
  -23.6519  -29.8080   20.1555 C   0  0  0  0  0  0
  -25.4120  -36.3061   24.0322 C   0  0  1  0  0  0
  -20.5902  -28.3701   23.1261 C   0  0  2  0  0  0
  -20.6789  -26.9415   22.5408 C   0  0  0  0  0  0
  -19.5769  -26.6378   21.5209 C   0  0  0  0  0  0
  -18.1942  -26.7928   22.1615 C   0  0  0  0  0  0
  -19.1552  -28.8862   23.2861 C   0  0  0  0  0  0
  -18.9475  -30.1459   23.8884 C   0  0  0  0  0  0
  -17.6472  -30.6581   24.0566 C   0  0  0  0  0  0
  -25.9058  -34.9433   23.5082 C   0  0  0  0  0  0
  -16.5365  -29.9076   23.6336 C   0  0  0  0  0  0
  -16.7284  -28.6496   23.0353 C   0  0  0  0  0  0
  -26.4513  -31.6579   25.0718 C   0  0  0  0  0  0
  -25.3736  -31.3762   26.1444 C   0  0  0  0  0  0
  -27.0358  -30.2987   24.6234 C   0  0  0  0  0  0
  -27.6064  -32.4328   25.7485 C   0  0  0  0  0  0
  -27.5585  -37.1788   24.8458 C   0  0  0  0  0  0
  -21.4214  -29.3041   22.3639 N   0  0  0  0  0  0
  -26.4294  -37.3760   23.9409 N   0  0  0  0  0  0
  -24.6991  -31.0493   22.0947 N   0  0  0  0  0  0
  -23.4197  -28.8143   23.3002 O   0  0  0  0  0  0
  -28.3018  -26.3330   20.2172 O   0  0  0  0  0  0
  -26.5624  -34.8915   22.4645 O   0  0  0  0  0  0
  -23.5473  -32.1363   23.7255 O   0  0  0  0  0  0
  -30.9489  -19.4623   19.7820 C   0  0  0  0  0  0
  -30.9802  -18.0461   20.0245 C   0  0  0  0  0  0
  -28.7480  -18.1868   20.8322 C   0  0  0  0  0  0
  -29.8058  -20.3117   19.9976 C   0  0  0  0  0  0
  -29.8634  -17.3345   20.5394 C   0  0  0  0  0  0
  -28.7046  -19.6057   20.5693 C   0  0  0  0  0  0
  -28.8544  -24.0392   19.0454 C   0  0  0  0  0  0
  -28.9857  -23.6249   17.6611 C   0  0  0  0  0  0
  -29.1170  -22.8833   20.0106 C   0  0  0  0  0  0
  -28.0068  -23.8022   16.7530 C   0  0  0  0  0  0
  -28.5039  -25.3904   19.1849 C   0  0  0  0  0  0
  -30.2886  -22.9952   17.2864 C   0  0  0  0  0  0
  -30.6672  -21.9198   18.3126 C   0  0  0  0  0  0
  -29.7664  -21.7345   19.4847 N   0  0  0  0  0  0
  -29.7795  -15.8558   20.7560 N   0  0  0  0  0  0
  -28.7797  -22.9270   21.1969 O   0  0  0  0  0  0
  -27.5490  -20.2671   20.8159 F   0  0  0  0  0  0
  -31.4905  -12.5985   19.1872 H   0  0  0  0  0  0
  -30.4028  -11.4879   19.9666 H   0  0  0  0  0  0
  -29.8118  -11.7333   17.5342 H   0  0  0  0  0  0
  -29.6587  -13.4608   17.7250 H   0  0  0  0  0  0
  -27.8983  -11.2890   18.9029 H   0  0  0  0  0  0
  -27.3981  -12.5418   17.7977 H   0  0  0  0  0  0
  -27.6465  -14.2567   19.4813 H   0  0  0  0  0  0
  -28.7307  -12.1476   21.4128 H   0  0  0  0  0  0
  -28.4213  -13.8135   21.8171 H   0  0  0  0  0  0
  -25.2779   -9.5687   22.4736 H   0  0  0  0  0  0
  -24.0006   -7.4640   22.7472 H   0  0  0  0  0  0
  -21.0834   -8.8779   19.8968 H   0  0  0  0  0  0
  -22.3696  -10.9672   19.6158 H   0  0  0  0  0  0
  -21.2024   -7.6146   23.9712 H   0  0  0  0  0  0
  -21.1480   -6.0522   25.9075 H   0  0  0  0  0  0
  -22.0599   -2.7606   23.2831 H   0  0  0  0  0  0
  -22.4086  -11.9940   22.4851 H   0  0  0  0  0  0
  -21.1098  -13.1292   22.2585 H   0  0  0  0  0  0
  -24.6546  -15.8421   20.5358 H   0  0  0  0  0  0
  -26.2683  -15.6369   20.0844 H   0  0  0  0  0  0
  -26.7209  -32.5397   23.1057 H   0  0  0  0  0  0
  -25.0108  -33.9672   25.0405 H   0  0  0  0  0  0
  -22.7285  -31.2973   21.3901 H   0  0  0  0  0  0
  -23.3758  -35.9614   23.3293 H   0  0  0  0  0  0
  -24.3595  -36.8915   22.2053 H   0  0  0  0  0  0
  -23.7258  -37.6483   23.6669 H   0  0  0  0  0  0
  -26.1217  -31.5280   20.6148 H   0  0  0  0  0  0
  -26.8523  -30.8096   22.0184 H   0  0  0  0  0  0
  -28.1197  -28.9127   21.2314 H   0  0  0  0  0  0
  -25.9672  -25.8820   19.0385 H   0  0  0  0  0  0
  -23.9798  -27.2944   19.0109 H   0  0  0  0  0  0
  -23.7757  -30.5838   19.3986 H   0  0  0  0  0  0
  -22.7718  -29.2390   19.8506 H   0  0  0  0  0  0
  -25.1303  -36.1897   25.0815 H   0  0  0  0  0  0
  -20.9992  -28.3287   24.1384 H   0  0  0  0  0  0
  -20.5691  -26.2309   23.3611 H   0  0  0  0  0  0
  -21.6660  -26.7429   22.1212 H   0  0  0  0  0  0
  -19.6930  -25.6281   21.1262 H   0  0  0  0  0  0
  -19.6711  -27.3174   20.6726 H   0  0  0  0  0  0
  -17.4210  -26.6671   21.4014 H   0  0  0  0  0  0
  -18.0341  -26.0065   22.9011 H   0  0  0  0  0  0
  -19.7952  -30.7283   24.2242 H   0  0  0  0  0  0
  -17.5027  -31.6267   24.5153 H   0  0  0  0  0  0
  -15.5365  -30.2970   23.7670 H   0  0  0  0  0  0
  -15.8686  -28.0812   22.7068 H   0  0  0  0  0  0
  -24.5869  -30.7156   25.7783 H   0  0  0  0  0  0
  -24.8979  -32.2950   26.4883 H   0  0  0  0  0  0
  -25.8044  -30.8917   27.0213 H   0  0  0  0  0  0
  -26.2945  -29.6725   24.1256 H   0  0  0  0  0  0
  -27.4015  -29.7270   25.4774 H   0  0  0  0  0  0
  -27.8840  -30.4243   23.9501 H   0  0  0  0  0  0
  -27.2657  -33.3615   26.2078 H   0  0  0  0  0  0
  -28.3862  -32.6912   25.0307 H   0  0  0  0  0  0
  -28.0752  -31.8450   26.5389 H   0  0  0  0  0  0
  -28.2595  -38.0092   24.7506 H   0  0  0  0  0  0
  -28.1087  -36.2620   24.6273 H   0  0  0  0  0  0
  -27.2308  -37.1437   25.8864 H   0  0  0  0  0  0
  -20.9393  -29.8752   21.6838 H   0  0  0  0  0  0
  -26.0171  -38.2834   24.1402 H   0  0  0  0  0  0
  -31.8536  -19.8826   19.3679 H   0  0  0  0  0  0
  -31.8851  -17.5085   19.7782 H   0  0  0  0  0  0
  -27.8549  -17.7422   21.2459 H   0  0  0  0  0  0
  -27.0610  -24.2554   17.0141 H   0  0  0  0  0  0
  -28.1327  -23.4929   15.7247 H   0  0  0  0  0  0
  -28.3944  -25.9468   18.2627 H   0  0  0  0  0  0
  -31.0530  -23.7736   17.2598 H   0  0  0  0  0  0
  -30.2431  -22.5707   16.2819 H   0  0  0  0  0  0
  -31.6750  -22.1187   18.6800 H   0  0  0  0  0  0
  -30.7261  -20.9918   17.7433 H   0  0  0  0  0  0
  -28.8777  -15.5515   21.0894 H   0  0  0  0  0  0
  1 25  1  0  0  0
  1 30  2  0  0  0
  1 85  1  0  0  0
  2  3  1  0  0  0
  2 25  1  0  0  0
  2 88  1  0  0  0
  2 89  1  0  0  0
  3  4  1  0  0  0
  3 90  1  0  0  0
  3 91  1  0  0  0
  4  5  1  0  0  0
  4 92  1  0  0  0
  4 93  1  0  0  0
  5  6  1  0  0  0
  5 26  1  0  0  0
  5 94  1  0  0  0
  6 25  1  0  0  0
  6 95  1  0  0  0
  6 96  1  0  0  0
  7  8  2  0  0  0
  7 26  1  0  0  0
  7 29  1  0  0  0
  8  9  1  0  0  0
  8 22  1  0  0  0
  9 10  1  0  0  0
  9 27  2  0  0  0
 10 11  2  0  0  0
 10 15  1  0  0  0
 11 12  1  0  0  0
 11 97  1  0  0  0
 12 13  2  0  0  0
 12 98  1  0  0  0
 13 14  1  0  0  0
 13 31  1  0  0  0
 14 15  2  0  0  0
 14 99  1  0  0  0
 15100  1  0  0  0
 16 17  2  0  0  0
 16 21  1  0  0  0
 16 31  1  0  0  0
 17 18  1  0  0  0
 17101  1  0  0  0
 18 19  2  0  0  0
 18102  1  0  0  0
 19 20  1  0  0  0
 19 24  1  0  0  0
 20 21  2  0  0  0
 20103  1  0  0  0
 21 23  1  0  0  0
 22 28  1  0  0  0
 22 32  2  0  0  0
 26 27  1  0  0  0
 28104  1  0  0  0
 28105  1  0  0  0
 29106  1  0  0  0
 29107  1  0  0  0
 33 34  1  0  0  0
 33 66  1  0  0  0
 33 70  2  0  0  0
 34 36  1  0  0  0
 34 59  1  0  0  0
 34108  1  0  0  0
 35 44  2  0  0  0
 35 45  1  0  0  0
 35 68  1  0  0  0
 36 56  1  0  0  0
 36109  1  0  0  0
 37 39  1  0  0  0
 37 47  1  0  0  0
 37 66  1  0  0  0
 37110  1  0  0  0
 38 43  2  0  0  0
 38 46  1  0  0  0
 38 47  1  0  0  0
 39 64  1  0  0  0
 39 67  2  0  0  0
 40 52  1  0  0  0
 40 53  2  0  0  0
 40 58  1  0  0  0
 41111  1  0  0  0
 41112  1  0  0  0
 41113  1  0  0  0
 41 48  1  0  0  0
 42 43  1  0  0  0
 42 66  1  0  0  0
 42114  1  0  0  0
 42115  1  0  0  0
 43 44  1  0  0  0
 44116  1  0  0  0
 45 46  2  0  0  0
 45117  1  0  0  0
 46118  1  0  0  0
 47119  1  0  0  0
 47120  1  0  0  0
 48 56  1  0  0  0
 48 65  1  0  0  0
 48121  1  0  0  0
 49 50  1  0  0  0
 49 53  1  0  0  0
 49 64  1  0  0  0
 49122  1  0  0  0
 50 51  1  0  0  0
 50123  1  0  0  0
 50124  1  0  0  0
 51 52  1  0  0  0
 51125  1  0  0  0
 51126  1  0  0  0
 52127  1  0  0  0
 52128  1  0  0  0
 53 54  1  0  0  0
 54 55  2  0  0  0
 54129  1  0  0  0
 55 57  1  0  0  0
 55130  1  0  0  0
 56 69  2  0  0  0
 57 58  2  0  0  0
 57131  1  0  0  0
 58132  1  0  0  0
 59 60  1  0  0  0
 59 61  1  0  0  0
 59 62  1  0  0  0
 60133  1  0  0  0
 60134  1  0  0  0
 60135  1  0  0  0
 61136  1  0  0  0
 61137  1  0  0  0
 61138  1  0  0  0
 62139  1  0  0  0
 62140  1  0  0  0
 62141  1  0  0  0
 63 65  1  0  0  0
 63142  1  0  0  0
 63143  1  0  0  0
 63144  1  0  0  0
 64145  1  0  0  0
 65146  1  0  0  0
 68 81  1  0  0  0
 71 72  2  0  0  0
 71 74  1  0  0  0
 71147  1  0  0  0
 72 75  1  0  0  0
 72148  1  0  0  0
 73 75  2  0  0  0
 73 76  1  0  0  0
 73149  1  0  0  0
 74 76  2  0  0  0
 74 84  1  0  0  0
 75 85  1  0  0  0
 76 87  1  0  0  0
 77 78  1  0  0  0
 77 79  1  0  0  0
 77 81  2  0  0  0
 78 80  2  0  0  0
 78 82  1  0  0  0
 79 84  1  0  0  0
 79 86  2  0  0  0
 80150  1  0  0  0
 80151  1  0  0  0
 81152  1  0  0  0
 82 83  1  0  0  0
 82153  1  0  0  0
 82154  1  0  0  0
 83 84  1  0  0  0
 83155  1  0  0  0
 83156  1  0  0  0
 85157  1  0  0  0
M  ISO  4   1 100  68 101  81 101  85 100
M  END
> <chiral flag>
0

> <version>
0

> <s_m_source_file>
/data/baiqing/PycharmProjects/Reinvent-master-3.2/result/LINK_invent/BTK/process_docking_weight1_custom_product_contain_oxygen_bond_distance_aromatic_linkinvent_7_9_3/rearranged_h_0082.sdf

> <i_m_source_file_index>
23

> <r_mmod_Potential_Energy-OPLS-2005>
415.243011474609

> <r_mmod_Stretch_Energy-OPLS-2005>
140.620208740234

> <r_mmod_Bend_Energy-OPLS-2005>
241.091827392578

> <r_mmod_Torsional_Energy-OPLS-2005>
301.354553222656

> <r_mmod_Improper_Torsional_Energy-OPLS-2005>
5.2377290725708

> <r_mmod_Van_der_Waal_Energy-OPLS-2005>
164.805999755859

> <r_mmod_Electrostatic_Energy-OPLS-2005>
-309.545776367188

> <r_mmod_Solvation_Energy-OPLS-2005>
-222.296356201172

> <b_mmod_Minimization_Converged-OPLS-2005>
0

> <r_mmod_RMS_Derivative-OPLS-2005>
2.05358386039734

$$$$
23
                    3D
 Structure written by MMmdl.
153162  0  0  1  0            999 V2000
  -30.6341  -14.7536   20.4508 C   0  0  0  0  0  0
  -30.4314  -12.4593   19.4884 C   0  0  0  0  0  0
  -29.5174  -12.5278   18.2457 C   0  0  0  0  0  0
  -28.0422  -12.3529   18.6494 C   0  0  0  0  0  0
  -27.6468  -13.2419   19.8584 C   0  0  2  0  0  0
  -28.6890  -13.1850   20.9986 C   0  0  0  0  0  0
  -25.2524  -13.8215   20.5690 C   0  0  0  0  0  0
  -24.1806  -13.0451   20.9174 C   0  0  0  0  0  0
  -24.6400  -11.6925   20.8708 C   0  0  0  0  0  0
  -23.9064  -10.4292   21.0369 C   0  0  0  0  0  0
  -24.3612   -9.4208   21.9159 C   0  0  0  0  0  0
  -23.6275   -8.2250   22.0752 C   0  0  0  0  0  0
  -22.4255   -8.0276   21.3545 C   0  0  0  0  0  0
  -21.9876   -9.0250   20.4654 C   0  0  0  0  0  0
  -22.7217  -10.2126   20.3040 C   0  0  0  0  0  0
  -21.6859   -6.0719   22.5256 C   0  0  0  0  0  0
  -21.4025   -6.5631   23.8189 C   0  0  0  0  0  0
  -21.3668   -5.6783   24.9150 C   0  0  0  0  0  0
  -21.6040   -4.3038   24.7212 C   0  0  0  0  0  0
  -21.8829   -3.8138   23.4332 C   0  0  0  0  0  0
  -21.9203   -4.6946   22.3386 C   0  0  0  0  0  0
  -22.7835  -13.5231   21.1838 C   0  0  0  0  0  0
  -22.1667   -4.2137   21.0964 F   0  0  0  0  0  0
  -21.5633   -3.4529   25.7728 F   0  0  0  0  0  0
  -29.9947  -13.5303   20.4203 N   0  0  0  0  0  0
  -26.2974  -12.9445   20.3303 N   0  0  0  0  0  0
  -25.9348  -11.6577   20.5727 N   0  0  0  0  0  0
  -22.0481  -12.8229   22.0400 N   0  0  0  0  0  0
  -25.4243  -15.1928   20.4119 N   0  0  0  0  0  0
  -31.8217  -14.8105   20.1186 O   0  0  0  0  0  0
  -21.6641   -6.8860   21.4219 O   0  0  0  0  0  0
  -22.3518  -14.5541   20.6684 O   0  0  0  0  0  0
  -24.6355  -31.8535   23.1988 C   0  0  0  0  0  0
  -25.9167  -32.4735   23.8330 C   0  0  1  0  0  0
  -27.2089  -27.2261   20.1167 C   0  0  0  0  0  0
  -25.5963  -33.8542   24.2261 N   0  0  0  0  0  0
  -23.4336  -30.4803   21.5424 C   0  0  2  0  0  0
  -24.8790  -28.9335   20.1019 C   0  0  0  0  0  0
  -22.7532  -29.4587   22.4874 C   0  0  0  0  0  0
  -18.0302  -28.1392   22.8483 C   0  0  0  0  0  0
  -24.1496  -36.7279   23.2636 C   0  0  0  0  0  0
  -25.9845  -30.7513   21.3888 C   0  0  0  0  0  0
  -26.0522  -29.3735   20.7266 C   0  0  0  0  0  0
  -27.2165  -28.5295   20.7331 C   0  0  0  0  0  0
  -26.0184  -26.8923   19.4243 C   0  0  0  0  0  0
  -24.8704  -27.7014   19.4393 C   0  0  0  0  0  0
  -23.6524  -29.8244   20.1550 C   0  0  0  0  0  0
  -25.4111  -36.3056   24.0330 C   0  0  1  0  0  0
  -20.5911  -28.3707   23.1259 C   0  0  2  0  0  0
  -20.6780  -26.9413   22.5414 C   0  0  0  0  0  0
  -19.5753  -26.6383   21.5221 C   0  0  0  0  0  0
  -18.1934  -26.7934   22.1630 C   0  0  0  0  0  0
  -19.1554  -28.8866   23.2871 C   0  0  0  0  0  0
  -18.9474  -30.1463   23.8894 C   0  0  0  0  0  0
  -17.6473  -30.6583   24.0563 C   0  0  0  0  0  0
  -25.9054  -34.9423   23.5089 C   0  0  0  0  0  0
  -16.5364  -29.9081   23.6324 C   0  0  0  0  0  0
  -16.7291  -28.6500   23.0343 C   0  0  0  0  0  0
  -26.4516  -31.6558   25.0725 C   0  0  0  0  0  0
  -25.3741  -31.3744   26.1458 C   0  0  0  0  0  0
  -27.0334  -30.2947   24.6252 C   0  0  0  0  0  0
  -27.6078  -32.4298   25.7490 C   0  0  0  0  0  0
  -27.5582  -37.1789   24.8458 C   0  0  0  0  0  0
  -21.4230  -29.3040   22.3623 N   0  0  0  0  0  0
  -26.4286  -37.3755   23.9412 N   0  0  0  0  0  0
  -24.7039  -31.0475   22.0982 N   0  0  0  0  0  0
  -23.4218  -28.8105   23.2969 O   0  0  0  0  0  0
  -28.2617  -26.2665   20.2129 O   0  0  0  0  0  0
  -26.5620  -34.8908   22.4654 O   0  0  0  0  0  0
  -23.5499  -32.1377   23.7265 O   0  0  0  0  0  0
  -30.9437  -18.5907   18.1780 C   0  0  0  0  0  0
  -30.4722  -19.8022   18.7132 C   0  0  0  0  0  0
  -30.7571  -17.3701   18.8488 C   0  0  0  0  0  0
  -29.3256  -23.2044   21.5457 C   0  0  0  0  0  0
  -29.6204  -18.5711   20.6363 C   0  0  0  0  0  0
  -28.8022  -22.2686   19.6205 C   0  0  0  0  0  0
  -28.7190  -23.5060   20.2832 C   0  0  0  0  0  0
  -29.7947  -19.8558   19.9487 C   0  0  0  0  0  0
  -30.1026  -17.2906   20.1006 C   0  0  0  0  0  0
  -29.7124  -21.8771   21.5761 C   0  0  0  0  0  0
  -27.9730  -24.8389   19.7860 C   0  0  0  0  0  0
  -29.4139  -21.2304   20.3830 N   0  0  0  0  0  0
  -29.9109  -15.9249   20.6896 N   0  0  0  0  0  0
  -30.3355  -21.2014   22.5791 O   0  0  0  0  0  0
  -31.4765  -12.5670   19.1884 H   0  0  0  0  0  0
  -30.3629  -11.4809   19.9666 H   0  0  0  0  0  0
  -29.8029  -11.7655   17.5196 H   0  0  0  0  0  0
  -29.6523  -13.4902   17.7490 H   0  0  0  0  0  0
  -27.8877  -11.3016   18.8948 H   0  0  0  0  0  0
  -27.3954  -12.5700   17.7989 H   0  0  0  0  0  0
  -27.6407  -14.2650   19.4822 H   0  0  0  0  0  0
  -28.7205  -12.1932   21.4517 H   0  0  0  0  0  0
  -28.4234  -13.8779   21.7979 H   0  0  0  0  0  0
  -25.2751   -9.5711   22.4727 H   0  0  0  0  0  0
  -24.0000   -7.4654   22.7477 H   0  0  0  0  0  0
  -21.0810   -8.8771   19.8964 H   0  0  0  0  0  0
  -22.3651  -10.9669   19.6160 H   0  0  0  0  0  0
  -21.2016   -7.6133   23.9684 H   0  0  0  0  0  0
  -21.1485   -6.0512   25.9053 H   0  0  0  0  0  0
  -22.0605   -2.7601   23.2832 H   0  0  0  0  0  0
  -22.4093  -11.9893   22.4796 H   0  0  0  0  0  0
  -21.1112  -13.1296   22.2619 H   0  0  0  0  0  0
  -24.6601  -15.8519   20.5133 H   0  0  0  0  0  0
  -26.2753  -15.6263   20.0771 H   0  0  0  0  0  0
  -26.7225  -32.5378   23.1062 H   0  0  0  0  0  0
  -25.0116  -33.9663   25.0413 H   0  0  0  0  0  0
  -22.7324  -31.3054   21.4010 H   0  0  0  0  0  0
  -23.3755  -35.9614   23.3275 H   0  0  0  0  0  0
  -24.3595  -36.8919   22.2055 H   0  0  0  0  0  0
  -23.7255  -37.6478   23.6670 H   0  0  0  0  0  0
  -26.1340  -31.5114   20.6210 H   0  0  0  0  0  0
  -26.8573  -30.7961   22.0267 H   0  0  0  0  0  0
  -28.1019  -28.8515   21.2620 H   0  0  0  0  0  0
  -25.9188  -25.9752   18.8650 H   0  0  0  0  0  0
  -23.9811  -27.3699   18.9191 H   0  0  0  0  0  0
  -23.7801  -30.6048   19.4041 H   0  0  0  0  0  0
  -22.7686  -29.2644   19.8455 H   0  0  0  0  0  0
  -25.1291  -36.1898   25.0823 H   0  0  0  0  0  0
  -21.0027  -28.3292   24.1374 H   0  0  0  0  0  0
  -20.5675  -26.2315   23.3620 H   0  0  0  0  0  0
  -21.6651  -26.7411   22.1226 H   0  0  0  0  0  0
  -19.6908  -25.6293   21.1250 H   0  0  0  0  0  0
  -19.6692  -27.3189   20.6746 H   0  0  0  0  0  0
  -17.4207  -26.6695   21.4023 H   0  0  0  0  0  0
  -18.0317  -26.0080   22.9029 H   0  0  0  0  0  0
  -19.7938  -30.7283   24.2271 H   0  0  0  0  0  0
  -17.5012  -31.6261   24.5166 H   0  0  0  0  0  0
  -15.5350  -30.2984   23.7629 H   0  0  0  0  0  0
  -15.8694  -28.0819   22.7050 H   0  0  0  0  0  0
  -24.5920  -30.7075   25.7815 H   0  0  0  0  0  0
  -24.8937  -32.2926   26.4850 H   0  0  0  0  0  0
  -25.8075  -30.8964   27.0253 H   0  0  0  0  0  0
  -26.2907  -29.6710   24.1272 H   0  0  0  0  0  0
  -27.3947  -29.7213   25.4797 H   0  0  0  0  0  0
  -27.8835  -30.4157   23.9535 H   0  0  0  0  0  0
  -27.2697  -33.3615   26.2049 H   0  0  0  0  0  0
  -28.3902  -32.6832   25.0316 H   0  0  0  0  0  0
  -28.0741  -31.8437   26.5427 H   0  0  0  0  0  0
  -28.2580  -38.0102   24.7505 H   0  0  0  0  0  0
  -28.1095  -36.2630   24.6268 H   0  0  0  0  0  0
  -27.2314  -37.1432   25.8866 H   0  0  0  0  0  0
  -20.9407  -29.8786   21.6849 H   0  0  0  0  0  0
  -26.0162  -38.2829   24.1410 H   0  0  0  0  0  0
  -31.4637  -18.5952   17.2301 H   0  0  0  0  0  0
  -30.6603  -20.7153   18.1648 H   0  0  0  0  0  0
  -31.1286  -16.4817   18.3603 H   0  0  0  0  0  0
  -29.4443  -23.9008   22.3632 H   0  0  0  0  0  0
  -29.1197  -18.5802   21.5924 H   0  0  0  0  0  0
  -28.4516  -22.0195   18.6274 H   0  0  0  0  0  0
  -26.9488  -24.6028   20.0704 H   0  0  0  0  0  0
  -28.0001  -24.8232   18.6956 H   0  0  0  0  0  0
  -29.0456  -15.7903   21.1915 H   0  0  0  0  0  0
  -30.4796  -21.8102   23.2960 H   0  0  0  0  0  0
  1 25  1  0  0  0
  1 30  2  0  0  0
  1 83  1  0  0  0
  2  3  1  0  0  0
  2 25  1  0  0  0
  2 85  1  0  0  0
  2 86  1  0  0  0
  3  4  1  0  0  0
  3 87  1  0  0  0
  3 88  1  0  0  0
  4  5  1  0  0  0
  4 89  1  0  0  0
  4 90  1  0  0  0
  5  6  1  0  0  0
  5 26  1  0  0  0
  5 91  1  0  0  0
  6 25  1  0  0  0
  6 92  1  0  0  0
  6 93  1  0  0  0
  7  8  2  0  0  0
  7 26  1  0  0  0
  7 29  1  0  0  0
  8  9  1  0  0  0
  8 22  1  0  0  0
  9 10  1  0  0  0
  9 27  2  0  0  0
 10 11  2  0  0  0
 10 15  1  0  0  0
 11 12  1  0  0  0
 11 94  1  0  0  0
 12 13  2  0  0  0
 12 95  1  0  0  0
 13 14  1  0  0  0
 13 31  1  0  0  0
 14 15  2  0  0  0
 14 96  1  0  0  0
 15 97  1  0  0  0
 16 17  2  0  0  0
 16 21  1  0  0  0
 16 31  1  0  0  0
 17 18  1  0  0  0
 17 98  1  0  0  0
 18 19  2  0  0  0
 18 99  1  0  0  0
 19 20  1  0  0  0
 19 24  1  0  0  0
 20 21  2  0  0  0
 20100  1  0  0  0
 21 23  1  0  0  0
 22 28  1  0  0  0
 22 32  2  0  0  0
 26 27  1  0  0  0
 28101  1  0  0  0
 28102  1  0  0  0
 29103  1  0  0  0
 29104  1  0  0  0
 33 34  1  0  0  0
 33 66  1  0  0  0
 33 70  2  0  0  0
 34 36  1  0  0  0
 34 59  1  0  0  0
 34105  1  0  0  0
 35 44  2  0  0  0
 35 45  1  0  0  0
 35 68  1  0  0  0
 36 56  1  0  0  0
 36106  1  0  0  0
 37 39  1  0  0  0
 37 47  1  0  0  0
 37 66  1  0  0  0
 37107  1  0  0  0
 38 43  2  0  0  0
 38 46  1  0  0  0
 38 47  1  0  0  0
 39 64  1  0  0  0
 39 67  2  0  0  0
 40 52  1  0  0  0
 40 53  2  0  0  0
 40 58  1  0  0  0
 41108  1  0  0  0
 41109  1  0  0  0
 41110  1  0  0  0
 41 48  1  0  0  0
 42 43  1  0  0  0
 42 66  1  0  0  0
 42111  1  0  0  0
 42112  1  0  0  0
 43 44  1  0  0  0
 44113  1  0  0  0
 45 46  2  0  0  0
 45114  1  0  0  0
 46115  1  0  0  0
 47116  1  0  0  0
 47117  1  0  0  0
 48 56  1  0  0  0
 48 65  1  0  0  0
 48118  1  0  0  0
 49 50  1  0  0  0
 49 53  1  0  0  0
 49 64  1  0  0  0
 49119  1  0  0  0
 50 51  1  0  0  0
 50120  1  0  0  0
 50121  1  0  0  0
 51 52  1  0  0  0
 51122  1  0  0  0
 51123  1  0  0  0
 52124  1  0  0  0
 52125  1  0  0  0
 53 54  1  0  0  0
 54 55  2  0  0  0
 54126  1  0  0  0
 55 57  1  0  0  0
 55127  1  0  0  0
 56 69  2  0  0  0
 57 58  2  0  0  0
 57128  1  0  0  0
 58129  1  0  0  0
 59 60  1  0  0  0
 59 61  1  0  0  0
 59 62  1  0  0  0
 60130  1  0  0  0
 60131  1  0  0  0
 60132  1  0  0  0
 61133  1  0  0  0
 61134  1  0  0  0
 61135  1  0  0  0
 62136  1  0  0  0
 62137  1  0  0  0
 62138  1  0  0  0
 63 65  1  0  0  0
 63139  1  0  0  0
 63140  1  0  0  0
 63141  1  0  0  0
 64142  1  0  0  0
 65143  1  0  0  0
 68 81  1  0  0  0
 71 72  2  0  0  0
 71 73  1  0  0  0
 71144  1  0  0  0
 72 78  1  0  0  0
 72145  1  0  0  0
 73 79  2  0  0  0
 73146  1  0  0  0
 74 77  1  0  0  0
 74 80  2  0  0  0
 74147  1  0  0  0
 75 78  2  0  0  0
 75 79  1  0  0  0
 75148  1  0  0  0
 76 77  2  0  0  0
 76 82  1  0  0  0
 76149  1  0  0  0
 77 81  1  0  0  0
 78 82  1  0  0  0
 79 83  1  0  0  0
 80 82  1  0  0  0
 80 84  1  0  0  0
 81150  1  0  0  0
 81151  1  0  0  0
 83152  1  0  0  0
 84153  1  0  0  0
M  ISO  4   1 100  68 101  81 101  83 100
M  END
> <chiral flag>
0

> <version>
0

> <s_m_source_file>
/data/baiqing/PycharmProjects/Reinvent-master-3.2/result/LINK_invent/BTK/process_docking_weight1_custom_product_contain_oxygen_bond_distance_aromatic_linkinvent_7_9_3/rearranged_h_0082.sdf

> <i_m_source_file_index>
24

> <r_mmod_Potential_Energy-OPLS-2005>
228.526916503906

> <r_mmod_Stretch_Energy-OPLS-2005>
138.780197143555

> <r_mmod_Bend_Energy-OPLS-2005>
178.79362487793

> <r_mmod_Torsional_Energy-OPLS-2005>
245.555877685547

> <r_mmod_Improper_Torsional_Energy-OPLS-2005>
5.48361301422119

> <r_mmod_Van_der_Waal_Energy-OPLS-2005>
143.777938842773

> <r_mmod_Electrostatic_Energy-OPLS-2005>
-361.053405761719

> <r_mmod_Solvation_Energy-OPLS-2005>
-225.865264892578

> <b_mmod_Minimization_Converged-OPLS-2005>
0

> <r_mmod_RMS_Derivative-OPLS-2005>
2.73777151107788

$$$$
24
                    3D
 Structure written by MMmdl.
153162  0  0  1  0            999 V2000
  -30.6841  -14.7212   20.4488 C   0  0  0  0  0  0
  -30.4067  -12.4409   19.4758 C   0  0  0  0  0  0
  -29.4976  -12.4960   18.2326 C   0  0  0  0  0  0
  -28.0260  -12.3297   18.6501 C   0  0  0  0  0  0
  -27.6340  -13.2423   19.8440 C   0  0  2  0  0  0
  -28.6819  -13.2152   20.9786 C   0  0  0  0  0  0
  -25.2472  -13.8224   20.5716 C   0  0  0  0  0  0
  -24.1780  -13.0449   20.9225 C   0  0  0  0  0  0
  -24.6387  -11.6932   20.8759 C   0  0  0  0  0  0
  -23.9074  -10.4299   21.0410 C   0  0  0  0  0  0
  -24.3624   -9.4212   21.9185 C   0  0  0  0  0  0
  -23.6299   -8.2245   22.0754 C   0  0  0  0  0  0
  -22.4281   -8.0282   21.3544 C   0  0  0  0  0  0
  -21.9918   -9.0257   20.4646 C   0  0  0  0  0  0
  -22.7247  -10.2137   20.3058 C   0  0  0  0  0  0
  -21.6856   -6.0736   22.5278 C   0  0  0  0  0  0
  -21.4016   -6.5640   23.8212 C   0  0  0  0  0  0
  -21.3661   -5.6793   24.9174 C   0  0  0  0  0  0
  -21.6045   -4.3055   24.7225 C   0  0  0  0  0  0
  -21.8819   -3.8147   23.4346 C   0  0  0  0  0  0
  -21.9193   -4.6963   22.3402 C   0  0  0  0  0  0
  -22.7798  -13.5218   21.1879 C   0  0  0  0  0  0
  -22.1662   -4.2149   21.0980 F   0  0  0  0  0  0
  -21.5629   -3.4539   25.7738 F   0  0  0  0  0  0
  -29.9802  -13.5379   20.3792 N   0  0  0  0  0  0
  -26.2904  -12.9454   20.3289 N   0  0  0  0  0  0
  -25.9321  -11.6585   20.5768 N   0  0  0  0  0  0
  -22.0451  -12.8200   22.0433 N   0  0  0  0  0  0
  -25.4139  -15.1950   20.4131 N   0  0  0  0  0  0
  -31.8823  -14.6756   20.1593 O   0  0  0  0  0  0
  -21.6644   -6.8880   21.4240 O   0  0  0  0  0  0
  -22.3480  -14.5523   20.6727 O   0  0  0  0  0  0
  -24.6298  -31.8561   23.1988 C   0  0  0  0  0  0
  -25.9128  -32.4759   23.8334 C   0  0  1  0  0  0
  -27.2131  -27.2770   20.1279 C   0  0  0  0  0  0
  -25.5928  -33.8562   24.2260 N   0  0  0  0  0  0
  -23.4257  -30.4786   21.5423 C   0  0  2  0  0  0
  -24.8723  -28.9279   20.1084 C   0  0  0  0  0  0
  -22.7499  -29.4601   22.4915 C   0  0  0  0  0  0
  -18.0291  -28.1390   22.8485 C   0  0  0  0  0  0
  -24.1490  -36.7287   23.2641 C   0  0  0  0  0  0
  -25.9705  -30.7742   21.3759 C   0  0  0  0  0  0
  -26.0437  -29.3987   20.7161 C   0  0  0  0  0  0
  -27.2208  -28.5862   20.7116 C   0  0  0  0  0  0
  -26.0251  -26.8709   19.4868 C   0  0  0  0  0  0
  -24.8673  -27.6721   19.4817 C   0  0  0  0  0  0
  -23.6425  -29.8130   20.1578 C   0  0  0  0  0  0
  -25.4116  -36.3076   24.0328 C   0  0  1  0  0  0
  -20.5894  -28.3697   23.1274 C   0  0  2  0  0  0
  -20.6782  -26.9415   22.5409 C   0  0  0  0  0  0
  -19.5757  -26.6384   21.5213 C   0  0  0  0  0  0
  -18.1936  -26.7931   22.1626 C   0  0  0  0  0  0
  -19.1545  -28.8861   23.2873 C   0  0  0  0  0  0
  -18.9465  -30.1461   23.8892 C   0  0  0  0  0  0
  -17.6465  -30.6588   24.0563 C   0  0  0  0  0  0
  -25.9056  -34.9443   23.5097 C   0  0  0  0  0  0
  -16.5356  -29.9087   23.6332 C   0  0  0  0  0  0
  -16.7278  -28.6507   23.0350 C   0  0  0  0  0  0
  -26.4499  -31.6581   25.0720 C   0  0  0  0  0  0
  -25.3722  -31.3724   26.1441 C   0  0  0  0  0  0
  -27.0349  -30.2998   24.6200 C   0  0  0  0  0  0
  -27.6054  -32.4323   25.7494 C   0  0  0  0  0  0
  -27.5579  -37.1798   24.8467 C   0  0  0  0  0  0
  -21.4207  -29.3042   22.3665 N   0  0  0  0  0  0
  -26.4292  -37.3771   23.9407 N   0  0  0  0  0  0
  -24.6943  -31.0537   22.0958 N   0  0  0  0  0  0
  -23.4207  -28.8138   23.3003 O   0  0  0  0  0  0
  -28.2954  -26.3755   20.1874 O   0  0  0  0  0  0
  -26.5630  -34.8916   22.4668 O   0  0  0  0  0  0
  -23.5451  -32.1381   23.7289 O   0  0  0  0  0  0
  -30.4954  -19.6363   21.4652 C   0  0  0  0  0  0
  -28.8689  -19.0477   19.8400 C   0  0  0  0  0  0
  -30.1032  -21.0062   21.3785 C   0  0  0  0  0  0
  -28.4837  -20.4401   19.7683 C   0  0  0  0  0  0
  -29.9165  -18.5927   20.6905 C   0  0  0  0  0  0
  -29.0914  -21.5130   20.5109 C   0  0  0  0  0  0
  -27.8602  -23.7804   19.7063 C   0  0  0  0  0  0
  -29.3436  -24.1350   21.0082 C   0  0  0  0  0  0
  -30.6269  -17.1995   20.6473 C   0  0  0  0  0  0
  -28.0492  -24.9813   20.7214 C   0  0  0  0  0  0
  -27.0854  -24.9440   21.9227 C   0  0  0  0  0  0
  -28.7588  -22.9657   20.4483 N   0  0  0  0  0  0
  -30.0256  -15.9430   20.6139 N   0  0  0  0  0  0
  -27.1956  -23.5510   18.7143 O   0  0  0  0  0  0
  -30.4209  -24.3242   21.5401 O   0  0  0  0  0  0
  -31.8585  -17.3064   20.6909 O   0  0  0  0  0  0
  -31.4526  -12.5132   19.1734 H   0  0  0  0  0  0
  -30.3138  -11.4771   19.9788 H   0  0  0  0  0  0
  -29.7758  -11.7145   17.5243 H   0  0  0  0  0  0
  -29.6321  -13.4458   17.7124 H   0  0  0  0  0  0
  -27.8824  -11.2837   18.9229 H   0  0  0  0  0  0
  -27.3675  -12.5139   17.8004 H   0  0  0  0  0  0
  -27.6176  -14.2575   19.4469 H   0  0  0  0  0  0
  -28.7141  -12.2363   21.4590 H   0  0  0  0  0  0
  -28.4259  -13.9348   21.7580 H   0  0  0  0  0  0
  -25.2767   -9.5689   22.4764 H   0  0  0  0  0  0
  -24.0009   -7.4636   22.7472 H   0  0  0  0  0  0
  -21.0850   -8.8777   19.8950 H   0  0  0  0  0  0
  -22.3703  -10.9677   19.6170 H   0  0  0  0  0  0
  -21.2009   -7.6148   23.9715 H   0  0  0  0  0  0
  -21.1484   -6.0523   25.9077 H   0  0  0  0  0  0
  -22.0596   -2.7609   23.2846 H   0  0  0  0  0  0
  -22.4080  -11.9867   22.4822 H   0  0  0  0  0  0
  -21.1066  -13.1211   22.2641 H   0  0  0  0  0  0
  -24.6431  -15.8451   20.5225 H   0  0  0  0  0  0
  -26.2566  -15.6371   20.0702 H   0  0  0  0  0  0
  -26.7194  -32.5409   23.1077 H   0  0  0  0  0  0
  -25.0061  -33.9703   25.0395 H   0  0  0  0  0  0
  -22.7214  -31.3002   21.3966 H   0  0  0  0  0  0
  -23.3755  -35.9617   23.3305 H   0  0  0  0  0  0
  -24.3578  -36.8911   22.2055 H   0  0  0  0  0  0
  -23.7242  -37.6486   23.6668 H   0  0  0  0  0  0
  -26.1071  -31.5367   20.6078 H   0  0  0  0  0  0
  -26.8488  -30.8222   22.0078 H   0  0  0  0  0  0
  -28.1187  -28.9376   21.2007 H   0  0  0  0  0  0
  -25.9724  -25.9062   19.0049 H   0  0  0  0  0  0
  -23.9708  -27.3074   18.9992 H   0  0  0  0  0  0
  -23.7652  -30.5904   19.4030 H   0  0  0  0  0  0
  -22.7612  -29.2459   19.8527 H   0  0  0  0  0  0
  -25.1296  -36.1930   25.0820 H   0  0  0  0  0  0
  -20.9981  -28.3280   24.1398 H   0  0  0  0  0  0
  -20.5687  -26.2306   23.3612 H   0  0  0  0  0  0
  -21.6650  -26.7437   22.1201 H   0  0  0  0  0  0
  -19.6920  -25.6295   21.1243 H   0  0  0  0  0  0
  -19.6696  -27.3192   20.6742 H   0  0  0  0  0  0
  -17.4203  -26.6680   21.4033 H   0  0  0  0  0  0
  -18.0338  -26.0076   22.9027 H   0  0  0  0  0  0
  -19.7940  -30.7280   24.2260 H   0  0  0  0  0  0
  -17.5019  -31.6269   24.5167 H   0  0  0  0  0  0
  -15.5356  -30.2988   23.7661 H   0  0  0  0  0  0
  -15.8677  -28.0828   22.7063 H   0  0  0  0  0  0
  -24.5904  -30.7065   25.7769 H   0  0  0  0  0  0
  -24.8901  -32.2886   26.4859 H   0  0  0  0  0  0
  -25.8044  -30.8909   27.0221 H   0  0  0  0  0  0
  -26.2932  -29.6743   24.1220 H   0  0  0  0  0  0
  -27.4028  -29.7268   25.4720 H   0  0  0  0  0  0
  -27.8811  -30.4272   23.9444 H   0  0  0  0  0  0
  -27.2662  -33.3626   26.2063 H   0  0  0  0  0  0
  -28.3871  -32.6878   25.0328 H   0  0  0  0  0  0
  -28.0718  -31.8455   26.5418 H   0  0  0  0  0  0
  -28.2594  -38.0097   24.7508 H   0  0  0  0  0  0
  -28.1076  -36.2626   24.6299 H   0  0  0  0  0  0
  -27.2297  -37.1452   25.8870 H   0  0  0  0  0  0
  -20.9393  -29.8764   21.6867 H   0  0  0  0  0  0
  -26.0176  -38.2846   24.1405 H   0  0  0  0  0  0
  -31.3204  -19.3942   22.1216 H   0  0  0  0  0  0
  -28.3853  -18.3384   19.1831 H   0  0  0  0  0  0
  -30.6427  -21.7027   22.0044 H   0  0  0  0  0  0
  -27.6935  -20.6939   19.0757 H   0  0  0  0  0  0
  -26.0523  -25.1111   21.6193 H   0  0  0  0  0  0
  -27.3415  -25.7098   22.6540 H   0  0  0  0  0  0
  -27.1017  -23.9858   22.4448 H   0  0  0  0  0  0
  -29.0237  -15.9216   20.6960 H   0  0  0  0  0  0
  1 25  1  0  0  0
  1 30  2  0  0  0
  1 83  1  0  0  0
  2  3  1  0  0  0
  2 25  1  0  0  0
  2 87  1  0  0  0
  2 88  1  0  0  0
  3  4  1  0  0  0
  3 89  1  0  0  0
  3 90  1  0  0  0
  4  5  1  0  0  0
  4 91  1  0  0  0
  4 92  1  0  0  0
  5  6  1  0  0  0
  5 26  1  0  0  0
  5 93  1  0  0  0
  6 25  1  0  0  0
  6 94  1  0  0  0
  6 95  1  0  0  0
  7  8  2  0  0  0
  7 26  1  0  0  0
  7 29  1  0  0  0
  8  9  1  0  0  0
  8 22  1  0  0  0
  9 10  1  0  0  0
  9 27  2  0  0  0
 10 11  2  0  0  0
 10 15  1  0  0  0
 11 12  1  0  0  0
 11 96  1  0  0  0
 12 13  2  0  0  0
 12 97  1  0  0  0
 13 14  1  0  0  0
 13 31  1  0  0  0
 14 15  2  0  0  0
 14 98  1  0  0  0
 15 99  1  0  0  0
 16 17  2  0  0  0
 16 21  1  0  0  0
 16 31  1  0  0  0
 17 18  1  0  0  0
 17100  1  0  0  0
 18 19  2  0  0  0
 18101  1  0  0  0
 19 20  1  0  0  0
 19 24  1  0  0  0
 20 21  2  0  0  0
 20102  1  0  0  0
 21 23  1  0  0  0
 22 28  1  0  0  0
 22 32  2  0  0  0
 26 27  1  0  0  0
 28103  1  0  0  0
 28104  1  0  0  0
 29105  1  0  0  0
 29106  1  0  0  0
 33 34  1  0  0  0
 33 66  1  0  0  0
 33 70  2  0  0  0
 34 36  1  0  0  0
 34 59  1  0  0  0
 34107  1  0  0  0
 35 44  2  0  0  0
 35 45  1  0  0  0
 35 68  1  0  0  0
 36 56  1  0  0  0
 36108  1  0  0  0
 37 39  1  0  0  0
 37 47  1  0  0  0
 37 66  1  0  0  0
 37109  1  0  0  0
 38 43  2  0  0  0
 38 46  1  0  0  0
 38 47  1  0  0  0
 39 64  1  0  0  0
 39 67  2  0  0  0
 40 52  1  0  0  0
 40 53  2  0  0  0
 40 58  1  0  0  0
 41110  1  0  0  0
 41111  1  0  0  0
 41112  1  0  0  0
 41 48  1  0  0  0
 42 43  1  0  0  0
 42 66  1  0  0  0
 42113  1  0  0  0
 42114  1  0  0  0
 43 44  1  0  0  0
 44115  1  0  0  0
 45 46  2  0  0  0
 45116  1  0  0  0
 46117  1  0  0  0
 47118  1  0  0  0
 47119  1  0  0  0
 48 56  1  0  0  0
 48 65  1  0  0  0
 48120  1  0  0  0
 49 50  1  0  0  0
 49 53  1  0  0  0
 49 64  1  0  0  0
 49121  1  0  0  0
 50 51  1  0  0  0
 50122  1  0  0  0
 50123  1  0  0  0
 51 52  1  0  0  0
 51124  1  0  0  0
 51125  1  0  0  0
 52126  1  0  0  0
 52127  1  0  0  0
 53 54  1  0  0  0
 54 55  2  0  0  0
 54128  1  0  0  0
 55 57  1  0  0  0
 55129  1  0  0  0
 56 69  2  0  0  0
 57 58  2  0  0  0
 57130  1  0  0  0
 58131  1  0  0  0
 59 60  1  0  0  0
 59 61  1  0  0  0
 59 62  1  0  0  0
 60132  1  0  0  0
 60133  1  0  0  0
 60134  1  0  0  0
 61135  1  0  0  0
 61136  1  0  0  0
 61137  1  0  0  0
 62138  1  0  0  0
 62139  1  0  0  0
 62140  1  0  0  0
 63 65  1  0  0  0
 63141  1  0  0  0
 63142  1  0  0  0
 63143  1  0  0  0
 64144  1  0  0  0
 65145  1  0  0  0
 68 80  1  0  0  0
 71 73  2  0  0  0
 71 75  1  0  0  0
 71146  1  0  0  0
 72 74  1  0  0  0
 72 75  2  0  0  0
 72147  1  0  0  0
 73 76  1  0  0  0
 73148  1  0  0  0
 74 76  2  0  0  0
 74149  1  0  0  0
 75 79  1  0  0  0
 76 82  1  0  0  0
 77 80  1  0  0  0
 77 82  1  0  0  0
 77 84  2  0  0  0
 78 80  1  0  0  0
 78 82  1  0  0  0
 78 85  2  0  0  0
 79 83  1  0  0  0
 79 86  2  0  0  0
 80 81  1  0  0  0
 81150  1  0  0  0
 81151  1  0  0  0
 81152  1  0  0  0
 83153  1  0  0  0
M  ISO  4   1 100  68 101  80 101  83 100
M  END
> <chiral flag>
0

> <version>
0

> <s_m_source_file>
/data/baiqing/PycharmProjects/Reinvent-master-3.2/result/LINK_invent/BTK/process_docking_weight1_custom_product_contain_oxygen_bond_distance_aromatic_linkinvent_7_9_3/rearranged_h_0082.sdf

> <i_m_source_file_index>
25

> <r_mmod_Potential_Energy-OPLS-2005>
117.723052978516

> <r_mmod_Stretch_Energy-OPLS-2005>
111.61710357666

> <r_mmod_Bend_Energy-OPLS-2005>
200.937103271484

> <r_mmod_Torsional_Energy-OPLS-2005>
230.584655761719

> <r_mmod_Improper_Torsional_Energy-OPLS-2005>
7.19216108322144

> <r_mmod_Van_der_Waal_Energy-OPLS-2005>
148.745468139648

> <r_mmod_Electrostatic_Energy-OPLS-2005>
-419.754943847656

> <r_mmod_Solvation_Energy-OPLS-2005>
-244.076889038086

> <b_mmod_Minimization_Converged-OPLS-2005>
0

> <r_mmod_RMS_Derivative-OPLS-2005>
0.646296799182892

$$$$
25
                    3D
 Structure written by MMmdl.
153162  0  0  1  0            999 V2000
  -30.5657  -14.7674   20.4331 C   0  0  0  0  0  0
  -30.4473  -12.4628   19.4589 C   0  0  0  0  0  0
  -29.5128  -12.5096   18.2285 C   0  0  0  0  0  0
  -28.0373  -12.3287   18.6438 C   0  0  0  0  0  0
  -27.6429  -13.2187   19.8514 C   0  0  2  0  0  0
  -28.6954  -13.1429   20.9790 C   0  0  0  0  0  0
  -25.2531  -13.8146   20.5733 C   0  0  0  0  0  0
  -24.1800  -13.0413   20.9213 C   0  0  0  0  0  0
  -24.6382  -11.6891   20.8747 C   0  0  0  0  0  0
  -23.9059  -10.4280   21.0415 C   0  0  0  0  0  0
  -24.3615   -9.4206   21.9200 C   0  0  0  0  0  0
  -23.6293   -8.2241   22.0770 C   0  0  0  0  0  0
  -22.4279   -8.0274   21.3550 C   0  0  0  0  0  0
  -21.9909   -9.0247   20.4647 C   0  0  0  0  0  0
  -22.7235  -10.2128   20.3061 C   0  0  0  0  0  0
  -21.6857   -6.0723   22.5272 C   0  0  0  0  0  0
  -21.4010   -6.5632   23.8203 C   0  0  0  0  0  0
  -21.3657   -5.6784   24.9165 C   0  0  0  0  0  0
  -21.6042   -4.3046   24.7225 C   0  0  0  0  0  0
  -21.8823   -3.8135   23.4348 C   0  0  0  0  0  0
  -21.9194   -4.6947   22.3398 C   0  0  0  0  0  0
  -22.7826  -13.5221   21.1863 C   0  0  0  0  0  0
  -22.1669   -4.2138   21.0980 F   0  0  0  0  0  0
  -21.5626   -3.4530   25.7736 F   0  0  0  0  0  0
  -29.9938  -13.5132   20.3956 N   0  0  0  0  0  0
  -26.2948  -12.9332   20.3298 N   0  0  0  0  0  0
  -25.9307  -11.6489   20.5743 N   0  0  0  0  0  0
  -22.0445  -12.8219   22.0403 N   0  0  0  0  0  0
  -25.4241  -15.1867   20.4234 N   0  0  0  0  0  0
  -31.7590  -14.9193   20.1586 O   0  0  0  0  0  0
  -21.6647   -6.8870   21.4239 O   0  0  0  0  0  0
  -22.3531  -14.5535   20.6704 O   0  0  0  0  0  0
  -24.6309  -31.8540   23.1995 C   0  0  0  0  0  0
  -25.9127  -32.4746   23.8348 C   0  0  1  0  0  0
  -27.2277  -27.2709   20.1297 C   0  0  0  0  0  0
  -25.5918  -33.8551   24.2261 N   0  0  0  0  0  0
  -23.4303  -30.4759   21.5421 C   0  0  2  0  0  0
  -24.8825  -28.9261   20.1105 C   0  0  0  0  0  0
  -22.7508  -29.4575   22.4903 C   0  0  0  0  0  0
  -18.0290  -28.1391   22.8483 C   0  0  0  0  0  0
  -24.1483  -36.7283   23.2640 C   0  0  0  0  0  0
  -25.9765  -30.7704   21.3798 C   0  0  0  0  0  0
  -26.0537  -29.3932   20.7231 C   0  0  0  0  0  0
  -27.2320  -28.5774   20.7257 C   0  0  0  0  0  0
  -26.0377  -26.8735   19.4839 C   0  0  0  0  0  0
  -24.8777  -27.6729   19.4794 C   0  0  0  0  0  0
  -23.6516  -29.8125   20.1574 C   0  0  0  0  0  0
  -25.4103  -36.3062   24.0328 C   0  0  1  0  0  0
  -20.5895  -28.3694   23.1267 C   0  0  2  0  0  0
  -20.6782  -26.9411   22.5407 C   0  0  0  0  0  0
  -19.5757  -26.6382   21.5214 C   0  0  0  0  0  0
  -18.1937  -26.7934   22.1621 C   0  0  0  0  0  0
  -19.1546  -28.8864   23.2870 C   0  0  0  0  0  0
  -18.9466  -30.1466   23.8894 C   0  0  0  0  0  0
  -17.6463  -30.6589   24.0565 C   0  0  0  0  0  0
  -25.9047  -34.9432   23.5098 C   0  0  0  0  0  0
  -16.5353  -29.9090   23.6334 C   0  0  0  0  0  0
  -16.7273  -28.6509   23.0352 C   0  0  0  0  0  0
  -26.4494  -31.6569   25.0737 C   0  0  0  0  0  0
  -25.3716  -31.3732   26.1454 C   0  0  0  0  0  0
  -27.0331  -30.2982   24.6228 C   0  0  0  0  0  0
  -27.6045  -32.4312   25.7508 C   0  0  0  0  0  0
  -27.5571  -37.1795   24.8458 C   0  0  0  0  0  0
  -21.4215  -29.3033   22.3652 N   0  0  0  0  0  0
  -26.4279  -37.3760   23.9407 N   0  0  0  0  0  0
  -24.6982  -31.0507   22.0975 N   0  0  0  0  0  0
  -23.4203  -28.8105   23.3004 O   0  0  0  0  0  0
  -28.2855  -26.3329   20.1732 O   0  0  0  0  0  0
  -26.5629  -34.8910   22.4675 O   0  0  0  0  0  0
  -23.5448  -32.1354   23.7284 O   0  0  0  0  0  0
  -28.5737  -19.4490   19.7352 C   0  0  0  0  0  0
  -30.5958  -18.1766   21.1335 C   0  0  0  0  0  0
  -28.7277  -18.0223   19.6655 C   0  0  0  0  0  0
  -29.3824  -20.3293   20.5105 C   0  0  0  0  0  0
  -29.7242  -17.3129   20.4111 C   0  0  0  0  0  0
  -30.4321  -19.6094   21.1729 C   0  0  0  0  0  0
  -28.4900  -23.7593   20.5689 C   0  0  0  0  0  0
  -28.0075  -22.5293   21.1911 C   0  0  0  0  0  0
  -27.9705  -25.0474   20.7074 C   0  0  0  0  0  0
  -29.5763  -22.9110   19.8503 C   0  0  0  0  0  0
  -27.7649  -17.2861   18.7480 C   0  0  0  0  0  0
  -29.0935  -21.7799   20.6994 N   0  0  0  0  0  0
  -29.6749  -15.8268   20.5425 N   0  0  0  0  0  0
  -26.9875  -22.3000   21.8092 O   0  0  0  0  0  0
  -31.2940  -20.3194   21.9405 F   0  0  0  0  0  0
  -31.4841  -12.6113   19.1512 H   0  0  0  0  0  0
  -30.4090  -11.4826   19.9379 H   0  0  0  0  0  0
  -29.7944  -11.7391   17.5089 H   0  0  0  0  0  0
  -29.6315  -13.4661   17.7170 H   0  0  0  0  0  0
  -27.8927  -11.2773   18.8975 H   0  0  0  0  0  0
  -27.3804  -12.5308   17.7966 H   0  0  0  0  0  0
  -27.6298  -14.2391   19.4743 H   0  0  0  0  0  0
  -28.7394  -12.1377   21.4002 H   0  0  0  0  0  0
  -28.4322  -13.8075   21.8029 H   0  0  0  0  0  0
  -25.2772   -9.5687   22.4761 H   0  0  0  0  0  0
  -23.9993   -7.4642   22.7501 H   0  0  0  0  0  0
  -21.0839   -8.8772   19.8957 H   0  0  0  0  0  0
  -22.3711  -10.9664   19.6157 H   0  0  0  0  0  0
  -21.1996   -7.6140   23.9707 H   0  0  0  0  0  0
  -21.1478   -6.0514   25.9070 H   0  0  0  0  0  0
  -22.0604   -2.7597   23.2857 H   0  0  0  0  0  0
  -22.4036  -11.9872   22.4789 H   0  0  0  0  0  0
  -21.1055  -13.1252   22.2580 H   0  0  0  0  0  0
  -24.6618  -15.8431   20.5550 H   0  0  0  0  0  0
  -26.2736  -15.6304   20.1076 H   0  0  0  0  0  0
  -26.7197  -32.5403   23.1094 H   0  0  0  0  0  0
  -25.0041  -33.9685   25.0389 H   0  0  0  0  0  0
  -22.7263  -31.2977   21.3950 H   0  0  0  0  0  0
  -23.3734  -35.9626   23.3300 H   0  0  0  0  0  0
  -24.3573  -36.8911   22.2054 H   0  0  0  0  0  0
  -23.7244  -37.6488   23.6668 H   0  0  0  0  0  0
  -26.1127  -31.5315   20.6094 H   0  0  0  0  0  0
  -26.8542  -30.8219   22.0128 H   0  0  0  0  0  0
  -28.1266  -28.9228   21.2252 H   0  0  0  0  0  0
  -25.9941  -25.9072   19.0023 H   0  0  0  0  0  0
  -23.9832  -27.3084   18.9924 H   0  0  0  0  0  0
  -23.7794  -30.5910   19.4042 H   0  0  0  0  0  0
  -22.7702  -29.2487   19.8465 H   0  0  0  0  0  0
  -25.1283  -36.1917   25.0822 H   0  0  0  0  0  0
  -20.9987  -28.3279   24.1384 H   0  0  0  0  0  0
  -20.5685  -26.2304   23.3611 H   0  0  0  0  0  0
  -21.6651  -26.7439   22.1202 H   0  0  0  0  0  0
  -19.6918  -25.6294   21.1247 H   0  0  0  0  0  0
  -19.6698  -27.3192   20.6750 H   0  0  0  0  0  0
  -17.4205  -26.6679   21.4023 H   0  0  0  0  0  0
  -18.0329  -26.0081   22.9020 H   0  0  0  0  0  0
  -19.7940  -30.7286   24.2255 H   0  0  0  0  0  0
  -17.5014  -31.6267   24.5170 H   0  0  0  0  0  0
  -15.5353  -30.2990   23.7664 H   0  0  0  0  0  0
  -15.8673  -28.0826   22.7068 H   0  0  0  0  0  0
  -24.5878  -30.7095   25.7785 H   0  0  0  0  0  0
  -24.8921  -32.2908   26.4872 H   0  0  0  0  0  0
  -25.8019  -30.8904   27.0236 H   0  0  0  0  0  0
  -26.2914  -29.6733   24.1233 H   0  0  0  0  0  0
  -27.3980  -29.7242   25.4757 H   0  0  0  0  0  0
  -27.8813  -30.4249   23.9496 H   0  0  0  0  0  0
  -27.2647  -33.3615   26.2074 H   0  0  0  0  0  0
  -28.3858  -32.6863   25.0337 H   0  0  0  0  0  0
  -28.0707  -31.8445   26.5433 H   0  0  0  0  0  0
  -28.2586  -38.0098   24.7498 H   0  0  0  0  0  0
  -28.1073  -36.2621   24.6287 H   0  0  0  0  0  0
  -27.2293  -37.1454   25.8868 H   0  0  0  0  0  0
  -20.9400  -29.8751   21.6852 H   0  0  0  0  0  0
  -26.0153  -38.2836   24.1412 H   0  0  0  0  0  0
  -27.7577  -19.8915   19.1809 H   0  0  0  0  0  0
  -31.3809  -17.7398   21.7327 H   0  0  0  0  0  0
  -27.1281  -25.1469   21.3798 H   0  0  0  0  0  0
  -30.6226  -23.1422   20.0519 H   0  0  0  0  0  0
  -29.4285  -22.7100   18.7875 H   0  0  0  0  0  0
  -27.6817  -17.8135   17.7961 H   0  0  0  0  0  0
  -26.7694  -17.2473   19.1880 H   0  0  0  0  0  0
  -28.0938  -16.2758   18.5122 H   0  0  0  0  0  0
  -28.7348  -15.4746   20.6200 H   0  0  0  0  0  0
  1 25  1  0  0  0
  1 30  2  0  0  0
  1 83  1  0  0  0
  2  3  1  0  0  0
  2 25  1  0  0  0
  2 86  1  0  0  0
  2 87  1  0  0  0
  3  4  1  0  0  0
  3 88  1  0  0  0
  3 89  1  0  0  0
  4  5  1  0  0  0
  4 90  1  0  0  0
  4 91  1  0  0  0
  5  6  1  0  0  0
  5 26  1  0  0  0
  5 92  1  0  0  0
  6 25  1  0  0  0
  6 93  1  0  0  0
  6 94  1  0  0  0
  7  8  2  0  0  0
  7 26  1  0  0  0
  7 29  1  0  0  0
  8  9  1  0  0  0
  8 22  1  0  0  0
  9 10  1  0  0  0
  9 27  2  0  0  0
 10 11  2  0  0  0
 10 15  1  0  0  0
 11 12  1  0  0  0
 11 95  1  0  0  0
 12 13  2  0  0  0
 12 96  1  0  0  0
 13 14  1  0  0  0
 13 31  1  0  0  0
 14 15  2  0  0  0
 14 97  1  0  0  0
 15 98  1  0  0  0
 16 17  2  0  0  0
 16 21  1  0  0  0
 16 31  1  0  0  0
 17 18  1  0  0  0
 17 99  1  0  0  0
 18 19  2  0  0  0
 18100  1  0  0  0
 19 20  1  0  0  0
 19 24  1  0  0  0
 20 21  2  0  0  0
 20101  1  0  0  0
 21 23  1  0  0  0
 22 28  1  0  0  0
 22 32  2  0  0  0
 26 27  1  0  0  0
 28102  1  0  0  0
 28103  1  0  0  0
 29104  1  0  0  0
 29105  1  0  0  0
 33 34  1  0  0  0
 33 66  1  0  0  0
 33 70  2  0  0  0
 34 36  1  0  0  0
 34 59  1  0  0  0
 34106  1  0  0  0
 35 44  2  0  0  0
 35 45  1  0  0  0
 35 68  1  0  0  0
 36 56  1  0  0  0
 36107  1  0  0  0
 37 39  1  0  0  0
 37 47  1  0  0  0
 37 66  1  0  0  0
 37108  1  0  0  0
 38 43  2  0  0  0
 38 46  1  0  0  0
 38 47  1  0  0  0
 39 64  1  0  0  0
 39 67  2  0  0  0
 40 52  1  0  0  0
 40 53  2  0  0  0
 40 58  1  0  0  0
 41109  1  0  0  0
 41110  1  0  0  0
 41111  1  0  0  0
 41 48  1  0  0  0
 42 43  1  0  0  0
 42 66  1  0  0  0
 42112  1  0  0  0
 42113  1  0  0  0
 43 44  1  0  0  0
 44114  1  0  0  0
 45 46  2  0  0  0
 45115  1  0  0  0
 46116  1  0  0  0
 47117  1  0  0  0
 47118  1  0  0  0
 48 56  1  0  0  0
 48 65  1  0  0  0
 48119  1  0  0  0
 49 50  1  0  0  0
 49 53  1  0  0  0
 49 64  1  0  0  0
 49120  1  0  0  0
 50 51  1  0  0  0
 50121  1  0  0  0
 50122  1  0  0  0
 51 52  1  0  0  0
 51123  1  0  0  0
 51124  1  0  0  0
 52125  1  0  0  0
 52126  1  0  0  0
 53 54  1  0  0  0
 54 55  2  0  0  0
 54127  1  0  0  0
 55 57  1  0  0  0
 55128  1  0  0  0
 56 69  2  0  0  0
 57 58  2  0  0  0
 57129  1  0  0  0
 58130  1  0  0  0
 59 60  1  0  0  0
 59 61  1  0  0  0
 59 62  1  0  0  0
 60131  1  0  0  0
 60132  1  0  0  0
 60133  1  0  0  0
 61134  1  0  0  0
 61135  1  0  0  0
 61136  1  0  0  0
 62137  1  0  0  0
 62138  1  0  0  0
 62139  1  0  0  0
 63 65  1  0  0  0
 63140  1  0  0  0
 63141  1  0  0  0
 63142  1  0  0  0
 64143  1  0  0  0
 65144  1  0  0  0
 68 79  1  0  0  0
 71 73  2  0  0  0
 71 74  1  0  0  0
 71145  1  0  0  0
 72 75  2  0  0  0
 72 76  1  0  0  0
 72146  1  0  0  0
 73 75  1  0  0  0
 73 81  1  0  0  0
 74 76  2  0  0  0
 74 82  1  0  0  0
 75 83  1  0  0  0
 76 85  1  0  0  0
 77 78  1  0  0  0
 77 79  2  0  0  0
 77 80  1  0  0  0
 78 82  1  0  0  0
 78 84  2  0  0  0
 79147  1  0  0  0
 80 82  1  0  0  0
 80148  1  0  0  0
 80149  1  0  0  0
 81150  1  0  0  0
 81151  1  0  0  0
 81152  1  0  0  0
 83153  1  0  0  0
M  ISO  4   1 100  68 101  79 101  83 100
M  END
> <chiral flag>
0

> <version>
0

> <s_m_source_file>
/data/baiqing/PycharmProjects/Reinvent-master-3.2/result/LINK_invent/BTK/process_docking_weight1_custom_product_contain_oxygen_bond_distance_aromatic_linkinvent_7_9_3/rearranged_h_0082.sdf

> <i_m_source_file_index>
26

> <r_mmod_Potential_Energy-OPLS-2005>
257.252105712891

> <r_mmod_Stretch_Energy-OPLS-2005>
106.64875793457

> <r_mmod_Bend_Energy-OPLS-2005>
248.239685058594

> <r_mmod_Torsional_Energy-OPLS-2005>
274.949462890625

> <r_mmod_Improper_Torsional_Energy-OPLS-2005>
9.50683116912842

> <r_mmod_Van_der_Waal_Energy-OPLS-2005>
129.046447753906

> <r_mmod_Electrostatic_Energy-OPLS-2005>
-387.606414794922

> <r_mmod_Solvation_Energy-OPLS-2005>
-217.974380493164

> <b_mmod_Minimization_Converged-OPLS-2005>
0

> <r_mmod_RMS_Derivative-OPLS-2005>
1.94699287414551

$$$$
26
                    3D
 Structure written by MMmdl.
164173  0  0  1  0            999 V2000
  -30.7519  -14.4244   20.5307 C   0  0  0  0  0  0
  -30.4046  -12.2460   19.4428 C   0  0  0  0  0  0
  -29.4948  -12.4089   18.2098 C   0  0  0  0  0  0
  -28.0049  -12.3546   18.6113 C   0  0  0  0  0  0
  -27.6538  -13.2039   19.8664 C   0  0  2  0  0  0
  -28.6983  -13.0246   20.9882 C   0  0  0  0  0  0
  -25.2565  -13.8147   20.5691 C   0  0  0  0  0  0
  -24.1816  -13.0428   20.9177 C   0  0  0  0  0  0
  -24.6366  -11.6895   20.8745 C   0  0  0  0  0  0
  -23.9039  -10.4287   21.0412 C   0  0  0  0  0  0
  -24.3601   -9.4206   21.9188 C   0  0  0  0  0  0
  -23.6284   -8.2241   22.0761 C   0  0  0  0  0  0
  -22.4269   -8.0275   21.3547 C   0  0  0  0  0  0
  -21.9895   -9.0244   20.4651 C   0  0  0  0  0  0
  -22.7216  -10.2128   20.3058 C   0  0  0  0  0  0
  -21.6848   -6.0729   22.5281 C   0  0  0  0  0  0
  -21.4012   -6.5636   23.8212 C   0  0  0  0  0  0
  -21.3659   -5.6793   24.9175 C   0  0  0  0  0  0
  -21.6045   -4.3058   24.7231 C   0  0  0  0  0  0
  -21.8818   -3.8143   23.4352 C   0  0  0  0  0  0
  -21.9192   -4.6956   22.3406 C   0  0  0  0  0  0
  -22.7843  -13.5235   21.1833 C   0  0  0  0  0  0
  -22.1660   -4.2142   21.0984 F   0  0  0  0  0  0
  -21.5630   -3.4543   25.7743 F   0  0  0  0  0  0
  -30.0311  -13.2764   20.4225 N   0  0  0  0  0  0
  -26.2988  -12.9303   20.3365 N   0  0  0  0  0  0
  -25.9290  -11.6470   20.5788 N   0  0  0  0  0  0
  -22.0485  -12.8238   22.0396 N   0  0  0  0  0  0
  -25.4277  -15.1871   20.4114 N   0  0  0  0  0  0
  -31.8938  -14.5159   20.0805 O   0  0  0  0  0  0
  -21.6637   -6.8870   21.4241 O   0  0  0  0  0  0
  -22.3534  -14.5542   20.6678 O   0  0  0  0  0  0
  -24.6090  -31.8699   23.2093 C   0  0  0  0  0  0
  -25.9015  -32.4823   23.8379 C   0  0  1  0  0  0
  -27.2450  -27.4906   20.1229 C   0  0  0  0  0  0
  -25.5890  -33.8615   24.2330 N   0  0  0  0  0  0
  -23.3937  -30.4906   21.5484 C   0  0  2  0  0  0
  -24.8452  -28.9677   20.1025 C   0  0  0  0  0  0
  -22.7387  -29.4659   22.5010 C   0  0  0  0  0  0
  -18.0266  -28.1370   22.8490 C   0  0  0  0  0  0
  -24.1492  -36.7314   23.2637 C   0  0  0  0  0  0
  -25.9118  -30.8703   21.3400 C   0  0  0  0  0  0
  -25.9989  -29.5146   20.6751 C   0  0  0  0  0  0
  -27.2078  -28.7987   20.6473 C   0  0  0  0  0  0
  -26.0854  -26.9491   19.5298 C   0  0  0  0  0  0
  -24.8839  -27.6893   19.5117 C   0  0  0  0  0  0
  -23.5960  -29.8163   20.1628 C   0  0  0  0  0  0
  -25.4108  -36.3104   24.0340 C   0  0  1  0  0  0
  -20.5854  -28.3645   23.1341 C   0  0  2  0  0  0
  -20.6754  -26.9389   22.5430 C   0  0  0  0  0  0
  -19.5742  -26.6381   21.5213 C   0  0  0  0  0  0
  -18.1913  -26.7919   22.1614 C   0  0  0  0  0  0
  -19.1514  -28.8824   23.2909 C   0  0  0  0  0  0
  -18.9444  -30.1431   23.8917 C   0  0  0  0  0  0
  -17.6449  -30.6577   24.0564 C   0  0  0  0  0  0
  -25.9029  -34.9470   23.5132 C   0  0  0  0  0  0
  -16.5340  -29.9084   23.6322 C   0  0  0  0  0  0
  -16.7257  -28.6501   23.0344 C   0  0  0  0  0  0
  -26.4463  -31.6580   25.0686 C   0  0  0  0  0  0
  -25.3750  -31.3669   26.1453 C   0  0  0  0  0  0
  -27.0278  -30.3031   24.5998 C   0  0  0  0  0  0
  -27.6049  -32.4283   25.7451 C   0  0  0  0  0  0
  -27.5586  -37.1805   24.8455 C   0  0  0  0  0  0
  -21.4120  -29.3012   22.3754 N   0  0  0  0  0  0
  -26.4292  -37.3790   23.9411 N   0  0  0  0  0  0
  -24.6564  -31.0879   22.0932 N   0  0  0  0  0  0
  -23.4186  -28.8216   23.3040 O   0  0  0  0  0  0
  -28.3747  -26.7201   20.2571 O   0  0  0  0  0  0
  -26.5582  -34.8917   22.4686 O   0  0  0  0  0  0
  -23.5310  -32.1405   23.7550 O   0  0  0  0  0  0
  -30.1466  -18.8621   19.5152 C   0  0  0  0  0  0
  -29.3397  -18.3187   21.7312 C   0  0  0  0  0  0
  -30.1866  -20.2227   19.8497 C   0  0  0  0  0  0
  -29.3945  -19.6860   22.0743 C   0  0  0  0  0  0
  -29.7278  -17.8858   20.4463 C   0  0  0  0  0  0
  -29.8391  -20.6640   21.1461 C   0  0  0  0  0  0
  -29.0472  -24.8222   21.5174 C   0  0  0  0  0  0
  -29.8198  -16.4464   20.0893 C   0  0  0  0  0  0
  -28.5390  -26.0706   21.4739 C   0  0  0  0  0  0
  -29.1944  -24.0293   22.8206 C   0  0  0  0  0  0
  -29.5646  -24.1147   20.2753 C   0  0  0  0  0  0
  -29.1309  -22.5038   22.6350 C   0  0  0  0  0  0
  -30.5816  -23.0309   20.6543 C   0  0  0  0  0  0
  -29.6495  -16.1760   18.5860 C   0  0  0  0  0  0
  -28.1430  -26.8581   22.7283 C   0  0  0  0  0  0
  -30.0865  -15.5531   20.9798 N   0  0  0  0  0  0
  -29.9425  -22.0262   21.5139 N   0  0  0  0  0  0
  -31.4542  -12.2902   19.1469 H   0  0  0  0  0  0
  -30.2676  -11.2561   19.8822 H   0  0  0  0  0  0
  -29.7032  -11.6080   17.4989 H   0  0  0  0  0  0
  -29.7301  -13.3264   17.6759 H   0  0  0  0  0  0
  -27.7671  -11.3077   18.8022 H   0  0  0  0  0  0
  -27.3787  -12.6524   17.7697 H   0  0  0  0  0  0
  -27.6731  -14.2469   19.5656 H   0  0  0  0  0  0
  -28.6562  -12.0113   21.3904 H   0  0  0  0  0  0
  -28.4805  -13.6883   21.8264 H   0  0  0  0  0  0
  -25.2745   -9.5685   22.4763 H   0  0  0  0  0  0
  -23.9993   -7.4633   22.7482 H   0  0  0  0  0  0
  -21.0828   -8.8757   19.8957 H   0  0  0  0  0  0
  -22.3670  -10.9667   19.6171 H   0  0  0  0  0  0
  -21.2004   -7.6144   23.9710 H   0  0  0  0  0  0
  -21.1484   -6.0529   25.9078 H   0  0  0  0  0  0
  -22.0597   -2.7605   23.2857 H   0  0  0  0  0  0
  -22.4106  -11.9906   22.4795 H   0  0  0  0  0  0
  -21.1101  -13.1266   22.2594 H   0  0  0  0  0  0
  -24.6656  -15.8452   20.5313 H   0  0  0  0  0  0
  -26.2959  -15.6292   20.1370 H   0  0  0  0  0  0
  -26.7108  -32.5572   23.1173 H   0  0  0  0  0  0
  -25.0066  -33.9778   25.0492 H   0  0  0  0  0  0
  -22.6797  -31.3051   21.4094 H   0  0  0  0  0  0
  -23.3750  -35.9651   23.3299 H   0  0  0  0  0  0
  -24.3585  -36.8927   22.2051 H   0  0  0  0  0  0
  -23.7255  -37.6521   23.6654 H   0  0  0  0  0  0
  -26.0101  -31.6487   20.5819 H   0  0  0  0  0  0
  -26.8030  -30.9216   21.9544 H   0  0  0  0  0  0
  -28.0999  -29.2280   21.0807 H   0  0  0  0  0  0
  -26.1077  -25.9488   19.1205 H   0  0  0  0  0  0
  -23.9955  -27.2623   19.0678 H   0  0  0  0  0  0
  -23.6830  -30.5880   19.3971 H   0  0  0  0  0  0
  -22.7259  -29.2213   19.8801 H   0  0  0  0  0  0
  -25.1289  -36.1961   25.0834 H   0  0  0  0  0  0
  -20.9944  -28.3218   24.1464 H   0  0  0  0  0  0
  -20.5654  -26.2259   23.3614 H   0  0  0  0  0  0
  -21.6625  -26.7438   22.1224 H   0  0  0  0  0  0
  -19.6910  -25.6298   21.1229 H   0  0  0  0  0  0
  -19.6690  -27.3206   20.6753 H   0  0  0  0  0  0
  -17.4191  -26.6678   21.4010 H   0  0  0  0  0  0
  -18.0299  -26.0054   22.8998 H   0  0  0  0  0  0
  -19.7921  -30.7231   24.2315 H   0  0  0  0  0  0
  -17.5005  -31.6263   24.5156 H   0  0  0  0  0  0
  -15.5342  -30.2991   23.7636 H   0  0  0  0  0  0
  -15.8654  -28.0827   22.7055 H   0  0  0  0  0  0
  -24.5932  -30.7002   25.7800 H   0  0  0  0  0  0
  -24.8923  -32.2816   26.4905 H   0  0  0  0  0  0
  -25.8115  -30.8846   27.0208 H   0  0  0  0  0  0
  -26.2802  -29.6817   24.1053 H   0  0  0  0  0  0
  -27.4087  -29.7229   25.4412 H   0  0  0  0  0  0
  -27.8612  -30.4365   23.9094 H   0  0  0  0  0  0
  -27.2675  -33.3565   26.2075 H   0  0  0  0  0  0
  -28.3836  -32.6873   25.0266 H   0  0  0  0  0  0
  -28.0744  -31.8376   26.5330 H   0  0  0  0  0  0
  -28.2594  -38.0110   24.7512 H   0  0  0  0  0  0
  -28.1091  -36.2647   24.6259 H   0  0  0  0  0  0
  -27.2307  -37.1420   25.8856 H   0  0  0  0  0  0
  -20.9287  -29.8731   21.6974 H   0  0  0  0  0  0
  -26.0186  -38.2867   24.1420 H   0  0  0  0  0  0
  -30.4818  -18.5876   18.5260 H   0  0  0  0  0  0
  -29.0272  -17.5966   22.4732 H   0  0  0  0  0  0
  -30.5052  -20.8887   19.0659 H   0  0  0  0  0  0
  -29.1110  -19.9525   23.0815 H   0  0  0  0  0  0
  -28.4253  -24.3017   23.5422 H   0  0  0  0  0  0
  -30.1527  -24.2964   23.2676 H   0  0  0  0  0  0
  -30.0254  -24.8407   19.6041 H   0  0  0  0  0  0
  -28.7243  -23.6737   19.7375 H   0  0  0  0  0  0
  -28.0935  -22.2090   22.4662 H   0  0  0  0  0  0
  -29.4525  -22.0283   23.5622 H   0  0  0  0  0  0
  -31.4008  -23.4843   21.2162 H   0  0  0  0  0  0
  -31.0566  -22.6398   19.7601 H   0  0  0  0  0  0
  -28.9992  -16.9189   18.1239 H   0  0  0  0  0  0
  -29.1687  -15.2263   18.3996 H   0  0  0  0  0  0
  -30.6138  -16.1894   18.0776 H   0  0  0  0  0  0
  -28.5231  -26.4218   23.6492 H   0  0  0  0  0  0
  -27.0591  -26.9341   22.8205 H   0  0  0  0  0  0
  -28.5703  -27.8580   22.7080 H   0  0  0  0  0  0
  1 25  1  0  0  0
  1 30  2  0  0  0
  1 86  1  0  0  0
  2  3  1  0  0  0
  2 25  1  0  0  0
  2 88  1  0  0  0
  2 89  1  0  0  0
  3  4  1  0  0  0
  3 90  1  0  0  0
  3 91  1  0  0  0
  4  5  1  0  0  0
  4 92  1  0  0  0
  4 93  1  0  0  0
  5  6  1  0  0  0
  5 26  1  0  0  0
  5 94  1  0  0  0
  6 25  1  0  0  0
  6 95  1  0  0  0
  6 96  1  0  0  0
  7  8  2  0  0  0
  7 26  1  0  0  0
  7 29  1  0  0  0
  8  9  1  0  0  0
  8 22  1  0  0  0
  9 10  1  0  0  0
  9 27  2  0  0  0
 10 11  2  0  0  0
 10 15  1  0  0  0
 11 12  1  0  0  0
 11 97  1  0  0  0
 12 13  2  0  0  0
 12 98  1  0  0  0
 13 14  1  0  0  0
 13 31  1  0  0  0
 14 15  2  0  0  0
 14 99  1  0  0  0
 15100  1  0  0  0
 16 17  2  0  0  0
 16 21  1  0  0  0
 16 31  1  0  0  0
 17 18  1  0  0  0
 17101  1  0  0  0
 18 19  2  0  0  0
 18102  1  0  0  0
 19 20  1  0  0  0
 19 24  1  0  0  0
 20 21  2  0  0  0
 20103  1  0  0  0
 21 23  1  0  0  0
 22 28  1  0  0  0
 22 32  2  0  0  0
 26 27  1  0  0  0
 28104  1  0  0  0
 28105  1  0  0  0
 29106  1  0  0  0
 29107  1  0  0  0
 33 34  1  0  0  0
 33 66  1  0  0  0
 33 70  2  0  0  0
 34 36  1  0  0  0
 34 59  1  0  0  0
 34108  1  0  0  0
 35 44  2  0  0  0
 35 45  1  0  0  0
 35 68  1  0  0  0
 36 56  1  0  0  0
 36109  1  0  0  0
 37 39  1  0  0  0
 37 47  1  0  0  0
 37 66  1  0  0  0
 37110  1  0  0  0
 38 43  2  0  0  0
 38 46  1  0  0  0
 38 47  1  0  0  0
 39 64  1  0  0  0
 39 67  2  0  0  0
 40 52  1  0  0  0
 40 53  2  0  0  0
 40 58  1  0  0  0
 41111  1  0  0  0
 41112  1  0  0  0
 41113  1  0  0  0
 41 48  1  0  0  0
 42 43  1  0  0  0
 42 66  1  0  0  0
 42114  1  0  0  0
 42115  1  0  0  0
 43 44  1  0  0  0
 44116  1  0  0  0
 45 46  2  0  0  0
 45117  1  0  0  0
 46118  1  0  0  0
 47119  1  0  0  0
 47120  1  0  0  0
 48 56  1  0  0  0
 48 65  1  0  0  0
 48121  1  0  0  0
 49 50  1  0  0  0
 49 53  1  0  0  0
 49 64  1  0  0  0
 49122  1  0  0  0
 50 51  1  0  0  0
 50123  1  0  0  0
 50124  1  0  0  0
 51 52  1  0  0  0
 51125  1  0  0  0
 51126  1  0  0  0
 52127  1  0  0  0
 52128  1  0  0  0
 53 54  1  0  0  0
 54 55  2  0  0  0
 54129  1  0  0  0
 55 57  1  0  0  0
 55130  1  0  0  0
 56 69  2  0  0  0
 57 58  2  0  0  0
 57131  1  0  0  0
 58132  1  0  0  0
 59 60  1  0  0  0
 59 61  1  0  0  0
 59 62  1  0  0  0
 60133  1  0  0  0
 60134  1  0  0  0
 60135  1  0  0  0
 61136  1  0  0  0
 61137  1  0  0  0
 61138  1  0  0  0
 62139  1  0  0  0
 62140  1  0  0  0
 62141  1  0  0  0
 63 65  1  0  0  0
 63142  1  0  0  0
 63143  1  0  0  0
 63144  1  0  0  0
 64145  1  0  0  0
 65146  1  0  0  0
 68 79  1  0  0  0
 71 73  2  0  0  0
 71 75  1  0  0  0
 71147  1  0  0  0
 72 74  1  0  0  0
 72 75  2  0  0  0
 72148  1  0  0  0
 73 76  1  0  0  0
 73149  1  0  0  0
 74 76  2  0  0  0
 74150  1  0  0  0
 75 78  1  0  0  0
 76 87  1  0  0  0
 77 79  2  0  0  0
 77 80  1  0  0  0
 77 81  1  0  0  0
 78 84  1  0  0  0
 78 86  2  0  0  0
 79 85  1  0  0  0
 80 82  1  0  0  0
 80151  1  0  0  0
 80152  1  0  0  0
 81 83  1  0  0  0
 81153  1  0  0  0
 81154  1  0  0  0
 82 87  1  0  0  0
 82155  1  0  0  0
 82156  1  0  0  0
 83 87  1  0  0  0
 83157  1  0  0  0
 83158  1  0  0  0
 84159  1  0  0  0
 84160  1  0  0  0
 84161  1  0  0  0
 85162  1  0  0  0
 85163  1  0  0  0
 85164  1  0  0  0
M  ISO  4   1 100  68 101  79 101  86 100
M  END
> <chiral flag>
0

> <version>
0

> <s_m_source_file>
/data/baiqing/PycharmProjects/Reinvent-master-3.2/result/LINK_invent/BTK/process_docking_weight1_custom_product_contain_oxygen_bond_distance_aromatic_linkinvent_7_9_3/rearranged_h_0082.sdf

> <i_m_source_file_index>
27

> <r_mmod_Potential_Energy-OPLS-2005>
57.0033073425293

> <r_mmod_Stretch_Energy-OPLS-2005>
39.4682998657227

> <r_mmod_Bend_Energy-OPLS-2005>
115.993988037109

> <r_mmod_Torsional_Energy-OPLS-2005>
243.736618041992

> <r_mmod_Improper_Torsional_Energy-OPLS-2005>
5.4456787109375

> <r_mmod_Van_der_Waal_Energy-OPLS-2005>
204.939971923828

> <r_mmod_Electrostatic_Energy-OPLS-2005>
-381.267944335938

> <r_mmod_Solvation_Energy-OPLS-2005>
-192.805419921875

> <b_mmod_Minimization_Converged-OPLS-2005>
0

> <r_mmod_RMS_Derivative-OPLS-2005>
1.01894640922546

$$$$
27
                    3D
 Structure written by MMmdl.
154163  0  0  1  0            999 V2000
  -30.6404  -14.7538   20.4866 C   0  0  0  0  0  0
  -30.4315  -12.4663   19.4920 C   0  0  0  0  0  0
  -29.5171  -12.5173   18.2487 C   0  0  0  0  0  0
  -28.0417  -12.3378   18.6535 C   0  0  0  0  0  0
  -27.6425  -13.2382   19.8529 C   0  0  2  0  0  0
  -28.6823  -13.1737   20.9921 C   0  0  0  0  0  0
  -25.2505  -13.8211   20.5692 C   0  0  0  0  0  0
  -24.1806  -13.0444   20.9192 C   0  0  0  0  0  0
  -24.6414  -11.6924   20.8742 C   0  0  0  0  0  0
  -23.9095  -10.4294   21.0403 C   0  0  0  0  0  0
  -24.3641   -9.4207   21.9184 C   0  0  0  0  0  0
  -23.6305   -8.2249   22.0753 C   0  0  0  0  0  0
  -22.4287   -8.0292   21.3546 C   0  0  0  0  0  0
  -21.9926   -9.0266   20.4647 C   0  0  0  0  0  0
  -22.7264  -10.2141   20.3051 C   0  0  0  0  0  0
  -21.6857   -6.0737   22.5282 C   0  0  0  0  0  0
  -21.4016   -6.5638   23.8214 C   0  0  0  0  0  0
  -21.3662   -5.6790   24.9177 C   0  0  0  0  0  0
  -21.6044   -4.3051   24.7230 C   0  0  0  0  0  0
  -21.8818   -3.8145   23.4351 C   0  0  0  0  0  0
  -21.9195   -4.6962   22.3407 C   0  0  0  0  0  0
  -22.7827  -13.5219   21.1855 C   0  0  0  0  0  0
  -22.1660   -4.2147   21.0982 F   0  0  0  0  0  0
  -21.5631   -3.4531   25.7740 F   0  0  0  0  0  0
  -29.9901  -13.5326   20.4271 N   0  0  0  0  0  0
  -26.2940  -12.9432   20.3278 N   0  0  0  0  0  0
  -25.9349  -11.6565   20.5746 N   0  0  0  0  0  0
  -22.0486  -12.8209   22.0419 N   0  0  0  0  0  0
  -25.4172  -15.1943   20.4135 N   0  0  0  0  0  0
  -31.7958  -14.8402   20.0536 O   0  0  0  0  0  0
  -21.6647   -6.8892   21.4247 O   0  0  0  0  0  0
  -22.3509  -14.5524   20.6705 O   0  0  0  0  0  0
  -24.6326  -31.8549   23.2010 C   0  0  0  0  0  0
  -25.9147  -32.4755   23.8359 C   0  0  1  0  0  0
  -27.2106  -27.2418   20.1259 C   0  0  0  0  0  0
  -25.5937  -33.8558   24.2272 N   0  0  0  0  0  0
  -23.4310  -30.4796   21.5437 C   0  0  2  0  0  0
  -24.8784  -28.9327   20.1067 C   0  0  0  0  0  0
  -22.7515  -29.4598   22.4904 C   0  0  0  0  0  0
  -18.0295  -28.1392   22.8484 C   0  0  0  0  0  0
  -24.1486  -36.7287   23.2639 C   0  0  0  0  0  0
  -25.9797  -30.7575   21.3902 C   0  0  0  0  0  0
  -26.0490  -29.3788   20.7335 C   0  0  0  0  0  0
  -27.2145  -28.5410   20.7448 C   0  0  0  0  0  0
  -26.0301  -26.8998   19.4241 C   0  0  0  0  0  0
  -24.8751  -27.7011   19.4406 C   0  0  0  0  0  0
  -23.6505  -29.8209   20.1576 C   0  0  0  0  0  0
  -25.4112  -36.3071   24.0326 C   0  0  1  0  0  0
  -20.5899  -28.3707   23.1260 C   0  0  2  0  0  0
  -20.6782  -26.9423   22.5404 C   0  0  0  0  0  0
  -19.5754  -26.6386   21.5215 C   0  0  0  0  0  0
  -18.1936  -26.7932   22.1628 C   0  0  0  0  0  0
  -19.1547  -28.8866   23.2868 C   0  0  0  0  0  0
  -18.9466  -30.1464   23.8896 C   0  0  0  0  0  0
  -17.6463  -30.6590   24.0560 C   0  0  0  0  0  0
  -25.9056  -34.9439   23.5102 C   0  0  0  0  0  0
  -16.5356  -29.9087   23.6328 C   0  0  0  0  0  0
  -16.7279  -28.6502   23.0354 C   0  0  0  0  0  0
  -26.4505  -31.6581   25.0753 C   0  0  0  0  0  0
  -25.3726  -31.3734   26.1473 C   0  0  0  0  0  0
  -27.0355  -30.2988   24.6268 C   0  0  0  0  0  0
  -27.6058  -32.4324   25.7522 C   0  0  0  0  0  0
  -27.5577  -37.1802   24.8463 C   0  0  0  0  0  0
  -21.4221  -29.3049   22.3645 N   0  0  0  0  0  0
  -26.4288  -37.3768   23.9408 N   0  0  0  0  0  0
  -24.7000  -31.0495   22.1008 N   0  0  0  0  0  0
  -23.4203  -28.8130   23.3003 O   0  0  0  0  0  0
  -28.2739  -26.2989   20.1931 O   0  0  0  0  0  0
  -26.5624  -34.8915   22.4670 O   0  0  0  0  0  0
  -23.5466  -32.1382   23.7289 O   0  0  0  0  0  0
  -29.3155  -18.4504   18.0030 C   0  0  0  0  0  0
  -29.5677  -17.3249   18.8145 C   0  0  0  0  0  0
  -29.2106  -19.7474   18.5459 C   0  0  0  0  0  0
  -29.6192  -18.8073   20.7496 C   0  0  0  0  0  0
  -29.7183  -17.4452   20.2141 C   0  0  0  0  0  0
  -29.3629  -19.9887   19.9290 C   0  0  0  0  0  0
  -28.7927  -23.7549   20.3050 C   0  0  0  0  0  0
  -30.2080  -23.6240   20.5250 C   0  0  0  0  0  0
  -28.3086  -22.3413   20.1860 C   0  0  0  0  0  0
  -31.0754  -24.6451   20.6321 C   0  0  0  0  0  0
  -27.9872  -24.8875   20.1925 C   0  0  0  0  0  0
  -29.9060  -16.1292   21.0511 C   0  0  0  0  0  0
  -30.5876  -22.1509   20.6104 C   0  0  0  0  0  0
  -29.3359  -21.4202   20.3555 N   0  0  0  0  0  0
  -27.1375  -22.0107   19.9696 O   0  0  0  0  0  0
  -29.5449  -16.1344   22.2336 O   0  0  0  0  0  0
  -31.4746  -12.5757   19.1908 H   0  0  0  0  0  0
  -30.3701  -11.4901   19.9761 H   0  0  0  0  0  0
  -29.8063  -11.7433   17.5366 H   0  0  0  0  0  0
  -29.6484  -13.4722   17.7368 H   0  0  0  0  0  0
  -27.8985  -11.2889   18.9164 H   0  0  0  0  0  0
  -27.3908  -12.5288   17.7994 H   0  0  0  0  0  0
  -27.6364  -14.2609   19.4754 H   0  0  0  0  0  0
  -28.7173  -12.1720   21.4229 H   0  0  0  0  0  0
  -28.3981  -13.8389   21.8074 H   0  0  0  0  0  0
  -25.2789   -9.5673   22.4760 H   0  0  0  0  0  0
  -24.0007   -7.4635   22.7472 H   0  0  0  0  0  0
  -21.0855   -8.8790   19.8956 H   0  0  0  0  0  0
  -22.3725  -10.9681   19.6158 H   0  0  0  0  0  0
  -21.2002   -7.6143   23.9716 H   0  0  0  0  0  0
  -21.1486   -6.0520   25.9079 H   0  0  0  0  0  0
  -22.0594   -2.7606   23.2853 H   0  0  0  0  0  0
  -22.4100  -11.9876   22.4824 H   0  0  0  0  0  0
  -21.1103  -13.1234   22.2618 H   0  0  0  0  0  0
  -24.6475  -15.8449   20.5274 H   0  0  0  0  0  0
  -26.2684  -15.6443   20.1023 H   0  0  0  0  0  0
  -26.7216  -32.5400   23.1101 H   0  0  0  0  0  0
  -25.0077  -33.9695   25.0411 H   0  0  0  0  0  0
  -22.7290  -31.3035   21.4008 H   0  0  0  0  0  0
  -23.3746  -35.9622   23.3298 H   0  0  0  0  0  0
  -24.3582  -36.8913   22.2057 H   0  0  0  0  0  0
  -23.7246  -37.6490   23.6664 H   0  0  0  0  0  0
  -26.1252  -31.5157   20.6193 H   0  0  0  0  0  0
  -26.8555  -30.8050   22.0253 H   0  0  0  0  0  0
  -28.1037  -28.8672   21.2656 H   0  0  0  0  0  0
  -25.9660  -25.9844   18.8556 H   0  0  0  0  0  0
  -23.9886  -27.3669   18.9190 H   0  0  0  0  0  0
  -23.7760  -30.6010   19.4059 H   0  0  0  0  0  0
  -22.7686  -29.2561   19.8502 H   0  0  0  0  0  0
  -25.1294  -36.1922   25.0817 H   0  0  0  0  0  0
  -20.9998  -28.3290   24.1378 H   0  0  0  0  0  0
  -20.5692  -26.2318   23.3612 H   0  0  0  0  0  0
  -21.6648  -26.7450   22.1194 H   0  0  0  0  0  0
  -19.6917  -25.6296   21.1250 H   0  0  0  0  0  0
  -19.6693  -27.3191   20.6743 H   0  0  0  0  0  0
  -17.4206  -26.6680   21.4029 H   0  0  0  0  0  0
  -18.0338  -26.0076   22.9028 H   0  0  0  0  0  0
  -19.7940  -30.7278   24.2272 H   0  0  0  0  0  0
  -17.5015  -31.6273   24.5160 H   0  0  0  0  0  0
  -15.5355  -30.2986   23.7654 H   0  0  0  0  0  0
  -15.8679  -28.0818   22.7075 H   0  0  0  0  0  0
  -24.5900  -30.7082   25.7802 H   0  0  0  0  0  0
  -24.8921  -32.2902   26.4899 H   0  0  0  0  0  0
  -25.8043  -30.8913   27.0256 H   0  0  0  0  0  0
  -26.2951  -29.6733   24.1270 H   0  0  0  0  0  0
  -27.3985  -29.7257   25.4811 H   0  0  0  0  0  0
  -27.8854  -30.4241   23.9555 H   0  0  0  0  0  0
  -27.2668  -33.3630   26.2085 H   0  0  0  0  0  0
  -28.3875  -32.6879   25.0353 H   0  0  0  0  0  0
  -28.0721  -31.8465   26.5453 H   0  0  0  0  0  0
  -28.2590  -38.0100   24.7504 H   0  0  0  0  0  0
  -28.1078  -36.2635   24.6292 H   0  0  0  0  0  0
  -27.2299  -37.1448   25.8866 H   0  0  0  0  0  0
  -20.9409  -29.8768   21.6846 H   0  0  0  0  0  0
  -26.0167  -38.2843   24.1405 H   0  0  0  0  0  0
  -29.2012  -18.3177   16.9358 H   0  0  0  0  0  0
  -29.6215  -16.3544   18.3394 H   0  0  0  0  0  0
  -29.0347  -20.5761   17.8726 H   0  0  0  0  0  0
  -29.7399  -18.9437   21.8159 H   0  0  0  0  0  0
  -30.7533  -25.6742   20.5609 H   0  0  0  0  0  0
  -32.1295  -24.4670   20.7920 H   0  0  0  0  0  0
  -26.9333  -24.6913   20.0835 H   0  0  0  0  0  0
  -30.9808  -21.9067   21.5976 H   0  0  0  0  0  0
  -31.3381  -21.9043   19.8580 H   0  0  0  0  0  0
  1 25  1  0  0  0
  1 30  2  0  0  0
  1 82  1  0  0  0
  2  3  1  0  0  0
  2 25  1  0  0  0
  2 87  1  0  0  0
  2 88  1  0  0  0
  3  4  1  0  0  0
  3 89  1  0  0  0
  3 90  1  0  0  0
  4  5  1  0  0  0
  4 91  1  0  0  0
  4 92  1  0  0  0
  5  6  1  0  0  0
  5 26  1  0  0  0
  5 93  1  0  0  0
  6 25  1  0  0  0
  6 94  1  0  0  0
  6 95  1  0  0  0
  7  8  2  0  0  0
  7 26  1  0  0  0
  7 29  1  0  0  0
  8  9  1  0  0  0
  8 22  1  0  0  0
  9 10  1  0  0  0
  9 27  2  0  0  0
 10 11  2  0  0  0
 10 15  1  0  0  0
 11 12  1  0  0  0
 11 96  1  0  0  0
 12 13  2  0  0  0
 12 97  1  0  0  0
 13 14  1  0  0  0
 13 31  1  0  0  0
 14 15  2  0  0  0
 14 98  1  0  0  0
 15 99  1  0  0  0
 16 17  2  0  0  0
 16 21  1  0  0  0
 16 31  1  0  0  0
 17 18  1  0  0  0
 17100  1  0  0  0
 18 19  2  0  0  0
 18101  1  0  0  0
 19 20  1  0  0  0
 19 24  1  0  0  0
 20 21  2  0  0  0
 20102  1  0  0  0
 21 23  1  0  0  0
 22 28  1  0  0  0
 22 32  2  0  0  0
 26 27  1  0  0  0
 28103  1  0  0  0
 28104  1  0  0  0
 29105  1  0  0  0
 29106  1  0  0  0
 33 34  1  0  0  0
 33 66  1  0  0  0
 33 70  2  0  0  0
 34 36  1  0  0  0
 34 59  1  0  0  0
 34107  1  0  0  0
 35 44  2  0  0  0
 35 45  1  0  0  0
 35 68  1  0  0  0
 36 56  1  0  0  0
 36108  1  0  0  0
 37 39  1  0  0  0
 37 47  1  0  0  0
 37 66  1  0  0  0
 37109  1  0  0  0
 38 43  2  0  0  0
 38 46  1  0  0  0
 38 47  1  0  0  0
 39 64  1  0  0  0
 39 67  2  0  0  0
 40 52  1  0  0  0
 40 53  2  0  0  0
 40 58  1  0  0  0
 41110  1  0  0  0
 41111  1  0  0  0
 41112  1  0  0  0
 41 48  1  0  0  0
 42 43  1  0  0  0
 42 66  1  0  0  0
 42113  1  0  0  0
 42114  1  0  0  0
 43 44  1  0  0  0
 44115  1  0  0  0
 45 46  2  0  0  0
 45116  1  0  0  0
 46117  1  0  0  0
 47118  1  0  0  0
 47119  1  0  0  0
 48 56  1  0  0  0
 48 65  1  0  0  0
 48120  1  0  0  0
 49 50  1  0  0  0
 49 53  1  0  0  0
 49 64  1  0  0  0
 49121  1  0  0  0
 50 51  1  0  0  0
 50122  1  0  0  0
 50123  1  0  0  0
 51 52  1  0  0  0
 51124  1  0  0  0
 51125  1  0  0  0
 52126  1  0  0  0
 52127  1  0  0  0
 53 54  1  0  0  0
 54 55  2  0  0  0
 54128  1  0  0  0
 55 57  1  0  0  0
 55129  1  0  0  0
 56 69  2  0  0  0
 57 58  2  0  0  0
 57130  1  0  0  0
 58131  1  0  0  0
 59 60  1  0  0  0
 59 61  1  0  0  0
 59 62  1  0  0  0
 60132  1  0  0  0
 60133  1  0  0  0
 60134  1  0  0  0
 61135  1  0  0  0
 61136  1  0  0  0
 61137  1  0  0  0
 62138  1  0  0  0
 62139  1  0  0  0
 62140  1  0  0  0
 63 65  1  0  0  0
 63141  1  0  0  0
 63142  1  0  0  0
 63143  1  0  0  0
 64144  1  0  0  0
 65145  1  0  0  0
 68 81  1  0  0  0
 71 72  2  0  0  0
 71 73  1  0  0  0
 71146  1  0  0  0
 72 75  1  0  0  0
 72147  1  0  0  0
 73 76  2  0  0  0
 73148  1  0  0  0
 74 75  2  0  0  0
 74 76  1  0  0  0
 74149  1  0  0  0
 75 82  1  0  0  0
 76 84  1  0  0  0
 77 78  1  0  0  0
 77 79  1  0  0  0
 77 81  2  0  0  0
 78 80  2  0  0  0
 78 83  1  0  0  0
 79 84  1  0  0  0
 79 85  2  0  0  0
 80150  1  0  0  0
 80151  1  0  0  0
 81152  1  0  0  0
 82 86  2  0  0  0
 83 84  1  0  0  0
 83153  1  0  0  0
 83154  1  0  0  0
M  ISO  4   1 100  68 101  81 101  82 100
M  END
> <chiral flag>
0

> <version>
0

> <s_m_source_file>
/data/baiqing/PycharmProjects/Reinvent-master-3.2/result/LINK_invent/BTK/process_docking_weight1_custom_product_contain_oxygen_bond_distance_aromatic_linkinvent_7_9_3/rearranged_h_0082.sdf

> <i_m_source_file_index>
28

> <r_mmod_Potential_Energy-OPLS-2005>
518.5986328125

> <r_mmod_Stretch_Energy-OPLS-2005>
139.889175415039

> <r_mmod_Bend_Energy-OPLS-2005>
213.773956298828

> <r_mmod_Torsional_Energy-OPLS-2005>
260.138092041016

> <r_mmod_Improper_Torsional_Energy-OPLS-2005>
3.54070043563843

> <r_mmod_Van_der_Waal_Energy-OPLS-2005>
134.656997680664

> <r_mmod_Electrostatic_Energy-OPLS-2005>
-124.652183532715

> <r_mmod_Solvation_Energy-OPLS-2005>
-204.494201660156

> <b_mmod_Minimization_Converged-OPLS-2005>
0

> <r_mmod_RMS_Derivative-OPLS-2005>
1.03678822517395

$$$$
28
                    3D
 Structure written by MMmdl.
140147  0  0  1  0            999 V2000
  -30.2518  -15.7832   20.2996 C   0  0  0  0  0  0
  -30.4119  -13.1811   19.5677 C   0  0  0  0  0  0
  -29.5595  -12.7006   18.3533 C   0  0  0  0  0  0
  -28.1429  -12.3117   18.7943 C   0  0  0  0  0  0
  -27.5925  -13.3274   19.8184 C   0  0  2  0  0  0
  -28.5928  -13.7209   20.9372 C   0  0  0  0  0  0
  -25.2293  -13.8319   20.5819 C   0  0  0  0  0  0
  -24.1699  -13.0442   20.9293 C   0  0  0  0  0  0
  -24.6426  -11.6960   20.8759 C   0  0  0  0  0  0
  -23.9134  -10.4298   21.0388 C   0  0  0  0  0  0
  -24.3664   -9.4210   21.9174 C   0  0  0  0  0  0
  -23.6320   -8.2253   22.0752 C   0  0  0  0  0  0
  -22.4300   -8.0292   21.3544 C   0  0  0  0  0  0
  -21.9949   -9.0268   20.4642 C   0  0  0  0  0  0
  -22.7296  -10.2137   20.3044 C   0  0  0  0  0  0
  -21.6862   -6.0744   22.5279 C   0  0  0  0  0  0
  -21.4021   -6.5645   23.8213 C   0  0  0  0  0  0
  -21.3661   -5.6795   24.9173 C   0  0  0  0  0  0
  -21.6044   -4.3058   24.7223 C   0  0  0  0  0  0
  -21.8818   -3.8151   23.4343 C   0  0  0  0  0  0
  -21.9195   -4.6970   22.3400 C   0  0  0  0  0  0
  -22.7707  -13.5156   21.1924 C   0  0  0  0  0  0
  -22.1662   -4.2155   21.0978 F   0  0  0  0  0  0
  -21.5627   -3.4540   25.7734 F   0  0  0  0  0  0
  -29.7563  -14.3829   20.2897 N   0  0  0  0  0  0
  -26.2764  -12.9687   20.3269 N   0  0  0  0  0  0
  -25.9381  -11.6735   20.5697 N   0  0  0  0  0  0
  -22.0380  -12.8125   22.0476 N   0  0  0  0  0  0
  -25.3871  -15.2065   20.4270 N   0  0  0  0  0  0
  -31.4766  -15.6884   20.0724 O   0  0  0  0  0  0
  -21.6653   -6.8894   21.4243 O   0  0  0  0  0  0
  -22.3376  -14.5452   20.6761 O   0  0  0  0  0  0
  -24.6937  -31.7863   23.1422 C   0  0  0  0  0  0
  -25.9467  -32.4397   23.8009 C   0  0  1  0  0  0
  -27.2353  -26.5916   20.2180 C   0  0  0  0  0  0
  -25.6000  -33.8230   24.1882 N   0  0  0  0  0  0
  -23.5263  -30.3824   21.4971 C   0  0  2  0  0  0
  -24.9888  -28.7038   20.1122 C   0  0  0  0  0  0
  -22.7817  -29.4235   22.4665 C   0  0  0  0  0  0
  -18.0346  -28.1427   22.8448 C   0  0  0  0  0  0
  -24.1496  -36.7124   23.2655 C   0  0  0  0  0  0
  -26.1107  -30.4798   21.4276 C   0  0  0  0  0  0
  -26.1749  -29.0336   20.7772 C   0  0  0  0  0  0
  -27.2714  -28.0044   20.8051 C   0  0  0  0  0  0
  -26.0228  -26.5070   19.4783 C   0  0  0  0  0  0
  -24.9588  -27.4682   19.4391 C   0  0  0  0  0  0
  -23.7876  -29.6703   20.1355 C   0  0  0  0  0  0
  -25.4151  -36.2855   24.0273 C   0  0  1  0  0  0
  -20.5987  -28.3792   23.1118 C   0  0  2  0  0  0
  -20.6805  -26.9439   22.5406 C   0  0  0  0  0  0
  -19.5784  -26.6365   21.5218 C   0  0  0  0  0  0
  -18.1966  -26.7952   22.1616 C   0  0  0  0  0  0
  -19.1615  -28.8937   23.2760 C   0  0  0  0  0  0
  -18.9519  -30.1517   23.8812 C   0  0  0  0  0  0
  -17.6507  -30.6606   24.0548 C   0  0  0  0  0  0
  -25.9138  -34.9248   23.4923 C   0  0  0  0  0  0
  -16.5396  -29.9086   23.6354 C   0  0  0  0  0  0
  -16.7325  -28.6509   23.0369 C   0  0  0  0  0  0
  -26.4611  -31.6485   25.0682 C   0  0  0  0  0  0
  -25.3646  -31.3838   26.1276 C   0  0  0  0  0  0
  -27.0565  -30.2808   24.6678 C   0  0  0  0  0  0
  -27.6036  -32.4378   25.7505 C   0  0  0  0  0  0
  -27.5561  -37.1717   24.8465 C   0  0  0  0  0  0
  -21.4453  -29.3013   22.3420 N   0  0  0  0  0  0
  -26.4266  -37.3630   23.9408 N   0  0  0  0  0  0
  -24.8012  -30.9192   22.0741 N   0  0  0  0  0  0
  -23.4206  -28.7856   23.3065 O   0  0  0  0  0  0
  -28.1479  -25.3011   20.3745 O   0  0  0  0  0  0
  -26.5796  -34.8848   22.4553 O   0  0  0  0  0  0
  -23.5932  -32.0994   23.6301 O   0  0  0  0  0  0
  -28.3894  -22.1769   19.9206 C   0  0  0  0  0  0
  -28.1085  -23.7417   19.8472 C   0  0  0  0  0  0
  -29.6740  -18.7472   20.1444 C   0  0  0  0  0  0
  -28.9145  -20.4637   20.6002 C   0  0  0  0  0  0
  -29.5050  -17.1892   20.4304 N   0  0  0  0  0  0
  -30.6400  -18.9514   19.4057 O   0  0  0  0  0  0
  -31.4031  -13.4436   19.1972 H   0  0  0  0  0  0
  -30.5898  -12.3566   20.2605 H   0  0  0  0  0  0
  -30.0433  -11.8610   17.8523 H   0  0  0  0  0  0
  -29.5018  -13.5053   17.6189 H   0  0  0  0  0  0
  -28.1930  -11.3236   19.2536 H   0  0  0  0  0  0
  -27.4784  -12.2219   17.9340 H   0  0  0  0  0  0
  -27.4386  -14.2312   19.2271 H   0  0  0  0  0  0
  -28.8755  -12.8632   21.5496 H   0  0  0  0  0  0
  -28.1271  -14.4366   21.6162 H   0  0  0  0  0  0
  -25.2802   -9.5684   22.4760 H   0  0  0  0  0  0
  -24.0020   -7.4647   22.7480 H   0  0  0  0  0  0
  -21.0878   -8.8797   19.8949 H   0  0  0  0  0  0
  -22.3754  -10.9678   19.6156 H   0  0  0  0  0  0
  -21.2017   -7.6153   23.9718 H   0  0  0  0  0  0
  -21.1483   -6.0525   25.9076 H   0  0  0  0  0  0
  -22.0594   -2.7613   23.2841 H   0  0  0  0  0  0
  -22.4031  -11.9805   22.4871 H   0  0  0  0  0  0
  -21.0983  -13.1109   22.2674 H   0  0  0  0  0  0
  -24.6138  -15.8536   20.5375 H   0  0  0  0  0  0
  -26.2278  -15.6488   20.0794 H   0  0  0  0  0  0
  -26.7558  -32.4838   23.0724 H   0  0  0  0  0  0
  -25.0038  -33.9250   24.9962 H   0  0  0  0  0  0
  -22.8579  -31.2227   21.2978 H   0  0  0  0  0  0
  -23.3781  -35.9428   23.3253 H   0  0  0  0  0  0
  -24.3561  -36.8859   22.2083 H   0  0  0  0  0  0
  -23.7234  -37.6271   23.6785 H   0  0  0  0  0  0
  -26.3282  -31.1977   20.6357 H   0  0  0  0  0  0
  -26.9561  -30.5502   22.0991 H   0  0  0  0  0  0
  -28.1499  -28.2569   21.3818 H   0  0  0  0  0  0
  -25.8378  -25.5754   18.9631 H   0  0  0  0  0  0
  -24.0678  -27.2061   18.8852 H   0  0  0  0  0  0
  -23.9687  -30.4271   19.3715 H   0  0  0  0  0  0
  -22.8911  -29.1404   19.8095 H   0  0  0  0  0  0
  -25.1366  -36.1599   25.0762 H   0  0  0  0  0  0
  -21.0067  -28.3429   24.1245 H   0  0  0  0  0  0
  -20.5654  -26.2421   23.3681 H   0  0  0  0  0  0
  -21.6665  -26.7360   22.1234 H   0  0  0  0  0  0
  -19.6937  -25.6253   21.1303 H   0  0  0  0  0  0
  -19.6732  -27.3128   20.6711 H   0  0  0  0  0  0
  -17.4237  -26.6696   21.4018 H   0  0  0  0  0  0
  -18.0349  -26.0115   22.9031 H   0  0  0  0  0  0
  -19.7995  -30.7354   24.2144 H   0  0  0  0  0  0
  -17.5058  -31.6277   24.5167 H   0  0  0  0  0  0
  -15.5393  -30.2961   23.7727 H   0  0  0  0  0  0
  -15.8726  -28.0799   22.7133 H   0  0  0  0  0  0
  -24.5865  -30.7153   25.7573 H   0  0  0  0  0  0
  -24.8800  -32.3071   26.4460 H   0  0  0  0  0  0
  -25.7796  -30.9160   27.0212 H   0  0  0  0  0  0
  -26.3307  -29.6381   24.1686 H   0  0  0  0  0  0
  -27.3953  -29.7308   25.5468 H   0  0  0  0  0  0
  -27.9303  -30.3902   24.0253 H   0  0  0  0  0  0
  -27.2560  -33.3765   26.1830 H   0  0  0  0  0  0
  -28.3973  -32.6801   25.0424 H   0  0  0  0  0  0
  -28.0566  -31.8680   26.5628 H   0  0  0  0  0  0
  -28.2535  -38.0052   24.7520 H   0  0  0  0  0  0
  -28.1100  -36.2572   24.6285 H   0  0  0  0  0  0
  -27.2276  -37.1339   25.8866 H   0  0  0  0  0  0
  -20.9783  -29.8652   21.6454 H   0  0  0  0  0  0
  -26.0082  -38.2670   24.1428 H   0  0  0  0  0  0
  -27.9823  -21.8308   18.9804 H   0  0  0  0  0  0
  -27.6401  -23.8946   18.8843 H   0  0  0  0  0  0
  -27.9725  -20.1337   21.0375 H   0  0  0  0  0  0
  -29.5121  -20.7424   21.4679 H   0  0  0  0  0  0
  -28.5942  -17.0336   20.8347 H   0  0  0  0  0  0
  1 25  1  0  0  0
  1 30  2  0  0  0
  1 75  1  0  0  0
  2  3  1  0  0  0
  2 25  1  0  0  0
  2 77  1  0  0  0
  2 78  1  0  0  0
  3  4  1  0  0  0
  3 79  1  0  0  0
  3 80  1  0  0  0
  4  5  1  0  0  0
  4 81  1  0  0  0
  4 82  1  0  0  0
  5  6  1  0  0  0
  5 26  1  0  0  0
  5 83  1  0  0  0
  6 25  1  0  0  0
  6 84  1  0  0  0
  6 85  1  0  0  0
  7  8  2  0  0  0
  7 26  1  0  0  0
  7 29  1  0  0  0
  8  9  1  0  0  0
  8 22  1  0  0  0
  9 10  1  0  0  0
  9 27  2  0  0  0
 10 11  2  0  0  0
 10 15  1  0  0  0
 11 12  1  0  0  0
 11 86  1  0  0  0
 12 13  2  0  0  0
 12 87  1  0  0  0
 13 14  1  0  0  0
 13 31  1  0  0  0
 14 15  2  0  0  0
 14 88  1  0  0  0
 15 89  1  0  0  0
 16 17  2  0  0  0
 16 21  1  0  0  0
 16 31  1  0  0  0
 17 18  1  0  0  0
 17 90  1  0  0  0
 18 19  2  0  0  0
 18 91  1  0  0  0
 19 20  1  0  0  0
 19 24  1  0  0  0
 20 21  2  0  0  0
 20 92  1  0  0  0
 21 23  1  0  0  0
 22 28  1  0  0  0
 22 32  2  0  0  0
 26 27  1  0  0  0
 28 93  1  0  0  0
 28 94  1  0  0  0
 29 95  1  0  0  0
 29 96  1  0  0  0
 33 34  1  0  0  0
 33 66  1  0  0  0
 33 70  2  0  0  0
 34 36  1  0  0  0
 34 59  1  0  0  0
 34 97  1  0  0  0
 35 44  2  0  0  0
 35 45  1  0  0  0
 35 68  1  0  0  0
 36 56  1  0  0  0
 36 98  1  0  0  0
 37 39  1  0  0  0
 37 47  1  0  0  0
 37 66  1  0  0  0
 37 99  1  0  0  0
 38 43  2  0  0  0
 38 46  1  0  0  0
 38 47  1  0  0  0
 39 64  1  0  0  0
 39 67  2  0  0  0
 40 52  1  0  0  0
 40 53  2  0  0  0
 40 58  1  0  0  0
 41100  1  0  0  0
 41101  1  0  0  0
 41102  1  0  0  0
 41 48  1  0  0  0
 42 43  1  0  0  0
 42 66  1  0  0  0
 42103  1  0  0  0
 42104  1  0  0  0
 43 44  1  0  0  0
 44105  1  0  0  0
 45 46  2  0  0  0
 45106  1  0  0  0
 46107  1  0  0  0
 47108  1  0  0  0
 47109  1  0  0  0
 48 56  1  0  0  0
 48 65  1  0  0  0
 48110  1  0  0  0
 49 50  1  0  0  0
 49 53  1  0  0  0
 49 64  1  0  0  0
 49111  1  0  0  0
 50 51  1  0  0  0
 50112  1  0  0  0
 50113  1  0  0  0
 51 52  1  0  0  0
 51114  1  0  0  0
 51115  1  0  0  0
 52116  1  0  0  0
 52117  1  0  0  0
 53 54  1  0  0  0
 54 55  2  0  0  0
 54118  1  0  0  0
 55 57  1  0  0  0
 55119  1  0  0  0
 56 69  2  0  0  0
 57 58  2  0  0  0
 57120  1  0  0  0
 58121  1  0  0  0
 59 60  1  0  0  0
 59 61  1  0  0  0
 59 62  1  0  0  0
 60122  1  0  0  0
 60123  1  0  0  0
 60124  1  0  0  0
 61125  1  0  0  0
 61126  1  0  0  0
 61127  1  0  0  0
 62128  1  0  0  0
 62129  1  0  0  0
 62130  1  0  0  0
 63 65  1  0  0  0
 63131  1  0  0  0
 63132  1  0  0  0
 63133  1  0  0  0
 64134  1  0  0  0
 65135  1  0  0  0
 68 72  1  0  0  0
 71 72  2  0  0  0
 71 74  1  0  0  0
 71136  1  0  0  0
 72137  1  0  0  0
 73 74  1  0  0  0
 73 75  1  0  0  0
 73 76  2  0  0  0
 74138  1  0  0  0
 74139  1  0  0  0
 75140  1  0  0  0
M  ISO  4   1 100  68 101  72 101  75 100
M  END
> <chiral flag>
0

> <version>
0

> <s_m_source_file>
/data/baiqing/PycharmProjects/Reinvent-master-3.2/result/LINK_invent/BTK/process_docking_weight1_custom_product_contain_oxygen_bond_distance_aromatic_linkinvent_7_9_3/rearranged_h_0082.sdf

> <i_m_source_file_index>
29

> <r_mmod_Potential_Energy-OPLS-2005>
2969.96118164062

> <r_mmod_Stretch_Energy-OPLS-2005>
1278.58642578125

> <r_mmod_Bend_Energy-OPLS-2005>
840.722839355469

> <r_mmod_Torsional_Energy-OPLS-2005>
217.912826538086

> <r_mmod_Improper_Torsional_Energy-OPLS-2005>
3.20550274848938

> <r_mmod_Van_der_Waal_Energy-OPLS-2005>
112.077659606934

> <r_mmod_Electrostatic_Energy-OPLS-2005>
-398.153594970703

> <r_mmod_Solvation_Energy-OPLS-2005>
-234.386810302734

> <b_mmod_Minimization_Converged-OPLS-2005>
1

> <r_mmod_RMS_Derivative-OPLS-2005>
0.0222230218350887

$$$$
29
                    3D
 Structure written by MMmdl.
161170  0  0  1  0            999 V2000
  -30.6597  -14.5152   20.5574 C   0  0  0  0  0  0
  -30.4337  -12.3274   19.4288 C   0  0  0  0  0  0
  -29.5010  -12.5132   18.2118 C   0  0  0  0  0  0
  -28.0214  -12.3661   18.6210 C   0  0  0  0  0  0
  -27.6627  -13.2047   19.8768 C   0  0  2  0  0  0
  -28.7041  -12.9812   20.9973 C   0  0  0  0  0  0
  -25.2595  -13.8160   20.5685 C   0  0  0  0  0  0
  -24.1843  -13.0435   20.9181 C   0  0  0  0  0  0
  -24.6396  -11.6903   20.8737 C   0  0  0  0  0  0
  -23.9061  -10.4290   21.0406 C   0  0  0  0  0  0
  -24.3613   -9.4204   21.9184 C   0  0  0  0  0  0
  -23.6289   -8.2238   22.0753 C   0  0  0  0  0  0
  -22.4270   -8.0278   21.3546 C   0  0  0  0  0  0
  -21.9906   -9.0251   20.4645 C   0  0  0  0  0  0
  -22.7233  -10.2132   20.3058 C   0  0  0  0  0  0
  -21.6848   -6.0735   22.5283 C   0  0  0  0  0  0
  -21.4009   -6.5643   23.8216 C   0  0  0  0  0  0
  -21.3662   -5.6796   24.9179 C   0  0  0  0  0  0
  -21.6045   -4.3059   24.7229 C   0  0  0  0  0  0
  -21.8824   -3.8147   23.4352 C   0  0  0  0  0  0
  -21.9188   -4.6962   22.3405 C   0  0  0  0  0  0
  -22.7866  -13.5235   21.1842 C   0  0  0  0  0  0
  -22.1659   -4.2150   21.0981 F   0  0  0  0  0  0
  -21.5628   -3.4544   25.7740 F   0  0  0  0  0  0
  -30.0345  -13.3078   20.4526 N   0  0  0  0  0  0
  -26.3026  -12.9320   20.3361 N   0  0  0  0  0  0
  -25.9321  -11.6483   20.5762 N   0  0  0  0  0  0
  -22.0506  -12.8225   22.0401 N   0  0  0  0  0  0
  -25.4330  -15.1880   20.4104 N   0  0  0  0  0  0
  -31.7865  -14.7171   20.0938 O   0  0  0  0  0  0
  -21.6631   -6.8879   21.4246 O   0  0  0  0  0  0
  -22.3554  -14.5543   20.6692 O   0  0  0  0  0  0
  -24.6157  -31.8665   23.2085 C   0  0  0  0  0  0
  -25.9042  -32.4816   23.8389 C   0  0  1  0  0  0
  -27.2364  -27.4203   20.1026 C   0  0  0  0  0  0
  -25.5895  -33.8615   24.2324 N   0  0  0  0  0  0
  -23.4060  -30.4881   21.5484 C   0  0  2  0  0  0
  -24.8571  -28.9527   20.1129 C   0  0  0  0  0  0
  -22.7422  -29.4645   22.4978 C   0  0  0  0  0  0
  -18.0275  -28.1379   22.8496 C   0  0  0  0  0  0
  -24.1491  -36.7313   23.2643 C   0  0  0  0  0  0
  -25.9362  -30.8274   21.3657 C   0  0  0  0  0  0
  -26.0167  -29.4600   20.7148 C   0  0  0  0  0  0
  -27.2118  -28.6998   20.7112 C   0  0  0  0  0  0
  -26.0663  -26.9344   19.4888 C   0  0  0  0  0  0
  -24.8767  -27.6887   19.4966 C   0  0  0  0  0  0
  -23.6173  -29.8186   20.1638 C   0  0  0  0  0  0
  -25.4115  -36.3109   24.0338 C   0  0  1  0  0  0
  -20.5867  -28.3669   23.1311 C   0  0  2  0  0  0
  -20.6762  -26.9402   22.5417 C   0  0  0  0  0  0
  -19.5744  -26.6385   21.5213 C   0  0  0  0  0  0
  -18.1923  -26.7927   22.1624 C   0  0  0  0  0  0
  -19.1526  -28.8841   23.2900 C   0  0  0  0  0  0
  -18.9452  -30.1446   23.8909 C   0  0  0  0  0  0
  -17.6456  -30.6586   24.0565 C   0  0  0  0  0  0
  -25.9035  -34.9471   23.5129 C   0  0  0  0  0  0
  -16.5348  -29.9087   23.6326 C   0  0  0  0  0  0
  -16.7264  -28.6502   23.0351 C   0  0  0  0  0  0
  -26.4466  -31.6592   25.0716 C   0  0  0  0  0  0
  -25.3734  -31.3702   26.1468 C   0  0  0  0  0  0
  -27.0287  -30.3025   24.6096 C   0  0  0  0  0  0
  -27.6043  -32.4302   25.7484 C   0  0  0  0  0  0
  -27.5576  -37.1832   24.8478 C   0  0  0  0  0  0
  -21.4147  -29.3031   22.3714 N   0  0  0  0  0  0
  -26.4315  -37.3782   23.9383 N   0  0  0  0  0  0
  -24.6705  -31.0754   22.0992 N   0  0  0  0  0  0
  -23.4183  -28.8190   23.3030 O   0  0  0  0  0  0
  -28.3481  -26.6036   20.1057 O   0  0  0  0  0  0
  -26.5600  -34.8922   22.4693 O   0  0  0  0  0  0
  -23.5346  -32.1423   23.7466 O   0  0  0  0  0  0
  -28.6474  -19.0368   21.2081 C   0  0  0  0  0  0
  -30.5808  -18.9941   19.7510 C   0  0  0  0  0  0
  -28.8198  -17.6534   21.4645 C   0  0  0  0  0  0
  -30.7555  -17.6101   20.0104 C   0  0  0  0  0  0
  -29.5222  -19.7312   20.3389 C   0  0  0  0  0  0
  -29.8634  -16.9086   20.8619 C   0  0  0  0  0  0
  -28.8563  -24.6577   21.5451 C   0  0  0  0  0  0
  -29.0928  -24.2188   22.9137 C   0  0  0  0  0  0
  -28.8933  -23.6316   20.4732 C   0  0  0  0  0  0
  -28.4811  -24.7906   23.9719 C   0  0  0  0  0  0
  -28.6133  -25.9811   21.3055 C   0  0  0  0  0  0
  -29.2907  -21.1606   19.9595 C   0  0  0  0  0  0
  -30.0294  -23.0641   23.1212 C   0  0  0  0  0  0
  -29.5669  -21.8840   22.2686 C   0  0  0  0  0  0
  -29.2383  -22.2228   20.8481 N   0  0  0  0  0  0
  -29.9097  -15.4918   21.1186 N   0  0  0  0  0  0
  -29.1363  -21.3431   18.6454 N   0  3  0  0  0  0
  -28.6418  -23.8987   19.2907 O   0  0  0  0  0  0
  -31.4764  -12.4422   19.1267 H   0  0  0  0  0  0
  -30.3504  -11.3149   19.8260 H   0  0  0  0  0  0
  -29.7466  -11.7901   17.4329 H   0  0  0  0  0  0
  -29.6630  -13.4995   17.7737 H   0  0  0  0  0  0
  -27.8336  -11.3096   18.8145 H   0  0  0  0  0  0
  -27.3723  -12.6396   17.7886 H   0  0  0  0  0  0
  -27.7055  -14.2530   19.5802 H   0  0  0  0  0  0
  -28.6891  -11.9399   21.3228 H   0  0  0  0  0  0
  -28.4561  -13.5616   21.8868 H   0  0  0  0  0  0
  -25.2766   -9.5671   22.4745 H   0  0  0  0  0  0
  -23.9999   -7.4629   22.7476 H   0  0  0  0  0  0
  -21.0836   -8.8773   19.8949 H   0  0  0  0  0  0
  -22.3699  -10.9670   19.6159 H   0  0  0  0  0  0
  -21.2006   -7.6153   23.9720 H   0  0  0  0  0  0
  -21.1479   -6.0526   25.9081 H   0  0  0  0  0  0
  -22.0598   -2.7607   23.2852 H   0  0  0  0  0  0
  -22.4115  -11.9876   22.4774 H   0  0  0  0  0  0
  -21.1126  -13.1254   22.2617 H   0  0  0  0  0  0
  -24.6641  -15.8418   20.5110 H   0  0  0  0  0  0
  -26.2803  -15.6241   20.0701 H   0  0  0  0  0  0
  -26.7117  -32.5535   23.1160 H   0  0  0  0  0  0
  -25.0049  -33.9774   25.0472 H   0  0  0  0  0  0
  -22.6953  -31.3048   21.4066 H   0  0  0  0  0  0
  -23.3724  -35.9683   23.3384 H   0  0  0  0  0  0
  -24.3564  -36.8841   22.2040 H   0  0  0  0  0  0
  -23.7291  -37.6564   23.6600 H   0  0  0  0  0  0
  -26.0507  -31.5917   20.5956 H   0  0  0  0  0  0
  -26.8233  -30.8820   21.9851 H   0  0  0  0  0  0
  -28.1061  -29.0829   21.1821 H   0  0  0  0  0  0
  -26.0758  -25.9593   19.0221 H   0  0  0  0  0  0
  -23.9854  -27.2912   19.0300 H   0  0  0  0  0  0
  -23.7239  -30.5927   19.4032 H   0  0  0  0  0  0
  -22.7423  -29.2363   19.8689 H   0  0  0  0  0  0
  -25.1304  -36.1991   25.0837 H   0  0  0  0  0  0
  -20.9961  -28.3237   24.1432 H   0  0  0  0  0  0
  -20.5664  -26.2276   23.3605 H   0  0  0  0  0  0
  -21.6632  -26.7435   22.1215 H   0  0  0  0  0  0
  -19.6902  -25.6298   21.1233 H   0  0  0  0  0  0
  -19.6684  -27.3200   20.6749 H   0  0  0  0  0  0
  -17.4191  -26.6679   21.4025 H   0  0  0  0  0  0
  -18.0320  -26.0063   22.9016 H   0  0  0  0  0  0
  -19.7925  -30.7260   24.2284 H   0  0  0  0  0  0
  -17.5009  -31.6268   24.5167 H   0  0  0  0  0  0
  -15.5349  -30.2996   23.7639 H   0  0  0  0  0  0
  -15.8664  -28.0826   22.7060 H   0  0  0  0  0  0
  -24.5894  -30.7066   25.7804 H   0  0  0  0  0  0
  -24.8944  -32.2862   26.4934 H   0  0  0  0  0  0
  -25.8089  -30.8853   27.0213 H   0  0  0  0  0  0
  -26.2826  -29.6807   24.1131 H   0  0  0  0  0  0
  -27.4024  -29.7243   25.4557 H   0  0  0  0  0  0
  -27.8681  -30.4335   23.9263 H   0  0  0  0  0  0
  -27.2661  -33.3587   26.2098 H   0  0  0  0  0  0
  -28.3838  -32.6887   25.0305 H   0  0  0  0  0  0
  -28.0725  -31.8401   26.5373 H   0  0  0  0  0  0
  -28.2662  -38.0060   24.7424 H   0  0  0  0  0  0
  -28.1001  -36.2587   24.6442 H   0  0  0  0  0  0
  -27.2271  -37.1653   25.8878 H   0  0  0  0  0  0
  -20.9308  -29.8763   21.6945 H   0  0  0  0  0  0
  -26.0211  -38.2879   24.1311 H   0  0  0  0  0  0
  -27.8070  -19.5488   21.6560 H   0  0  0  0  0  0
  -31.2649  -19.4889   19.0746 H   0  0  0  0  0  0
  -28.1125  -17.1603   22.1164 H   0  0  0  0  0  0
  -31.5714  -17.1006   19.5192 H   0  0  0  0  0  0
  -27.7795  -25.6061   23.8657 H   0  0  0  0  0  0
  -28.6642  -24.4441   24.9796 H   0  0  0  0  0  0
  -28.6103  -26.7066   22.1073 H   0  0  0  0  0  0
  -30.0642  -22.7704   24.1714 H   0  0  0  0  0  0
  -31.0421  -23.3637   22.8472 H   0  0  0  0  0  0
  -28.6771  -21.4542   22.7315 H   0  0  0  0  0  0
  -30.3505  -21.1271   22.3355 H   0  0  0  0  0  0
  -29.0993  -15.1296   21.5957 H   0  0  0  0  0  0
  -29.1288  -20.5579   18.0136 H   0  0  0  0  0  0
  -28.9265  -22.2768   18.3097 H   0  0  0  0  0  0
  1 25  1  0  0  0
  1 30  2  0  0  0
  1 86  1  0  0  0
  2  3  1  0  0  0
  2 25  1  0  0  0
  2 89  1  0  0  0
  2 90  1  0  0  0
  3  4  1  0  0  0
  3 91  1  0  0  0
  3 92  1  0  0  0
  4  5  1  0  0  0
  4 93  1  0  0  0
  4 94  1  0  0  0
  5  6  1  0  0  0
  5 26  1  0  0  0
  5 95  1  0  0  0
  6 25  1  0  0  0
  6 96  1  0  0  0
  6 97  1  0  0  0
  7  8  2  0  0  0
  7 26  1  0  0  0
  7 29  1  0  0  0
  8  9  1  0  0  0
  8 22  1  0  0  0
  9 10  1  0  0  0
  9 27  2  0  0  0
 10 11  2  0  0  0
 10 15  1  0  0  0
 11 12  1  0  0  0
 11 98  1  0  0  0
 12 13  2  0  0  0
 12 99  1  0  0  0
 13 14  1  0  0  0
 13 31  1  0  0  0
 14 15  2  0  0  0
 14100  1  0  0  0
 15101  1  0  0  0
 16 17  2  0  0  0
 16 21  1  0  0  0
 16 31  1  0  0  0
 17 18  1  0  0  0
 17102  1  0  0  0
 18 19  2  0  0  0
 18103  1  0  0  0
 19 20  1  0  0  0
 19 24  1  0  0  0
 20 21  2  0  0  0
 20104  1  0  0  0
 21 23  1  0  0  0
 22 28  1  0  0  0
 22 32  2  0  0  0
 26 27  1  0  0  0
 28105  1  0  0  0
 28106  1  0  0  0
 29107  1  0  0  0
 29108  1  0  0  0
 33 34  1  0  0  0
 33 66  1  0  0  0
 33 70  2  0  0  0
 34 36  1  0  0  0
 34 59  1  0  0  0
 34109  1  0  0  0
 35 44  2  0  0  0
 35 45  1  0  0  0
 35 68  1  0  0  0
 36 56  1  0  0  0
 36110  1  0  0  0
 37 39  1  0  0  0
 37 47  1  0  0  0
 37 66  1  0  0  0
 37111  1  0  0  0
 38 43  2  0  0  0
 38 46  1  0  0  0
 38 47  1  0  0  0
 39 64  1  0  0  0
 39 67  2  0  0  0
 40 52  1  0  0  0
 40 53  2  0  0  0
 40 58  1  0  0  0
 41112  1  0  0  0
 41113  1  0  0  0
 41114  1  0  0  0
 41 48  1  0  0  0
 42 43  1  0  0  0
 42 66  1  0  0  0
 42115  1  0  0  0
 42116  1  0  0  0
 43 44  1  0  0  0
 44117  1  0  0  0
 45 46  2  0  0  0
 45118  1  0  0  0
 46119  1  0  0  0
 47120  1  0  0  0
 47121  1  0  0  0
 48 56  1  0  0  0
 48 65  1  0  0  0
 48122  1  0  0  0
 49 50  1  0  0  0
 49 53  1  0  0  0
 49 64  1  0  0  0
 49123  1  0  0  0
 50 51  1  0  0  0
 50124  1  0  0  0
 50125  1  0  0  0
 51 52  1  0  0  0
 51126  1  0  0  0
 51127  1  0  0  0
 52128  1  0  0  0
 52129  1  0  0  0
 53 54  1  0  0  0
 54 55  2  0  0  0
 54130  1  0  0  0
 55 57  1  0  0  0
 55131  1  0  0  0
 56 69  2  0  0  0
 57 58  2  0  0  0
 57132  1  0  0  0
 58133  1  0  0  0
 59 60  1  0  0  0
 59 61  1  0  0  0
 59 62  1  0  0  0
 60134  1  0  0  0
 60135  1  0  0  0
 60136  1  0  0  0
 61137  1  0  0  0
 61138  1  0  0  0
 61139  1  0  0  0
 62140  1  0  0  0
 62141  1  0  0  0
 62142  1  0  0  0
 63 65  1  0  0  0
 63143  1  0  0  0
 63144  1  0  0  0
 63145  1  0  0  0
 64146  1  0  0  0
 65147  1  0  0  0
 68 81  1  0  0  0
 71 73  2  0  0  0
 71 75  1  0  0  0
 71148  1  0  0  0
 72 74  1  0  0  0
 72 75  2  0  0  0
 72149  1  0  0  0
 73 76  1  0  0  0
 73150  1  0  0  0
 74 76  2  0  0  0
 74151  1  0  0  0
 75 82  1  0  0  0
 76 86  1  0  0  0
 77 78  1  0  0  0
 77 79  1  0  0  0
 77 81  2  0  0  0
 78 80  2  0  0  0
 78 83  1  0  0  0
 79 85  1  0  0  0
 79 88  2  0  0  0
 80152  1  0  0  0
 80153  1  0  0  0
 81154  1  0  0  0
 82 85  1  0  0  0
 82 87  2  0  0  0
 83 84  1  0  0  0
 83155  1  0  0  0
 83156  1  0  0  0
 84 85  1  0  0  0
 84157  1  0  0  0
 84158  1  0  0  0
 86159  1  0  0  0
 87160  1  0  0  0
 87161  1  0  0  0
M  CHG  1  87   1
M  ISO  4   1 100  68 101  81 101  86 100
M  END
> <chiral flag>
0

> <version>
0

> <s_m_source_file>
/data/baiqing/PycharmProjects/Reinvent-master-3.2/result/LINK_invent/BTK/process_docking_weight1_custom_product_contain_oxygen_bond_distance_aromatic_linkinvent_7_9_3/rearranged_h_0082.sdf

> <i_m_source_file_index>
30

> <r_mmod_Potential_Energy-OPLS-2005>
-79.8207397460938

> <r_mmod_Stretch_Energy-OPLS-2005>
59.7889289855957

> <r_mmod_Bend_Energy-OPLS-2005>
131.776397705078

> <r_mmod_Torsional_Energy-OPLS-2005>
266.451568603516

> <r_mmod_Improper_Torsional_Energy-OPLS-2005>
4.12264680862427

> <r_mmod_Van_der_Waal_Energy-OPLS-2005>
186.243988037109

> <r_mmod_Electrostatic_Energy-OPLS-2005>
-350.605438232422

> <r_mmod_Solvation_Energy-OPLS-2005>
-395.075439453125

> <b_mmod_Minimization_Converged-OPLS-2005>
0

> <r_mmod_RMS_Derivative-OPLS-2005>
0.921588540077209

$$$$
30
                    3D
 Structure written by MMmdl.
158166  0  0  1  0            999 V2000
  -30.7059  -14.4699   20.5825 C   0  0  0  0  0  0
  -30.4266  -12.3123   19.4185 C   0  0  0  0  0  0
  -29.4951  -12.5302   18.2078 C   0  0  0  0  0  0
  -28.0171  -12.3826   18.6193 C   0  0  0  0  0  0
  -27.6623  -13.2107   19.8827 C   0  0  2  0  0  0
  -28.7072  -12.9788   21.0021 C   0  0  0  0  0  0
  -25.2468  -13.8091   20.5610 C   0  0  0  0  0  0
  -24.1758  -13.0356   20.9134 C   0  0  0  0  0  0
  -24.6366  -11.6863   20.8721 C   0  0  0  0  0  0
  -23.9050  -10.4249   21.0376 C   0  0  0  0  0  0
  -24.3602   -9.4178   21.9170 C   0  0  0  0  0  0
  -23.6271   -8.2215   22.0741 C   0  0  0  0  0  0
  -22.4254   -8.0251   21.3530 C   0  0  0  0  0  0
  -21.9876   -9.0230   20.4639 C   0  0  0  0  0  0
  -22.7217  -10.2104   20.3031 C   0  0  0  0  0  0
  -21.6835   -6.0722   22.5272 C   0  0  0  0  0  0
  -21.3996   -6.5634   23.8210 C   0  0  0  0  0  0
  -21.3663   -5.6785   24.9176 C   0  0  0  0  0  0
  -21.6057   -4.3043   24.7217 C   0  0  0  0  0  0
  -21.8827   -3.8134   23.4335 C   0  0  0  0  0  0
  -21.9186   -4.6955   22.3391 C   0  0  0  0  0  0
  -22.7792  -13.5166   21.1840 C   0  0  0  0  0  0
  -22.1664   -4.2145   21.0980 F   0  0  0  0  0  0
  -21.5631   -3.4528   25.7728 F   0  0  0  0  0  0
  -30.0448  -13.2860   20.4546 N   0  0  0  0  0  0
  -26.3011  -12.9337   20.3410 N   0  0  0  0  0  0
  -25.9315  -11.6492   20.5789 N   0  0  0  0  0  0
  -22.0441  -12.8181   22.0424 N   0  0  0  0  0  0
  -25.3943  -15.1788   20.3997 N   0  0  0  0  0  0
  -31.8161  -14.6761   20.0815 O   0  0  0  0  0  0
  -21.6619   -6.8857   21.4240 O   0  0  0  0  0  0
  -22.3487  -14.5506   20.6732 O   0  0  0  0  0  0
  -24.6169  -31.8630   23.2102 C   0  0  0  0  0  0
  -25.9055  -32.4793   23.8378 C   0  0  1  0  0  0
  -27.2538  -27.4328   20.0896 C   0  0  0  0  0  0
  -25.5927  -33.8592   24.2329 N   0  0  0  0  0  0
  -23.4054  -30.4854   21.5484 C   0  0  2  0  0  0
  -24.8543  -28.9454   20.1140 C   0  0  0  0  0  0
  -22.7406  -29.4626   22.4985 C   0  0  0  0  0  0
  -18.0263  -28.1403   22.8482 C   0  0  0  0  0  0
  -24.1497  -36.7300   23.2639 C   0  0  0  0  0  0
  -25.9330  -30.8259   21.3631 C   0  0  0  0  0  0
  -26.0115  -29.4593   20.7114 C   0  0  0  0  0  0
  -27.2069  -28.7059   20.7025 C   0  0  0  0  0  0
  -26.0784  -26.9314   19.4848 C   0  0  0  0  0  0
  -24.8822  -27.6791   19.5023 C   0  0  0  0  0  0
  -23.6145  -29.8118   20.1640 C   0  0  0  0  0  0
  -25.4107  -36.3084   24.0343 C   0  0  1  0  0  0
  -20.5846  -28.3663   23.1346 C   0  0  2  0  0  0
  -20.6746  -26.9400   22.5451 C   0  0  0  0  0  0
  -19.5752  -26.6386   21.5231 C   0  0  0  0  0  0
  -18.1910  -26.7952   22.1597 C   0  0  0  0  0  0
  -19.1510  -28.8852   23.2913 C   0  0  0  0  0  0
  -18.9435  -30.1460   23.8916 C   0  0  0  0  0  0
  -17.6438  -30.6612   24.0561 C   0  0  0  0  0  0
  -25.9029  -34.9451   23.5119 C   0  0  0  0  0  0
  -16.5326  -29.9103   23.6338 C   0  0  0  0  0  0
  -16.7250  -28.6525   23.0338 C   0  0  0  0  0  0
  -26.4505  -31.6589   25.0704 C   0  0  0  0  0  0
  -25.3786  -31.3704   26.1467 C   0  0  0  0  0  0
  -27.0303  -30.3012   24.6095 C   0  0  0  0  0  0
  -27.6110  -32.4298   25.7451 C   0  0  0  0  0  0
  -27.5594  -37.1780   24.8450 C   0  0  0  0  0  0
  -21.4129  -29.3016   22.3739 N   0  0  0  0  0  0
  -26.4285  -37.3770   23.9426 N   0  0  0  0  0  0
  -24.6698  -31.0726   22.0995 N   0  0  0  0  0  0
  -23.4180  -28.8159   23.3017 O   0  0  0  0  0  0
  -28.4500  -26.7373   20.1270 O   0  0  0  0  0  0
  -26.5565  -34.8917   22.4669 O   0  0  0  0  0  0
  -23.5365  -32.1384   23.7505 O   0  0  0  0  0  0
  -30.9579  -19.0107   20.3513 C   0  0  0  0  0  0
  -31.1114  -17.6589   20.7596 C   0  0  0  0  0  0
  -28.5579  -18.6799   20.1604 C   0  0  0  0  0  0
  -29.6770  -19.5283   20.0309 C   0  0  0  0  0  0
  -29.9817  -16.8101   20.8502 C   0  0  0  0  0  0
  -28.7101  -17.3468   20.5786 C   0  0  0  0  0  0
  -29.4788  -20.8991   19.4289 C   0  0  0  0  0  0
  -31.6578  -23.6702   19.3037 C   0  0  0  0  0  0
  -29.3882  -24.3637   20.2554 C   0  0  0  0  0  0
  -32.0517  -24.8182   18.3817 C   0  0  0  0  0  0
  -28.5869  -25.4552   19.4847 C   0  0  0  0  0  0
  -30.1632  -23.3033   19.4229 C   0  0  2  0  0  0
  -30.0276  -15.4347   21.2245 N   0  0  0  0  0  0
  -30.0694  -21.9483   20.0153 N   0  0  0  0  0  0
  -28.7616  -21.0251   18.4376 O   0  0  0  0  0  0
  -32.5500  -23.0656   19.9110 O   0  0  0  0  0  0
  -29.4206  -24.3686   21.4965 O   0  0  0  0  0  0
  -27.6254  -16.5538   20.6927 F   0  0  0  0  0  0
  -31.4718  -12.4124   19.1166 H   0  0  0  0  0  0
  -30.3250  -11.2961   19.8016 H   0  0  0  0  0  0
  -29.7349  -11.8259   17.4105 H   0  0  0  0  0  0
  -29.6601  -13.5273   17.7946 H   0  0  0  0  0  0
  -27.8236  -11.3247   18.8024 H   0  0  0  0  0  0
  -27.3677  -12.6710   17.7924 H   0  0  0  0  0  0
  -27.7065  -14.2614   19.5948 H   0  0  0  0  0  0
  -28.6820  -11.9387   21.3334 H   0  0  0  0  0  0
  -28.4625  -13.5686   21.8870 H   0  0  0  0  0  0
  -25.2734   -9.5685   22.4753 H   0  0  0  0  0  0
  -23.9989   -7.4600   22.7456 H   0  0  0  0  0  0
  -21.0792   -8.8759   19.8945 H   0  0  0  0  0  0
  -22.3663  -10.9644   19.6139 H   0  0  0  0  0  0
  -21.1988   -7.6136   23.9715 H   0  0  0  0  0  0
  -21.1484   -6.0507   25.9091 H   0  0  0  0  0  0
  -22.0602   -2.7587   23.2821 H   0  0  0  0  0  0
  -22.4029  -11.9826   22.4795 H   0  0  0  0  0  0
  -21.1083  -13.1264   22.2683 H   0  0  0  0  0  0
  -24.6286  -15.8221   20.5568 H   0  0  0  0  0  0
  -26.2921  -15.6484   20.2941 H   0  0  0  0  0  0
  -26.7119  -32.5513   23.1129 H   0  0  0  0  0  0
  -25.0104  -33.9752   25.0492 H   0  0  0  0  0  0
  -22.6953  -31.3026   21.4053 H   0  0  0  0  0  0
  -23.3771  -35.9622   23.3264 H   0  0  0  0  0  0
  -24.3611  -36.8954   22.2069 H   0  0  0  0  0  0
  -23.7250  -37.6497   23.6669 H   0  0  0  0  0  0
  -26.0425  -31.5916   20.5942 H   0  0  0  0  0  0
  -26.8223  -30.8777   21.9790 H   0  0  0  0  0  0
  -28.1013  -29.0948   21.1706 H   0  0  0  0  0  0
  -26.0662  -25.9656   19.0013 H   0  0  0  0  0  0
  -23.9920  -27.2715   19.0426 H   0  0  0  0  0  0
  -23.7189  -30.5834   19.4003 H   0  0  0  0  0  0
  -22.7386  -29.2262   19.8791 H   0  0  0  0  0  0
  -25.1286  -36.1918   25.0832 H   0  0  0  0  0  0
  -20.9961  -28.3240   24.1461 H   0  0  0  0  0  0
  -20.5655  -26.2260   23.3627 H   0  0  0  0  0  0
  -21.6610  -26.7449   22.1246 H   0  0  0  0  0  0
  -19.6918  -25.6299   21.1267 H   0  0  0  0  0  0
  -19.6759  -27.3184   20.6765 H   0  0  0  0  0  0
  -17.4214  -26.6757   21.3963 H   0  0  0  0  0  0
  -18.0255  -26.0100   22.8986 H   0  0  0  0  0  0
  -19.7910  -30.7259   24.2305 H   0  0  0  0  0  0
  -17.4993  -31.6300   24.5151 H   0  0  0  0  0  0
  -15.5315  -30.2991   23.7683 H   0  0  0  0  0  0
  -15.8650  -28.0863   22.7019 H   0  0  0  0  0  0
  -24.5989  -30.6996   25.7840 H   0  0  0  0  0  0
  -24.8922  -32.2840   26.4887 H   0  0  0  0  0  0
  -25.8166  -30.8933   27.0236 H   0  0  0  0  0  0
  -26.2803  -29.6760   24.1219 H   0  0  0  0  0  0
  -27.4114  -29.7277   25.4557 H   0  0  0  0  0  0
  -27.8638  -30.4291   23.9178 H   0  0  0  0  0  0
  -27.2760  -33.3586   26.2076 H   0  0  0  0  0  0
  -28.3888  -32.6878   25.0249 H   0  0  0  0  0  0
  -28.0806  -31.8377   26.5318 H   0  0  0  0  0  0
  -28.2569  -38.0115   24.7519 H   0  0  0  0  0  0
  -28.1116  -36.2638   24.6197 H   0  0  0  0  0  0
  -27.2321  -37.1353   25.8854 H   0  0  0  0  0  0
  -20.9278  -29.8721   21.6955 H   0  0  0  0  0  0
  -26.0167  -38.2837   24.1473 H   0  0  0  0  0  0
  -31.8361  -19.6310   20.2397 H   0  0  0  0  0  0
  -32.0991  -17.2765   20.9821 H   0  0  0  0  0  0
  -27.5707  -19.0449   19.9133 H   0  0  0  0  0  0
  -31.4318  -24.8247   17.4864 H   0  0  0  0  0  0
  -33.0926  -24.7184   18.0744 H   0  0  0  0  0  0
  -31.9415  -25.7711   18.8994 H   0  0  0  0  0  0
  -27.8325  -25.1083   20.1904 H   0  0  0  0  0  0
  -29.6159  -25.8123   19.4431 H   0  0  0  0  0  0
  -29.7489  -23.3039   18.4124 H   0  0  0  0  0  0
  -29.1523  -15.0924   21.5912 H   0  0  0  0  0  0
  -30.6291  -21.7830   20.8388 H   0  0  0  0  0  0
  1 25  1  0  0  0
  1 30  2  0  0  0
  1 83  1  0  0  0
  2  3  1  0  0  0
  2 25  1  0  0  0
  2 89  1  0  0  0
  2 90  1  0  0  0
  3  4  1  0  0  0
  3 91  1  0  0  0
  3 92  1  0  0  0
  4  5  1  0  0  0
  4 93  1  0  0  0
  4 94  1  0  0  0
  5  6  1  0  0  0
  5 26  1  0  0  0
  5 95  1  0  0  0
  6 25  1  0  0  0
  6 96  1  0  0  0
  6 97  1  0  0  0
  7  8  2  0  0  0
  7 26  1  0  0  0
  7 29  1  0  0  0
  8  9  1  0  0  0
  8 22  1  0  0  0
  9 10  1  0  0  0
  9 27  2  0  0  0
 10 11  2  0  0  0
 10 15  1  0  0  0
 11 12  1  0  0  0
 11 98  1  0  0  0
 12 13  2  0  0  0
 12 99  1  0  0  0
 13 14  1  0  0  0
 13 31  1  0  0  0
 14 15  2  0  0  0
 14100  1  0  0  0
 15101  1  0  0  0
 16 17  2  0  0  0
 16 21  1  0  0  0
 16 31  1  0  0  0
 17 18  1  0  0  0
 17102  1  0  0  0
 18 19  2  0  0  0
 18103  1  0  0  0
 19 20  1  0  0  0
 19 24  1  0  0  0
 20 21  2  0  0  0
 20104  1  0  0  0
 21 23  1  0  0  0
 22 28  1  0  0  0
 22 32  2  0  0  0
 26 27  1  0  0  0
 28105  1  0  0  0
 28106  1  0  0  0
 29107  1  0  0  0
 29108  1  0  0  0
 33 34  1  0  0  0
 33 66  1  0  0  0
 33 70  2  0  0  0
 34 36  1  0  0  0
 34 59  1  0  0  0
 34109  1  0  0  0
 35 44  2  0  0  0
 35 45  1  0  0  0
 35 68  1  0  0  0
 36 56  1  0  0  0
 36110  1  0  0  0
 37 39  1  0  0  0
 37 47  1  0  0  0
 37 66  1  0  0  0
 37111  1  0  0  0
 38 43  2  0  0  0
 38 46  1  0  0  0
 38 47  1  0  0  0
 39 64  1  0  0  0
 39 67  2  0  0  0
 40 52  1  0  0  0
 40 53  2  0  0  0
 40 58  1  0  0  0
 41112  1  0  0  0
 41113  1  0  0  0
 41114  1  0  0  0
 41 48  1  0  0  0
 42 43  1  0  0  0
 42 66  1  0  0  0
 42115  1  0  0  0
 42116  1  0  0  0
 43 44  1  0  0  0
 44117  1  0  0  0
 45 46  2  0  0  0
 45118  1  0  0  0
 46119  1  0  0  0
 47120  1  0  0  0
 47121  1  0  0  0
 48 56  1  0  0  0
 48 65  1  0  0  0
 48122  1  0  0  0
 49 50  1  0  0  0
 49 53  1  0  0  0
 49 64  1  0  0  0
 49123  1  0  0  0
 50 51  1  0  0  0
 50124  1  0  0  0
 50125  1  0  0  0
 51 52  1  0  0  0
 51126  1  0  0  0
 51127  1  0  0  0
 52128  1  0  0  0
 52129  1  0  0  0
 53 54  1  0  0  0
 54 55  2  0  0  0
 54130  1  0  0  0
 55 57  1  0  0  0
 55131  1  0  0  0
 56 69  2  0  0  0
 57 58  2  0  0  0
 57132  1  0  0  0
 58133  1  0  0  0
 59 60  1  0  0  0
 59 61  1  0  0  0
 59 62  1  0  0  0
 60134  1  0  0  0
 60135  1  0  0  0
 60136  1  0  0  0
 61137  1  0  0  0
 61138  1  0  0  0
 61139  1  0  0  0
 62140  1  0  0  0
 62141  1  0  0  0
 62142  1  0  0  0
 63 65  1  0  0  0
 63143  1  0  0  0
 63144  1  0  0  0
 63145  1  0  0  0
 64146  1  0  0  0
 65147  1  0  0  0
 68 81  1  0  0  0
 71 72  2  0  0  0
 71 74  1  0  0  0
 71148  1  0  0  0
 72 75  1  0  0  0
 72149  1  0  0  0
 73 74  2  0  0  0
 73 76  1  0  0  0
 73150  1  0  0  0
 74 77  1  0  0  0
 75 76  2  0  0  0
 75 83  1  0  0  0
 76 88  1  0  0  0
 77 84  1  0  0  0
 77 85  2  0  0  0
 78 80  1  0  0  0
 78 82  1  0  0  0
 78 86  2  0  0  0
 79 81  1  0  0  0
 79 82  1  0  0  0
 79 87  2  0  0  0
 80151  1  0  0  0
 80152  1  0  0  0
 80153  1  0  0  0
 81154  1  0  0  0
 81155  1  0  0  0
 82 84  1  0  0  0
 82156  1  0  0  0
 83157  1  0  0  0
 84158  1  0  0  0
M  ISO  4   1 100  68 101  81 101  83 100
M  END
> <chiral flag>
0

> <version>
0

> <s_m_source_file>
/data/baiqing/PycharmProjects/Reinvent-master-3.2/result/LINK_invent/BTK/process_docking_weight1_custom_product_contain_oxygen_bond_distance_aromatic_linkinvent_7_9_3/rearranged_h_0082.sdf

> <i_m_source_file_index>
31

> <r_mmod_Potential_Energy-OPLS-2005>
-91.5062637329102

> <r_mmod_Stretch_Energy-OPLS-2005>
41.752498626709

> <r_mmod_Bend_Energy-OPLS-2005>
314.777160644531

> <r_mmod_Torsional_Energy-OPLS-2005>
211.758178710938

> <r_mmod_Improper_Torsional_Energy-OPLS-2005>
6.56951475143433

> <r_mmod_Van_der_Waal_Energy-OPLS-2005>
159.639709472656

> <r_mmod_Electrostatic_Energy-OPLS-2005>
-594.597045898438

> <r_mmod_Solvation_Energy-OPLS-2005>
-244.17414855957

> <b_mmod_Minimization_Converged-OPLS-2005>
0

> <r_mmod_RMS_Derivative-OPLS-2005>
2.90389966964722

$$$$
31
                    3D
 Structure written by MMmdl.
147156  0  0  1  0            999 V2000
  -30.3974  -15.2854   20.3688 C   0  0  0  0  0  0
  -30.4483  -12.8198   19.5265 C   0  0  0  0  0  0
  -29.5414  -12.5843   18.2901 C   0  0  0  0  0  0
  -28.0893  -12.3025   18.7161 C   0  0  0  0  0  0
  -27.6153  -13.2726   19.8259 C   0  0  2  0  0  0
  -28.6494  -13.4349   20.9609 C   0  0  0  0  0  0
  -25.2405  -13.8240   20.5736 C   0  0  0  0  0  0
  -24.1756  -13.0435   20.9262 C   0  0  0  0  0  0
  -24.6406  -11.6930   20.8763 C   0  0  0  0  0  0
  -23.9097  -10.4292   21.0407 C   0  0  0  0  0  0
  -24.3639   -9.4204   21.9185 C   0  0  0  0  0  0
  -23.6304   -8.2243   22.0755 C   0  0  0  0  0  0
  -22.4286   -8.0285   21.3545 C   0  0  0  0  0  0
  -21.9929   -9.0261   20.4646 C   0  0  0  0  0  0
  -22.7267  -10.2135   20.3056 C   0  0  0  0  0  0
  -21.6856   -6.0739   22.5279 C   0  0  0  0  0  0
  -21.4016   -6.5642   23.8212 C   0  0  0  0  0  0
  -21.3660   -5.6794   24.9174 C   0  0  0  0  0  0
  -21.6044   -4.3057   24.7224 C   0  0  0  0  0  0
  -21.8819   -3.8149   23.4345 C   0  0  0  0  0  0
  -21.9194   -4.6966   22.3401 C   0  0  0  0  0  0
  -22.7773  -13.5189   21.1905 C   0  0  0  0  0  0
  -22.1662   -4.2151   21.0979 F   0  0  0  0  0  0
  -21.5627   -3.4540   25.7736 F   0  0  0  0  0  0
  -29.8804  -13.9560   20.3416 N   0  0  0  0  0  0
  -26.2833  -12.9509   20.3214 N   0  0  0  0  0  0
  -25.9343  -11.6617   20.5717 N   0  0  0  0  0  0
  -22.0427  -12.8171   22.0456 N   0  0  0  0  0  0
  -25.4025  -15.1975   20.4139 N   0  0  0  0  0  0
  -31.6155  -15.3328   20.1372 O   0  0  0  0  0  0
  -21.6645   -6.8884   21.4242 O   0  0  0  0  0  0
  -22.3453  -14.5491   20.6743 O   0  0  0  0  0  0
  -24.6646  -31.8218   23.1691 C   0  0  0  0  0  0
  -25.9318  -32.4579   23.8162 C   0  0  1  0  0  0
  -27.2217  -26.9117   20.1859 C   0  0  0  0  0  0
  -25.5978  -33.8394   24.2065 N   0  0  0  0  0  0
  -23.4803  -30.4326   21.5189 C   0  0  2  0  0  0
  -24.9345  -28.8163   20.1138 C   0  0  0  0  0  0
  -22.7675  -29.4431   22.4779 C   0  0  0  0  0  0
  -18.0324  -28.1409   22.8466 C   0  0  0  0  0  0
  -24.1494  -36.7204   23.2649 C   0  0  0  0  0  0
  -26.0506  -30.6232   21.4020 C   0  0  0  0  0  0
  -26.1192  -29.2111   20.7473 C   0  0  0  0  0  0
  -27.2566  -28.2811   20.7568 C   0  0  0  0  0  0
  -26.0059  -26.6746   19.5031 C   0  0  0  0  0  0
  -24.9044  -27.5688   19.4711 C   0  0  0  0  0  0
  -23.7214  -29.7462   20.1463 C   0  0  0  0  0  0
  -25.4137  -36.2963   24.0298 C   0  0  1  0  0  0
  -20.5949  -28.3755   23.1184 C   0  0  2  0  0  0
  -20.6799  -26.9435   22.5400 C   0  0  0  0  0  0
  -19.5772  -26.6376   21.5213 C   0  0  0  0  0  0
  -18.1956  -26.7941   22.1623 C   0  0  0  0  0  0
  -19.1585  -28.8903   23.2812 C   0  0  0  0  0  0
  -18.9495  -30.1493   23.8848 C   0  0  0  0  0  0
  -17.6488  -30.6598   24.0554 C   0  0  0  0  0  0
  -25.9101  -34.9345   23.5005 C   0  0  0  0  0  0
  -16.5378  -29.9084   23.6344 C   0  0  0  0  0  0
  -16.7305  -28.6504   23.0363 C   0  0  0  0  0  0
  -26.4563  -31.6533   25.0699 C   0  0  0  0  0  0
  -25.3683  -31.3785   26.1350 C   0  0  0  0  0  0
  -27.0469  -30.2899   24.6448 C   0  0  0  0  0  0
  -27.6047  -32.4350   25.7507 C   0  0  0  0  0  0
  -27.5567  -37.1765   24.8470 C   0  0  0  0  0  0
  -21.4343  -29.3042   22.3530 N   0  0  0  0  0  0
  -26.4283  -37.3698   23.9401 N   0  0  0  0  0  0
  -24.7534  -30.9865   22.0836 N   0  0  0  0  0  0
  -23.4214  -28.8004   23.3030 O   0  0  0  0  0  0
  -28.2249  -25.7998   20.2606 O   0  0  0  0  0  0
  -26.5715  -34.8884   22.4603 O   0  0  0  0  0  0
  -23.5711  -32.1196   23.6773 O   0  0  0  0  0  0
  -27.8248  -20.2705   20.5002 C   0  0  0  0  0  0
  -28.1330  -18.8131   20.5366 C   0  0  0  0  0  0
  -30.3906  -19.2248   20.2213 C   0  0  0  0  0  0
  -28.8044  -21.3215   20.3241 C   0  0  0  0  0  0
  -29.4245  -18.1228   20.4042 C   0  0  0  0  0  0
  -30.0676  -20.6941   20.1921 C   0  0  0  0  0  0
  -30.2766  -23.0364   19.9994 C   0  0  0  0  0  0
  -27.8848  -24.2165   20.1038 C   0  0  0  0  0  0
  -28.8965  -22.8997   20.2423 N   0  0  0  0  0  0
  -29.5334  -16.4912   20.4774 N   0  0  0  0  0  0
  -30.8818  -24.0886   19.7832 O   0  0  0  0  0  0
  -30.9185  -21.7606   20.0117 O   0  0  0  0  0  0
  -31.4631  -13.0415   19.1932 H   0  0  0  0  0  0
  -30.5295  -11.9124   20.1273 H   0  0  0  0  0  0
  -29.9239  -11.7592   17.6879 H   0  0  0  0  0  0
  -29.5669  -13.4681   17.6508 H   0  0  0  0  0  0
  -28.0469  -11.2772   19.0854 H   0  0  0  0  0  0
  -27.4214  -12.3461   17.8549 H   0  0  0  0  0  0
  -27.5332  -14.2418   19.3328 H   0  0  0  0  0  0
  -28.8210  -12.4927   21.4833 H   0  0  0  0  0  0
  -28.2854  -14.1409   21.7089 H   0  0  0  0  0  0
  -25.2780   -9.5678   22.4767 H   0  0  0  0  0  0
  -24.0008   -7.4635   22.7478 H   0  0  0  0  0  0
  -21.0859   -8.8786   19.8952 H   0  0  0  0  0  0
  -22.3727  -10.9677   19.6168 H   0  0  0  0  0  0
  -21.2011   -7.6150   23.9716 H   0  0  0  0  0  0
  -21.1481   -6.0524   25.9077 H   0  0  0  0  0  0
  -22.0597   -2.7611   23.2845 H   0  0  0  0  0  0
  -22.4059  -11.9841   22.4848 H   0  0  0  0  0  0
  -21.1038  -13.1178   22.2656 H   0  0  0  0  0  0
  -24.6221  -15.8380   20.5109 H   0  0  0  0  0  0
  -26.2204  -15.6317   20.0086 H   0  0  0  0  0  0
  -26.7389  -32.5114   23.0878 H   0  0  0  0  0  0
  -25.0067  -33.9469   25.0176 H   0  0  0  0  0  0
  -22.7945  -31.2647   21.3461 H   0  0  0  0  0  0
  -23.3763  -35.9528   23.3293 H   0  0  0  0  0  0
  -24.3565  -36.8869   22.2066 H   0  0  0  0  0  0
  -23.7249  -37.6386   23.6718 H   0  0  0  0  0  0
  -26.2320  -31.3633   20.6215 H   0  0  0  0  0  0
  -26.9102  -30.6814   22.0578 H   0  0  0  0  0  0
  -28.1532  -28.5832   21.2797 H   0  0  0  0  0  0
  -25.8666  -25.7260   19.0070 H   0  0  0  0  0  0
  -24.0052  -27.2604   18.9556 H   0  0  0  0  0  0
  -23.8788  -30.5136   19.3875 H   0  0  0  0  0  0
  -22.8309  -29.2014   19.8282 H   0  0  0  0  0  0
  -25.1339  -36.1760   25.0790 H   0  0  0  0  0  0
  -21.0036  -28.3364   24.1308 H   0  0  0  0  0  0
  -20.5678  -26.2375   23.3643 H   0  0  0  0  0  0
  -21.6663  -26.7408   22.1208 H   0  0  0  0  0  0
  -19.6931  -25.6274   21.1276 H   0  0  0  0  0  0
  -19.6710  -27.3159   20.6721 H   0  0  0  0  0  0
  -17.4223  -26.6681   21.4030 H   0  0  0  0  0  0
  -18.0353  -26.0095   22.9032 H   0  0  0  0  0  0
  -19.7970  -30.7322   24.2196 H   0  0  0  0  0  0
  -17.5038  -31.6273   24.5165 H   0  0  0  0  0  0
  -15.5376  -30.2969   23.7695 H   0  0  0  0  0  0
  -15.8707  -28.0805   22.7107 H   0  0  0  0  0  0
  -24.5885  -30.7115   25.7655 H   0  0  0  0  0  0
  -24.8851  -32.2985   26.4647 H   0  0  0  0  0  0
  -25.7910  -30.9036   27.0213 H   0  0  0  0  0  0
  -26.3144  -29.6565   24.1432 H   0  0  0  0  0  0
  -27.3972  -29.7275   25.5113 H   0  0  0  0  0  0
  -27.9094  -30.4078   23.9886 H   0  0  0  0  0  0
  -27.2607  -33.3694   26.1953 H   0  0  0  0  0  0
  -28.3928  -32.6841   25.0389 H   0  0  0  0  0  0
  -28.0638  -31.8566   26.5534 H   0  0  0  0  0  0
  -28.2580  -38.0062   24.7492 H   0  0  0  0  0  0
  -28.1066  -36.2586   24.6334 H   0  0  0  0  0  0
  -27.2275  -37.1450   25.8872 H   0  0  0  0  0  0
  -20.9602  -29.8727   21.6651 H   0  0  0  0  0  0
  -26.0131  -38.2760   24.1391 H   0  0  0  0  0  0
  -26.7922  -20.5655   20.6202 H   0  0  0  0  0  0
  -27.2737  -18.1739   20.6826 H   0  0  0  0  0  0
  -31.4283  -18.9521   20.0968 H   0  0  0  0  0  0
  -27.0739  -24.0197   20.8059 H   0  0  0  0  0  0
  -27.4551  -24.1100   19.1077 H   0  0  0  0  0  0
  -28.6111  -16.1184   20.6436 H   0  0  0  0  0  0
  1 25  1  0  0  0
  1 30  2  0  0  0
  1 80  1  0  0  0
  2  3  1  0  0  0
  2 25  1  0  0  0
  2 83  1  0  0  0
  2 84  1  0  0  0
  3  4  1  0  0  0
  3 85  1  0  0  0
  3 86  1  0  0  0
  4  5  1  0  0  0
  4 87  1  0  0  0
  4 88  1  0  0  0
  5  6  1  0  0  0
  5 26  1  0  0  0
  5 89  1  0  0  0
  6 25  1  0  0  0
  6 90  1  0  0  0
  6 91  1  0  0  0
  7  8  2  0  0  0
  7 26  1  0  0  0
  7 29  1  0  0  0
  8  9  1  0  0  0
  8 22  1  0  0  0
  9 10  1  0  0  0
  9 27  2  0  0  0
 10 11  2  0  0  0
 10 15  1  0  0  0
 11 12  1  0  0  0
 11 92  1  0  0  0
 12 13  2  0  0  0
 12 93  1  0  0  0
 13 14  1  0  0  0
 13 31  1  0  0  0
 14 15  2  0  0  0
 14 94  1  0  0  0
 15 95  1  0  0  0
 16 17  2  0  0  0
 16 21  1  0  0  0
 16 31  1  0  0  0
 17 18  1  0  0  0
 17 96  1  0  0  0
 18 19  2  0  0  0
 18 97  1  0  0  0
 19 20  1  0  0  0
 19 24  1  0  0  0
 20 21  2  0  0  0
 20 98  1  0  0  0
 21 23  1  0  0  0
 22 28  1  0  0  0
 22 32  2  0  0  0
 26 27  1  0  0  0
 28 99  1  0  0  0
 28100  1  0  0  0
 29101  1  0  0  0
 29102  1  0  0  0
 33 34  1  0  0  0
 33 66  1  0  0  0
 33 70  2  0  0  0
 34 36  1  0  0  0
 34 59  1  0  0  0
 34103  1  0  0  0
 35 44  2  0  0  0
 35 45  1  0  0  0
 35 68  1  0  0  0
 36 56  1  0  0  0
 36104  1  0  0  0
 37 39  1  0  0  0
 37 47  1  0  0  0
 37 66  1  0  0  0
 37105  1  0  0  0
 38 43  2  0  0  0
 38 46  1  0  0  0
 38 47  1  0  0  0
 39 64  1  0  0  0
 39 67  2  0  0  0
 40 52  1  0  0  0
 40 53  2  0  0  0
 40 58  1  0  0  0
 41106  1  0  0  0
 41107  1  0  0  0
 41108  1  0  0  0
 41 48  1  0  0  0
 42 43  1  0  0  0
 42 66  1  0  0  0
 42109  1  0  0  0
 42110  1  0  0  0
 43 44  1  0  0  0
 44111  1  0  0  0
 45 46  2  0  0  0
 45112  1  0  0  0
 46113  1  0  0  0
 47114  1  0  0  0
 47115  1  0  0  0
 48 56  1  0  0  0
 48 65  1  0  0  0
 48116  1  0  0  0
 49 50  1  0  0  0
 49 53  1  0  0  0
 49 64  1  0  0  0
 49117  1  0  0  0
 50 51  1  0  0  0
 50118  1  0  0  0
 50119  1  0  0  0
 51 52  1  0  0  0
 51120  1  0  0  0
 51121  1  0  0  0
 52122  1  0  0  0
 52123  1  0  0  0
 53 54  1  0  0  0
 54 55  2  0  0  0
 54124  1  0  0  0
 55 57  1  0  0  0
 55125  1  0  0  0
 56 69  2  0  0  0
 57 58  2  0  0  0
 57126  1  0  0  0
 58127  1  0  0  0
 59 60  1  0  0  0
 59 61  1  0  0  0
 59 62  1  0  0  0
 60128  1  0  0  0
 60129  1  0  0  0
 60130  1  0  0  0
 61131  1  0  0  0
 61132  1  0  0  0
 61133  1  0  0  0
 62134  1  0  0  0
 62135  1  0  0  0
 62136  1  0  0  0
 63 65  1  0  0  0
 63137  1  0  0  0
 63138  1  0  0  0
 63139  1  0  0  0
 64140  1  0  0  0
 65141  1  0  0  0
 68 78  1  0  0  0
 71 72  2  0  0  0
 71 74  1  0  0  0
 71142  1  0  0  0
 72 75  1  0  0  0
 72143  1  0  0  0
 73 75  2  0  0  0
 73 76  1  0  0  0
 73144  1  0  0  0
 74 76  2  0  0  0
 74 79  1  0  0  0
 75 80  1  0  0  0
 76 82  1  0  0  0
 77 79  1  0  0  0
 77 81  2  0  0  0
 77 82  1  0  0  0
 78 79  1  0  0  0
 78145  1  0  0  0
 78146  1  0  0  0
 80147  1  0  0  0
M  ISO  4   1 100  68 101  78 101  80 100
M  END
> <chiral flag>
0

> <version>
0

> <s_m_source_file>
/data/baiqing/PycharmProjects/Reinvent-master-3.2/result/LINK_invent/BTK/process_docking_weight1_custom_product_contain_oxygen_bond_distance_aromatic_linkinvent_7_9_3/rearranged_h_0082.sdf

> <i_m_source_file_index>
32

> <r_mmod_Potential_Energy-OPLS-2005>
1254.75109863281

> <r_mmod_Stretch_Energy-OPLS-2005>
526.913696289062

> <r_mmod_Bend_Energy-OPLS-2005>
514.026550292969

> <r_mmod_Torsional_Energy-OPLS-2005>
203.084091186523

> <r_mmod_Improper_Torsional_Energy-OPLS-2005>
4.15040397644043

> <r_mmod_Van_der_Waal_Energy-OPLS-2005>
121.236923217773

> <r_mmod_Electrostatic_Energy-OPLS-2005>
-349.875701904297

> <r_mmod_Solvation_Energy-OPLS-2005>
-247.762130737305

> <b_mmod_Minimization_Converged-OPLS-2005>
0

> <r_mmod_RMS_Derivative-OPLS-2005>
0.120414800941944

$$$$
32
                    3D
 Structure written by MMmdl.
157166  0  0  1  0            999 V2000
  -30.5104  -15.0769   20.3657 C   0  0  0  0  0  0
  -30.4688  -12.6685   19.5044 C   0  0  0  0  0  0
  -29.5511  -12.4447   18.2761 C   0  0  0  0  0  0
  -28.0784  -12.2650   18.7014 C   0  0  0  0  0  0
  -27.6314  -13.2305   19.8302 C   0  0  2  0  0  0
  -28.6815  -13.3557   20.9548 C   0  0  0  0  0  0
  -25.2534  -13.8165   20.5770 C   0  0  0  0  0  0
  -24.1800  -13.0428   20.9217 C   0  0  0  0  0  0
  -24.6399  -11.6898   20.8752 C   0  0  0  0  0  0
  -23.9049  -10.4292   21.0405 C   0  0  0  0  0  0
  -24.3614   -9.4221   21.9178 C   0  0  0  0  0  0
  -23.6300   -8.2255   22.0763 C   0  0  0  0  0  0
  -22.4282   -8.0288   21.3555 C   0  0  0  0  0  0
  -21.9897   -9.0261   20.4663 C   0  0  0  0  0  0
  -22.7219  -10.2142   20.3064 C   0  0  0  0  0  0
  -21.6865   -6.0760   22.5308 C   0  0  0  0  0  0
  -21.4028   -6.5652   23.8246 C   0  0  0  0  0  0
  -21.3648   -5.6793   24.9194 C   0  0  0  0  0  0
  -21.6032   -4.3053   24.7238 C   0  0  0  0  0  0
  -21.8828   -3.8158   23.4356 C   0  0  0  0  0  0
  -21.9196   -4.6984   22.3420 C   0  0  0  0  0  0
  -22.7820  -13.5230   21.1827 C   0  0  0  0  0  0
  -22.1658   -4.2170   21.0989 F   0  0  0  0  0  0
  -21.5596   -3.4536   25.7744 F   0  0  0  0  0  0
  -29.9281  -13.7990   20.3165 N   0  0  0  0  0  0
  -26.2945  -12.9350   20.3302 N   0  0  0  0  0  0
  -25.9335  -11.6503   20.5787 N   0  0  0  0  0  0
  -22.0435  -12.8265   22.0387 N   0  0  0  0  0  0
  -25.4197  -15.1899   20.4250 N   0  0  0  0  0  0
  -31.7439  -15.1029   20.2746 O   0  0  0  0  0  0
  -21.6634   -6.8902   21.4270 O   0  0  0  0  0  0
  -22.3505  -14.5532   20.6641 O   0  0  0  0  0  0
  -24.6453  -31.8428   23.1877 C   0  0  0  0  0  0
  -25.9230  -32.4675   23.8263 C   0  0  1  0  0  0
  -27.2138  -27.1039   20.1681 C   0  0  0  0  0  0
  -25.5984  -33.8481   24.2188 N   0  0  0  0  0  0
  -23.4513  -30.4624   21.5317 C   0  0  2  0  0  0
  -24.9103  -28.8969   20.1005 C   0  0  0  0  0  0
  -22.7593  -29.4530   22.4821 C   0  0  0  0  0  0
  -18.0326  -28.1386   22.8488 C   0  0  0  0  0  0
  -24.1513  -36.7235   23.2635 C   0  0  0  0  0  0
  -26.0102  -30.7035   21.3999 C   0  0  0  0  0  0
  -26.0836  -29.3129   20.7449 C   0  0  0  0  0  0
  -27.2345  -28.4285   20.7757 C   0  0  0  0  0  0
  -26.0383  -26.8360   19.4268 C   0  0  0  0  0  0
  -24.9047  -27.6731   19.4202 C   0  0  0  0  0  0
  -23.6841  -29.7976   20.1479 C   0  0  0  0  0  0
  -25.4139  -36.3010   24.0311 C   0  0  1  0  0  0
  -20.5947  -28.3715   23.1233 C   0  0  2  0  0  0
  -20.6818  -26.9413   22.5411 C   0  0  0  0  0  0
  -19.5782  -26.6364   21.5230 C   0  0  0  0  0  0
  -18.1965  -26.7922   22.1644 C   0  0  0  0  0  0
  -19.1585  -28.8868   23.2860 C   0  0  0  0  0  0
  -18.9498  -30.1467   23.8876 C   0  0  0  0  0  0
  -17.6493  -30.6586   24.0551 C   0  0  0  0  0  0
  -25.9092  -34.9390   23.5057 C   0  0  0  0  0  0
  -16.5385  -29.9078   23.6324 C   0  0  0  0  0  0
  -16.7313  -28.6495   23.0358 C   0  0  0  0  0  0
  -26.4562  -31.6516   25.0689 C   0  0  0  0  0  0
  -25.3751  -31.3685   26.1381 C   0  0  0  0  0  0
  -27.0411  -30.2904   24.6252 C   0  0  0  0  0  0
  -27.6098  -32.4269   25.7470 C   0  0  0  0  0  0
  -27.5588  -37.1770   24.8464 C   0  0  0  0  0  0
  -21.4283  -29.3034   22.3589 N   0  0  0  0  0  0
  -26.4293  -37.3730   23.9414 N   0  0  0  0  0  0
  -24.7210  -31.0257   22.0932 N   0  0  0  0  0  0
  -23.4236  -28.8089   23.2980 O   0  0  0  0  0  0
  -28.1741  -26.0115   20.2873 O   0  0  0  0  0  0
  -26.5674  -34.8890   22.4629 O   0  0  0  0  0  0
  -23.5573  -32.1339   23.7068 O   0  0  0  0  0  0
  -28.4469  -20.0641   19.9588 C   0  0  0  0  0  0
  -28.6132  -18.6266   19.7677 C   0  0  0  0  0  0
  -30.2575  -20.0077   21.4282 C   0  0  0  0  0  0
  -29.2571  -20.8736   20.8158 C   0  0  0  0  0  0
  -29.6179  -17.7570   20.3649 C   0  0  0  0  0  0
  -30.4314  -18.5602   21.2388 C   0  0  0  0  0  0
  -28.7476  -22.1863   22.5943 C   0  0  0  0  0  0
  -27.4342  -22.2368   22.8445 C   0  0  0  0  0  0
  -26.8200  -22.7245   21.6497 C   0  0  0  0  0  0
  -27.9288  -23.2879   20.8994 C   0  0  0  0  0  0
  -25.5118  -22.7066   21.3371 C   0  0  0  0  0  0
  -27.6348  -24.6668   20.5738 C   0  0  0  0  0  0
  -29.2677  -16.0878   18.5855 C   0  0  0  0  0  0
  -29.0160  -22.3103   21.2281 N   0  0  0  0  0  0
  -29.7339  -16.2409   19.9777 N   0  0  0  0  0  0
  -26.8228  -22.0041   24.0138 O   0  0  0  0  0  0
  -31.4198  -17.9444   21.9293 F   0  0  0  0  0  0
  -31.4858  -12.8734   19.1667 H   0  0  0  0  0  0
  -30.5299  -11.7675   20.1147 H   0  0  0  0  0  0
  -29.8855  -11.5527   17.7443 H   0  0  0  0  0  0
  -29.6538  -13.2461   17.5485 H   0  0  0  0  0  0
  -27.9785  -11.2375   19.0518 H   0  0  0  0  0  0
  -27.4230  -12.3505   17.8349 H   0  0  0  0  0  0
  -27.5495  -14.1989   19.3523 H   0  0  0  0  0  0
  -28.8290  -12.4167   21.4907 H   0  0  0  0  0  0
  -28.3570  -14.0924   21.6921 H   0  0  0  0  0  0
  -25.2792   -9.5717   22.4704 H   0  0  0  0  0  0
  -24.0029   -7.4676   22.7507 H   0  0  0  0  0  0
  -21.0810   -8.8799   19.8996 H   0  0  0  0  0  0
  -22.3690  -10.9674   19.6161 H   0  0  0  0  0  0
  -21.2039   -7.6162   23.9770 H   0  0  0  0  0  0
  -21.1428   -6.0499   25.9097 H   0  0  0  0  0  0
  -22.0601   -2.7618   23.2850 H   0  0  0  0  0  0
  -22.3985  -11.9971   22.4896 H   0  0  0  0  0  0
  -21.1061  -13.1346   22.2508 H   0  0  0  0  0  0
  -24.6539  -15.8425   20.5621 H   0  0  0  0  0  0
  -26.2782  -15.6441   20.1412 H   0  0  0  0  0  0
  -26.7276  -32.5293   23.0970 H   0  0  0  0  0  0
  -25.0115  -33.9600   25.0330 H   0  0  0  0  0  0
  -22.7543  -31.2889   21.3790 H   0  0  0  0  0  0
  -23.3776  -35.9565   23.3269 H   0  0  0  0  0  0
  -24.3606  -36.8891   22.2054 H   0  0  0  0  0  0
  -23.7270  -37.6420   23.6695 H   0  0  0  0  0  0
  -26.1748  -31.4521   20.6238 H   0  0  0  0  0  0
  -26.8774  -30.7566   22.0444 H   0  0  0  0  0  0
  -28.1103  -28.7297   21.3339 H   0  0  0  0  0  0
  -25.9568  -25.9031   18.8862 H   0  0  0  0  0  0
  -24.0237  -27.3603   18.8771 H   0  0  0  0  0  0
  -23.8200  -30.5772   19.3977 H   0  0  0  0  0  0
  -22.8005  -29.2419   19.8311 H   0  0  0  0  0  0
  -25.1327  -36.1815   25.0799 H   0  0  0  0  0  0
  -21.0069  -28.3316   24.1344 H   0  0  0  0  0  0
  -20.5726  -26.2329   23.3640 H   0  0  0  0  0  0
  -21.6684  -26.7419   22.1206 H   0  0  0  0  0  0
  -19.6948  -25.6269   21.1272 H   0  0  0  0  0  0
  -19.6711  -27.3162   20.6750 H   0  0  0  0  0  0
  -17.4242  -26.6672   21.4042 H   0  0  0  0  0  0
  -18.0360  -26.0068   22.9043 H   0  0  0  0  0  0
  -19.7974  -30.7291   24.2239 H   0  0  0  0  0  0
  -17.5041  -31.6266   24.5153 H   0  0  0  0  0  0
  -15.5381  -30.2972   23.7633 H   0  0  0  0  0  0
  -15.8728  -28.0788   22.7083 H   0  0  0  0  0  0
  -24.5983  -30.6975   25.7694 H   0  0  0  0  0  0
  -24.8890  -32.2853   26.4723 H   0  0  0  0  0  0
  -25.8064  -30.8923   27.0197 H   0  0  0  0  0  0
  -26.3013  -29.6624   24.1274 H   0  0  0  0  0  0
  -27.4042  -29.7189   25.4800 H   0  0  0  0  0  0
  -27.8932  -30.4109   23.9557 H   0  0  0  0  0  0
  -27.2717  -33.3617   26.1942 H   0  0  0  0  0  0
  -28.3972  -32.6723   25.0334 H   0  0  0  0  0  0
  -28.0688  -31.8440   26.5464 H   0  0  0  0  0  0
  -28.2556  -38.0113   24.7554 H   0  0  0  0  0  0
  -28.1138  -36.2640   24.6246 H   0  0  0  0  0  0
  -27.2313  -37.1354   25.8867 H   0  0  0  0  0  0
  -20.9502  -29.8721   21.6744 H   0  0  0  0  0  0
  -26.0145  -38.2782   24.1441 H   0  0  0  0  0  0
  -27.6243  -20.5470   19.4505 H   0  0  0  0  0  0
  -27.8832  -18.1884   19.1074 H   0  0  0  0  0  0
  -30.9313  -20.4689   22.1343 H   0  0  0  0  0  0
  -29.5566  -21.9323   23.2685 H   0  0  0  0  0  0
  -24.7826  -22.2700   22.0003 H   0  0  0  0  0  0
  -25.1535  -23.1182   20.4042 H   0  0  0  0  0  0
  -26.5863  -24.8601   20.7306 H   0  0  0  0  0  0
  -29.5780  -16.9391   17.9781 H   0  0  0  0  0  0
  -28.1826  -16.0312   18.5288 H   0  0  0  0  0  0
  -29.6866  -15.2392   18.0555 H   0  0  0  0  0  0
  -27.4690  -21.6510   24.6118 H   0  0  0  0  0  0
  1 25  1  0  0  0
  1 30  2  0  0  0
  1 85  1  0  0  0
  2  3  1  0  0  0
  2 25  1  0  0  0
  2 88  1  0  0  0
  2 89  1  0  0  0
  3  4  1  0  0  0
  3 90  1  0  0  0
  3 91  1  0  0  0
  4  5  1  0  0  0
  4 92  1  0  0  0
  4 93  1  0  0  0
  5  6  1  0  0  0
  5 26  1  0  0  0
  5 94  1  0  0  0
  6 25  1  0  0  0
  6 95  1  0  0  0
  6 96  1  0  0  0
  7  8  2  0  0  0
  7 26  1  0  0  0
  7 29  1  0  0  0
  8  9  1  0  0  0
  8 22  1  0  0  0
  9 10  1  0  0  0
  9 27  2  0  0  0
 10 11  2  0  0  0
 10 15  1  0  0  0
 11 12  1  0  0  0
 11 97  1  0  0  0
 12 13  2  0  0  0
 12 98  1  0  0  0
 13 14  1  0  0  0
 13 31  1  0  0  0
 14 15  2  0  0  0
 14 99  1  0  0  0
 15100  1  0  0  0
 16 17  2  0  0  0
 16 21  1  0  0  0
 16 31  1  0  0  0
 17 18  1  0  0  0
 17101  1  0  0  0
 18 19  2  0  0  0
 18102  1  0  0  0
 19 20  1  0  0  0
 19 24  1  0  0  0
 20 21  2  0  0  0
 20103  1  0  0  0
 21 23  1  0  0  0
 22 28  1  0  0  0
 22 32  2  0  0  0
 26 27  1  0  0  0
 28104  1  0  0  0
 28105  1  0  0  0
 29106  1  0  0  0
 29107  1  0  0  0
 33 34  1  0  0  0
 33 66  1  0  0  0
 33 70  2  0  0  0
 34 36  1  0  0  0
 34 59  1  0  0  0
 34108  1  0  0  0
 35 44  2  0  0  0
 35 45  1  0  0  0
 35 68  1  0  0  0
 36 56  1  0  0  0
 36109  1  0  0  0
 37 39  1  0  0  0
 37 47  1  0  0  0
 37 66  1  0  0  0
 37110  1  0  0  0
 38 43  2  0  0  0
 38 46  1  0  0  0
 38 47  1  0  0  0
 39 64  1  0  0  0
 39 67  2  0  0  0
 40 52  1  0  0  0
 40 53  2  0  0  0
 40 58  1  0  0  0
 41111  1  0  0  0
 41112  1  0  0  0
 41113  1  0  0  0
 41 48  1  0  0  0
 42 43  1  0  0  0
 42 66  1  0  0  0
 42114  1  0  0  0
 42115  1  0  0  0
 43 44  1  0  0  0
 44116  1  0  0  0
 45 46  2  0  0  0
 45117  1  0  0  0
 46118  1  0  0  0
 47119  1  0  0  0
 47120  1  0  0  0
 48 56  1  0  0  0
 48 65  1  0  0  0
 48121  1  0  0  0
 49 50  1  0  0  0
 49 53  1  0  0  0
 49 64  1  0  0  0
 49122  1  0  0  0
 50 51  1  0  0  0
 50123  1  0  0  0
 50124  1  0  0  0
 51 52  1  0  0  0
 51125  1  0  0  0
 51126  1  0  0  0
 52127  1  0  0  0
 52128  1  0  0  0
 53 54  1  0  0  0
 54 55  2  0  0  0
 54129  1  0  0  0
 55 57  1  0  0  0
 55130  1  0  0  0
 56 69  2  0  0  0
 57 58  2  0  0  0
 57131  1  0  0  0
 58132  1  0  0  0
 59 60  1  0  0  0
 59 61  1  0  0  0
 59 62  1  0  0  0
 60133  1  0  0  0
 60134  1  0  0  0
 60135  1  0  0  0
 61136  1  0  0  0
 61137  1  0  0  0
 61138  1  0  0  0
 62139  1  0  0  0
 62140  1  0  0  0
 62141  1  0  0  0
 63 65  1  0  0  0
 63142  1  0  0  0
 63143  1  0  0  0
 63144  1  0  0  0
 64145  1  0  0  0
 65146  1  0  0  0
 68 82  1  0  0  0
 71 72  2  0  0  0
 71 74  1  0  0  0
 71147  1  0  0  0
 72 75  1  0  0  0
 72148  1  0  0  0
 73 74  2  0  0  0
 73 76  1  0  0  0
 73149  1  0  0  0
 74 84  1  0  0  0
 75 76  2  0  0  0
 75 85  1  0  0  0
 76 87  1  0  0  0
 77 78  2  0  0  0
 77 84  1  0  0  0
 77150  1  0  0  0
 78 79  1  0  0  0
 78 86  1  0  0  0
 79 80  1  0  0  0
 79 81  2  0  0  0
 80 82  2  0  0  0
 80 84  1  0  0  0
 81151  1  0  0  0
 81152  1  0  0  0
 82153  1  0  0  0
 83 85  1  0  0  0
 83154  1  0  0  0
 83155  1  0  0  0
 83156  1  0  0  0
 86157  1  0  0  0
M  ISO  4   1 100  68 101  82 101  85 100
M  END
> <chiral flag>
0

> <version>
0

> <s_m_source_file>
/data/baiqing/PycharmProjects/Reinvent-master-3.2/result/LINK_invent/BTK/process_docking_weight1_custom_product_contain_oxygen_bond_distance_aromatic_linkinvent_7_9_3/rearranged_h_0082.sdf

> <i_m_source_file_index>
33

> <r_mmod_Potential_Energy-OPLS-2005>
1211.13952636719

> <r_mmod_Stretch_Energy-OPLS-2005>
285.283996582031

> <r_mmod_Bend_Energy-OPLS-2005>
586.838806152344

> <r_mmod_Torsional_Energy-OPLS-2005>
433.159027099609

> <r_mmod_Improper_Torsional_Energy-OPLS-2005>
28.195858001709

> <r_mmod_Van_der_Waal_Energy-OPLS-2005>
167.086471557617

> <r_mmod_Electrostatic_Energy-OPLS-2005>
-365.728454589844

> <r_mmod_Solvation_Energy-OPLS-2005>
-209.733413696289

> <b_mmod_Minimization_Converged-OPLS-2005>
0

> <r_mmod_RMS_Derivative-OPLS-2005>
3.33047914505005

$$$$
33
                    3D
 Structure written by MMmdl.
152161  0  0  1  0            999 V2000
  -30.6130  -14.6499   20.5056 C   0  0  0  0  0  0
  -30.4430  -12.3996   19.4520 C   0  0  0  0  0  0
  -29.5094  -12.5124   18.2252 C   0  0  0  0  0  0
  -28.0314  -12.3486   18.6349 C   0  0  0  0  0  0
  -27.6545  -13.2158   19.8655 C   0  0  2  0  0  0
  -28.6994  -13.0623   20.9935 C   0  0  0  0  0  0
  -25.2560  -13.8173   20.5692 C   0  0  0  0  0  0
  -24.1822  -13.0441   20.9192 C   0  0  0  0  0  0
  -24.6388  -11.6913   20.8747 C   0  0  0  0  0  0
  -23.9059  -10.4293   21.0407 C   0  0  0  0  0  0
  -24.3613   -9.4208   21.9180 C   0  0  0  0  0  0
  -23.6294   -8.2245   22.0746 C   0  0  0  0  0  0
  -22.4275   -8.0281   21.3541 C   0  0  0  0  0  0
  -21.9908   -9.0253   20.4641 C   0  0  0  0  0  0
  -22.7235  -10.2134   20.3052 C   0  0  0  0  0  0
  -21.6851   -6.0742   22.5285 C   0  0  0  0  0  0
  -21.4012   -6.5643   23.8220 C   0  0  0  0  0  0
  -21.3659   -5.6792   24.9181 C   0  0  0  0  0  0
  -21.6044   -4.3055   24.7226 C   0  0  0  0  0  0
  -21.8817   -3.8151   23.4345 C   0  0  0  0  0  0
  -21.9189   -4.6971   22.3406 C   0  0  0  0  0  0
  -22.7843  -13.5239   21.1856 C   0  0  0  0  0  0
  -22.1658   -4.2160   21.0981 F   0  0  0  0  0  0
  -21.5627   -3.4535   25.7735 F   0  0  0  0  0  0
  -30.0156  -13.4158   20.4357 N   0  0  0  0  0  0
  -26.2993  -12.9352   20.3326 N   0  0  0  0  0  0
  -25.9315  -11.6509   20.5756 N   0  0  0  0  0  0
  -22.0474  -12.8239   22.0411 N   0  0  0  0  0  0
  -25.4279  -15.1896   20.4115 N   0  0  0  0  0  0
  -31.7676  -14.8244   20.1043 O   0  0  0  0  0  0
  -21.6637   -6.8882   21.4244 O   0  0  0  0  0  0
  -22.3534  -14.5552   20.6710 O   0  0  0  0  0  0
  -24.6299  -31.8600   23.2056 C   0  0  0  0  0  0
  -25.9146  -32.4778   23.8379 C   0  0  1  0  0  0
  -27.2169  -27.2994   20.1109 C   0  0  0  0  0  0
  -25.5966  -33.8578   24.2312 N   0  0  0  0  0  0
  -23.4252  -30.4906   21.5456 C   0  0  2  0  0  0
  -24.8710  -28.9531   20.1073 C   0  0  0  0  0  0
  -22.7501  -29.4653   22.4886 C   0  0  0  0  0  0
  -18.0307  -28.1400   22.8487 C   0  0  0  0  0  0
  -24.1493  -36.7275   23.2635 C   0  0  0  0  0  0
  -25.9716  -30.7843   21.3838 C   0  0  0  0  0  0
  -26.0433  -29.4129   20.7207 C   0  0  0  0  0  0
  -27.2191  -28.5977   20.7168 C   0  0  0  0  0  0
  -26.0185  -26.9159   19.4563 C   0  0  0  0  0  0
  -24.8621  -27.7106   19.4652 C   0  0  0  0  0  0
  -23.6434  -29.8375   20.1575 C   0  0  0  0  0  0
  -25.4111  -36.3077   24.0341 C   0  0  1  0  0  0
  -20.5913  -28.3725   23.1253 C   0  0  2  0  0  0
  -20.6803  -26.9442   22.5393 C   0  0  0  0  0  0
  -19.5776  -26.6394   21.5210 C   0  0  0  0  0  0
  -18.1956  -26.7946   22.1622 C   0  0  0  0  0  0
  -19.1558  -28.8874   23.2873 C   0  0  0  0  0  0
  -18.9480  -30.1468   23.8903 C   0  0  0  0  0  0
  -17.6479  -30.6598   24.0574 C   0  0  0  0  0  0
  -25.9054  -34.9449   23.5116 C   0  0  0  0  0  0
  -16.5370  -29.9101   23.6331 C   0  0  0  0  0  0
  -16.7292  -28.6518   23.0353 C   0  0  0  0  0  0
  -26.4522  -31.6571   25.0735 C   0  0  0  0  0  0
  -25.3753  -31.3714   26.1456 C   0  0  0  0  0  0
  -27.0354  -30.2991   24.6186 C   0  0  0  0  0  0
  -27.6108  -32.4273   25.7488 C   0  0  0  0  0  0
  -27.5590  -37.1785   24.8463 C   0  0  0  0  0  0
  -21.4209  -29.3078   22.3633 N   0  0  0  0  0  0
  -26.4282  -37.3780   23.9433 N   0  0  0  0  0  0
  -24.6945  -31.0610   22.1017 N   0  0  0  0  0  0
  -23.4217  -28.8171   23.2956 O   0  0  0  0  0  0
  -28.3037  -26.3973   20.1762 O   0  0  0  0  0  0
  -26.5598  -34.8920   22.4667 O   0  0  0  0  0  0
  -23.5451  -32.1401   23.7367 O   0  0  0  0  0  0
  -30.8040  -19.3318   20.0734 C   0  0  0  0  0  0
  -28.6562  -19.3138   21.1394 C   0  0  0  0  0  0
  -30.8774  -17.9043   20.1691 C   0  0  0  0  0  0
  -28.7304  -17.8927   21.2391 C   0  0  0  0  0  0
  -29.6951  -20.0937   20.5589 C   0  0  0  0  0  0
  -29.8379  -17.1388   20.7641 C   0  0  0  0  0  0
  -30.2284  -23.7745   20.6108 C   0  0  0  0  0  0
  -28.9380  -23.7751   20.2762 C   0  0  0  0  0  0
  -30.6865  -22.4012   20.7552 C   0  0  0  0  0  0
  -28.5469  -22.3545   20.2089 C   0  0  0  0  0  0
  -27.9677  -24.9628   19.9418 C   0  0  0  0  0  0
  -29.6382  -21.5789   20.4974 N   0  0  0  0  0  0
  -29.7994  -15.6782   20.9094 N   0  0  0  0  0  0
  -31.8284  -22.0433   21.0673 O   0  0  0  0  0  0
  -27.4252  -21.9192   19.9225 O   0  0  0  0  0  0
  -31.4822  -12.5350   19.1474 H   0  0  0  0  0  0
  -30.3891  -11.4014   19.8893 H   0  0  0  0  0  0
  -29.7753  -11.7617   17.4796 H   0  0  0  0  0  0
  -29.6485  -13.4822   17.7448 H   0  0  0  0  0  0
  -27.8665  -11.2947   18.8608 H   0  0  0  0  0  0
  -27.3787  -12.5830   17.7931 H   0  0  0  0  0  0
  -27.6733  -14.2527   19.5298 H   0  0  0  0  0  0
  -28.7115  -12.0355   21.3621 H   0  0  0  0  0  0
  -28.4402  -13.6796   21.8545 H   0  0  0  0  0  0
  -25.2757   -9.5691   22.4757 H   0  0  0  0  0  0
  -24.0006   -7.4632   22.7459 H   0  0  0  0  0  0
  -21.0843   -8.8774   19.8942 H   0  0  0  0  0  0
  -22.3695  -10.9677   19.6166 H   0  0  0  0  0  0
  -21.2005   -7.6150   23.9733 H   0  0  0  0  0  0
  -21.1482   -6.0516   25.9086 H   0  0  0  0  0  0
  -22.0596   -2.7615   23.2838 H   0  0  0  0  0  0
  -22.4080  -11.9901   22.4815 H   0  0  0  0  0  0
  -21.1093  -13.1270   22.2603 H   0  0  0  0  0  0
  -24.6589  -15.8430   20.5148 H   0  0  0  0  0  0
  -26.2767  -15.6301   20.0809 H   0  0  0  0  0  0
  -26.7212  -32.5449   23.1125 H   0  0  0  0  0  0
  -25.0184  -33.9726   25.0507 H   0  0  0  0  0  0
  -22.7216  -31.3136   21.4046 H   0  0  0  0  0  0
  -23.3779  -35.9580   23.3250 H   0  0  0  0  0  0
  -24.3615  -36.8922   22.2061 H   0  0  0  0  0  0
  -23.7201  -37.6452   23.6666 H   0  0  0  0  0  0
  -26.1093  -31.5509   20.6201 H   0  0  0  0  0  0
  -26.8501  -30.8279   22.0155 H   0  0  0  0  0  0
  -28.1127  -28.9422   21.2188 H   0  0  0  0  0  0
  -25.9243  -25.9789   18.9308 H   0  0  0  0  0  0
  -23.9681  -27.3581   18.9691 H   0  0  0  0  0  0
  -23.7744  -30.6211   19.4100 H   0  0  0  0  0  0
  -22.7618  -29.2758   19.8437 H   0  0  0  0  0  0
  -25.1278  -36.1923   25.0830 H   0  0  0  0  0  0
  -21.0020  -28.3312   24.1368 H   0  0  0  0  0  0
  -20.5731  -26.2340   23.3602 H   0  0  0  0  0  0
  -21.6670  -26.7488   22.1168 H   0  0  0  0  0  0
  -19.6949  -25.6301   21.1252 H   0  0  0  0  0  0
  -19.6716  -27.3196   20.6736 H   0  0  0  0  0  0
  -17.4229  -26.6701   21.4017 H   0  0  0  0  0  0
  -18.0356  -26.0081   22.9012 H   0  0  0  0  0  0
  -19.7955  -30.7281   24.2277 H   0  0  0  0  0  0
  -17.5039  -31.6280   24.5172 H   0  0  0  0  0  0
  -15.5375  -30.3015   23.7647 H   0  0  0  0  0  0
  -15.8693  -28.0841   22.7063 H   0  0  0  0  0  0
  -24.5963  -30.7019   25.7789 H   0  0  0  0  0  0
  -24.8907  -32.2876   26.4839 H   0  0  0  0  0  0
  -25.8079  -30.8936   27.0253 H   0  0  0  0  0  0
  -26.2926  -29.6729   24.1230 H   0  0  0  0  0  0
  -27.4076  -29.7247   25.4678 H   0  0  0  0  0  0
  -27.8791  -30.4267   23.9402 H   0  0  0  0  0  0
  -27.2779  -33.3604   26.2041 H   0  0  0  0  0  0
  -28.3942  -32.6756   25.0315 H   0  0  0  0  0  0
  -28.0746  -31.8389   26.5413 H   0  0  0  0  0  0
  -28.2557  -38.0132   24.7572 H   0  0  0  0  0  0
  -28.1130  -36.2664   24.6189 H   0  0  0  0  0  0
  -27.2328  -37.1311   25.8868 H   0  0  0  0  0  0
  -20.9380  -29.8822   21.6862 H   0  0  0  0  0  0
  -26.0155  -38.2838   24.1486 H   0  0  0  0  0  0
  -31.6365  -19.8435   19.6110 H   0  0  0  0  0  0
  -27.7791  -19.8035   21.5391 H   0  0  0  0  0  0
  -31.7534  -17.4080   19.7761 H   0  0  0  0  0  0
  -27.9011  -17.3765   21.7024 H   0  0  0  0  0  0
  -30.8483  -24.6484   20.7322 H   0  0  0  0  0  0
  -27.0538  -24.7343   20.4940 H   0  0  0  0  0  0
  -27.7419  -24.8423   18.8815 H   0  0  0  0  0  0
  -28.9289  -15.3308   21.2808 H   0  0  0  0  0  0
  1 25  1  0  0  0
  1 30  2  0  0  0
  1 83  1  0  0  0
  2  3  1  0  0  0
  2 25  1  0  0  0
  2 86  1  0  0  0
  2 87  1  0  0  0
  3  4  1  0  0  0
  3 88  1  0  0  0
  3 89  1  0  0  0
  4  5  1  0  0  0
  4 90  1  0  0  0
  4 91  1  0  0  0
  5  6  1  0  0  0
  5 26  1  0  0  0
  5 92  1  0  0  0
  6 25  1  0  0  0
  6 93  1  0  0  0
  6 94  1  0  0  0
  7  8  2  0  0  0
  7 26  1  0  0  0
  7 29  1  0  0  0
  8  9  1  0  0  0
  8 22  1  0  0  0
  9 10  1  0  0  0
  9 27  2  0  0  0
 10 11  2  0  0  0
 10 15  1  0  0  0
 11 12  1  0  0  0
 11 95  1  0  0  0
 12 13  2  0  0  0
 12 96  1  0  0  0
 13 14  1  0  0  0
 13 31  1  0  0  0
 14 15  2  0  0  0
 14 97  1  0  0  0
 15 98  1  0  0  0
 16 17  2  0  0  0
 16 21  1  0  0  0
 16 31  1  0  0  0
 17 18  1  0  0  0
 17 99  1  0  0  0
 18 19  2  0  0  0
 18100  1  0  0  0
 19 20  1  0  0  0
 19 24  1  0  0  0
 20 21  2  0  0  0
 20101  1  0  0  0
 21 23  1  0  0  0
 22 28  1  0  0  0
 22 32  2  0  0  0
 26 27  1  0  0  0
 28102  1  0  0  0
 28103  1  0  0  0
 29104  1  0  0  0
 29105  1  0  0  0
 33 34  1  0  0  0
 33 66  1  0  0  0
 33 70  2  0  0  0
 34 36  1  0  0  0
 34 59  1  0  0  0
 34106  1  0  0  0
 35 44  2  0  0  0
 35 45  1  0  0  0
 35 68  1  0  0  0
 36 56  1  0  0  0
 36107  1  0  0  0
 37 39  1  0  0  0
 37 47  1  0  0  0
 37 66  1  0  0  0
 37108  1  0  0  0
 38 43  2  0  0  0
 38 46  1  0  0  0
 38 47  1  0  0  0
 39 64  1  0  0  0
 39 67  2  0  0  0
 40 52  1  0  0  0
 40 53  2  0  0  0
 40 58  1  0  0  0
 41109  1  0  0  0
 41110  1  0  0  0
 41111  1  0  0  0
 41 48  1  0  0  0
 42 43  1  0  0  0
 42 66  1  0  0  0
 42112  1  0  0  0
 42113  1  0  0  0
 43 44  1  0  0  0
 44114  1  0  0  0
 45 46  2  0  0  0
 45115  1  0  0  0
 46116  1  0  0  0
 47117  1  0  0  0
 47118  1  0  0  0
 48 56  1  0  0  0
 48 65  1  0  0  0
 48119  1  0  0  0
 49 50  1  0  0  0
 49 53  1  0  0  0
 49 64  1  0  0  0
 49120  1  0  0  0
 50 51  1  0  0  0
 50121  1  0  0  0
 50122  1  0  0  0
 51 52  1  0  0  0
 51123  1  0  0  0
 51124  1  0  0  0
 52125  1  0  0  0
 52126  1  0  0  0
 53 54  1  0  0  0
 54 55  2  0  0  0
 54127  1  0  0  0
 55 57  1  0  0  0
 55128  1  0  0  0
 56 69  2  0  0  0
 57 58  2  0  0  0
 57129  1  0  0  0
 58130  1  0  0  0
 59 60  1  0  0  0
 59 61  1  0  0  0
 59 62  1  0  0  0
 60131  1  0  0  0
 60132  1  0  0  0
 60133  1  0  0  0
 61134  1  0  0  0
 61135  1  0  0  0
 61136  1  0  0  0
 62137  1  0  0  0
 62138  1  0  0  0
 62139  1  0  0  0
 63 65  1  0  0  0
 63140  1  0  0  0
 63141  1  0  0  0
 63142  1  0  0  0
 64143  1  0  0  0
 65144  1  0  0  0
 68 81  1  0  0  0
 71 73  2  0  0  0
 71 75  1  0  0  0
 71145  1  0  0  0
 72 74  1  0  0  0
 72 75  2  0  0  0
 72146  1  0  0  0
 73 76  1  0  0  0
 73147  1  0  0  0
 74 76  2  0  0  0
 74148  1  0  0  0
 75 82  1  0  0  0
 76 83  1  0  0  0
 77 78  2  0  0  0
 77 79  1  0  0  0
 77149  1  0  0  0
 78 80  1  0  0  0
 78 81  1  0  0  0
 79 82  1  0  0  0
 79 84  2  0  0  0
 80 82  1  0  0  0
 80 85  2  0  0  0
 81150  1  0  0  0
 81151  1  0  0  0
 83152  1  0  0  0
M  ISO  4   1 100  68 101  81 101  83 100
M  END
> <chiral flag>
0

> <version>
0

> <s_m_source_file>
/data/baiqing/PycharmProjects/Reinvent-master-3.2/result/LINK_invent/BTK/process_docking_weight1_custom_product_contain_oxygen_bond_distance_aromatic_linkinvent_7_9_3/rearranged_h_0082.sdf

> <i_m_source_file_index>
34

> <r_mmod_Potential_Energy-OPLS-2005>
82.7786254882812

> <r_mmod_Stretch_Energy-OPLS-2005>
87.6945190429688

> <r_mmod_Bend_Energy-OPLS-2005>
189.800857543945

> <r_mmod_Torsional_Energy-OPLS-2005>
235.467269897461

> <r_mmod_Improper_Torsional_Energy-OPLS-2005>
3.68464469909668

> <r_mmod_Van_der_Waal_Energy-OPLS-2005>
148.999633789062

> <r_mmod_Electrostatic_Energy-OPLS-2005>
-403.608795166016

> <r_mmod_Solvation_Energy-OPLS-2005>
-237.189315795898

> <b_mmod_Minimization_Converged-OPLS-2005>
0

> <r_mmod_RMS_Derivative-OPLS-2005>
1.06836152076721

$$$$
34
                    3D
 Structure written by MMmdl.
158167  0  0  1  0            999 V2000
  -30.6027  -14.8325   20.4260 C   0  0  0  0  0  0
  -30.4369  -12.4890   19.5173 C   0  0  0  0  0  0
  -29.5232  -12.4045   18.2717 C   0  0  0  0  0  0
  -28.0352  -12.2898   18.6665 C   0  0  0  0  0  0
  -27.6227  -13.2179   19.8385 C   0  0  2  0  0  0
  -28.6660  -13.2431   20.9754 C   0  0  0  0  0  0
  -25.2433  -13.8107   20.5728 C   0  0  0  0  0  0
  -24.1724  -13.0371   20.9234 C   0  0  0  0  0  0
  -24.6300  -11.6838   20.8793 C   0  0  0  0  0  0
  -23.8967  -10.4253   21.0445 C   0  0  0  0  0  0
  -24.3550   -9.4174   21.9193 C   0  0  0  0  0  0
  -23.6262   -8.2196   22.0730 C   0  0  0  0  0  0
  -22.4248   -8.0254   21.3537 C   0  0  0  0  0  0
  -21.9862   -9.0207   20.4633 C   0  0  0  0  0  0
  -22.7163  -10.2094   20.3062 C   0  0  0  0  0  0
  -21.6831   -6.0708   22.5281 C   0  0  0  0  0  0
  -21.4026   -6.5626   23.8218 C   0  0  0  0  0  0
  -21.3673   -5.6777   24.9172 C   0  0  0  0  0  0
  -21.6042   -4.3042   24.7221 C   0  0  0  0  0  0
  -21.8805   -3.8130   23.4342 C   0  0  0  0  0  0
  -21.9176   -4.6938   22.3397 C   0  0  0  0  0  0
  -22.7774  -13.5190   21.1924 C   0  0  0  0  0  0
  -22.1646   -4.2131   21.0976 F   0  0  0  0  0  0
  -21.5617   -3.4527   25.7732 F   0  0  0  0  0  0
  -29.9571  -13.6046   20.3718 N   0  0  0  0  0  0
  -26.2825  -12.9265   20.3263 N   0  0  0  0  0  0
  -25.9220  -11.6441   20.5803 N   0  0  0  0  0  0
  -22.0435  -12.8190   22.0512 N   0  0  0  0  0  0
  -25.4150  -15.1835   20.4216 N   0  0  0  0  0  0
  -31.8236  -14.8537   20.2508 O   0  0  0  0  0  0
  -21.6631   -6.8849   21.4240 O   0  0  0  0  0  0
  -22.3472  -14.5536   20.6827 O   0  0  0  0  0  0
  -24.6428  -31.8621   23.2045 C   0  0  0  0  0  0
  -25.9231  -32.4812   23.8371 C   0  0  1  0  0  0
  -27.2293  -27.2560   20.1500 C   0  0  0  0  0  0
  -25.6024  -33.8606   24.2318 N   0  0  0  0  0  0
  -23.4571  -30.4832   21.5538 C   0  0  2  0  0  0
  -24.8831  -28.9238   20.1092 C   0  0  0  0  0  0
  -22.7816  -29.4779   22.5111 C   0  0  0  0  0  0
  -17.9956  -28.1248   22.8747 C   0  0  0  0  0  0
  -24.1485  -36.7297   23.2621 C   0  0  0  0  0  0
  -25.9822  -30.7754   21.3737 C   0  0  0  0  0  0
  -26.0502  -29.3905   20.7246 C   0  0  0  0  0  0
  -27.2171  -28.5657   20.7381 C   0  0  0  0  0  0
  -26.0449  -26.8579   19.4886 C   0  0  0  0  0  0
  -24.8861  -27.6691   19.4751 C   0  0  0  0  0  0
  -23.6589  -29.8188   20.1648 C   0  0  0  0  0  0
  -25.4118  -36.3092   24.0315 C   0  0  1  0  0  0
  -20.4819  -28.4642   22.7797 C   0  0  2  0  0  0
  -20.6913  -26.9671   22.5311 C   0  0  0  0  0  0
  -19.5543  -26.4631   21.6172 C   0  0  0  0  0  0
  -18.1566  -26.7564   22.2091 C   0  0  0  0  0  0
  -19.1172  -28.9020   23.2530 C   0  0  0  0  0  0
  -18.9376  -30.1533   23.8785 C   0  0  0  0  0  0
  -17.6381  -30.6535   24.0818 C   0  0  0  0  0  0
  -25.9068  -34.9472   23.5094 C   0  0  0  0  0  0
  -16.5213  -29.8987   23.6772 C   0  0  0  0  0  0
  -16.7003  -28.6326   23.0891 C   0  0  0  0  0  0
  -26.4563  -31.6569   25.0709 C   0  0  0  0  0  0
  -25.3798  -31.3613   26.1398 C   0  0  0  0  0  0
  -27.0331  -30.2997   24.6080 C   0  0  0  0  0  0
  -27.6154  -32.4207   25.7525 C   0  0  0  0  0  0
  -27.5592  -37.1807   24.8480 C   0  0  0  0  0  0
  -21.4592  -29.4503   22.3942 N   0  0  0  0  0  0
  -26.4298  -37.3802   23.9402 N   0  0  0  0  0  0
  -24.7164  -31.0589   22.1025 N   0  0  0  0  0  0
  -23.4243  -28.7558   23.2737 O   0  0  0  0  0  0
  -28.3418  -26.3933   20.2958 O   0  0  0  0  0  0
  -26.5622  -34.8934   22.4635 O   0  0  0  0  0  0
  -23.5562  -32.1406   23.7333 O   0  0  0  0  0  0
  -31.5754  -18.9016   22.1508 C   0  0  0  0  0  0
  -30.8338  -20.0498   21.7976 C   0  0  0  0  0  0
  -31.2160  -17.6122   21.6979 C   0  0  0  0  0  0
  -29.6588  -19.9623   21.0174 C   0  0  0  0  0  0
  -30.1067  -17.4038   20.8433 C   0  0  0  0  0  0
  -29.3143  -18.6164   20.5591 C   0  0  0  0  0  0
  -27.0313  -23.4045   20.9636 C   0  0  0  0  0  0
  -27.4942  -21.0589   21.3214 C   0  0  0  0  0  0
  -28.2598  -23.6549   20.4623 C   0  0  0  0  0  0
  -26.6246  -22.0848   21.4101 C   0  0  0  0  0  0
  -29.2493  -22.4867   20.4590 C   0  0  0  0  0  0
  -29.2093  -16.1163   18.9443 C   0  0  0  0  0  0
  -28.4970  -25.0318   19.6749 C   0  0  0  0  0  0
  -28.8164  -21.2023   20.8630 N   0  0  0  0  0  0
  -29.8600  -16.0285   20.2614 N   0  0  0  0  0  0
  -30.4200  -22.6535   20.1077 O   0  0  0  0  0  0
  -25.3772  -21.8876   21.8502 O   0  0  0  0  0  0
  -28.1752  -18.5007   19.8366 F   0  0  0  0  0  0
  -31.4752  -12.6261   19.2116 H   0  0  0  0  0  0
  -30.4117  -11.5551   20.0812 H   0  0  0  0  0  0
  -29.8080  -11.5290   17.6893 H   0  0  0  0  0  0
  -29.6885  -13.2541   17.6113 H   0  0  0  0  0  0
  -27.8616  -11.2518   18.9486 H   0  0  0  0  0  0
  -27.4011  -12.4713   17.7969 H   0  0  0  0  0  0
  -27.5680  -14.2125   19.4145 H   0  0  0  0  0  0
  -28.7167  -12.2750   21.4787 H   0  0  0  0  0  0
  -28.3769  -13.9745   21.7317 H   0  0  0  0  0  0
  -25.2687   -9.5635   22.4766 H   0  0  0  0  0  0
  -23.9969   -7.4553   22.7415 H   0  0  0  0  0  0
  -21.0789   -8.8696   19.8936 H   0  0  0  0  0  0
  -22.3620  -10.9615   19.6179 H   0  0  0  0  0  0
  -21.2066   -7.6133   23.9727 H   0  0  0  0  0  0
  -21.1512   -6.0508   25.9079 H   0  0  0  0  0  0
  -22.0582   -2.7583   23.2830 H   0  0  0  0  0  0
  -22.4076  -11.9845   22.4860 H   0  0  0  0  0  0
  -21.1061  -13.1204   22.2784 H   0  0  0  0  0  0
  -24.6504  -15.8368   20.5545 H   0  0  0  0  0  0
  -26.2735  -15.6309   20.1258 H   0  0  0  0  0  0
  -26.7291  -32.5483   23.1108 H   0  0  0  0  0  0
  -25.0199  -33.9735   25.0486 H   0  0  0  0  0  0
  -22.7612  -31.3121   21.4028 H   0  0  0  0  0  0
  -23.3770  -35.9615   23.3299 H   0  0  0  0  0  0
  -24.3576  -36.8909   22.2038 H   0  0  0  0  0  0
  -23.7208  -37.6482   23.6645 H   0  0  0  0  0  0
  -26.0945  -31.5319   20.5959 H   0  0  0  0  0  0
  -26.8714  -30.8485   21.9875 H   0  0  0  0  0  0
  -28.1017  -28.9215   21.2435 H   0  0  0  0  0  0
  -25.9748  -25.8936   19.0083 H   0  0  0  0  0  0
  -23.9929  -27.3128   18.9779 H   0  0  0  0  0  0
  -23.7886  -30.6021   19.4139 H   0  0  0  0  0  0
  -22.7701  -29.2656   19.8568 H   0  0  0  0  0  0
  -25.1288  -36.1942   25.0815 H   0  0  0  0  0  0
  -20.1607  -28.6836   21.7611 H   0  0  0  0  0  0
  -20.6787  -26.4292   23.4800 H   0  0  0  0  0  0
  -21.6603  -26.7735   22.0705 H   0  0  0  0  0  0
  -19.6581  -25.3920   21.4419 H   0  0  0  0  0  0
  -19.6340  -26.9255   20.6303 H   0  0  0  0  0  0
  -17.3991  -26.6382   21.4319 H   0  0  0  0  0  0
  -17.9329  -26.0067   22.9687 H   0  0  0  0  0  0
  -19.7934  -30.7579   24.1497 H   0  0  0  0  0  0
  -17.4995  -31.6246   24.5391 H   0  0  0  0  0  0
  -15.5244  -30.2872   23.8290 H   0  0  0  0  0  0
  -15.8354  -28.0542   22.7924 H   0  0  0  0  0  0
  -24.6137  -30.6786   25.7718 H   0  0  0  0  0  0
  -24.8803  -32.2707   26.4748 H   0  0  0  0  0  0
  -25.8162  -30.8899   27.0222 H   0  0  0  0  0  0
  -26.2820  -29.6792   24.1196 H   0  0  0  0  0  0
  -27.4132  -29.7183   25.4496 H   0  0  0  0  0  0
  -27.8684  -30.4268   23.9192 H   0  0  0  0  0  0
  -27.2886  -33.3580   26.2034 H   0  0  0  0  0  0
  -28.4078  -32.6597   25.0427 H   0  0  0  0  0  0
  -28.0703  -31.8319   26.5501 H   0  0  0  0  0  0
  -28.2592  -38.0118   24.7543 H   0  0  0  0  0  0
  -28.1077  -36.2647   24.6283 H   0  0  0  0  0  0
  -27.2310  -37.1450   25.8880 H   0  0  0  0  0  0
  -21.0783  -30.1670   21.7907 H   0  0  0  0  0  0
  -26.0171  -38.2860   24.1452 H   0  0  0  0  0  0
  -32.4503  -19.0112   22.7811 H   0  0  0  0  0  0
  -31.1560  -21.0070   22.1880 H   0  0  0  0  0  0
  -31.8498  -16.7898   21.9913 H   0  0  0  0  0  0
  -26.2902  -24.1908   20.9386 H   0  0  0  0  0  0
  -27.2381  -20.0558   21.6301 H   0  0  0  0  0  0
  -28.1456  -16.3232   19.0461 H   0  0  0  0  0  0
  -29.6525  -16.9210   18.3524 H   0  0  0  0  0  0
  -29.3086  -15.2266   18.3273 H   0  0  0  0  0  0
  -27.9221  -24.9745   18.7534 H   0  0  0  0  0  0
  -29.5277  -25.0157   19.3226 H   0  0  0  0  0  0
  -25.2598  -20.9566   21.9954 H   0  0  0  0  0  0
  1 25  1  0  0  0
  1 30  2  0  0  0
  1 85  1  0  0  0
  2  3  1  0  0  0
  2 25  1  0  0  0
  2 89  1  0  0  0
  2 90  1  0  0  0
  3  4  1  0  0  0
  3 91  1  0  0  0
  3 92  1  0  0  0
  4  5  1  0  0  0
  4 93  1  0  0  0
  4 94  1  0  0  0
  5  6  1  0  0  0
  5 26  1  0  0  0
  5 95  1  0  0  0
  6 25  1  0  0  0
  6 96  1  0  0  0
  6 97  1  0  0  0
  7  8  2  0  0  0
  7 26  1  0  0  0
  7 29  1  0  0  0
  8  9  1  0  0  0
  8 22  1  0  0  0
  9 10  1  0  0  0
  9 27  2  0  0  0
 10 11  2  0  0  0
 10 15  1  0  0  0
 11 12  1  0  0  0
 11 98  1  0  0  0
 12 13  2  0  0  0
 12 99  1  0  0  0
 13 14  1  0  0  0
 13 31  1  0  0  0
 14 15  2  0  0  0
 14100  1  0  0  0
 15101  1  0  0  0
 16 17  2  0  0  0
 16 21  1  0  0  0
 16 31  1  0  0  0
 17 18  1  0  0  0
 17102  1  0  0  0
 18 19  2  0  0  0
 18103  1  0  0  0
 19 20  1  0  0  0
 19 24  1  0  0  0
 20 21  2  0  0  0
 20104  1  0  0  0
 21 23  1  0  0  0
 22 28  1  0  0  0
 22 32  2  0  0  0
 26 27  1  0  0  0
 28105  1  0  0  0
 28106  1  0  0  0
 29107  1  0  0  0
 29108  1  0  0  0
 33 34  1  0  0  0
 33 66  1  0  0  0
 33 70  2  0  0  0
 34 36  1  0  0  0
 34 59  1  0  0  0
 34109  1  0  0  0
 35 44  2  0  0  0
 35 45  1  0  0  0
 35 68  1  0  0  0
 36 56  1  0  0  0
 36110  1  0  0  0
 37 39  1  0  0  0
 37 47  1  0  0  0
 37 66  1  0  0  0
 37111  1  0  0  0
 38 43  2  0  0  0
 38 46  1  0  0  0
 38 47  1  0  0  0
 39 64  1  0  0  0
 39 67  2  0  0  0
 40 52  1  0  0  0
 40 53  2  0  0  0
 40 58  1  0  0  0
 41112  1  0  0  0
 41113  1  0  0  0
 41114  1  0  0  0
 41 48  1  0  0  0
 42 43  1  0  0  0
 42 66  1  0  0  0
 42115  1  0  0  0
 42116  1  0  0  0
 43 44  1  0  0  0
 44117  1  0  0  0
 45 46  2  0  0  0
 45118  1  0  0  0
 46119  1  0  0  0
 47120  1  0  0  0
 47121  1  0  0  0
 48 56  1  0  0  0
 48 65  1  0  0  0
 48122  1  0  0  0
 49 50  1  0  0  0
 49 53  1  0  0  0
 49 64  1  0  0  0
 49123  1  0  0  0
 50 51  1  0  0  0
 50124  1  0  0  0
 50125  1  0  0  0
 51 52  1  0  0  0
 51126  1  0  0  0
 51127  1  0  0  0
 52128  1  0  0  0
 52129  1  0  0  0
 53 54  1  0  0  0
 54 55  2  0  0  0
 54130  1  0  0  0
 55 57  1  0  0  0
 55131  1  0  0  0
 56 69  2  0  0  0
 57 58  2  0  0  0
 57132  1  0  0  0
 58133  1  0  0  0
 59 60  1  0  0  0
 59 61  1  0  0  0
 59 62  1  0  0  0
 60134  1  0  0  0
 60135  1  0  0  0
 60136  1  0  0  0
 61137  1  0  0  0
 61138  1  0  0  0
 61139  1  0  0  0
 62140  1  0  0  0
 62141  1  0  0  0
 62142  1  0  0  0
 63 65  1  0  0  0
 63143  1  0  0  0
 63144  1  0  0  0
 63145  1  0  0  0
 64146  1  0  0  0
 65147  1  0  0  0
 68 83  1  0  0  0
 71 72  2  0  0  0
 71 73  1  0  0  0
 71148  1  0  0  0
 72 74  1  0  0  0
 72149  1  0  0  0
 73 75  2  0  0  0
 73150  1  0  0  0
 74 76  2  0  0  0
 74 84  1  0  0  0
 75 76  1  0  0  0
 75 85  1  0  0  0
 76 88  1  0  0  0
 77 79  2  0  0  0
 77 80  1  0  0  0
 77151  1  0  0  0
 78 80  2  0  0  0
 78 84  1  0  0  0
 78152  1  0  0  0
 79 81  1  0  0  0
 79 83  1  0  0  0
 80 87  1  0  0  0
 81 84  1  0  0  0
 81 86  2  0  0  0
 82 85  1  0  0  0
 82153  1  0  0  0
 82154  1  0  0  0
 82155  1  0  0  0
 83156  1  0  0  0
 83157  1  0  0  0
 87158  1  0  0  0
M  ISO  4   1 100  68 101  83 101  85 100
M  END
> <chiral flag>
0

> <version>
0

> <s_m_source_file>
/data/baiqing/PycharmProjects/Reinvent-master-3.2/result/LINK_invent/BTK/process_docking_weight1_custom_product_contain_oxygen_bond_distance_aromatic_linkinvent_7_9_3/rearranged_h_0082.sdf

> <i_m_source_file_index>
35

> <r_mmod_Potential_Energy-OPLS-2005>
618.761413574219

> <r_mmod_Stretch_Energy-OPLS-2005>
162.169662475586

> <r_mmod_Bend_Energy-OPLS-2005>
300.5947265625

> <r_mmod_Torsional_Energy-OPLS-2005>
337.028381347656

> <r_mmod_Improper_Torsional_Energy-OPLS-2005>
16.477689743042

> <r_mmod_Van_der_Waal_Energy-OPLS-2005>
176.727081298828

> <r_mmod_Electrostatic_Energy-OPLS-2005>
-294.608856201172

> <r_mmod_Solvation_Energy-OPLS-2005>
-218.047500610352

> <b_mmod_Minimization_Converged-OPLS-2005>
0

> <r_mmod_RMS_Derivative-OPLS-2005>
5.49688911437988

$$$$
35
                    3D
 Structure written by MMmdl.
153162  0  0  1  0            999 V2000
  -30.5865  -14.8850   20.4829 C   0  0  0  0  0  0
  -30.4340  -12.5564   19.4994 C   0  0  0  0  0  0
  -29.5184  -12.5336   18.2537 C   0  0  0  0  0  0
  -28.0488  -12.3264   18.6627 C   0  0  0  0  0  0
  -27.6329  -13.2428   19.8414 C   0  0  2  0  0  0
  -28.6690  -13.2245   20.9811 C   0  0  0  0  0  0
  -25.2480  -13.8212   20.5702 C   0  0  0  0  0  0
  -24.1782  -13.0444   20.9202 C   0  0  0  0  0  0
  -24.6387  -11.6924   20.8733 C   0  0  0  0  0  0
  -23.9072  -10.4294   21.0400 C   0  0  0  0  0  0
  -24.3624   -9.4212   21.9180 C   0  0  0  0  0  0
  -23.6299   -8.2248   22.0754 C   0  0  0  0  0  0
  -22.4280   -8.0282   21.3546 C   0  0  0  0  0  0
  -21.9914   -9.0254   20.4649 C   0  0  0  0  0  0
  -22.7242  -10.2133   20.3055 C   0  0  0  0  0  0
  -21.6858   -6.0737   22.5280 C   0  0  0  0  0  0
  -21.4017   -6.5641   23.8213 C   0  0  0  0  0  0
  -21.3658   -5.6794   24.9175 C   0  0  0  0  0  0
  -21.6044   -4.3056   24.7226 C   0  0  0  0  0  0
  -21.8819   -3.8147   23.4347 C   0  0  0  0  0  0
  -21.9194   -4.6964   22.3404 C   0  0  0  0  0  0
  -22.7806  -13.5220   21.1869 C   0  0  0  0  0  0
  -22.1662   -4.2150   21.0982 F   0  0  0  0  0  0
  -21.5627   -3.4538   25.7738 F   0  0  0  0  0  0
  -29.9587  -13.6406   20.4083 N   0  0  0  0  0  0
  -26.2892  -12.9431   20.3227 N   0  0  0  0  0  0
  -25.9316  -11.6564   20.5714 N   0  0  0  0  0  0
  -22.0463  -12.8206   22.0431 N   0  0  0  0  0  0
  -25.4186  -15.1939   20.4175 N   0  0  0  0  0  0
  -31.7530  -14.9493   20.0781 O   0  0  0  0  0  0
  -21.6644   -6.8879   21.4242 O   0  0  0  0  0  0
  -22.3483  -14.5521   20.6715 O   0  0  0  0  0  0
  -24.6404  -31.8472   23.1917 C   0  0  0  0  0  0
  -25.9191  -32.4711   23.8294 C   0  0  1  0  0  0
  -27.2149  -27.1685   20.1464 C   0  0  0  0  0  0
  -25.5952  -33.8517   24.2212 N   0  0  0  0  0  0
  -23.4429  -30.4679   21.5366 C   0  0  2  0  0  0
  -24.8935  -28.9022   20.1095 C   0  0  0  0  0  0
  -22.7555  -29.4559   22.4869 C   0  0  0  0  0  0
  -18.0302  -28.1391   22.8475 C   0  0  0  0  0  0
  -24.1492  -36.7262   23.2640 C   0  0  0  0  0  0
  -25.9972  -30.7293   21.3888 C   0  0  0  0  0  0
  -26.0696  -29.3434   20.7316 C   0  0  0  0  0  0
  -27.2339  -28.4900   20.7396 C   0  0  0  0  0  0
  -26.0201  -26.8281   19.4763 C   0  0  0  0  0  0
  -24.8792  -27.6555   19.4675 C   0  0  0  0  0  0
  -23.6684  -29.8001   20.1546 C   0  0  0  0  0  0
  -25.4122  -36.3041   24.0318 C   0  0  1  0  0  0
  -20.5913  -28.3716   23.1236 C   0  0  2  0  0  0
  -20.6786  -26.9420   22.5400 C   0  0  0  0  0  0
  -19.5760  -26.6379   21.5207 C   0  0  0  0  0  0
  -18.1943  -26.7929   22.1621 C   0  0  0  0  0  0
  -19.1558  -28.8871   23.2850 C   0  0  0  0  0  0
  -18.9477  -30.1469   23.8873 C   0  0  0  0  0  0
  -17.6474  -30.6589   24.0559 C   0  0  0  0  0  0
  -25.9070  -34.9416   23.5072 C   0  0  0  0  0  0
  -16.5365  -29.9083   23.6337 C   0  0  0  0  0  0
  -16.7288  -28.6501   23.0356 C   0  0  0  0  0  0
  -26.4525  -31.6567   25.0723 C   0  0  0  0  0  0
  -25.3717  -31.3753   26.1423 C   0  0  0  0  0  0
  -27.0388  -30.2965   24.6288 C   0  0  0  0  0  0
  -27.6058  -32.4330   25.7506 C   0  0  0  0  0  0
  -27.5577  -37.1788   24.8467 C   0  0  0  0  0  0
  -21.4250  -29.3048   22.3613 N   0  0  0  0  0  0
  -26.4289  -37.3751   23.9407 N   0  0  0  0  0  0
  -24.7129  -31.0351   22.0943 N   0  0  0  0  0  0
  -23.4210  -28.8103   23.3007 O   0  0  0  0  0  0
  -28.2412  -26.1645   20.1890 O   0  0  0  0  0  0
  -26.5651  -34.8907   22.4647 O   0  0  0  0  0  0
  -23.5529  -32.1338   23.7149 O   0  0  0  0  0  0
  -29.9876  -18.5897   18.0029 C   0  0  0  0  0  0
  -29.7086  -19.8486   18.5733 C   0  0  0  0  0  0
  -30.0464  -17.4118   18.7701 C   0  0  0  0  0  0
  -29.4447  -20.0583   19.9479 C   0  0  0  0  0  0
  -29.8230  -17.4248   20.1626 C   0  0  0  0  0  0
  -29.4999  -18.7797   20.7099 C   0  0  0  0  0  0
  -28.4198  -23.4937   20.4139 C   0  0  0  0  0  0
  -29.5968  -22.8247   19.8394 C   0  0  0  0  0  0
  -27.8741  -24.7986   20.5385 C   0  0  0  0  0  0
  -27.9146  -22.0612   20.8129 C   0  0  0  0  0  0
  -29.6006  -16.1174   22.3206 C   0  0  0  0  0  0
  -29.2181  -21.5196   20.3439 N   0  0  0  0  0  0
  -29.9076  -16.0728   20.8868 N   0  0  0  0  0  0
  -30.4612  -23.2552   19.1032 O   0  0  0  0  0  0
  -29.2492  -18.8881   22.0366 F   0  0  0  0  0  0
  -31.4706  -12.6972   19.1903 H   0  0  0  0  0  0
  -30.4127  -11.5930   20.0112 H   0  0  0  0  0  0
  -29.8309  -11.7452   17.5677 H   0  0  0  0  0  0
  -29.6182  -13.4733   17.7081 H   0  0  0  0  0  0
  -27.9321  -11.2807   18.9506 H   0  0  0  0  0  0
  -27.3895  -12.4815   17.8079 H   0  0  0  0  0  0
  -27.6121  -14.2564   19.4403 H   0  0  0  0  0  0
  -28.7434  -12.2317   21.4272 H   0  0  0  0  0  0
  -28.3376  -13.8850   21.7787 H   0  0  0  0  0  0
  -25.2770   -9.5691   22.4752 H   0  0  0  0  0  0
  -24.0008   -7.4643   22.7475 H   0  0  0  0  0  0
  -21.0845   -8.8775   19.8956 H   0  0  0  0  0  0
  -22.3699  -10.9673   19.6163 H   0  0  0  0  0  0
  -21.2013   -7.6150   23.9718 H   0  0  0  0  0  0
  -21.1479   -6.0523   25.9078 H   0  0  0  0  0  0
  -22.0598   -2.7610   23.2849 H   0  0  0  0  0  0
  -22.4092  -11.9874   22.4822 H   0  0  0  0  0  0
  -21.1079  -13.1225   22.2644 H   0  0  0  0  0  0
  -24.6578  -15.8520   20.5445 H   0  0  0  0  0  0
  -26.2805  -15.6361   20.1239 H   0  0  0  0  0  0
  -26.7256  -32.5332   23.1023 H   0  0  0  0  0  0
  -25.0086  -33.9641   25.0351 H   0  0  0  0  0  0
  -22.7435  -31.2929   21.3847 H   0  0  0  0  0  0
  -23.3758  -35.9590   23.3295 H   0  0  0  0  0  0
  -24.3576  -36.8899   22.2056 H   0  0  0  0  0  0
  -23.7245  -37.6456   23.6680 H   0  0  0  0  0  0
  -26.1499  -31.4850   20.6170 H   0  0  0  0  0  0
  -26.8683  -30.7787   22.0302 H   0  0  0  0  0  0
  -28.1289  -28.8182   21.2489 H   0  0  0  0  0  0
  -25.9488  -25.8710   18.9791 H   0  0  0  0  0  0
  -23.9832  -27.3142   18.9676 H   0  0  0  0  0  0
  -23.8019  -30.5764   19.4002 H   0  0  0  0  0  0
  -22.7841  -29.2407   19.8444 H   0  0  0  0  0  0
  -25.1309  -36.1873   25.0810 H   0  0  0  0  0  0
  -21.0004  -28.3303   24.1359 H   0  0  0  0  0  0
  -20.5675  -26.2329   23.3618 H   0  0  0  0  0  0
  -21.6653  -26.7425   22.1201 H   0  0  0  0  0  0
  -19.6922  -25.6285   21.1250 H   0  0  0  0  0  0
  -19.6697  -27.3177   20.6728 H   0  0  0  0  0  0
  -17.4209  -26.6667   21.4030 H   0  0  0  0  0  0
  -18.0350  -26.0076   22.9025 H   0  0  0  0  0  0
  -19.7954  -30.7290   24.2228 H   0  0  0  0  0  0
  -17.5029  -31.6267   24.5164 H   0  0  0  0  0  0
  -15.5364  -30.2978   23.7674 H   0  0  0  0  0  0
  -15.8687  -28.0814   22.7084 H   0  0  0  0  0  0
  -24.5893  -30.7103   25.7747 H   0  0  0  0  0  0
  -24.8911  -32.2938   26.4806 H   0  0  0  0  0  0
  -25.8006  -30.8954   27.0229 H   0  0  0  0  0  0
  -26.3003  -29.6688   24.1285 H   0  0  0  0  0  0
  -27.3998  -29.7261   25.4857 H   0  0  0  0  0  0
  -27.8914  -30.4207   23.9605 H   0  0  0  0  0  0
  -27.2649  -33.3646   26.2039 H   0  0  0  0  0  0
  -28.3892  -32.6867   25.0352 H   0  0  0  0  0  0
  -28.0697  -31.8485   26.5461 H   0  0  0  0  0  0
  -28.2590  -38.0089   24.7508 H   0  0  0  0  0  0
  -28.1078  -36.2618   24.6301 H   0  0  0  0  0  0
  -27.2292  -37.1440   25.8869 H   0  0  0  0  0  0
  -20.9451  -29.8768   21.6804 H   0  0  0  0  0  0
  -26.0158  -38.2821   24.1410 H   0  0  0  0  0  0
  -30.1693  -18.5283   16.9385 H   0  0  0  0  0  0
  -29.6982  -20.6965   17.9030 H   0  0  0  0  0  0
  -30.2669  -16.4872   18.2567 H   0  0  0  0  0  0
  -26.9219  -24.8319   21.0491 H   0  0  0  0  0  0
  -27.0830  -21.6605   20.2301 H   0  0  0  0  0  0
  -27.7544  -21.8572   21.8725 H   0  0  0  0  0  0
  -30.2402  -16.8452   22.8203 H   0  0  0  0  0  0
  -29.7667  -15.1736   22.8431 H   0  0  0  0  0  0
  -28.5605  -16.4048   22.4775 H   0  0  0  0  0  0
  1 25  1  0  0  0
  1 30  2  0  0  0
  1 83  1  0  0  0
  2  3  1  0  0  0
  2 25  1  0  0  0
  2 86  1  0  0  0
  2 87  1  0  0  0
  3  4  1  0  0  0
  3 88  1  0  0  0
  3 89  1  0  0  0
  4  5  1  0  0  0
  4 90  1  0  0  0
  4 91  1  0  0  0
  5  6  1  0  0  0
  5 26  1  0  0  0
  5 92  1  0  0  0
  6 25  1  0  0  0
  6 93  1  0  0  0
  6 94  1  0  0  0
  7  8  2  0  0  0
  7 26  1  0  0  0
  7 29  1  0  0  0
  8  9  1  0  0  0
  8 22  1  0  0  0
  9 10  1  0  0  0
  9 27  2  0  0  0
 10 11  2  0  0  0
 10 15  1  0  0  0
 11 12  1  0  0  0
 11 95  1  0  0  0
 12 13  2  0  0  0
 12 96  1  0  0  0
 13 14  1  0  0  0
 13 31  1  0  0  0
 14 15  2  0  0  0
 14 97  1  0  0  0
 15 98  1  0  0  0
 16 17  2  0  0  0
 16 21  1  0  0  0
 16 31  1  0  0  0
 17 18  1  0  0  0
 17 99  1  0  0  0
 18 19  2  0  0  0
 18100  1  0  0  0
 19 20  1  0  0  0
 19 24  1  0  0  0
 20 21  2  0  0  0
 20101  1  0  0  0
 21 23  1  0  0  0
 22 28  1  0  0  0
 22 32  2  0  0  0
 26 27  1  0  0  0
 28102  1  0  0  0
 28103  1  0  0  0
 29104  1  0  0  0
 29105  1  0  0  0
 33 34  1  0  0  0
 33 66  1  0  0  0
 33 70  2  0  0  0
 34 36  1  0  0  0
 34 59  1  0  0  0
 34106  1  0  0  0
 35 44  2  0  0  0
 35 45  1  0  0  0
 35 68  1  0  0  0
 36 56  1  0  0  0
 36107  1  0  0  0
 37 39  1  0  0  0
 37 47  1  0  0  0
 37 66  1  0  0  0
 37108  1  0  0  0
 38 43  2  0  0  0
 38 46  1  0  0  0
 38 47  1  0  0  0
 39 64  1  0  0  0
 39 67  2  0  0  0
 40 52  1  0  0  0
 40 53  2  0  0  0
 40 58  1  0  0  0
 41109  1  0  0  0
 41110  1  0  0  0
 41111  1  0  0  0
 41 48  1  0  0  0
 42 43  1  0  0  0
 42 66  1  0  0  0
 42112  1  0  0  0
 42113  1  0  0  0
 43 44  1  0  0  0
 44114  1  0  0  0
 45 46  2  0  0  0
 45115  1  0  0  0
 46116  1  0  0  0
 47117  1  0  0  0
 47118  1  0  0  0
 48 56  1  0  0  0
 48 65  1  0  0  0
 48119  1  0  0  0
 49 50  1  0  0  0
 49 53  1  0  0  0
 49 64  1  0  0  0
 49120  1  0  0  0
 50 51  1  0  0  0
 50121  1  0  0  0
 50122  1  0  0  0
 51 52  1  0  0  0
 51123  1  0  0  0
 51124  1  0  0  0
 52125  1  0  0  0
 52126  1  0  0  0
 53 54  1  0  0  0
 54 55  2  0  0  0
 54127  1  0  0  0
 55 57  1  0  0  0
 55128  1  0  0  0
 56 69  2  0  0  0
 57 58  2  0  0  0
 57129  1  0  0  0
 58130  1  0  0  0
 59 60  1  0  0  0
 59 61  1  0  0  0
 59 62  1  0  0  0
 60131  1  0  0  0
 60132  1  0  0  0
 60133  1  0  0  0
 61134  1  0  0  0
 61135  1  0  0  0
 61136  1  0  0  0
 62137  1  0  0  0
 62138  1  0  0  0
 62139  1  0  0  0
 63 65  1  0  0  0
 63140  1  0  0  0
 63141  1  0  0  0
 63142  1  0  0  0
 64143  1  0  0  0
 65144  1  0  0  0
 68 79  1  0  0  0
 71 72  2  0  0  0
 71 73  1  0  0  0
 71145  1  0  0  0
 72 74  1  0  0  0
 72146  1  0  0  0
 73 75  2  0  0  0
 73147  1  0  0  0
 74 76  2  0  0  0
 74 82  1  0  0  0
 75 76  1  0  0  0
 75 83  1  0  0  0
 76 85  1  0  0  0
 77 78  1  0  0  0
 77 79  2  0  0  0
 77 80  1  0  0  0
 78 82  1  0  0  0
 78 84  2  0  0  0
 79148  1  0  0  0
 80 82  1  0  0  0
 80149  1  0  0  0
 80150  1  0  0  0
 81 83  1  0  0  0
 81151  1  0  0  0
 81152  1  0  0  0
 81153  1  0  0  0
M  ISO  4   1 100  68 101  79 101  83 100
M  END
> <chiral flag>
0

> <version>
0

> <s_m_source_file>
/data/baiqing/PycharmProjects/Reinvent-master-3.2/result/LINK_invent/BTK/process_docking_weight1_custom_product_contain_oxygen_bond_distance_aromatic_linkinvent_7_9_3/rearranged_h_0082.sdf

> <i_m_source_file_index>
36

> <r_mmod_Potential_Energy-OPLS-2005>
601.862915039062

> <r_mmod_Stretch_Energy-OPLS-2005>
205.945114135742

> <r_mmod_Bend_Energy-OPLS-2005>
290.355041503906

> <r_mmod_Torsional_Energy-OPLS-2005>
300.268493652344

> <r_mmod_Improper_Torsional_Energy-OPLS-2005>
7.26692676544189

> <r_mmod_Van_der_Waal_Energy-OPLS-2005>
137.789901733398

> <r_mmod_Electrostatic_Energy-OPLS-2005>
-289.681671142578

> <r_mmod_Solvation_Energy-OPLS-2005>
-207.599258422852

> <b_mmod_Minimization_Converged-OPLS-2005>
0

> <r_mmod_RMS_Derivative-OPLS-2005>
0.624621987342834

$$$$
36
                    3D
 Structure written by MMmdl.
150159  0  0  1  0            999 V2000
  -30.5692  -14.7421   20.4850 C   0  0  0  0  0  0
  -30.4511  -12.4556   19.4667 C   0  0  0  0  0  0
  -29.5167  -12.5196   18.2354 C   0  0  0  0  0  0
  -28.0415  -12.3384   18.6472 C   0  0  0  0  0  0
  -27.6514  -13.2208   19.8618 C   0  0  2  0  0  0
  -28.6968  -13.1055   20.9942 C   0  0  0  0  0  0
  -25.2559  -13.8174   20.5689 C   0  0  0  0  0  0
  -24.1830  -13.0437   20.9196 C   0  0  0  0  0  0
  -24.6401  -11.6907   20.8741 C   0  0  0  0  0  0
  -23.9068  -10.4291   21.0407 C   0  0  0  0  0  0
  -24.3618   -9.4205   21.9186 C   0  0  0  0  0  0
  -23.6292   -8.2241   22.0755 C   0  0  0  0  0  0
  -22.4275   -8.0280   21.3543 C   0  0  0  0  0  0
  -21.9909   -9.0255   20.4647 C   0  0  0  0  0  0
  -22.7237  -10.2136   20.3058 C   0  0  0  0  0  0
  -21.6853   -6.0734   22.5277 C   0  0  0  0  0  0
  -21.4013   -6.5638   23.8211 C   0  0  0  0  0  0
  -21.3661   -5.6792   24.9174 C   0  0  0  0  0  0
  -21.6046   -4.3055   24.7226 C   0  0  0  0  0  0
  -21.8819   -3.8144   23.4347 C   0  0  0  0  0  0
  -21.9194   -4.6961   22.3402 C   0  0  0  0  0  0
  -22.7851  -13.5229   21.1858 C   0  0  0  0  0  0
  -22.1663   -4.2146   21.0980 F   0  0  0  0  0  0
  -21.5630   -3.4539   25.7739 F   0  0  0  0  0  0
  -30.0028  -13.4861   20.4307 N   0  0  0  0  0  0
  -26.2984  -12.9356   20.3309 N   0  0  0  0  0  0
  -25.9333  -11.6509   20.5755 N   0  0  0  0  0  0
  -22.0493  -12.8223   22.0415 N   0  0  0  0  0  0
  -25.4275  -15.1895   20.4100 N   0  0  0  0  0  0
  -31.7264  -14.9244   20.0924 O   0  0  0  0  0  0
  -21.6639   -6.8876   21.4239 O   0  0  0  0  0  0
  -22.3536  -14.5535   20.6704 O   0  0  0  0  0  0
  -24.6314  -31.8549   23.1984 C   0  0  0  0  0  0
  -25.9134  -32.4756   23.8333 C   0  0  1  0  0  0
  -27.2250  -27.2670   20.1294 C   0  0  0  0  0  0
  -25.5927  -33.8558   24.2257 N   0  0  0  0  0  0
  -23.4299  -30.4768   21.5412 C   0  0  2  0  0  0
  -24.8813  -28.9255   20.1089 C   0  0  0  0  0  0
  -22.7508  -29.4598   22.4904 C   0  0  0  0  0  0
  -18.0293  -28.1387   22.8484 C   0  0  0  0  0  0
  -24.1489  -36.7287   23.2640 C   0  0  0  0  0  0
  -25.9762  -30.7685   21.3801 C   0  0  0  0  0  0
  -26.0527  -29.3913   20.7223 C   0  0  0  0  0  0
  -27.2303  -28.5734   20.7248 C   0  0  0  0  0  0
  -26.0356  -26.8726   19.4803 C   0  0  0  0  0  0
  -24.8772  -27.6731   19.4764 C   0  0  0  0  0  0
  -23.6501  -29.8107   20.1576 C   0  0  0  0  0  0
  -25.4115  -36.3072   24.0326 C   0  0  1  0  0  0
  -20.5898  -28.3700   23.1263 C   0  0  2  0  0  0
  -20.6781  -26.9416   22.5405 C   0  0  0  0  0  0
  -19.5756  -26.6381   21.5211 C   0  0  0  0  0  0
  -18.1937  -26.7927   22.1628 C   0  0  0  0  0  0
  -19.1547  -28.8861   23.2868 C   0  0  0  0  0  0
  -18.9469  -30.1460   23.8888 C   0  0  0  0  0  0
  -17.6468  -30.6588   24.0562 C   0  0  0  0  0  0
  -25.9054  -34.9440   23.5096 C   0  0  0  0  0  0
  -16.5358  -29.9085   23.6332 C   0  0  0  0  0  0
  -16.7280  -28.6503   23.0354 C   0  0  0  0  0  0
  -26.4501  -31.6579   25.0723 C   0  0  0  0  0  0
  -25.3721  -31.3735   26.1441 C   0  0  0  0  0  0
  -27.0351  -30.2993   24.6217 C   0  0  0  0  0  0
  -27.6049  -32.4325   25.7499 C   0  0  0  0  0  0
  -27.5577  -37.1802   24.8467 C   0  0  0  0  0  0
  -21.4213  -29.3046   22.3649 N   0  0  0  0  0  0
  -26.4294  -37.3768   23.9402 N   0  0  0  0  0  0
  -24.6980  -31.0509   22.0963 N   0  0  0  0  0  0
  -23.4201  -28.8136   23.3008 O   0  0  0  0  0  0
  -28.2753  -26.3204   20.1787 O   0  0  0  0  0  0
  -26.5632  -34.8914   22.4668 O   0  0  0  0  0  0
  -23.5459  -32.1370   23.7272 O   0  0  0  0  0  0
  -28.4147  -19.3382   21.3791 C   0  0  0  0  0  0
  -28.6190  -17.9253   21.4410 C   0  0  0  0  0  0
  -30.5052  -18.1406   20.0189 C   0  0  0  0  0  0
  -29.2142  -20.2597   20.6377 C   0  0  0  0  0  0
  -29.6714  -17.2542   20.7664 C   0  0  0  0  0  0
  -30.2800  -19.5711   19.9586 C   0  0  0  0  0  0
  -28.4329  -23.7445   20.6059 C   0  0  0  0  0  0
  -27.9293  -22.5503   21.2765 C   0  0  0  0  0  0
  -27.9469  -25.0473   20.7329 C   0  0  0  0  0  0
  -29.4929  -22.8503   19.8929 C   0  0  0  0  0  0
  -28.8819  -21.7191   20.6560 N   0  0  0  0  0  0
  -29.7268  -15.7694   20.8755 N   0  0  0  0  0  0
  -27.0121  -22.4075   22.0586 O   0  0  0  0  0  0
  -31.1316  -20.3109   19.2077 F   0  0  0  0  0  0
  -31.4873  -12.6086   19.1603 H   0  0  0  0  0  0
  -30.4187  -11.4666   19.9261 H   0  0  0  0  0  0
  -29.7977  -11.7565   17.5082 H   0  0  0  0  0  0
  -29.6392  -13.4802   17.7325 H   0  0  0  0  0  0
  -27.8950  -11.2863   18.8949 H   0  0  0  0  0  0
  -27.3838  -12.5451   17.8020 H   0  0  0  0  0  0
  -27.6590  -14.2508   19.5047 H   0  0  0  0  0  0
  -28.7335  -12.0856   21.3802 H   0  0  0  0  0  0
  -28.4237  -13.7328   21.8440 H   0  0  0  0  0  0
  -25.2766   -9.5679   22.4757 H   0  0  0  0  0  0
  -24.0002   -7.4631   22.7474 H   0  0  0  0  0  0
  -21.0839   -8.8773   19.8953 H   0  0  0  0  0  0
  -22.3696  -10.9675   19.6166 H   0  0  0  0  0  0
  -21.2003   -7.6146   23.9713 H   0  0  0  0  0  0
  -21.1484   -6.0523   25.9077 H   0  0  0  0  0  0
  -22.0597   -2.7606   23.2849 H   0  0  0  0  0  0
  -22.4110  -11.9886   22.4805 H   0  0  0  0  0  0
  -21.1109  -13.1249   22.2618 H   0  0  0  0  0  0
  -24.6575  -15.8417   20.5111 H   0  0  0  0  0  0
  -26.2692  -15.6257   20.0557 H   0  0  0  0  0  0
  -26.7202  -32.5412   23.1077 H   0  0  0  0  0  0
  -25.0057  -33.9692   25.0390 H   0  0  0  0  0  0
  -22.7266  -31.2991   21.3942 H   0  0  0  0  0  0
  -23.3747  -35.9625   23.3312 H   0  0  0  0  0  0
  -24.3575  -36.8900   22.2053 H   0  0  0  0  0  0
  -23.7250  -37.6494   23.6659 H   0  0  0  0  0  0
  -26.1149  -31.5293   20.6105 H   0  0  0  0  0  0
  -26.8530  -30.8180   22.0142 H   0  0  0  0  0  0
  -28.1244  -28.9185   21.2249 H   0  0  0  0  0  0
  -25.9906  -25.9060   18.9985 H   0  0  0  0  0  0
  -23.9820  -27.3108   18.9898 H   0  0  0  0  0  0
  -23.7730  -30.5874   19.4019 H   0  0  0  0  0  0
  -22.7692  -29.2432   19.8524 H   0  0  0  0  0  0
  -25.1299  -36.1923   25.0821 H   0  0  0  0  0  0
  -20.9994  -28.3282   24.1382 H   0  0  0  0  0  0
  -20.5678  -26.2313   23.3613 H   0  0  0  0  0  0
  -21.6649  -26.7436   22.1201 H   0  0  0  0  0  0
  -19.6918  -25.6290   21.1246 H   0  0  0  0  0  0
  -19.6690  -27.3187   20.6737 H   0  0  0  0  0  0
  -17.4204  -26.6666   21.4035 H   0  0  0  0  0  0
  -18.0347  -26.0071   22.9028 H   0  0  0  0  0  0
  -19.7944  -30.7279   24.2254 H   0  0  0  0  0  0
  -17.5022  -31.6267   24.5165 H   0  0  0  0  0  0
  -15.5359  -30.2987   23.7655 H   0  0  0  0  0  0
  -15.8680  -28.0818   22.7075 H   0  0  0  0  0  0
  -24.5883  -30.7104   25.7763 H   0  0  0  0  0  0
  -24.8932  -32.2912   26.4868 H   0  0  0  0  0  0
  -25.8030  -30.8900   27.0218 H   0  0  0  0  0  0
  -26.2942  -29.6738   24.1227 H   0  0  0  0  0  0
  -27.4010  -29.7259   25.4744 H   0  0  0  0  0  0
  -27.8829  -30.4260   23.9480 H   0  0  0  0  0  0
  -27.2645  -33.3622   26.2070 H   0  0  0  0  0  0
  -28.3863  -32.6891   25.0335 H   0  0  0  0  0  0
  -28.0714  -31.8458   26.5423 H   0  0  0  0  0  0
  -28.2605  -38.0089   24.7496 H   0  0  0  0  0  0
  -28.1064  -36.2619   24.6320 H   0  0  0  0  0  0
  -27.2292  -37.1482   25.8870 H   0  0  0  0  0  0
  -20.9399  -29.8771   21.6856 H   0  0  0  0  0  0
  -26.0176  -38.2846   24.1388 H   0  0  0  0  0  0
  -27.5767  -19.7268   21.9396 H   0  0  0  0  0  0
  -27.9237  -17.3468   22.0337 H   0  0  0  0  0  0
  -31.3323  -17.7308   19.4585 H   0  0  0  0  0  0
  -27.1165  -25.1720   21.4163 H   0  0  0  0  0  0
  -30.5402  -22.9998   20.1597 H   0  0  0  0  0  0
  -29.3912  -22.7119   18.8152 H   0  0  0  0  0  0
  -28.8841  -15.3800   21.2699 H   0  0  0  0  0  0
  1 25  1  0  0  0
  1 30  2  0  0  0
  1 82  1  0  0  0
  2  3  1  0  0  0
  2 25  1  0  0  0
  2 85  1  0  0  0
  2 86  1  0  0  0
  3  4  1  0  0  0
  3 87  1  0  0  0
  3 88  1  0  0  0
  4  5  1  0  0  0
  4 89  1  0  0  0
  4 90  1  0  0  0
  5  6  1  0  0  0
  5 26  1  0  0  0
  5 91  1  0  0  0
  6 25  1  0  0  0
  6 92  1  0  0  0
  6 93  1  0  0  0
  7  8  2  0  0  0
  7 26  1  0  0  0
  7 29  1  0  0  0
  8  9  1  0  0  0
  8 22  1  0  0  0
  9 10  1  0  0  0
  9 27  2  0  0  0
 10 11  2  0  0  0
 10 15  1  0  0  0
 11 12  1  0  0  0
 11 94  1  0  0  0
 12 13  2  0  0  0
 12 95  1  0  0  0
 13 14  1  0  0  0
 13 31  1  0  0  0
 14 15  2  0  0  0
 14 96  1  0  0  0
 15 97  1  0  0  0
 16 17  2  0  0  0
 16 21  1  0  0  0
 16 31  1  0  0  0
 17 18  1  0  0  0
 17 98  1  0  0  0
 18 19  2  0  0  0
 18 99  1  0  0  0
 19 20  1  0  0  0
 19 24  1  0  0  0
 20 21  2  0  0  0
 20100  1  0  0  0
 21 23  1  0  0  0
 22 28  1  0  0  0
 22 32  2  0  0  0
 26 27  1  0  0  0
 28101  1  0  0  0
 28102  1  0  0  0
 29103  1  0  0  0
 29104  1  0  0  0
 33 34  1  0  0  0
 33 66  1  0  0  0
 33 70  2  0  0  0
 34 36  1  0  0  0
 34 59  1  0  0  0
 34105  1  0  0  0
 35 44  2  0  0  0
 35 45  1  0  0  0
 35 68  1  0  0  0
 36 56  1  0  0  0
 36106  1  0  0  0
 37 39  1  0  0  0
 37 47  1  0  0  0
 37 66  1  0  0  0
 37107  1  0  0  0
 38 43  2  0  0  0
 38 46  1  0  0  0
 38 47  1  0  0  0
 39 64  1  0  0  0
 39 67  2  0  0  0
 40 52  1  0  0  0
 40 53  2  0  0  0
 40 58  1  0  0  0
 41108  1  0  0  0
 41109  1  0  0  0
 41110  1  0  0  0
 41 48  1  0  0  0
 42 43  1  0  0  0
 42 66  1  0  0  0
 42111  1  0  0  0
 42112  1  0  0  0
 43 44  1  0  0  0
 44113  1  0  0  0
 45 46  2  0  0  0
 45114  1  0  0  0
 46115  1  0  0  0
 47116  1  0  0  0
 47117  1  0  0  0
 48 56  1  0  0  0
 48 65  1  0  0  0
 48118  1  0  0  0
 49 50  1  0  0  0
 49 53  1  0  0  0
 49 64  1  0  0  0
 49119  1  0  0  0
 50 51  1  0  0  0
 50120  1  0  0  0
 50121  1  0  0  0
 51 52  1  0  0  0
 51122  1  0  0  0
 51123  1  0  0  0
 52124  1  0  0  0
 52125  1  0  0  0
 53 54  1  0  0  0
 54 55  2  0  0  0
 54126  1  0  0  0
 55 57  1  0  0  0
 55127  1  0  0  0
 56 69  2  0  0  0
 57 58  2  0  0  0
 57128  1  0  0  0
 58129  1  0  0  0
 59 60  1  0  0  0
 59 61  1  0  0  0
 59 62  1  0  0  0
 60130  1  0  0  0
 60131  1  0  0  0
 60132  1  0  0  0
 61133  1  0  0  0
 61134  1  0  0  0
 61135  1  0  0  0
 62136  1  0  0  0
 62137  1  0  0  0
 62138  1  0  0  0
 63 65  1  0  0  0
 63139  1  0  0  0
 63140  1  0  0  0
 63141  1  0  0  0
 64142  1  0  0  0
 65143  1  0  0  0
 68 79  1  0  0  0
 71 72  2  0  0  0
 71 74  1  0  0  0
 71144  1  0  0  0
 72 75  1  0  0  0
 72145  1  0  0  0
 73 75  2  0  0  0
 73 76  1  0  0  0
 73146  1  0  0  0
 74 76  2  0  0  0
 74 81  1  0  0  0
 75 82  1  0  0  0
 76 84  1  0  0  0
 77 78  1  0  0  0
 77 79  2  0  0  0
 77 80  1  0  0  0
 78 81  1  0  0  0
 78 83  2  0  0  0
 79147  1  0  0  0
 80 81  1  0  0  0
 80148  1  0  0  0
 80149  1  0  0  0
 82150  1  0  0  0
M  ISO  4   1 100  68 101  79 101  82 100
M  END
> <chiral flag>
0

> <version>
0

> <s_m_source_file>
/data/baiqing/PycharmProjects/Reinvent-master-3.2/result/LINK_invent/BTK/process_docking_weight1_custom_product_contain_oxygen_bond_distance_aromatic_linkinvent_7_9_3/rearranged_h_0082.sdf

> <i_m_source_file_index>
37

> <r_mmod_Potential_Energy-OPLS-2005>
227.970703125

> <r_mmod_Stretch_Energy-OPLS-2005>
107.681640625

> <r_mmod_Bend_Energy-OPLS-2005>
270.576690673828

> <r_mmod_Torsional_Energy-OPLS-2005>
220.03254699707

> <r_mmod_Improper_Torsional_Energy-OPLS-2005>
3.48363852500916

> <r_mmod_Van_der_Waal_Energy-OPLS-2005>
134.12727355957

> <r_mmod_Electrostatic_Energy-OPLS-2005>
-381.995819091797

> <r_mmod_Solvation_Energy-OPLS-2005>
-213.960922241211

> <b_mmod_Minimization_Converged-OPLS-2005>
0

> <r_mmod_RMS_Derivative-OPLS-2005>
0.390327841043472

$$$$
37
                    3D
 Structure written by MMmdl.
154163  0  0  1  0            999 V2000
  -30.6432  -14.7598   20.4795 C   0  0  0  0  0  0
  -30.4624  -12.4714   19.4909 C   0  0  0  0  0  0
  -29.5167  -12.4542   18.2692 C   0  0  0  0  0  0
  -28.0554  -12.2509   18.7059 C   0  0  0  0  0  0
  -27.6559  -13.1917   19.8650 C   0  0  2  0  0  0
  -28.7042  -13.1661   21.0031 C   0  0  0  0  0  0
  -25.2635  -13.8111   20.5814 C   0  0  0  0  0  0
  -24.1892  -13.0388   20.9287 C   0  0  0  0  0  0
  -24.6454  -11.6862   20.8880 C   0  0  0  0  0  0
  -23.9119  -10.4244   21.0481 C   0  0  0  0  0  0
  -24.3654   -9.4160   21.9246 C   0  0  0  0  0  0
  -23.6300   -8.2207   22.0776 C   0  0  0  0  0  0
  -22.4294   -8.0287   21.3541 C   0  0  0  0  0  0
  -21.9955   -9.0280   20.4676 C   0  0  0  0  0  0
  -22.7293  -10.2153   20.3104 C   0  0  0  0  0  0
  -21.6824   -6.0777   22.5302 C   0  0  0  0  0  0
  -21.3984   -6.5668   23.8237 C   0  0  0  0  0  0
  -21.3646   -5.6803   24.9185 C   0  0  0  0  0  0
  -21.6032   -4.3060   24.7203 C   0  0  0  0  0  0
  -21.8797   -3.8188   23.4314 C   0  0  0  0  0  0
  -21.9183   -4.7026   22.3399 C   0  0  0  0  0  0
  -22.7901  -13.5229   21.1816 C   0  0  0  0  0  0
  -22.1661   -4.2221   21.0964 F   0  0  0  0  0  0
  -21.5626   -3.4532   25.7709 F   0  0  0  0  0  0
  -30.0058  -13.5326   20.4280 N   0  0  0  0  0  0
  -26.3025  -12.9230   20.3382 N   0  0  0  0  0  0
  -25.9356  -11.6425   20.5867 N   0  0  0  0  0  0
  -22.0497  -12.8341   22.0397 N   0  0  0  0  0  0
  -25.4108  -15.1849   20.4143 N   0  0  0  0  0  0
  -31.7629  -14.8783   19.9769 O   0  0  0  0  0  0
  -21.6602   -6.8929   21.4256 O   0  0  0  0  0  0
  -22.3661  -14.5508   20.6518 O   0  0  0  0  0  0
  -24.6375  -31.8491   23.1824 C   0  0  0  0  0  0
  -25.9156  -32.4704   23.8208 C   0  0  1  0  0  0
  -27.2322  -27.2298   20.1135 C   0  0  0  0  0  0
  -25.5882  -33.8476   24.2048 N   0  0  0  0  0  0
  -23.4357  -30.4733   21.5289 C   0  0  2  0  0  0
  -24.8813  -28.9074   20.1095 C   0  0  0  0  0  0
  -22.7547  -29.4600   22.4834 C   0  0  0  0  0  0
  -18.0366  -28.1427   22.8512 C   0  0  0  0  0  0
  -24.1514  -36.7258   23.2668 C   0  0  0  0  0  0
  -25.9896  -30.7438   21.3717 C   0  0  0  0  0  0
  -26.0598  -29.3672   20.7102 C   0  0  0  0  0  0
  -27.2391  -28.5471   20.6935 C   0  0  0  0  0  0
  -26.0173  -26.8364   19.5031 C   0  0  0  0  0  0
  -24.8670  -27.6472   19.5028 C   0  0  0  0  0  0
  -23.6447  -29.7916   20.1550 C   0  0  0  0  0  0
  -25.4135  -36.2987   24.0297 C   0  0  1  0  0  0
  -20.5953  -28.3729   23.1247 C   0  0  2  0  0  0
  -20.6813  -26.9412   22.5394 C   0  0  0  0  0  0
  -19.5741  -26.6390   21.5249 C   0  0  0  0  0  0
  -18.1954  -26.7981   22.1666 C   0  0  0  0  0  0
  -19.1618  -28.8920   23.2888 C   0  0  0  0  0  0
  -18.9524  -30.1531   23.8858 C   0  0  0  0  0  0
  -17.6504  -30.6601   24.0645 C   0  0  0  0  0  0
  -25.9103  -34.9379   23.5010 C   0  0  0  0  0  0
  -16.5412  -29.9086   23.6398 C   0  0  0  0  0  0
  -16.7357  -28.6548   23.0326 C   0  0  0  0  0  0
  -26.4415  -31.6633   25.0693 C   0  0  0  0  0  0
  -25.3571  -31.3772   26.1396 C   0  0  0  0  0  0
  -27.0337  -30.3058   24.6264 C   0  0  0  0  0  0
  -27.5877  -32.4546   25.7435 C   0  0  0  0  0  0
  -27.5558  -37.1760   24.8465 C   0  0  0  0  0  0
  -21.4240  -29.3082   22.3601 N   0  0  0  0  0  0
  -26.4277  -37.3721   23.9432 N   0  0  0  0  0  0
  -24.7086  -31.0435   22.0815 N   0  0  0  0  0  0
  -23.4215  -28.8117   23.2958 O   0  0  0  0  0  0
  -28.3313  -26.3196   20.1568 O   0  0  0  0  0  0
  -26.5730  -34.8919   22.4603 O   0  0  0  0  0  0
  -23.5516  -32.1301   23.7107 O   0  0  0  0  0  0
  -27.7848  -18.2489   18.9417 C   0  0  0  0  0  0
  -28.4253  -17.1560   19.5490 C   0  0  0  0  0  0
  -28.1840  -19.5668   19.2407 C   0  0  0  0  0  0
  -29.9007  -18.6934   20.7354 C   0  0  0  0  0  0
  -30.4108  -23.3945   20.1820 C   0  0  0  0  0  0
  -28.5239  -22.2893   20.4497 C   0  0  0  0  0  0
  -29.5013  -17.3084   20.4672 C   0  0  0  0  0  0
  -28.9874  -23.5956   20.3173 C   0  0  0  0  0  0
  -29.2431  -19.8456   20.1314 C   0  0  0  0  0  0
  -30.6811  -22.0345   20.1955 C   0  0  0  0  0  0
  -30.0134  -16.0336   21.2175 C   0  0  0  0  0  0
  -27.9960  -24.8556   20.2963 C   0  0  0  0  0  0
  -29.9967  -16.0413   22.4875 N   0  0  0  0  0  0
  -29.5085  -21.2913   20.3015 N   0  0  0  0  0  0
  -31.8783  -21.3937   20.0652 O   0  0  0  0  0  0
  -31.4853  -12.6284   19.1451 H   0  0  0  0  0  0
  -30.4775  -11.5068   20.0015 H   0  0  0  0  0  0
  -29.8105  -11.6485   17.5943 H   0  0  0  0  0  0
  -29.6095  -13.3830   17.7040 H   0  0  0  0  0  0
  -27.9605  -11.2169   19.0417 H   0  0  0  0  0  0
  -27.3788  -12.3532   17.8596 H   0  0  0  0  0  0
  -27.6376  -14.1824   19.4331 H   0  0  0  0  0  0
  -28.7597  -12.1714   21.4536 H   0  0  0  0  0  0
  -28.4142  -13.8439   21.8087 H   0  0  0  0  0  0
  -25.2798   -9.5580   22.4853 H   0  0  0  0  0  0
  -23.9977   -7.4574   22.7522 H   0  0  0  0  0  0
  -21.0861   -8.8856   19.8984 H   0  0  0  0  0  0
  -22.3810  -10.9721   19.6242 H   0  0  0  0  0  0
  -21.1962   -7.6168   23.9759 H   0  0  0  0  0  0
  -21.1477   -6.0524   25.9086 H   0  0  0  0  0  0
  -22.0582   -2.7648   23.2778 H   0  0  0  0  0  0
  -22.4106  -12.0039   22.4873 H   0  0  0  0  0  0
  -21.1103  -13.1396   22.2505 H   0  0  0  0  0  0
  -24.6162  -15.7962   20.5688 H   0  0  0  0  0  0
  -26.1919  -15.6682   19.9838 H   0  0  0  0  0  0
  -26.7224  -32.5258   23.0939 H   0  0  0  0  0  0
  -24.9950  -33.9632   25.0153 H   0  0  0  0  0  0
  -22.7392  -31.3029   21.3742 H   0  0  0  0  0  0
  -23.3757  -35.9627   23.3273 H   0  0  0  0  0  0
  -24.3626  -36.8940   22.2106 H   0  0  0  0  0  0
  -23.7273  -37.6423   23.6769 H   0  0  0  0  0  0
  -26.1589  -31.4951   20.6017 H   0  0  0  0  0  0
  -26.8576  -30.7756   22.0123 H   0  0  0  0  0  0
  -28.1394  -28.8981   21.1749 H   0  0  0  0  0  0
  -25.8842  -25.8811   19.0257 H   0  0  0  0  0  0
  -23.9608  -27.2729   19.0456 H   0  0  0  0  0  0
  -23.7398  -30.5528   19.3829 H   0  0  0  0  0  0
  -22.7617  -29.2166   19.8680 H   0  0  0  0  0  0
  -25.1323  -36.1773   25.0788 H   0  0  0  0  0  0
  -21.0184  -28.3340   24.1318 H   0  0  0  0  0  0
  -20.5821  -26.2302   23.3618 H   0  0  0  0  0  0
  -21.6647  -26.7450   22.1074 H   0  0  0  0  0  0
  -19.6865  -25.6301   21.1262 H   0  0  0  0  0  0
  -19.6654  -27.3262   20.6854 H   0  0  0  0  0  0
  -17.4178  -26.6851   21.4077 H   0  0  0  0  0  0
  -18.0287  -26.0127   22.9080 H   0  0  0  0  0  0
  -19.7984  -30.7478   24.2039 H   0  0  0  0  0  0
  -17.5023  -31.6259   24.5274 H   0  0  0  0  0  0
  -15.5388  -30.2952   23.7757 H   0  0  0  0  0  0
  -15.8761  -28.0933   22.6896 H   0  0  0  0  0  0
  -24.5668  -30.7256   25.7589 H   0  0  0  0  0  0
  -24.8889  -32.2984   26.4935 H   0  0  0  0  0  0
  -25.7853  -30.8736   27.0107 H   0  0  0  0  0  0
  -26.2934  -29.6729   24.1353 H   0  0  0  0  0  0
  -27.4056  -29.7397   25.4818 H   0  0  0  0  0  0
  -27.8780  -30.4284   23.9466 H   0  0  0  0  0  0
  -27.2315  -33.3874   26.1861 H   0  0  0  0  0  0
  -28.3678  -32.7190   25.0261 H   0  0  0  0  0  0
  -28.0568  -31.8863   26.5482 H   0  0  0  0  0  0
  -28.2517  -38.0124   24.7583 H   0  0  0  0  0  0
  -28.1131  -36.2646   24.6220 H   0  0  0  0  0  0
  -27.2305  -37.1251   25.8881 H   0  0  0  0  0  0
  -20.9422  -29.8757   21.6752 H   0  0  0  0  0  0
  -26.0100  -38.2769   24.1523 H   0  0  0  0  0  0
  -26.9576  -18.0945   18.2486 H   0  0  0  0  0  0
  -28.0272  -16.1854   19.3070 H   0  0  0  0  0  0
  -27.6515  -20.3811   18.7625 H   0  0  0  0  0  0
  -30.7080  -18.8841   21.4313 H   0  0  0  0  0  0
  -31.1736  -24.1545   20.0548 H   0  0  0  0  0  0
  -27.5080  -21.9495   20.5828 H   0  0  0  0  0  0
  -27.4168  -24.7565   21.2147 H   0  0  0  0  0  0
  -27.3282  -24.5547   19.4926 H   0  0  0  0  0  0
  -29.6235  -16.9125   22.8422 H   0  0  0  0  0  0
  -32.5625  -22.0529   20.0155 H   0  0  0  0  0  0
  1 25  1  0  0  0
  1 30  2  0  0  0
  1 81  1  0  0  0
  2  3  1  0  0  0
  2 25  1  0  0  0
  2 86  1  0  0  0
  2 87  1  0  0  0
  3  4  1  0  0  0
  3 88  1  0  0  0
  3 89  1  0  0  0
  4  5  1  0  0  0
  4 90  1  0  0  0
  4 91  1  0  0  0
  5  6  1  0  0  0
  5 26  1  0  0  0
  5 92  1  0  0  0
  6 25  1  0  0  0
  6 93  1  0  0  0
  6 94  1  0  0  0
  7  8  2  0  0  0
  7 26  1  0  0  0
  7 29  1  0  0  0
  8  9  1  0  0  0
  8 22  1  0  0  0
  9 10  1  0  0  0
  9 27  2  0  0  0
 10 11  2  0  0  0
 10 15  1  0  0  0
 11 12  1  0  0  0
 11 95  1  0  0  0
 12 13  2  0  0  0
 12 96  1  0  0  0
 13 14  1  0  0  0
 13 31  1  0  0  0
 14 15  2  0  0  0
 14 97  1  0  0  0
 15 98  1  0  0  0
 16 17  2  0  0  0
 16 21  1  0  0  0
 16 31  1  0  0  0
 17 18  1  0  0  0
 17 99  1  0  0  0
 18 19  2  0  0  0
 18100  1  0  0  0
 19 20  1  0  0  0
 19 24  1  0  0  0
 20 21  2  0  0  0
 20101  1  0  0  0
 21 23  1  0  0  0
 22 28  1  0  0  0
 22 32  2  0  0  0
 26 27  1  0  0  0
 28102  1  0  0  0
 28103  1  0  0  0
 29104  1  0  0  0
 29105  1  0  0  0
 33 34  1  0  0  0
 33 66  1  0  0  0
 33 70  2  0  0  0
 34 36  1  0  0  0
 34 59  1  0  0  0
 34106  1  0  0  0
 35 44  2  0  0  0
 35 45  1  0  0  0
 35 68  1  0  0  0
 36 56  1  0  0  0
 36107  1  0  0  0
 37 39  1  0  0  0
 37 47  1  0  0  0
 37 66  1  0  0  0
 37108  1  0  0  0
 38 43  2  0  0  0
 38 46  1  0  0  0
 38 47  1  0  0  0
 39 64  1  0  0  0
 39 67  2  0  0  0
 40 52  1  0  0  0
 40 53  2  0  0  0
 40 58  1  0  0  0
 41109  1  0  0  0
 41110  1  0  0  0
 41111  1  0  0  0
 41 48  1  0  0  0
 42 43  1  0  0  0
 42 66  1  0  0  0
 42112  1  0  0  0
 42113  1  0  0  0
 43 44  1  0  0  0
 44114  1  0  0  0
 45 46  2  0  0  0
 45115  1  0  0  0
 46116  1  0  0  0
 47117  1  0  0  0
 47118  1  0  0  0
 48 56  1  0  0  0
 48 65  1  0  0  0
 48119  1  0  0  0
 49 50  1  0  0  0
 49 53  1  0  0  0
 49 64  1  0  0  0
 49120  1  0  0  0
 50 51  1  0  0  0
 50121  1  0  0  0
 50122  1  0  0  0
 51 52  1  0  0  0
 51123  1  0  0  0
 51124  1  0  0  0
 52125  1  0  0  0
 52126  1  0  0  0
 53 54  1  0  0  0
 54 55  2  0  0  0
 54127  1  0  0  0
 55 57  1  0  0  0
 55128  1  0  0  0
 56 69  2  0  0  0
 57 58  2  0  0  0
 57129  1  0  0  0
 58130  1  0  0  0
 59 60  1  0  0  0
 59 61  1  0  0  0
 59 62  1  0  0  0
 60131  1  0  0  0
 60132  1  0  0  0
 60133  1  0  0  0
 61134  1  0  0  0
 61135  1  0  0  0
 61136  1  0  0  0
 62137  1  0  0  0
 62138  1  0  0  0
 62139  1  0  0  0
 63 65  1  0  0  0
 63140  1  0  0  0
 63141  1  0  0  0
 63142  1  0  0  0
 64143  1  0  0  0
 65144  1  0  0  0
 68 82  1  0  0  0
 71 72  2  0  0  0
 71 73  1  0  0  0
 71145  1  0  0  0
 72 77  1  0  0  0
 72146  1  0  0  0
 73 79  2  0  0  0
 73147  1  0  0  0
 74 77  2  0  0  0
 74 79  1  0  0  0
 74148  1  0  0  0
 75 78  1  0  0  0
 75 80  2  0  0  0
 75149  1  0  0  0
 76 78  2  0  0  0
 76 84  1  0  0  0
 76150  1  0  0  0
 77 81  1  0  0  0
 78 82  1  0  0  0
 79 84  1  0  0  0
 80 84  1  0  0  0
 80 85  1  0  0  0
 81 83  2  0  0  0
 82151  1  0  0  0
 82152  1  0  0  0
 83153  1  0  0  0
 85154  1  0  0  0
M  ISO  4   1 100  68 101  81 100  82 101
M  END
> <chiral flag>
0

> <version>
0

> <s_m_source_file>
/data/baiqing/PycharmProjects/Reinvent-master-3.2/result/LINK_invent/BTK/process_docking_weight1_custom_product_contain_oxygen_bond_distance_aromatic_linkinvent_7_9_3/rearranged_h_0082.sdf

> <i_m_source_file_index>
38

> <r_mmod_Potential_Energy-OPLS-2005>
378.392395019531

> <r_mmod_Stretch_Energy-OPLS-2005>
133.316146850586

> <r_mmod_Bend_Energy-OPLS-2005>
206.609848022461

> <r_mmod_Torsional_Energy-OPLS-2005>
249.021713256836

> <r_mmod_Improper_Torsional_Energy-OPLS-2005>
4.28473711013794

> <r_mmod_Van_der_Waal_Energy-OPLS-2005>
135.528198242188

> <r_mmod_Electrostatic_Energy-OPLS-2005>
-230.894989013672

> <r_mmod_Solvation_Energy-OPLS-2005>
-220.240997314453

> <b_mmod_Minimization_Converged-OPLS-2005>
0

> <r_mmod_RMS_Derivative-OPLS-2005>
9.61849308013916

$$$$
38
                    3D
 Structure written by MMmdl.
160169  0  0  1  0            999 V2000
  -30.6748  -14.5303   20.5607 C   0  0  0  0  0  0
  -30.4264  -12.3398   19.4238 C   0  0  0  0  0  0
  -29.4940  -12.4948   18.2030 C   0  0  0  0  0  0
  -28.0253  -12.2891   18.6180 C   0  0  0  0  0  0
  -27.6455  -13.1609   19.8369 C   0  0  2  0  0  0
  -28.6890  -13.0168   20.9769 C   0  0  0  0  0  0
  -25.2563  -13.7988   20.5580 C   0  0  0  0  0  0
  -24.1800  -13.0331   20.9129 C   0  0  0  0  0  0
  -24.6344  -11.6806   20.8740 C   0  0  0  0  0  0
  -23.9006  -10.4222   21.0434 C   0  0  0  0  0  0
  -24.3561   -9.4154   21.9223 C   0  0  0  0  0  0
  -23.6248   -8.2183   22.0766 C   0  0  0  0  0  0
  -22.4219   -8.0239   21.3553 C   0  0  0  0  0  0
  -21.9855   -9.0212   20.4646 C   0  0  0  0  0  0
  -22.7183  -10.2096   20.3083 C   0  0  0  0  0  0
  -21.6830   -6.0714   22.5291 C   0  0  0  0  0  0
  -21.3989   -6.5621   23.8223 C   0  0  0  0  0  0
  -21.3649   -5.6779   24.9193 C   0  0  0  0  0  0
  -21.6060   -4.3039   24.7244 C   0  0  0  0  0  0
  -21.8809   -3.8126   23.4354 C   0  0  0  0  0  0
  -21.9178   -4.6947   22.3415 C   0  0  0  0  0  0
  -22.7846  -13.5195   21.1838 C   0  0  0  0  0  0
  -22.1648   -4.2126   21.0995 F   0  0  0  0  0  0
  -21.5638   -3.4533   25.7754 F   0  0  0  0  0  0
  -30.0301  -13.3298   20.4398 N   0  0  0  0  0  0
  -26.2918  -12.9089   20.3153 N   0  0  0  0  0  0
  -25.9254  -11.6300   20.5725 N   0  0  0  0  0  0
  -22.0495  -12.8217   22.0408 N   0  0  0  0  0  0
  -25.4294  -15.1681   20.4017 N   0  0  0  0  0  0
  -31.7504  -14.7652   20.0082 O   0  0  0  0  0  0
  -21.6600   -6.8839   21.4239 O   0  0  0  0  0  0
  -22.3556  -14.5561   20.6771 O   0  0  0  0  0  0
  -24.6153  -31.8694   23.2073 C   0  0  0  0  0  0
  -25.9059  -32.4822   23.8350 C   0  0  1  0  0  0
  -27.2388  -27.4706   20.0376 C   0  0  0  0  0  0
  -25.5905  -33.8619   24.2269 N   0  0  0  0  0  0
  -23.3977  -30.4952   21.5491 C   0  0  2  0  0  0
  -24.8398  -28.9613   20.1143 C   0  0  0  0  0  0
  -22.7387  -29.4682   22.4981 C   0  0  0  0  0  0
  -18.0255  -28.1364   22.8475 C   0  0  0  0  0  0
  -24.1475  -36.7378   23.2616 C   0  0  0  0  0  0
  -25.9256  -30.8445   21.3490 C   0  0  0  0  0  0
  -26.0039  -29.4773   20.7051 C   0  0  0  0  0  0
  -27.2059  -28.7322   20.6683 C   0  0  0  0  0  0
  -26.0457  -26.9495   19.4872 C   0  0  0  0  0  0
  -24.8527  -27.6923   19.5173 C   0  0  0  0  0  0
  -23.5971  -29.8224   20.1668 C   0  0  0  0  0  0
  -25.4093  -36.3144   24.0310 C   0  0  1  0  0  0
  -20.5839  -28.3684   23.1296 C   0  0  2  0  0  0
  -20.6759  -26.9418   22.5403 C   0  0  0  0  0  0
  -19.5748  -26.6384   21.5185 C   0  0  0  0  0  0
  -18.1916  -26.7914   22.1600 C   0  0  0  0  0  0
  -19.1501  -28.8826   23.2894 C   0  0  0  0  0  0
  -18.9452  -30.1409   23.8924 C   0  0  0  0  0  0
  -17.6459  -30.6585   24.0566 C   0  0  0  0  0  0
  -25.9026  -34.9494   23.5104 C   0  0  0  0  0  0
  -16.5345  -29.9092   23.6300 C   0  0  0  0  0  0
  -16.7242  -28.6498   23.0340 C   0  0  0  0  0  0
  -26.4460  -31.6591   25.0671 C   0  0  0  0  0  0
  -25.3751  -31.3735   26.1435 C   0  0  0  0  0  0
  -27.0193  -30.3026   24.5974 C   0  0  0  0  0  0
  -27.6035  -32.4294   25.7469 C   0  0  0  0  0  0
  -27.5574  -37.1831   24.8449 C   0  0  0  0  0  0
  -21.4100  -29.3066   22.3704 N   0  0  0  0  0  0
  -26.4279  -37.3843   23.9396 N   0  0  0  0  0  0
  -24.6649  -31.0835   22.0954 N   0  0  0  0  0  0
  -23.4148  -28.8144   23.2957 O   0  0  0  0  0  0
  -28.4100  -26.7469   19.9461 O   0  0  0  0  0  0
  -26.5642  -34.8960   22.4689 O   0  0  0  0  0  0
  -23.5349  -32.1447   23.7479 O   0  0  0  0  0  0
  -31.4383  -21.7099   23.0816 C   0  0  0  0  0  0
  -31.3636  -20.3291   22.8687 C   0  0  0  0  0  0
  -29.0483  -20.1328   19.9630 C   0  0  0  0  0  0
  -28.9030  -18.7281   19.8894 C   0  0  0  0  0  0
  -30.7970  -22.5918   22.1997 C   0  0  0  0  0  0
  -30.4931  -18.4170   21.6888 C   0  0  0  0  0  0
  -30.5929  -19.8215   21.8134 C   0  0  0  0  0  0
  -29.9042  -20.7079   20.9354 C   0  0  0  0  0  0
  -29.6220  -17.8494   20.7468 C   0  0  0  0  0  0
  -30.0808  -22.1199   21.0687 C   0  0  0  0  0  0
  -28.6478  -26.0759   18.7632 C   0  0  0  0  0  0
  -29.2250  -16.3950   20.8387 C   0  0  0  0  0  0
  -29.3069  -24.8974   18.6591 C   0  0  0  0  0  0
  -29.9086  -24.3173   19.8532 C   0  0  0  0  0  0
  -29.5376  -24.2202   17.3163 C   0  0  0  0  0  0
  -29.5635  -23.0271   20.0824 N   0  0  0  0  0  0
  -30.0595  -15.4500   21.3298 N   0  0  0  0  0  0
  -28.0487  -16.1363   20.6044 O   0  0  0  0  0  0
  -30.6815  -24.9699   20.5583 O   0  0  0  0  0  0
  -31.4713  -12.4417   19.1248 H   0  0  0  0  0  0
  -30.3285  -11.3353   19.8456 H   0  0  0  0  0  0
  -29.7651  -11.7801   17.4271 H   0  0  0  0  0  0
  -29.6152  -13.4793   17.7535 H   0  0  0  0  0  0
  -27.8798  -11.2321   18.8521 H   0  0  0  0  0  0
  -27.3660  -12.4985   17.7757 H   0  0  0  0  0  0
  -27.6606  -14.1634   19.4290 H   0  0  0  0  0  0
  -28.6860  -12.0056   21.3905 H   0  0  0  0  0  0
  -28.4012  -13.6541   21.8111 H   0  0  0  0  0  0
  -25.2729   -9.5615   22.4767 H   0  0  0  0  0  0
  -23.9955   -7.4568   22.7483 H   0  0  0  0  0  0
  -21.0788   -8.8735   19.8950 H   0  0  0  0  0  0
  -22.3681  -10.9630   19.6154 H   0  0  0  0  0  0
  -21.1966   -7.6129   23.9723 H   0  0  0  0  0  0
  -21.1492   -6.0516   25.9103 H   0  0  0  0  0  0
  -22.0601   -2.7584   23.2885 H   0  0  0  0  0  0
  -22.4044  -11.9858   22.4792 H   0  0  0  0  0  0
  -21.1136  -13.1303   22.2629 H   0  0  0  0  0  0
  -24.7165  -15.8504   20.6301 H   0  0  0  0  0  0
  -26.3627  -15.5772   20.3174 H   0  0  0  0  0  0
  -26.7135  -32.5511   23.1100 H   0  0  0  0  0  0
  -24.9996  -33.9745   25.0374 H   0  0  0  0  0  0
  -22.6843  -31.3100   21.4133 H   0  0  0  0  0  0
  -23.3731  -35.9720   23.3285 H   0  0  0  0  0  0
  -24.3588  -36.9004   22.2034 H   0  0  0  0  0  0
  -23.7227  -37.6576   23.6644 H   0  0  0  0  0  0
  -26.0244  -31.5935   20.5635 H   0  0  0  0  0  0
  -26.8208  -30.9137   21.9565 H   0  0  0  0  0  0
  -28.1063  -29.1413   21.1038 H   0  0  0  0  0  0
  -26.0474  -25.9787   19.0143 H   0  0  0  0  0  0
  -23.9540  -27.2738   19.0848 H   0  0  0  0  0  0
  -23.6929  -30.5878   19.3968 H   0  0  0  0  0  0
  -22.7229  -29.2283   19.8801 H   0  0  0  0  0  0
  -25.1239  -36.2017   25.0805 H   0  0  0  0  0  0
  -20.9964  -28.3292   24.1404 H   0  0  0  0  0  0
  -20.5636  -26.2296   23.3601 H   0  0  0  0  0  0
  -21.6632  -26.7438   22.1203 H   0  0  0  0  0  0
  -19.6932  -25.6292   21.1201 H   0  0  0  0  0  0
  -19.6690  -27.3202   20.6726 H   0  0  0  0  0  0
  -17.4171  -26.6602   21.4008 H   0  0  0  0  0  0
  -18.0384  -26.0031   22.8992 H   0  0  0  0  0  0
  -19.7930  -30.7200   24.2332 H   0  0  0  0  0  0
  -17.5025  -31.6277   24.5165 H   0  0  0  0  0  0
  -15.5337  -30.3030   23.7620 H   0  0  0  0  0  0
  -15.8637  -28.0840   22.7071 H   0  0  0  0  0  0
  -24.5990  -30.6980   25.7858 H   0  0  0  0  0  0
  -24.8871  -32.2875   26.4785 H   0  0  0  0  0  0
  -25.8106  -30.9030   27.0249 H   0  0  0  0  0  0
  -26.2685  -29.6886   24.0975 H   0  0  0  0  0  0
  -27.3946  -29.7164   25.4365 H   0  0  0  0  0  0
  -27.8557  -30.4364   23.9135 H   0  0  0  0  0  0
  -27.2645  -33.3632   26.1986 H   0  0  0  0  0  0
  -28.3886  -32.6799   25.0329 H   0  0  0  0  0  0
  -28.0658  -31.8446   26.5437 H   0  0  0  0  0  0
  -28.2586  -38.0143   24.7505 H   0  0  0  0  0  0
  -28.1048  -36.2653   24.6214 H   0  0  0  0  0  0
  -27.2290  -37.1430   25.8857 H   0  0  0  0  0  0
  -20.9254  -29.8855   21.6999 H   0  0  0  0  0  0
  -26.0167  -38.2919   24.1421 H   0  0  0  0  0  0
  -31.9786  -22.0999   23.9310 H   0  0  0  0  0  0
  -31.8506  -19.6566   23.5565 H   0  0  0  0  0  0
  -28.4431  -20.7512   19.3120 H   0  0  0  0  0  0
  -28.1796  -18.3182   19.1991 H   0  0  0  0  0  0
  -30.8815  -23.6426   22.4289 H   0  0  0  0  0  0
  -31.0185  -17.7686   22.3769 H   0  0  0  0  0  0
  -28.2495  -26.6027   17.9023 H   0  0  0  0  0  0
  -29.3186  -23.1523   17.3441 H   0  0  0  0  0  0
  -30.5834  -24.3367   17.0310 H   0  0  0  0  0  0
  -28.9144  -24.6642   16.5380 H   0  0  0  0  0  0
  -28.9451  -22.6202   19.3956 H   0  0  0  0  0  0
  -29.4912  -14.8728   21.9252 H   0  0  0  0  0  0
  1 25  1  0  0  0
  1 30  2  0  0  0
  1 87  1  0  0  0
  2  3  1  0  0  0
  2 25  1  0  0  0
  2 90  1  0  0  0
  2 91  1  0  0  0
  3  4  1  0  0  0
  3 92  1  0  0  0
  3 93  1  0  0  0
  4  5  1  0  0  0
  4 94  1  0  0  0
  4 95  1  0  0  0
  5  6  1  0  0  0
  5 26  1  0  0  0
  5 96  1  0  0  0
  6 25  1  0  0  0
  6 97  1  0  0  0
  6 98  1  0  0  0
  7  8  2  0  0  0
  7 26  1  0  0  0
  7 29  1  0  0  0
  8  9  1  0  0  0
  8 22  1  0  0  0
  9 10  1  0  0  0
  9 27  2  0  0  0
 10 11  2  0  0  0
 10 15  1  0  0  0
 11 12  1  0  0  0
 11 99  1  0  0  0
 12 13  2  0  0  0
 12100  1  0  0  0
 13 14  1  0  0  0
 13 31  1  0  0  0
 14 15  2  0  0  0
 14101  1  0  0  0
 15102  1  0  0  0
 16 17  2  0  0  0
 16 21  1  0  0  0
 16 31  1  0  0  0
 17 18  1  0  0  0
 17103  1  0  0  0
 18 19  2  0  0  0
 18104  1  0  0  0
 19 20  1  0  0  0
 19 24  1  0  0  0
 20 21  2  0  0  0
 20105  1  0  0  0
 21 23  1  0  0  0
 22 28  1  0  0  0
 22 32  2  0  0  0
 26 27  1  0  0  0
 28106  1  0  0  0
 28107  1  0  0  0
 29108  1  0  0  0
 29109  1  0  0  0
 33 34  1  0  0  0
 33 66  1  0  0  0
 33 70  2  0  0  0
 34 36  1  0  0  0
 34 59  1  0  0  0
 34110  1  0  0  0
 35 44  2  0  0  0
 35 45  1  0  0  0
 35 68  1  0  0  0
 36 56  1  0  0  0
 36111  1  0  0  0
 37 39  1  0  0  0
 37 47  1  0  0  0
 37 66  1  0  0  0
 37112  1  0  0  0
 38 43  2  0  0  0
 38 46  1  0  0  0
 38 47  1  0  0  0
 39 64  1  0  0  0
 39 67  2  0  0  0
 40 52  1  0  0  0
 40 53  2  0  0  0
 40 58  1  0  0  0
 41113  1  0  0  0
 41114  1  0  0  0
 41115  1  0  0  0
 41 48  1  0  0  0
 42 43  1  0  0  0
 42 66  1  0  0  0
 42116  1  0  0  0
 42117  1  0  0  0
 43 44  1  0  0  0
 44118  1  0  0  0
 45 46  2  0  0  0
 45119  1  0  0  0
 46120  1  0  0  0
 47121  1  0  0  0
 47122  1  0  0  0
 48 56  1  0  0  0
 48 65  1  0  0  0
 48123  1  0  0  0
 49 50  1  0  0  0
 49 53  1  0  0  0
 49 64  1  0  0  0
 49124  1  0  0  0
 50 51  1  0  0  0
 50125  1  0  0  0
 50126  1  0  0  0
 51 52  1  0  0  0
 51127  1  0  0  0
 51128  1  0  0  0
 52129  1  0  0  0
 52130  1  0  0  0
 53 54  1  0  0  0
 54 55  2  0  0  0
 54131  1  0  0  0
 55 57  1  0  0  0
 55132  1  0  0  0
 56 69  2  0  0  0
 57 58  2  0  0  0
 57133  1  0  0  0
 58134  1  0  0  0
 59 60  1  0  0  0
 59 61  1  0  0  0
 59 62  1  0  0  0
 60135  1  0  0  0
 60136  1  0  0  0
 60137  1  0  0  0
 61138  1  0  0  0
 61139  1  0  0  0
 61140  1  0  0  0
 62141  1  0  0  0
 62142  1  0  0  0
 62143  1  0  0  0
 63 65  1  0  0  0
 63144  1  0  0  0
 63145  1  0  0  0
 63146  1  0  0  0
 64147  1  0  0  0
 65148  1  0  0  0
 68 81  1  0  0  0
 71 72  2  0  0  0
 71 75  1  0  0  0
 71149  1  0  0  0
 72 77  1  0  0  0
 72150  1  0  0  0
 73 74  1  0  0  0
 73 78  2  0  0  0
 73151  1  0  0  0
 74 79  2  0  0  0
 74152  1  0  0  0
 75 80  2  0  0  0
 75153  1  0  0  0
 76 77  2  0  0  0
 76 79  1  0  0  0
 76154  1  0  0  0
 77 78  1  0  0  0
 78 80  1  0  0  0
 79 82  1  0  0  0
 80 86  1  0  0  0
 81 83  2  0  0  0
 81155  1  0  0  0
 82 87  1  0  0  0
 82 88  2  0  0  0
 83 84  1  0  0  0
 83 85  1  0  0  0
 84 86  1  0  0  0
 84 89  2  0  0  0
 85156  1  0  0  0
 85157  1  0  0  0
 85158  1  0  0  0
 86159  1  0  0  0
 87160  1  0  0  0
M  ISO  4   1 100  68 101  81 101  87 100
M  END
> <chiral flag>
0

> <version>
0

> <s_m_source_file>
/data/baiqing/PycharmProjects/Reinvent-master-3.2/result/LINK_invent/BTK/process_docking_weight1_custom_product_contain_oxygen_bond_distance_aromatic_linkinvent_7_9_3/rearranged_h_0082.sdf

> <i_m_source_file_index>
39

> <r_mmod_Potential_Energy-OPLS-2005>
22.796724319458

> <r_mmod_Stretch_Energy-OPLS-2005>
43.0440216064453

> <r_mmod_Bend_Energy-OPLS-2005>
128.631698608398

> <r_mmod_Torsional_Energy-OPLS-2005>
358.311553955078

> <r_mmod_Improper_Torsional_Energy-OPLS-2005>
15.1942510604858

> <r_mmod_Van_der_Waal_Energy-OPLS-2005>
194.188674926758

> <r_mmod_Electrostatic_Energy-OPLS-2005>
-514.064086914062

> <r_mmod_Solvation_Energy-OPLS-2005>
-221.578048706055

> <b_mmod_Minimization_Converged-OPLS-2005>
0

> <r_mmod_RMS_Derivative-OPLS-2005>
7.25199365615845

$$$$
39
                    3D
 Structure written by MMmdl.
154163  0  0  1  0            999 V2000
  -30.5983  -14.9661   20.3897 C   0  0  0  0  0  0
  -30.4189  -12.5937   19.5225 C   0  0  0  0  0  0
  -29.5198  -12.5287   18.2674 C   0  0  0  0  0  0
  -28.0515  -12.3200   18.6758 C   0  0  0  0  0  0
  -27.6208  -13.2654   19.8278 C   0  0  2  0  0  0
  -28.6573  -13.3356   20.9664 C   0  0  0  0  0  0
  -25.2431  -13.8262   20.5735 C   0  0  0  0  0  0
  -24.1762  -13.0459   20.9231 C   0  0  0  0  0  0
  -24.6399  -11.6949   20.8743 C   0  0  0  0  0  0
  -23.9092  -10.4306   21.0399 C   0  0  0  0  0  0
  -24.3637   -9.4220   21.9179 C   0  0  0  0  0  0
  -23.6311   -8.2253   22.0749 C   0  0  0  0  0  0
  -22.4290   -8.0288   21.3543 C   0  0  0  0  0  0
  -21.9929   -9.0262   20.4643 C   0  0  0  0  0  0
  -22.7260  -10.2142   20.3053 C   0  0  0  0  0  0
  -21.6860   -6.0742   22.5281 C   0  0  0  0  0  0
  -21.4018   -6.5644   23.8215 C   0  0  0  0  0  0
  -21.3662   -5.6796   24.9175 C   0  0  0  0  0  0
  -21.6045   -4.3058   24.7224 C   0  0  0  0  0  0
  -21.8818   -3.8152   23.4345 C   0  0  0  0  0  0
  -21.9196   -4.6969   22.3403 C   0  0  0  0  0  0
  -22.7782  -13.5211   21.1891 C   0  0  0  0  0  0
  -22.1664   -4.2155   21.0981 F   0  0  0  0  0  0
  -21.5628   -3.4541   25.7736 F   0  0  0  0  0  0
  -29.9395  -13.7301   20.3725 N   0  0  0  0  0  0
  -26.2850  -12.9525   20.3213 N   0  0  0  0  0  0
  -25.9333  -11.6635   20.5718 N   0  0  0  0  0  0
  -22.0444  -12.8185   22.0445 N   0  0  0  0  0  0
  -25.4110  -15.1994   20.4215 N   0  0  0  0  0  0
  -31.8119  -14.8899   20.1619 O   0  0  0  0  0  0
  -21.6650   -6.8886   21.4242 O   0  0  0  0  0  0
  -22.3455  -14.5511   20.6739 O   0  0  0  0  0  0
  -24.6451  -31.8432   23.1886 C   0  0  0  0  0  0
  -25.9216  -32.4693   23.8281 C   0  0  1  0  0  0
  -27.2096  -27.1241   20.1564 C   0  0  0  0  0  0
  -25.5956  -33.8499   24.2191 N   0  0  0  0  0  0
  -23.4507  -30.4630   21.5337 C   0  0  2  0  0  0
  -24.9028  -28.8923   20.1078 C   0  0  0  0  0  0
  -22.7583  -29.4541   22.4845 C   0  0  0  0  0  0
  -18.0310  -28.1398   22.8472 C   0  0  0  0  0  0
  -24.1493  -36.7255   23.2642 C   0  0  0  0  0  0
  -26.0088  -30.7123   21.3923 C   0  0  0  0  0  0
  -26.0813  -29.3227   20.7336 C   0  0  0  0  0  0
  -27.2399  -28.4530   20.7463 C   0  0  0  0  0  0
  -26.0131  -26.8056   19.4808 C   0  0  0  0  0  0
  -24.8817  -27.6468   19.4643 C   0  0  0  0  0  0
  -23.6801  -29.7960   20.1522 C   0  0  0  0  0  0
  -25.4125  -36.3031   24.0314 C   0  0  1  0  0  0
  -20.5924  -28.3729   23.1223 C   0  0  2  0  0  0
  -20.6793  -26.9428   22.5400 C   0  0  0  0  0  0
  -19.5767  -26.6382   21.5208 C   0  0  0  0  0  0
  -18.1950  -26.7933   22.1623 C   0  0  0  0  0  0
  -19.1567  -28.8880   23.2841 C   0  0  0  0  0  0
  -18.9482  -30.1474   23.8872 C   0  0  0  0  0  0
  -17.6477  -30.6591   24.0558 C   0  0  0  0  0  0
  -25.9076  -34.9406   23.5062 C   0  0  0  0  0  0
  -16.5369  -29.9084   23.6335 C   0  0  0  0  0  0
  -16.7294  -28.6504   23.0353 C   0  0  0  0  0  0
  -26.4533  -31.6559   25.0723 C   0  0  0  0  0  0
  -25.3709  -31.3744   26.1408 C   0  0  0  0  0  0
  -27.0408  -30.2955   24.6316 C   0  0  0  0  0  0
  -27.6053  -32.4334   25.7517 C   0  0  0  0  0  0
  -27.5574  -37.1789   24.8467 C   0  0  0  0  0  0
  -21.4272  -29.3050   22.3589 N   0  0  0  0  0  0
  -26.4291  -37.3741   23.9401 N   0  0  0  0  0  0
  -24.7213  -31.0273   22.0932 N   0  0  0  0  0  0
  -23.4213  -28.8088   23.3005 O   0  0  0  0  0  0
  -28.1861  -26.0585   20.2221 O   0  0  0  0  0  0
  -26.5666  -34.8902   22.4644 O   0  0  0  0  0  0
  -23.5564  -32.1318   23.7090 O   0  0  0  0  0  0
  -28.9473  -16.9762   21.2639 C   0  0  0  0  0  0
  -28.5269  -18.3707   21.3521 C   0  0  0  0  0  0
  -30.1163  -19.0064   19.7608 C   0  0  0  0  0  0
  -29.9946  -16.4834   20.4154 C   0  0  0  0  0  0
  -29.0796  -19.4951   20.6216 C   0  0  0  0  0  0
  -30.5488  -17.6105   19.6621 C   0  0  0  0  0  0
  -27.9775  -23.3801   20.9112 C   0  0  0  0  0  0
  -27.1568  -22.5841   21.8164 C   0  0  0  0  0  0
  -28.8698  -22.2707   20.3030 C   0  0  0  0  0  0
  -26.2056  -23.0226   22.6678 C   0  0  0  0  0  0
  -27.7541  -24.8034   20.8381 C   0  0  0  0  0  0
  -27.4794  -21.1170   21.7557 C   0  0  0  0  0  0
  -28.5727  -20.9574   20.8052 N   0  0  0  0  0  0
  -31.5861  -17.4001   18.7508 N   0  0  0  0  0  0
  -29.7558  -22.4700   19.4659 O   0  0  0  0  0  0
  -31.4601  -12.7020   19.2169 H   0  0  0  0  0  0
  -30.3772  -11.6545   20.0764 H   0  0  0  0  0  0
  -29.8443  -11.7229   17.6078 H   0  0  0  0  0  0
  -29.6170  -13.4536   17.6967 H   0  0  0  0  0  0
  -27.9455  -11.2815   18.9918 H   0  0  0  0  0  0
  -27.3943  -12.4445   17.8143 H   0  0  0  0  0  0
  -27.5732  -14.2606   19.3844 H   0  0  0  0  0  0
  -28.7421  -12.3766   21.4794 H   0  0  0  0  0  0
  -28.3499  -14.0573   21.7218 H   0  0  0  0  0  0
  -25.2780   -9.5698   22.4757 H   0  0  0  0  0  0
  -24.0021   -7.4645   22.7469 H   0  0  0  0  0  0
  -21.0860   -8.8782   19.8950 H   0  0  0  0  0  0
  -22.3714  -10.9680   19.6164 H   0  0  0  0  0  0
  -21.2012   -7.6151   23.9720 H   0  0  0  0  0  0
  -21.1486   -6.0525   25.9079 H   0  0  0  0  0  0
  -22.0595   -2.7613   23.2844 H   0  0  0  0  0  0
  -22.4086  -11.9858   22.4831 H   0  0  0  0  0  0
  -21.1053  -13.1184   22.2650 H   0  0  0  0  0  0
  -24.6462  -15.8536   20.5451 H   0  0  0  0  0  0
  -26.2679  -15.6446   20.1174 H   0  0  0  0  0  0
  -26.7281  -32.5299   23.1008 H   0  0  0  0  0  0
  -25.0061  -33.9613   25.0311 H   0  0  0  0  0  0
  -22.7541  -31.2897   21.3791 H   0  0  0  0  0  0
  -23.3748  -35.9598   23.3323 H   0  0  0  0  0  0
  -24.3566  -36.8868   22.2051 H   0  0  0  0  0  0
  -23.7266  -37.6465   23.6668 H   0  0  0  0  0  0
  -26.1665  -31.4658   20.6195 H   0  0  0  0  0  0
  -26.8781  -30.7630   22.0361 H   0  0  0  0  0  0
  -28.1329  -28.7692   21.2666 H   0  0  0  0  0  0
  -25.9311  -25.8422   18.9973 H   0  0  0  0  0  0
  -23.9838  -27.3123   18.9633 H   0  0  0  0  0  0
  -23.8195  -30.5728   19.3995 H   0  0  0  0  0  0
  -22.7947  -29.2408   19.8381 H   0  0  0  0  0  0
  -25.1316  -36.1860   25.0806 H   0  0  0  0  0  0
  -21.0017  -28.3326   24.1344 H   0  0  0  0  0  0
  -20.5680  -26.2349   23.3625 H   0  0  0  0  0  0
  -21.6660  -26.7426   22.1203 H   0  0  0  0  0  0
  -19.6931  -25.6286   21.1254 H   0  0  0  0  0  0
  -19.6700  -27.3180   20.6728 H   0  0  0  0  0  0
  -17.4213  -26.6667   21.4034 H   0  0  0  0  0  0
  -18.0359  -26.0085   22.9032 H   0  0  0  0  0  0
  -19.7956  -30.7296   24.2234 H   0  0  0  0  0  0
  -17.5029  -31.6267   24.5169 H   0  0  0  0  0  0
  -15.5369  -30.2978   23.7670 H   0  0  0  0  0  0
  -15.8695  -28.0814   22.7082 H   0  0  0  0  0  0
  -24.5909  -30.7072   25.7721 H   0  0  0  0  0  0
  -24.8875  -32.2921   26.4764 H   0  0  0  0  0  0
  -25.7986  -30.8962   27.0229 H   0  0  0  0  0  0
  -26.3037  -29.6671   24.1303 H   0  0  0  0  0  0
  -27.3992  -29.7257   25.4900 H   0  0  0  0  0  0
  -27.8957  -30.4188   23.9665 H   0  0  0  0  0  0
  -27.2623  -33.3626   26.2080 H   0  0  0  0  0  0
  -28.3874  -32.6913   25.0364 H   0  0  0  0  0  0
  -28.0719  -31.8479   26.5449 H   0  0  0  0  0  0
  -28.2595  -38.0080   24.7489 H   0  0  0  0  0  0
  -28.1066  -36.2607   24.6328 H   0  0  0  0  0  0
  -27.2285  -37.1474   25.8868 H   0  0  0  0  0  0
  -20.9489  -29.8760   21.6762 H   0  0  0  0  0  0
  -26.0158  -38.2813   24.1387 H   0  0  0  0  0  0
  -28.4478  -16.2720   21.9114 H   0  0  0  0  0  0
  -27.7271  -18.5587   22.0536 H   0  0  0  0  0  0
  -30.6142  -19.7435   19.1458 H   0  0  0  0  0  0
  -25.9115  -24.0519   22.7947 H   0  0  0  0  0  0
  -25.6799  -22.3121   23.2907 H   0  0  0  0  0  0
  -26.9718  -25.1356   21.4959 H   0  0  0  0  0  0
  -26.6023  -20.5575   21.4266 H   0  0  0  0  0  0
  -27.7759  -20.7655   22.7451 H   0  0  0  0  0  0
  -32.1701  -18.1931   18.5036 H   0  0  0  0  0  0
  -32.1296  -16.5489   18.8827 H   0  0  0  0  0  0
  1 25  1  0  0  0
  1 30  2  0  0  0
  1 74  1  0  0  0
  2  3  1  0  0  0
  2 25  1  0  0  0
  2 86  1  0  0  0
  2 87  1  0  0  0
  3  4  1  0  0  0
  3 88  1  0  0  0
  3 89  1  0  0  0
  4  5  1  0  0  0
  4 90  1  0  0  0
  4 91  1  0  0  0
  5  6  1  0  0  0
  5 26  1  0  0  0
  5 92  1  0  0  0
  6 25  1  0  0  0
  6 93  1  0  0  0
  6 94  1  0  0  0
  7  8  2  0  0  0
  7 26  1  0  0  0
  7 29  1  0  0  0
  8  9  1  0  0  0
  8 22  1  0  0  0
  9 10  1  0  0  0
  9 27  2  0  0  0
 10 11  2  0  0  0
 10 15  1  0  0  0
 11 12  1  0  0  0
 11 95  1  0  0  0
 12 13  2  0  0  0
 12 96  1  0  0  0
 13 14  1  0  0  0
 13 31  1  0  0  0
 14 15  2  0  0  0
 14 97  1  0  0  0
 15 98  1  0  0  0
 16 17  2  0  0  0
 16 21  1  0  0  0
 16 31  1  0  0  0
 17 18  1  0  0  0
 17 99  1  0  0  0
 18 19  2  0  0  0
 18100  1  0  0  0
 19 20  1  0  0  0
 19 24  1  0  0  0
 20 21  2  0  0  0
 20101  1  0  0  0
 21 23  1  0  0  0
 22 28  1  0  0  0
 22 32  2  0  0  0
 26 27  1  0  0  0
 28102  1  0  0  0
 28103  1  0  0  0
 29104  1  0  0  0
 29105  1  0  0  0
 33 34  1  0  0  0
 33 66  1  0  0  0
 33 70  2  0  0  0
 34 36  1  0  0  0
 34 59  1  0  0  0
 34106  1  0  0  0
 35 44  2  0  0  0
 35 45  1  0  0  0
 35 68  1  0  0  0
 36 56  1  0  0  0
 36107  1  0  0  0
 37 39  1  0  0  0
 37 47  1  0  0  0
 37 66  1  0  0  0
 37108  1  0  0  0
 38 43  2  0  0  0
 38 46  1  0  0  0
 38 47  1  0  0  0
 39 64  1  0  0  0
 39 67  2  0  0  0
 40 52  1  0  0  0
 40 53  2  0  0  0
 40 58  1  0  0  0
 41109  1  0  0  0
 41110  1  0  0  0
 41111  1  0  0  0
 41 48  1  0  0  0
 42 43  1  0  0  0
 42 66  1  0  0  0
 42112  1  0  0  0
 42113  1  0  0  0
 43 44  1  0  0  0
 44114  1  0  0  0
 45 46  2  0  0  0
 45115  1  0  0  0
 46116  1  0  0  0
 47117  1  0  0  0
 47118  1  0  0  0
 48 56  1  0  0  0
 48 65  1  0  0  0
 48119  1  0  0  0
 49 50  1  0  0  0
 49 53  1  0  0  0
 49 64  1  0  0  0
 49120  1  0  0  0
 50 51  1  0  0  0
 50121  1  0  0  0
 50122  1  0  0  0
 51 52  1  0  0  0
 51123  1  0  0  0
 51124  1  0  0  0
 52125  1  0  0  0
 52126  1  0  0  0
 53 54  1  0  0  0
 54 55  2  0  0  0
 54127  1  0  0  0
 55 57  1  0  0  0
 55128  1  0  0  0
 56 69  2  0  0  0
 57 58  2  0  0  0
 57129  1  0  0  0
 58130  1  0  0  0
 59 60  1  0  0  0
 59 61  1  0  0  0
 59 62  1  0  0  0
 60131  1  0  0  0
 60132  1  0  0  0
 60133  1  0  0  0
 61134  1  0  0  0
 61135  1  0  0  0
 61136  1  0  0  0
 62137  1  0  0  0
 62138  1  0  0  0
 62139  1  0  0  0
 63 65  1  0  0  0
 63140  1  0  0  0
 63141  1  0  0  0
 63142  1  0  0  0
 64143  1  0  0  0
 65144  1  0  0  0
 68 81  1  0  0  0
 71 72  2  0  0  0
 71 74  1  0  0  0
 71145  1  0  0  0
 72 75  1  0  0  0
 72146  1  0  0  0
 73 75  2  0  0  0
 73 76  1  0  0  0
 73147  1  0  0  0
 74 76  2  0  0  0
 75 83  1  0  0  0
 76 84  1  0  0  0
 77 78  1  0  0  0
 77 79  1  0  0  0
 77 81  2  0  0  0
 78 80  2  0  0  0
 78 82  1  0  0  0
 79 83  1  0  0  0
 79 85  2  0  0  0
 80148  1  0  0  0
 80149  1  0  0  0
 81150  1  0  0  0
 82 83  1  0  0  0
 82151  1  0  0  0
 82152  1  0  0  0
 84153  1  0  0  0
 84154  1  0  0  0
M  ISO  4   1 100  68 101  74 100  81 101
M  END
> <chiral flag>
0

> <version>
0

> <s_m_source_file>
/data/baiqing/PycharmProjects/Reinvent-master-3.2/result/LINK_invent/BTK/process_docking_weight1_custom_product_contain_oxygen_bond_distance_aromatic_linkinvent_7_9_3/rearranged_h_0082.sdf

> <i_m_source_file_index>
40

> <r_mmod_Potential_Energy-OPLS-2005>
881.151489257812

> <r_mmod_Stretch_Energy-OPLS-2005>
253.907974243164

> <r_mmod_Bend_Energy-OPLS-2005>
400.696472167969

> <r_mmod_Torsional_Energy-OPLS-2005>
244.931686401367

> <r_mmod_Improper_Torsional_Energy-OPLS-2005>
9.2939977645874

> <r_mmod_Van_der_Waal_Energy-OPLS-2005>
146.22688293457

> <r_mmod_Electrostatic_Energy-OPLS-2005>
-181.953140258789

> <r_mmod_Solvation_Energy-OPLS-2005>
-207.191925048828

> <b_mmod_Minimization_Converged-OPLS-2005>
0

> <r_mmod_RMS_Derivative-OPLS-2005>
0.434176504611969

$$$$
40
                    3D
 Structure written by MMmdl.
155164  0  0  1  0            999 V2000
  -30.6358  -14.5752   20.5550 C   0  0  0  0  0  0
  -30.4435  -12.3736   19.4152 C   0  0  0  0  0  0
  -29.4971  -12.5143   18.2020 C   0  0  0  0  0  0
  -28.0180  -12.3692   18.6172 C   0  0  0  0  0  0
  -27.6601  -13.2107   19.8699 C   0  0  2  0  0  0
  -28.7123  -13.0076   20.9835 C   0  0  0  0  0  0
  -25.2597  -13.8160   20.5696 C   0  0  0  0  0  0
  -24.1839  -13.0430   20.9198 C   0  0  0  0  0  0
  -24.6403  -11.6909   20.8750 C   0  0  0  0  0  0
  -23.9076  -10.4287   21.0416 C   0  0  0  0  0  0
  -24.3614   -9.4197   21.9204 C   0  0  0  0  0  0
  -23.6281   -8.2237   22.0777 C   0  0  0  0  0  0
  -22.4269   -8.0278   21.3557 C   0  0  0  0  0  0
  -21.9900   -9.0261   20.4665 C   0  0  0  0  0  0
  -22.7242  -10.2137   20.3077 C   0  0  0  0  0  0
  -21.6850   -6.0724   22.5282 C   0  0  0  0  0  0
  -21.3997   -6.5634   23.8213 C   0  0  0  0  0  0
  -21.3658   -5.6793   24.9178 C   0  0  0  0  0  0
  -21.6054   -4.3061   24.7231 C   0  0  0  0  0  0
  -21.8817   -3.8146   23.4354 C   0  0  0  0  0  0
  -21.9181   -4.6951   22.3405 C   0  0  0  0  0  0
  -22.7864  -13.5238   21.1832 C   0  0  0  0  0  0
  -22.1668   -4.2138   21.0983 F   0  0  0  0  0  0
  -21.5635   -3.4547   25.7748 F   0  0  0  0  0  0
  -30.0264  -13.3613   20.4239 N   0  0  0  0  0  0
  -26.3038  -12.9334   20.3392 N   0  0  0  0  0  0
  -25.9330  -11.6493   20.5776 N   0  0  0  0  0  0
  -22.0482  -12.8280   22.0393 N   0  0  0  0  0  0
  -25.4247  -15.1883   20.4032 N   0  0  0  0  0  0
  -31.7811  -14.7833   20.1379 O   0  0  0  0  0  0
  -21.6633   -6.8872   21.4252 O   0  0  0  0  0  0
  -22.3569  -14.5538   20.6646 O   0  0  0  0  0  0
  -24.6234  -31.8619   23.2030 C   0  0  0  0  0  0
  -25.9097  -32.4800   23.8343 C   0  0  1  0  0  0
  -27.2414  -27.3625   20.0719 C   0  0  0  0  0  0
  -25.5929  -33.8587   24.2298 N   0  0  0  0  0  0
  -23.4144  -30.4813   21.5483 C   0  0  2  0  0  0
  -24.8590  -28.9321   20.1116 C   0  0  0  0  0  0
  -22.7438  -29.4604   22.4968 C   0  0  0  0  0  0
  -18.0246  -28.1344   22.8512 C   0  0  0  0  0  0
  -24.1482  -36.7297   23.2635 C   0  0  0  0  0  0
  -25.9490  -30.7969   21.3668 C   0  0  0  0  0  0
  -26.0224  -29.4231   20.7164 C   0  0  0  0  0  0
  -27.2097  -28.6418   20.6990 C   0  0  0  0  0  0
  -26.0489  -26.8996   19.4691 C   0  0  0  0  0  0
  -24.8704  -27.6730   19.4886 C   0  0  0  0  0  0
  -23.6238  -29.8083   20.1647 C   0  0  0  0  0  0
  -25.4113  -36.3098   24.0343 C   0  0  1  0  0  0
  -20.5856  -28.3633   23.1295 C   0  0  2  0  0  0
  -20.6743  -26.9353   22.5389 C   0  0  0  0  0  0
  -19.5683  -26.6275   21.5243 C   0  0  0  0  0  0
  -18.1851  -26.7915   22.1613 C   0  0  0  0  0  0
  -19.1507  -28.8795   23.2916 C   0  0  0  0  0  0
  -18.9438  -30.1367   23.8973 C   0  0  0  0  0  0
  -17.6447  -30.6551   24.0615 C   0  0  0  0  0  0
  -25.9044  -34.9459   23.5125 C   0  0  0  0  0  0
  -16.5335  -29.9068   23.6352 C   0  0  0  0  0  0
  -16.7247  -28.6489   23.0376 C   0  0  0  0  0  0
  -26.4483  -31.6592   25.0699 C   0  0  0  0  0  0
  -25.3687  -31.3738   26.1413 C   0  0  0  0  0  0
  -27.0331  -30.3036   24.6097 C   0  0  0  0  0  0
  -27.6070  -32.4297   25.7469 C   0  0  0  0  0  0
  -27.5576  -37.1817   24.8472 C   0  0  0  0  0  0
  -21.4151  -29.3031   22.3732 N   0  0  0  0  0  0
  -26.4290  -37.3795   23.9415 N   0  0  0  0  0  0
  -24.6820  -31.0617   22.0989 N   0  0  0  0  0  0
  -23.4187  -28.8122   23.3021 O   0  0  0  0  0  0
  -28.4050  -26.5917   20.1027 O   0  0  0  0  0  0
  -26.5604  -34.8929   22.4682 O   0  0  0  0  0  0
  -23.5413  -32.1407   23.7395 O   0  0  0  0  0  0
  -30.6483  -18.6170   23.0049 C   0  0  0  0  0  0
  -30.4286  -19.6632   22.0858 C   0  0  0  0  0  0
  -30.4753  -17.2720   22.6212 C   0  0  0  0  0  0
  -29.8619  -18.0208   20.3847 C   0  0  0  0  0  0
  -29.9843  -19.3982   20.7677 C   0  0  0  0  0  0
  -30.1100  -16.9497   21.2987 C   0  0  0  0  0  0
  -28.1761  -23.5798   20.9411 C   0  0  0  0  0  0
  -28.6542  -24.0403   19.7843 C   0  0  0  0  0  0
  -28.4712  -22.1542   21.0837 C   0  0  0  0  0  0
  -29.7859  -20.5276   19.7438 C   0  0  0  0  0  0
  -29.2983  -22.8816   19.0506 C   0  0  0  0  0  0
  -28.6147  -25.4739   19.1848 C   0  0  0  0  0  0
  -29.2177  -21.7545   20.0160 N   0  0  0  0  0  0
  -29.8218  -15.5740   20.9896 N   0  0  0  0  0  0
  -28.0857  -21.4504   22.0204 O   0  0  0  0  0  0
  -30.1906  -20.2890   18.5975 O   0  0  0  0  0  0
  -31.4780  -12.5222   19.1024 H   0  0  0  0  0  0
  -30.3994  -11.3657   19.8290 H   0  0  0  0  0  0
  -29.7397  -11.7647   17.4464 H   0  0  0  0  0  0
  -29.6469  -13.4849   17.7235 H   0  0  0  0  0  0
  -27.8287  -11.3137   18.8118 H   0  0  0  0  0  0
  -27.3684  -12.6460   17.7855 H   0  0  0  0  0  0
  -27.6940  -14.2563   19.5638 H   0  0  0  0  0  0
  -28.7223  -11.9686   21.3162 H   0  0  0  0  0  0
  -28.4721  -13.5968   21.8704 H   0  0  0  0  0  0
  -25.2749   -9.5662   22.4782 H   0  0  0  0  0  0
  -23.9976   -7.4632   22.7514 H   0  0  0  0  0  0
  -21.0820   -8.8789   19.8978 H   0  0  0  0  0  0
  -22.3709  -10.9671   19.6187 H   0  0  0  0  0  0
  -21.1993   -7.6145   23.9719 H   0  0  0  0  0  0
  -21.1484   -6.0525   25.9085 H   0  0  0  0  0  0
  -22.0588   -2.7601   23.2860 H   0  0  0  0  0  0
  -22.4046  -11.9951   22.4830 H   0  0  0  0  0  0
  -21.1108  -13.1358   22.2536 H   0  0  0  0  0  0
  -24.6401  -15.8262   20.4775 H   0  0  0  0  0  0
  -26.2640  -15.6322   20.0499 H   0  0  0  0  0  0
  -26.7154  -32.5475   23.1089 H   0  0  0  0  0  0
  -25.0126  -33.9730   25.0481 H   0  0  0  0  0  0
  -22.7054  -31.3002   21.4051 H   0  0  0  0  0  0
  -23.3750  -35.9617   23.3319 H   0  0  0  0  0  0
  -24.3557  -36.8903   22.2038 H   0  0  0  0  0  0
  -23.7228  -37.6513   23.6625 H   0  0  0  0  0  0
  -26.0595  -31.5526   20.5888 H   0  0  0  0  0  0
  -26.8412  -30.8628   21.9797 H   0  0  0  0  0  0
  -28.1064  -29.0144   21.1731 H   0  0  0  0  0  0
  -26.0022  -25.9284   18.9987 H   0  0  0  0  0  0
  -23.9738  -27.2909   19.0201 H   0  0  0  0  0  0
  -23.7396  -30.5805   19.4036 H   0  0  0  0  0  0
  -22.7462  -29.2315   19.8653 H   0  0  0  0  0  0
  -25.1282  -36.1970   25.0835 H   0  0  0  0  0  0
  -20.9921  -28.3138   24.1409 H   0  0  0  0  0  0
  -21.6620  -26.7354   22.1206 H   0  0  0  0  0  0
  -20.5678  -26.2238   23.3588 H   0  0  0  0  0  0
  -19.6717  -25.6152   21.1354 H   0  0  0  0  0  0
  -19.6613  -27.2983   20.6700 H   0  0  0  0  0  0
  -17.4189  -26.6758   21.3946 H   0  0  0  0  0  0
  -18.0150  -26.0041   22.8956 H   0  0  0  0  0  0
  -19.7940  -30.7146   24.2346 H   0  0  0  0  0  0
  -17.4979  -31.6242   24.5183 H   0  0  0  0  0  0
  -15.5333  -30.2970   23.7616 H   0  0  0  0  0  0
  -15.8647  -28.0808   22.7100 H   0  0  0  0  0  0
  -24.5861  -30.7118   25.7707 H   0  0  0  0  0  0
  -24.8864  -32.2902   26.4798 H   0  0  0  0  0  0
  -25.7953  -30.8909   27.0208 H   0  0  0  0  0  0
  -26.2898  -29.6810   24.1117 H   0  0  0  0  0  0
  -27.4089  -29.7269   25.4556 H   0  0  0  0  0  0
  -27.8711  -30.4392   23.9268 H   0  0  0  0  0  0
  -27.2722  -33.3607   26.2046 H   0  0  0  0  0  0
  -28.3863  -32.6854   25.0276 H   0  0  0  0  0  0
  -28.0735  -31.8407   26.5379 H   0  0  0  0  0  0
  -28.2624  -38.0088   24.7514 H   0  0  0  0  0  0
  -28.1051  -36.2633   24.6308 H   0  0  0  0  0  0
  -27.2281  -37.1474   25.8870 H   0  0  0  0  0  0
  -20.9333  -29.8763   21.6952 H   0  0  0  0  0  0
  -26.0193  -38.2878   24.1414 H   0  0  0  0  0  0
  -30.9339  -18.8498   24.0213 H   0  0  0  0  0  0
  -30.5978  -20.6802   22.4119 H   0  0  0  0  0  0
  -30.6103  -16.4918   23.3592 H   0  0  0  0  0  0
  -29.5585  -17.7896   19.3725 H   0  0  0  0  0  0
  -27.6427  -24.1694   21.6700 H   0  0  0  0  0  0
  -30.3320  -23.1106   18.7808 H   0  0  0  0  0  0
  -28.7337  -22.6609   18.1409 H   0  0  0  0  0  0
  -27.9655  -25.4918   18.3117 H   0  0  0  0  0  0
  -29.6085  -25.6394   18.7638 H   0  0  0  0  0  0
  -28.8955  -15.2651   21.2453 H   0  0  0  0  0  0
  1 25  1  0  0  0
  1 30  2  0  0  0
  1 84  1  0  0  0
  2  3  1  0  0  0
  2 25  1  0  0  0
  2 87  1  0  0  0
  2 88  1  0  0  0
  3  4  1  0  0  0
  3 89  1  0  0  0
  3 90  1  0  0  0
  4  5  1  0  0  0
  4 91  1  0  0  0
  4 92  1  0  0  0
  5  6  1  0  0  0
  5 26  1  0  0  0
  5 93  1  0  0  0
  6 25  1  0  0  0
  6 94  1  0  0  0
  6 95  1  0  0  0
  7  8  2  0  0  0
  7 26  1  0  0  0
  7 29  1  0  0  0
  8  9  1  0  0  0
  8 22  1  0  0  0
  9 10  1  0  0  0
  9 27  2  0  0  0
 10 11  2  0  0  0
 10 15  1  0  0  0
 11 12  1  0  0  0
 11 96  1  0  0  0
 12 13  2  0  0  0
 12 97  1  0  0  0
 13 14  1  0  0  0
 13 31  1  0  0  0
 14 15  2  0  0  0
 14 98  1  0  0  0
 15 99  1  0  0  0
 16 17  2  0  0  0
 16 21  1  0  0  0
 16 31  1  0  0  0
 17 18  1  0  0  0
 17100  1  0  0  0
 18 19  2  0  0  0
 18101  1  0  0  0
 19 20  1  0  0  0
 19 24  1  0  0  0
 20 21  2  0  0  0
 20102  1  0  0  0
 21 23  1  0  0  0
 22 28  1  0  0  0
 22 32  2  0  0  0
 26 27  1  0  0  0
 28103  1  0  0  0
 28104  1  0  0  0
 29105  1  0  0  0
 29106  1  0  0  0
 33 34  1  0  0  0
 33 66  1  0  0  0
 33 70  2  0  0  0
 34 36  1  0  0  0
 34 59  1  0  0  0
 34107  1  0  0  0
 35 44  2  0  0  0
 35 45  1  0  0  0
 35 68  1  0  0  0
 36 56  1  0  0  0
 36108  1  0  0  0
 37 39  1  0  0  0
 37 47  1  0  0  0
 37 66  1  0  0  0
 37109  1  0  0  0
 38 43  2  0  0  0
 38 46  1  0  0  0
 38 47  1  0  0  0
 39 64  1  0  0  0
 39 67  2  0  0  0
 40 52  1  0  0  0
 40 53  2  0  0  0
 40 58  1  0  0  0
 41110  1  0  0  0
 41111  1  0  0  0
 41112  1  0  0  0
 41 48  1  0  0  0
 42 43  1  0  0  0
 42 66  1  0  0  0
 42113  1  0  0  0
 42114  1  0  0  0
 43 44  1  0  0  0
 44115  1  0  0  0
 45 46  2  0  0  0
 45116  1  0  0  0
 46117  1  0  0  0
 47118  1  0  0  0
 47119  1  0  0  0
 48 56  1  0  0  0
 48 65  1  0  0  0
 48120  1  0  0  0
 49 50  1  0  0  0
 49 53  1  0  0  0
 49 64  1  0  0  0
 49121  1  0  0  0
 50 51  1  0  0  0
 50122  1  0  0  0
 50123  1  0  0  0
 51 52  1  0  0  0
 51124  1  0  0  0
 51125  1  0  0  0
 52126  1  0  0  0
 52127  1  0  0  0
 53 54  1  0  0  0
 54 55  2  0  0  0
 54128  1  0  0  0
 55 57  1  0  0  0
 55129  1  0  0  0
 56 69  2  0  0  0
 57 58  2  0  0  0
 57130  1  0  0  0
 58131  1  0  0  0
 59 60  1  0  0  0
 59 61  1  0  0  0
 59 62  1  0  0  0
 60132  1  0  0  0
 60133  1  0  0  0
 60134  1  0  0  0
 61135  1  0  0  0
 61136  1  0  0  0
 61137  1  0  0  0
 62138  1  0  0  0
 62139  1  0  0  0
 62140  1  0  0  0
 63 65  1  0  0  0
 63141  1  0  0  0
 63142  1  0  0  0
 63143  1  0  0  0
 64144  1  0  0  0
 65145  1  0  0  0
 68 82  1  0  0  0
 71 72  2  0  0  0
 71 73  1  0  0  0
 71146  1  0  0  0
 72 75  1  0  0  0
 72147  1  0  0  0
 73 76  2  0  0  0
 73148  1  0  0  0
 74 75  2  0  0  0
 74 76  1  0  0  0
 74149  1  0  0  0
 75 80  1  0  0  0
 76 84  1  0  0  0
 77 78  2  0  0  0
 77 79  1  0  0  0
 77150  1  0  0  0
 78 81  1  0  0  0
 78 82  1  0  0  0
 79 83  1  0  0  0
 79 85  2  0  0  0
 80 83  1  0  0  0
 80 86  2  0  0  0
 81 83  1  0  0  0
 81151  1  0  0  0
 81152  1  0  0  0
 82153  1  0  0  0
 82154  1  0  0  0
 84155  1  0  0  0
M  ISO  4   1 100  68 101  82 101  84 100
M  END
> <chiral flag>
0

> <version>
0

> <s_m_source_file>
/data/baiqing/PycharmProjects/Reinvent-master-3.2/result/LINK_invent/BTK/process_docking_weight1_custom_product_contain_oxygen_bond_distance_aromatic_linkinvent_7_9_3/rearranged_h_0082.sdf

> <i_m_source_file_index>
41

> <r_mmod_Potential_Energy-OPLS-2005>
46.2502250671387

> <r_mmod_Stretch_Energy-OPLS-2005>
61.1119918823242

> <r_mmod_Bend_Energy-OPLS-2005>
185.830749511719

> <r_mmod_Torsional_Energy-OPLS-2005>
265.798248291016

> <r_mmod_Improper_Torsional_Energy-OPLS-2005>
6.0521183013916

> <r_mmod_Van_der_Waal_Energy-OPLS-2005>
146.760406494141

> <r_mmod_Electrostatic_Energy-OPLS-2005>
-419.518341064453

> <r_mmod_Solvation_Energy-OPLS-2005>
-229.240936279297

> <b_mmod_Minimization_Converged-OPLS-2005>
0

> <r_mmod_RMS_Derivative-OPLS-2005>
4.54191493988037

$$$$
41
                    3D
 Structure written by MMmdl.
151160  0  0  1  0            999 V2000
  -30.5946  -14.7236   20.5648 C   0  0  0  0  0  0
  -30.4546  -12.4693   19.4627 C   0  0  0  0  0  0
  -29.5183  -12.5502   18.2316 C   0  0  0  0  0  0
  -28.0381  -12.3657   18.6287 C   0  0  0  0  0  0
  -27.6548  -13.2142   19.8679 C   0  0  2  0  0  0
  -28.6954  -13.0149   20.9852 C   0  0  0  0  0  0
  -25.2563  -13.8151   20.5669 C   0  0  0  0  0  0
  -24.1824  -13.0422   20.9165 C   0  0  0  0  0  0
  -24.6391  -11.6892   20.8713 C   0  0  0  0  0  0
  -23.9059  -10.4283   21.0395 C   0  0  0  0  0  0
  -24.3612   -9.4205   21.9178 C   0  0  0  0  0  0
  -23.6288   -8.2241   22.0753 C   0  0  0  0  0  0
  -22.4270   -8.0277   21.3544 C   0  0  0  0  0  0
  -21.9902   -9.0249   20.4646 C   0  0  0  0  0  0
  -22.7229  -10.2127   20.3050 C   0  0  0  0  0  0
  -21.6852   -6.0733   22.5280 C   0  0  0  0  0  0
  -21.4014   -6.5638   23.8213 C   0  0  0  0  0  0
  -21.3659   -5.6791   24.9175 C   0  0  0  0  0  0
  -21.6044   -4.3054   24.7226 C   0  0  0  0  0  0
  -21.8819   -3.8145   23.4347 C   0  0  0  0  0  0
  -21.9193   -4.6961   22.3403 C   0  0  0  0  0  0
  -22.7852  -13.5223   21.1846 C   0  0  0  0  0  0
  -22.1661   -4.2147   21.0981 F   0  0  0  0  0  0
  -21.5629   -3.4538   25.7739 F   0  0  0  0  0  0
  -30.0017  -13.4691   20.4647 N   0  0  0  0  0  0
  -26.2988  -12.9323   20.3301 N   0  0  0  0  0  0
  -25.9314  -11.6477   20.5705 N   0  0  0  0  0  0
  -22.0499  -12.8218   22.0409 N   0  0  0  0  0  0
  -25.4280  -15.1875   20.4109 N   0  0  0  0  0  0
  -31.6996  -14.9182   20.0427 O   0  0  0  0  0  0
  -21.6636   -6.8874   21.4241 O   0  0  0  0  0  0
  -22.3536  -14.5533   20.6704 O   0  0  0  0  0  0
  -24.6298  -31.8560   23.1986 C   0  0  0  0  0  0
  -25.9127  -32.4763   23.8336 C   0  0  1  0  0  0
  -27.2314  -27.2862   20.1270 C   0  0  0  0  0  0
  -25.5925  -33.8564   24.2261 N   0  0  0  0  0  0
  -23.4276  -30.4764   21.5416 C   0  0  2  0  0  0
  -24.8788  -28.9217   20.1153 C   0  0  0  0  0  0
  -22.7499  -29.4601   22.4922 C   0  0  0  0  0  0
  -18.0290  -28.1387   22.8485 C   0  0  0  0  0  0
  -24.1489  -36.7287   23.2640 C   0  0  0  0  0  0
  -25.9714  -30.7757   21.3761 C   0  0  0  0  0  0
  -26.0493  -29.3978   20.7224 C   0  0  0  0  0  0
  -27.2323  -28.5918   20.7183 C   0  0  0  0  0  0
  -26.0399  -26.8657   19.5033 C   0  0  0  0  0  0
  -24.8767  -27.6610   19.4965 C   0  0  0  0  0  0
  -23.6472  -29.8060   20.1597 C   0  0  0  0  0  0
  -25.4116  -36.3074   24.0327 C   0  0  1  0  0  0
  -20.5893  -28.3697   23.1274 C   0  0  2  0  0  0
  -20.6779  -26.9416   22.5409 C   0  0  0  0  0  0
  -19.5754  -26.6384   21.5213 C   0  0  0  0  0  0
  -18.1935  -26.7929   22.1624 C   0  0  0  0  0  0
  -19.1544  -28.8859   23.2873 C   0  0  0  0  0  0
  -18.9464  -30.1460   23.8892 C   0  0  0  0  0  0
  -17.6463  -30.6589   24.0562 C   0  0  0  0  0  0
  -25.9053  -34.9444   23.5097 C   0  0  0  0  0  0
  -16.5355  -29.9086   23.6331 C   0  0  0  0  0  0
  -16.7277  -28.6503   23.0353 C   0  0  0  0  0  0
  -26.4499  -31.6584   25.0719 C   0  0  0  0  0  0
  -25.3722  -31.3728   26.1438 C   0  0  0  0  0  0
  -27.0349  -30.3004   24.6196 C   0  0  0  0  0  0
  -27.6049  -32.4326   25.7496 C   0  0  0  0  0  0
  -27.5579  -37.1800   24.8466 C   0  0  0  0  0  0
  -21.4207  -29.3042   22.3663 N   0  0  0  0  0  0
  -26.4293  -37.3771   23.9407 N   0  0  0  0  0  0
  -24.6951  -31.0535   22.0955 N   0  0  0  0  0  0
  -23.4199  -28.8146   23.3025 O   0  0  0  0  0  0
  -28.3114  -26.3830   20.1170 O   0  0  0  0  0  0
  -26.5627  -34.8917   22.4667 O   0  0  0  0  0  0
  -23.5450  -32.1373   23.7288 O   0  0  0  0  0  0
  -29.7565  -18.0834   19.7580 C   0  0  0  0  0  0
  -29.5662  -19.5115   19.6183 C   0  0  0  0  0  0
  -29.8862  -18.3784   22.0971 C   0  0  0  0  0  0
  -29.8989  -17.4403   21.0237 C   0  0  0  0  0  0
  -29.4748  -20.4474   20.7048 C   0  0  0  0  0  0
  -29.6794  -19.7822   21.9530 C   0  0  0  0  0  0
  -28.5876  -23.8851   20.7379 C   0  0  0  0  0  0
  -29.2084  -23.0282   19.7215 C   0  0  0  0  0  0
  -28.1937  -25.2102   20.9026 C   0  0  0  0  0  0
  -29.8598  -15.9077   21.3675 C   0  0  0  0  0  0
  -28.5064  -22.6671   21.6746 C   0  0  0  0  0  0
  -29.2332  -15.6335   22.4352 N   0  0  0  0  0  0
  -29.2105  -21.9159   20.6149 N   0  0  0  0  0  0
  -29.5241  -23.2443   18.5696 O   0  0  0  0  0  0
  -29.6735  -20.5121   23.0939 F   0  0  0  0  0  0
  -31.4883  -12.6327   19.1544 H   0  0  0  0  0  0
  -30.4401  -11.4651   19.8894 H   0  0  0  0  0  0
  -29.8032  -11.8019   17.4910 H   0  0  0  0  0  0
  -29.6439  -13.5200   17.7475 H   0  0  0  0  0  0
  -27.8797  -11.3082   18.8434 H   0  0  0  0  0  0
  -27.3868  -12.6062   17.7876 H   0  0  0  0  0  0
  -27.6852  -14.2602   19.5623 H   0  0  0  0  0  0
  -28.7485  -11.9582   21.2518 H   0  0  0  0  0  0
  -28.3706  -13.4840   21.9064 H   0  0  0  0  0  0
  -25.2759   -9.5683   22.4749 H   0  0  0  0  0  0
  -23.9999   -7.4634   22.7472 H   0  0  0  0  0  0
  -21.0833   -8.8765   19.8953 H   0  0  0  0  0  0
  -22.3688  -10.9663   19.6156 H   0  0  0  0  0  0
  -21.2006   -7.6146   23.9715 H   0  0  0  0  0  0
  -21.1481   -6.0522   25.9078 H   0  0  0  0  0  0
  -22.0599   -2.7607   23.2848 H   0  0  0  0  0  0
  -22.4113  -11.9874   22.4790 H   0  0  0  0  0  0
  -21.1122  -13.1251   22.2627 H   0  0  0  0  0  0
  -24.6689  -15.8480   20.5374 H   0  0  0  0  0  0
  -26.2965  -15.6291   20.1368 H   0  0  0  0  0  0
  -26.7195  -32.5427   23.1083 H   0  0  0  0  0  0
  -25.0067  -33.9702   25.0403 H   0  0  0  0  0  0
  -22.7232  -31.2975   21.3931 H   0  0  0  0  0  0
  -23.3751  -35.9621   23.3305 H   0  0  0  0  0  0
  -24.3576  -36.8905   22.2053 H   0  0  0  0  0  0
  -23.7245  -37.6490   23.6663 H   0  0  0  0  0  0
  -26.1055  -31.5356   20.6051 H   0  0  0  0  0  0
  -26.8500  -30.8280   22.0075 H   0  0  0  0  0  0
  -28.1326  -28.9520   21.1960 H   0  0  0  0  0  0
  -26.0078  -25.8933   19.0323 H   0  0  0  0  0  0
  -23.9805  -27.2888   19.0196 H   0  0  0  0  0  0
  -23.7701  -30.5801   19.4011 H   0  0  0  0  0  0
  -22.7671  -29.2361   19.8565 H   0  0  0  0  0  0
  -25.1298  -36.1923   25.0820 H   0  0  0  0  0  0
  -20.9983  -28.3274   24.1395 H   0  0  0  0  0  0
  -20.5679  -26.2307   23.3612 H   0  0  0  0  0  0
  -21.6648  -26.7440   22.1203 H   0  0  0  0  0  0
  -19.6916  -25.6293   21.1246 H   0  0  0  0  0  0
  -19.6693  -27.3191   20.6740 H   0  0  0  0  0  0
  -17.4204  -26.6675   21.4028 H   0  0  0  0  0  0
  -18.0336  -26.0072   22.9023 H   0  0  0  0  0  0
  -19.7940  -30.7278   24.2261 H   0  0  0  0  0  0
  -17.5017  -31.6269   24.5163 H   0  0  0  0  0  0
  -15.5355  -30.2985   23.7658 H   0  0  0  0  0  0
  -15.8677  -28.0818   22.7073 H   0  0  0  0  0  0
  -24.5904  -30.7071   25.7765 H   0  0  0  0  0  0
  -24.8907  -32.2895   26.4852 H   0  0  0  0  0  0
  -25.8040  -30.8914   27.0222 H   0  0  0  0  0  0
  -26.2933  -29.6749   24.1212 H   0  0  0  0  0  0
  -27.4028  -29.7265   25.4712 H   0  0  0  0  0  0
  -27.8810  -30.4282   23.9440 H   0  0  0  0  0  0
  -27.2651  -33.3626   26.2068 H   0  0  0  0  0  0
  -28.3865  -32.6890   25.0331 H   0  0  0  0  0  0
  -28.0715  -31.8458   26.5419 H   0  0  0  0  0  0
  -28.2598  -38.0095   24.7508 H   0  0  0  0  0  0
  -28.1073  -36.2626   24.6299 H   0  0  0  0  0  0
  -27.2295  -37.1456   25.8868 H   0  0  0  0  0  0
  -20.9395  -29.8757   21.6860 H   0  0  0  0  0  0
  -26.0172  -38.2847   24.1404 H   0  0  0  0  0  0
  -29.7381  -17.4718   18.8667 H   0  0  0  0  0  0
  -29.4416  -19.8973   18.6166 H   0  0  0  0  0  0
  -29.9987  -18.0166   23.1085 H   0  0  0  0  0  0
  -27.7331  -25.4707   21.8454 H   0  0  0  0  0  0
  -27.5148  -22.2566   21.8735 H   0  0  0  0  0  0
  -29.0784  -22.7391   22.6000 H   0  0  0  0  0  0
  -28.8332  -16.4671   22.8470 H   0  0  0  0  0  0
  1 25  1  0  0  0
  1 30  2  0  0  0
  1 80  1  0  0  0
  2  3  1  0  0  0
  2 25  1  0  0  0
  2 86  1  0  0  0
  2 87  1  0  0  0
  3  4  1  0  0  0
  3 88  1  0  0  0
  3 89  1  0  0  0
  4  5  1  0  0  0
  4 90  1  0  0  0
  4 91  1  0  0  0
  5  6  1  0  0  0
  5 26  1  0  0  0
  5 92  1  0  0  0
  6 25  1  0  0  0
  6 93  1  0  0  0
  6 94  1  0  0  0
  7  8  2  0  0  0
  7 26  1  0  0  0
  7 29  1  0  0  0
  8  9  1  0  0  0
  8 22  1  0  0  0
  9 10  1  0  0  0
  9 27  2  0  0  0
 10 11  2  0  0  0
 10 15  1  0  0  0
 11 12  1  0  0  0
 11 95  1  0  0  0
 12 13  2  0  0  0
 12 96  1  0  0  0
 13 14  1  0  0  0
 13 31  1  0  0  0
 14 15  2  0  0  0
 14 97  1  0  0  0
 15 98  1  0  0  0
 16 17  2  0  0  0
 16 21  1  0  0  0
 16 31  1  0  0  0
 17 18  1  0  0  0
 17 99  1  0  0  0
 18 19  2  0  0  0
 18100  1  0  0  0
 19 20  1  0  0  0
 19 24  1  0  0  0
 20 21  2  0  0  0
 20101  1  0  0  0
 21 23  1  0  0  0
 22 28  1  0  0  0
 22 32  2  0  0  0
 26 27  1  0  0  0
 28102  1  0  0  0
 28103  1  0  0  0
 29104  1  0  0  0
 29105  1  0  0  0
 33 34  1  0  0  0
 33 66  1  0  0  0
 33 70  2  0  0  0
 34 36  1  0  0  0
 34 59  1  0  0  0
 34106  1  0  0  0
 35 44  2  0  0  0
 35 45  1  0  0  0
 35 68  1  0  0  0
 36 56  1  0  0  0
 36107  1  0  0  0
 37 39  1  0  0  0
 37 47  1  0  0  0
 37 66  1  0  0  0
 37108  1  0  0  0
 38 43  2  0  0  0
 38 46  1  0  0  0
 38 47  1  0  0  0
 39 64  1  0  0  0
 39 67  2  0  0  0
 40 52  1  0  0  0
 40 53  2  0  0  0
 40 58  1  0  0  0
 41109  1  0  0  0
 41110  1  0  0  0
 41111  1  0  0  0
 41 48  1  0  0  0
 42 43  1  0  0  0
 42 66  1  0  0  0
 42112  1  0  0  0
 42113  1  0  0  0
 43 44  1  0  0  0
 44114  1  0  0  0
 45 46  2  0  0  0
 45115  1  0  0  0
 46116  1  0  0  0
 47117  1  0  0  0
 47118  1  0  0  0
 48 56  1  0  0  0
 48 65  1  0  0  0
 48119  1  0  0  0
 49 50  1  0  0  0
 49 53  1  0  0  0
 49 64  1  0  0  0
 49120  1  0  0  0
 50 51  1  0  0  0
 50121  1  0  0  0
 50122  1  0  0  0
 51 52  1  0  0  0
 51123  1  0  0  0
 51124  1  0  0  0
 52125  1  0  0  0
 52126  1  0  0  0
 53 54  1  0  0  0
 54 55  2  0  0  0
 54127  1  0  0  0
 55 57  1  0  0  0
 55128  1  0  0  0
 56 69  2  0  0  0
 57 58  2  0  0  0
 57129  1  0  0  0
 58130  1  0  0  0
 59 60  1  0  0  0
 59 61  1  0  0  0
 59 62  1  0  0  0
 60131  1  0  0  0
 60132  1  0  0  0
 60133  1  0  0  0
 61134  1  0  0  0
 61135  1  0  0  0
 61136  1  0  0  0
 62137  1  0  0  0
 62138  1  0  0  0
 62139  1  0  0  0
 63 65  1  0  0  0
 63140  1  0  0  0
 63141  1  0  0  0
 63142  1  0  0  0
 64143  1  0  0  0
 65144  1  0  0  0
 68 79  1  0  0  0
 71 72  2  0  0  0
 71 74  1  0  0  0
 71145  1  0  0  0
 72 75  1  0  0  0
 72146  1  0  0  0
 73 74  2  0  0  0
 73 76  1  0  0  0
 73147  1  0  0  0
 74 80  1  0  0  0
 75 76  2  0  0  0
 75 83  1  0  0  0
 76 85  1  0  0  0
 77 78  1  0  0  0
 77 79  2  0  0  0
 77 81  1  0  0  0
 78 83  1  0  0  0
 78 84  2  0  0  0
 79148  1  0  0  0
 80 82  2  0  0  0
 81 83  1  0  0  0
 81149  1  0  0  0
 81150  1  0  0  0
 82151  1  0  0  0
M  ISO  4   1 100  68 101  79 101  80 100
M  END
> <chiral flag>
0

> <version>
0

> <s_m_source_file>
/data/baiqing/PycharmProjects/Reinvent-master-3.2/result/LINK_invent/BTK/process_docking_weight1_custom_product_contain_oxygen_bond_distance_aromatic_linkinvent_7_9_3/rearranged_h_0082.sdf

> <i_m_source_file_index>
42

> <r_mmod_Potential_Energy-OPLS-2005>
364.047485351562

> <r_mmod_Stretch_Energy-OPLS-2005>
118.405494689941

> <r_mmod_Bend_Energy-OPLS-2005>
271.418304443359

> <r_mmod_Torsional_Energy-OPLS-2005>
216.227310180664

> <r_mmod_Improper_Torsional_Energy-OPLS-2005>
3.86173677444458

> <r_mmod_Van_der_Waal_Energy-OPLS-2005>
148.334030151367

> <r_mmod_Electrostatic_Energy-OPLS-2005>
-254.294921875

> <r_mmod_Solvation_Energy-OPLS-2005>
-211.172515869141

> <b_mmod_Minimization_Converged-OPLS-2005>
0

> <r_mmod_RMS_Derivative-OPLS-2005>
0.257568955421448

$$$$
42
                    3D
 Structure written by MMmdl.
157166  0  0  1  0            999 V2000
  -30.6383  -14.7514   20.4596 C   0  0  0  0  0  0
  -30.4259  -12.4643   19.4688 C   0  0  0  0  0  0
  -29.5101  -12.4926   18.2287 C   0  0  0  0  0  0
  -28.0403  -12.3096   18.6539 C   0  0  0  0  0  0
  -27.6368  -13.2306   19.8390 C   0  0  2  0  0  0
  -28.6807  -13.1942   20.9732 C   0  0  0  0  0  0
  -25.2517  -13.8192   20.5685 C   0  0  0  0  0  0
  -24.1803  -13.0465   20.9225 C   0  0  0  0  0  0
  -24.6362  -11.6931   20.8733 C   0  0  0  0  0  0
  -23.9021  -10.4314   21.0386 C   0  0  0  0  0  0
  -24.3587   -9.4237   21.9163 C   0  0  0  0  0  0
  -23.6284   -8.2264   22.0744 C   0  0  0  0  0  0
  -22.4272   -8.0269   21.3539 C   0  0  0  0  0  0
  -21.9873   -9.0235   20.4653 C   0  0  0  0  0  0
  -22.7183  -10.2128   20.3046 C   0  0  0  0  0  0
  -21.6860   -6.0712   22.5277 C   0  0  0  0  0  0
  -21.4030   -6.5615   23.8208 C   0  0  0  0  0  0
  -21.3661   -5.6769   24.9166 C   0  0  0  0  0  0
  -21.6039   -4.3033   24.7219 C   0  0  0  0  0  0
  -21.8832   -3.8122   23.4343 C   0  0  0  0  0  0
  -21.9209   -4.6941   22.3394 C   0  0  0  0  0  0
  -22.7824  -13.5270   21.1851 C   0  0  0  0  0  0
  -22.1681   -4.2125   21.0970 F   0  0  0  0  0  0
  -21.5618   -3.4515   25.7730 F   0  0  0  0  0  0
  -29.9708  -13.5490   20.3731 N   0  0  0  0  0  0
  -26.2910  -12.9389   20.3218 N   0  0  0  0  0  0
  -25.9292  -11.6542   20.5716 N   0  0  0  0  0  0
  -22.0424  -12.8307   22.0398 N   0  0  0  0  0  0
  -25.4245  -15.1906   20.4067 N   0  0  0  0  0  0
  -31.8442  -14.7454   20.1903 O   0  0  0  0  0  0
  -21.6660   -6.8851   21.4238 O   0  0  0  0  0  0
  -22.3527  -14.5553   20.6641 O   0  0  0  0  0  0
  -24.6330  -31.8518   23.1992 C   0  0  0  0  0  0
  -25.9170  -32.4730   23.8304 C   0  0  1  0  0  0
  -27.1996  -27.2469   20.1139 C   0  0  0  0  0  0
  -25.5969  -33.8535   24.2235 N   0  0  0  0  0  0
  -23.4244  -30.4788   21.5464 C   0  0  2  0  0  0
  -24.8662  -28.9322   20.1032 C   0  0  0  0  0  0
  -22.7501  -29.4566   22.4934 C   0  0  0  0  0  0
  -18.0302  -28.1361   22.8466 C   0  0  0  0  0  0
  -24.1490  -36.7269   23.2628 C   0  0  0  0  0  0
  -25.9710  -30.7625   21.3782 C   0  0  0  0  0  0
  -26.0421  -29.3858   20.7152 C   0  0  0  0  0  0
  -27.2098  -28.5533   20.7178 C   0  0  0  0  0  0
  -25.9907  -26.8616   19.4920 C   0  0  0  0  0  0
  -24.8460  -27.6764   19.4814 C   0  0  0  0  0  0
  -23.6368  -29.8192   20.1588 C   0  0  0  0  0  0
  -25.4123  -36.3054   24.0310 C   0  0  1  0  0  0
  -20.5893  -28.3668   23.1251 C   0  0  2  0  0  0
  -20.6792  -26.9383   22.5397 C   0  0  0  0  0  0
  -19.5777  -26.6356   21.5191 C   0  0  0  0  0  0
  -18.1951  -26.7908   22.1595 C   0  0  0  0  0  0
  -19.1547  -28.8848   23.2835 C   0  0  0  0  0  0
  -18.9472  -30.1461   23.8845 C   0  0  0  0  0  0
  -17.6465  -30.6563   24.0549 C   0  0  0  0  0  0
  -25.9054  -34.9428   23.5066 C   0  0  0  0  0  0
  -16.5357  -29.9043   23.6344 C   0  0  0  0  0  0
  -16.7283  -28.6462   23.0350 C   0  0  0  0  0  0
  -26.4548  -31.6567   25.0705 C   0  0  0  0  0  0
  -25.3776  -31.3728   26.1432 C   0  0  0  0  0  0
  -27.0409  -30.3000   24.6181 C   0  0  0  0  0  0
  -27.6084  -32.4326   25.7492 C   0  0  0  0  0  0
  -27.5576  -37.1780   24.8456 C   0  0  0  0  0  0
  -21.4214  -29.3010   22.3662 N   0  0  0  0  0  0
  -26.4287  -37.3764   23.9409 N   0  0  0  0  0  0
  -24.6957  -31.0468   22.0983 N   0  0  0  0  0  0
  -23.4201  -28.8103   23.3023 O   0  0  0  0  0  0
  -28.2541  -26.3004   20.1906 O   0  0  0  0  0  0
  -26.5582  -34.8894   22.4618 O   0  0  0  0  0  0
  -23.5496  -32.1344   23.7325 O   0  0  0  0  0  0
  -30.0690  -19.6084   21.7193 C   0  0  0  0  0  0
  -29.0593  -19.1402   19.6163 C   0  0  0  0  0  0
  -29.7978  -21.0045   21.5521 C   0  0  0  0  0  0
  -28.7911  -20.5570   19.4471 C   0  0  0  0  0  0
  -29.7708  -18.6144   20.7401 C   0  0  0  0  0  0
  -29.2264  -21.5671   20.3751 C   0  0  0  0  0  0
  -30.5468  -22.8982   18.1159 C   0  0  0  0  0  0
  -28.7691  -23.9299   19.1974 C   0  0  0  0  0  0
  -31.3766  -22.3007   17.2486 C   0  0  0  0  0  0
  -28.3366  -25.2594   19.2305 C   0  0  0  0  0  0
  -30.4817  -17.2137   20.8309 C   0  0  0  0  0  0
  -29.1821  -23.4560   17.8098 C   0  0  0  0  0  0
  -30.7458  -23.0176   19.6097 C   0  0  0  0  0  0
  -29.3780  -23.0167   20.1419 N   0  0  0  0  0  0
  -29.9326  -15.9537   20.6000 N   0  0  0  0  0  0
  -31.6577  -17.3048   21.2053 O   0  0  0  0  0  0
  -31.4699  -12.5702   19.1678 H   0  0  0  0  0  0
  -30.3646  -11.4968   19.9685 H   0  0  0  0  0  0
  -29.7981  -11.7014   17.5345 H   0  0  0  0  0  0
  -29.6337  -13.4357   17.6924 H   0  0  0  0  0  0
  -27.9271  -11.2656   18.9497 H   0  0  0  0  0  0
  -27.3738  -12.4604   17.8039 H   0  0  0  0  0  0
  -27.6244  -14.2452   19.4401 H   0  0  0  0  0  0
  -28.7268  -12.2034   21.4261 H   0  0  0  0  0  0
  -28.4136  -13.8862   21.7728 H   0  0  0  0  0  0
  -25.2727   -9.5748   22.4735 H   0  0  0  0  0  0
  -24.0018   -7.4657   22.7452 H   0  0  0  0  0  0
  -21.0803   -8.8729   19.8953 H   0  0  0  0  0  0
  -22.3615  -10.9652   19.6151 H   0  0  0  0  0  0
  -21.2039   -7.6124   23.9712 H   0  0  0  0  0  0
  -21.1461   -6.0487   25.9070 H   0  0  0  0  0  0
  -22.0611   -2.7583   23.2840 H   0  0  0  0  0  0
  -22.4022  -12.0023   22.4894 H   0  0  0  0  0  0
  -21.1008  -13.1323   22.2471 H   0  0  0  0  0  0
  -24.6608  -15.8480   20.5157 H   0  0  0  0  0  0
  -26.2603  -15.6153   20.0255 H   0  0  0  0  0  0
  -26.7219  -32.5381   23.1021 H   0  0  0  0  0  0
  -25.0283  -33.9651   25.0486 H   0  0  0  0  0  0
  -22.7204  -31.3033   21.4102 H   0  0  0  0  0  0
  -23.3748  -35.9597   23.3297 H   0  0  0  0  0  0
  -24.3583  -36.8890   22.2036 H   0  0  0  0  0  0
  -23.7220  -37.6465   23.6658 H   0  0  0  0  0  0
  -26.1030  -31.5259   20.6105 H   0  0  0  0  0  0
  -26.8510  -30.8121   22.0077 H   0  0  0  0  0  0
  -28.1027  -28.8892   21.2243 H   0  0  0  0  0  0
  -25.8938  -25.8854   19.0405 H   0  0  0  0  0  0
  -23.9414  -27.3143   19.0131 H   0  0  0  0  0  0
  -23.7510  -30.5986   19.4038 H   0  0  0  0  0  0
  -22.7531  -29.2516   19.8605 H   0  0  0  0  0  0
  -25.1306  -36.1894   25.0795 H   0  0  0  0  0  0
  -20.9965  -28.3246   24.1377 H   0  0  0  0  0  0
  -20.5702  -26.2263   23.3590 H   0  0  0  0  0  0
  -21.6662  -26.7422   22.1190 H   0  0  0  0  0  0
  -19.6936  -25.6261   21.1233 H   0  0  0  0  0  0
  -19.6735  -27.3157   20.6712 H   0  0  0  0  0  0
  -17.4231  -26.6649   21.3987 H   0  0  0  0  0  0
  -18.0359  -26.0043   22.8988 H   0  0  0  0  0  0
  -19.7955  -30.7293   24.2151 H   0  0  0  0  0  0
  -17.5019  -31.6237   24.5161 H   0  0  0  0  0  0
  -15.5350  -30.2909   23.7708 H   0  0  0  0  0  0
  -15.8687  -28.0758   22.7076 H   0  0  0  0  0  0
  -24.5933  -30.7097   25.7772 H   0  0  0  0  0  0
  -24.8995  -32.2913   26.4854 H   0  0  0  0  0  0
  -25.8095  -30.8906   27.0209 H   0  0  0  0  0  0
  -26.3001  -29.6728   24.1219 H   0  0  0  0  0  0
  -27.4135  -29.7286   25.4687 H   0  0  0  0  0  0
  -27.8858  -30.4301   23.9415 H   0  0  0  0  0  0
  -27.2671  -33.3637   26.2036 H   0  0  0  0  0  0
  -28.3926  -32.6863   25.0345 H   0  0  0  0  0  0
  -28.0722  -31.8471   26.5437 H   0  0  0  0  0  0
  -28.2585  -38.0086   24.7545 H   0  0  0  0  0  0
  -28.1077  -36.2618   24.6262 H   0  0  0  0  0  0
  -27.2289  -37.1416   25.8854 H   0  0  0  0  0  0
  -20.9400  -29.8724   21.6864 H   0  0  0  0  0  0
  -26.0161  -38.2827   24.1459 H   0  0  0  0  0  0
  -30.6221  -19.3077   22.5990 H   0  0  0  0  0  0
  -28.8001  -18.4686   18.8097 H   0  0  0  0  0  0
  -30.1510  -21.6826   22.3167 H   0  0  0  0  0  0
  -28.3322  -20.8567   18.5181 H   0  0  0  0  0  0
  -31.1249  -22.2116   16.2016 H   0  0  0  0  0  0
  -32.3138  -21.8756   17.5794 H   0  0  0  0  0  0
  -28.1086  -25.7119   18.2735 H   0  0  0  0  0  0
  -28.4954  -22.7248   17.3857 H   0  0  0  0  0  0
  -29.2882  -24.2741   17.0942 H   0  0  0  0  0  0
  -31.2160  -23.9763   19.8368 H   0  0  0  0  0  0
  -31.4263  -22.2452   19.9789 H   0  0  0  0  0  0
  -28.9317  -15.9094   20.5119 H   0  0  0  0  0  0
  1 25  1  0  0  0
  1 30  2  0  0  0
  1 85  1  0  0  0
  2  3  1  0  0  0
  2 25  1  0  0  0
  2 87  1  0  0  0
  2 88  1  0  0  0
  3  4  1  0  0  0
  3 89  1  0  0  0
  3 90  1  0  0  0
  4  5  1  0  0  0
  4 91  1  0  0  0
  4 92  1  0  0  0
  5  6  1  0  0  0
  5 26  1  0  0  0
  5 93  1  0  0  0
  6 25  1  0  0  0
  6 94  1  0  0  0
  6 95  1  0  0  0
  7  8  2  0  0  0
  7 26  1  0  0  0
  7 29  1  0  0  0
  8  9  1  0  0  0
  8 22  1  0  0  0
  9 10  1  0  0  0
  9 27  2  0  0  0
 10 11  2  0  0  0
 10 15  1  0  0  0
 11 12  1  0  0  0
 11 96  1  0  0  0
 12 13  2  0  0  0
 12 97  1  0  0  0
 13 14  1  0  0  0
 13 31  1  0  0  0
 14 15  2  0  0  0
 14 98  1  0  0  0
 15 99  1  0  0  0
 16 17  2  0  0  0
 16 21  1  0  0  0
 16 31  1  0  0  0
 17 18  1  0  0  0
 17100  1  0  0  0
 18 19  2  0  0  0
 18101  1  0  0  0
 19 20  1  0  0  0
 19 24  1  0  0  0
 20 21  2  0  0  0
 20102  1  0  0  0
 21 23  1  0  0  0
 22 28  1  0  0  0
 22 32  2  0  0  0
 26 27  1  0  0  0
 28103  1  0  0  0
 28104  1  0  0  0
 29105  1  0  0  0
 29106  1  0  0  0
 33 34  1  0  0  0
 33 66  1  0  0  0
 33 70  2  0  0  0
 34 36  1  0  0  0
 34 59  1  0  0  0
 34107  1  0  0  0
 35 44  2  0  0  0
 35 45  1  0  0  0
 35 68  1  0  0  0
 36 56  1  0  0  0
 36108  1  0  0  0
 37 39  1  0  0  0
 37 47  1  0  0  0
 37 66  1  0  0  0
 37109  1  0  0  0
 38 43  2  0  0  0
 38 46  1  0  0  0
 38 47  1  0  0  0
 39 64  1  0  0  0
 39 67  2  0  0  0
 40 52  1  0  0  0
 40 53  2  0  0  0
 40 58  1  0  0  0
 41110  1  0  0  0
 41111  1  0  0  0
 41112  1  0  0  0
 41 48  1  0  0  0
 42 43  1  0  0  0
 42 66  1  0  0  0
 42113  1  0  0  0
 42114  1  0  0  0
 43 44  1  0  0  0
 44115  1  0  0  0
 45 46  2  0  0  0
 45116  1  0  0  0
 46117  1  0  0  0
 47118  1  0  0  0
 47119  1  0  0  0
 48 56  1  0  0  0
 48 65  1  0  0  0
 48120  1  0  0  0
 49 50  1  0  0  0
 49 53  1  0  0  0
 49 64  1  0  0  0
 49121  1  0  0  0
 50 51  1  0  0  0
 50122  1  0  0  0
 50123  1  0  0  0
 51 52  1  0  0  0
 51124  1  0  0  0
 51125  1  0  0  0
 52126  1  0  0  0
 52127  1  0  0  0
 53 54  1  0  0  0
 54 55  2  0  0  0
 54128  1  0  0  0
 55 57  1  0  0  0
 55129  1  0  0  0
 56 69  2  0  0  0
 57 58  2  0  0  0
 57130  1  0  0  0
 58131  1  0  0  0
 59 60  1  0  0  0
 59 61  1  0  0  0
 59 62  1  0  0  0
 60132  1  0  0  0
 60133  1  0  0  0
 60134  1  0  0  0
 61135  1  0  0  0
 61136  1  0  0  0
 61137  1  0  0  0
 62138  1  0  0  0
 62139  1  0  0  0
 62140  1  0  0  0
 63 65  1  0  0  0
 63141  1  0  0  0
 63142  1  0  0  0
 63143  1  0  0  0
 64144  1  0  0  0
 65145  1  0  0  0
 68 80  1  0  0  0
 71 73  2  0  0  0
 71 75  1  0  0  0
 71146  1  0  0  0
 72 74  1  0  0  0
 72 75  2  0  0  0
 72147  1  0  0  0
 73 76  1  0  0  0
 73148  1  0  0  0
 74 76  2  0  0  0
 74149  1  0  0  0
 75 81  1  0  0  0
 76 84  1  0  0  0
 77 79  2  0  0  0
 77 82  1  0  0  0
 77 83  1  0  0  0
 78 80  2  0  0  0
 78 82  1  0  0  0
 78 84  1  0  0  0
 79150  1  0  0  0
 79151  1  0  0  0
 80152  1  0  0  0
 81 85  1  0  0  0
 81 86  2  0  0  0
 82153  1  0  0  0
 82154  1  0  0  0
 83 84  1  0  0  0
 83155  1  0  0  0
 83156  1  0  0  0
 85157  1  0  0  0
M  ISO  4   1 100  68 101  80 101  85 100
M  END
> <chiral flag>
0

> <version>
0

> <s_m_source_file>
/data/baiqing/PycharmProjects/Reinvent-master-3.2/result/LINK_invent/BTK/process_docking_weight1_custom_product_contain_oxygen_bond_distance_aromatic_linkinvent_7_9_3/rearranged_h_0082.sdf

> <i_m_source_file_index>
43

> <r_mmod_Potential_Energy-OPLS-2005>
339.944030761719

> <r_mmod_Stretch_Energy-OPLS-2005>
124.393104553223

> <r_mmod_Bend_Energy-OPLS-2005>
300.841064453125

> <r_mmod_Torsional_Energy-OPLS-2005>
288.478485107422

> <r_mmod_Improper_Torsional_Energy-OPLS-2005>
19.6238327026367

> <r_mmod_Van_der_Waal_Energy-OPLS-2005>
165.559524536133

> <r_mmod_Electrostatic_Energy-OPLS-2005>
-429.119445800781

> <r_mmod_Solvation_Energy-OPLS-2005>
-228.48371887207

> <b_mmod_Minimization_Converged-OPLS-2005>
0

> <r_mmod_RMS_Derivative-OPLS-2005>
3.24120473861694

$$$$
43
                    3D
 Structure written by MMmdl.
150159  0  0  1  0            999 V2000
  -30.5685  -14.7424   20.4852 C   0  0  0  0  0  0
  -30.4511  -12.4558   19.4667 C   0  0  0  0  0  0
  -29.5165  -12.5188   18.2354 C   0  0  0  0  0  0
  -28.0413  -12.3378   18.6472 C   0  0  0  0  0  0
  -27.6514  -13.2208   19.8617 C   0  0  2  0  0  0
  -28.6967  -13.1050   20.9940 C   0  0  0  0  0  0
  -25.2558  -13.8172   20.5689 C   0  0  0  0  0  0
  -24.1828  -13.0436   20.9197 C   0  0  0  0  0  0
  -24.6402  -11.6908   20.8741 C   0  0  0  0  0  0
  -23.9069  -10.4291   21.0407 C   0  0  0  0  0  0
  -24.3619   -9.4205   21.9183 C   0  0  0  0  0  0
  -23.6293   -8.2242   22.0753 C   0  0  0  0  0  0
  -22.4275   -8.0281   21.3544 C   0  0  0  0  0  0
  -21.9911   -9.0256   20.4648 C   0  0  0  0  0  0
  -22.7240  -10.2135   20.3057 C   0  0  0  0  0  0
  -21.6852   -6.0735   22.5279 C   0  0  0  0  0  0
  -21.4013   -6.5638   23.8212 C   0  0  0  0  0  0
  -21.3661   -5.6792   24.9175 C   0  0  0  0  0  0
  -21.6044   -4.3055   24.7226 C   0  0  0  0  0  0
  -21.8820   -3.8146   23.4348 C   0  0  0  0  0  0
  -21.9194   -4.6962   22.3403 C   0  0  0  0  0  0
  -22.7850  -13.5228   21.1859 C   0  0  0  0  0  0
  -22.1662   -4.2147   21.0981 F   0  0  0  0  0  0
  -21.5631   -3.4540   25.7739 F   0  0  0  0  0  0
  -30.0024  -13.4862   20.4306 N   0  0  0  0  0  0
  -26.2984  -12.9356   20.3312 N   0  0  0  0  0  0
  -25.9332  -11.6510   20.5754 N   0  0  0  0  0  0
  -22.0494  -12.8220   22.0416 N   0  0  0  0  0  0
  -25.4273  -15.1895   20.4100 N   0  0  0  0  0  0
  -31.7262  -14.9243   20.0934 O   0  0  0  0  0  0
  -21.6641   -6.8877   21.4240 O   0  0  0  0  0  0
  -22.3535  -14.5535   20.6705 O   0  0  0  0  0  0
  -24.6313  -31.8551   23.1983 C   0  0  0  0  0  0
  -25.9135  -32.4756   23.8333 C   0  0  1  0  0  0
  -27.2249  -27.2672   20.1291 C   0  0  0  0  0  0
  -25.5927  -33.8559   24.2254 N   0  0  0  0  0  0
  -23.4298  -30.4767   21.5413 C   0  0  2  0  0  0
  -24.8811  -28.9258   20.1087 C   0  0  0  0  0  0
  -22.7509  -29.4597   22.4906 C   0  0  0  0  0  0
  -18.0294  -28.1384   22.8486 C   0  0  0  0  0  0
  -24.1490  -36.7287   23.2640 C   0  0  0  0  0  0
  -25.9760  -30.7685   21.3802 C   0  0  0  0  0  0
  -26.0525  -29.3914   20.7220 C   0  0  0  0  0  0
  -27.2300  -28.5734   20.7249 C   0  0  0  0  0  0
  -26.0355  -26.8731   19.4795 C   0  0  0  0  0  0
  -24.8770  -27.6736   19.4759 C   0  0  0  0  0  0
  -23.6498  -29.8106   20.1575 C   0  0  0  0  0  0
  -25.4117  -36.3072   24.0325 C   0  0  1  0  0  0
  -20.5900  -28.3699   23.1264 C   0  0  2  0  0  0
  -20.6780  -26.9416   22.5406 C   0  0  0  0  0  0
  -19.5754  -26.6381   21.5212 C   0  0  0  0  0  0
  -18.1937  -26.7924   22.1630 C   0  0  0  0  0  0
  -19.1549  -28.8859   23.2870 C   0  0  0  0  0  0
  -18.9469  -30.1459   23.8888 C   0  0  0  0  0  0
  -17.6468  -30.6587   24.0562 C   0  0  0  0  0  0
  -25.9054  -34.9442   23.5094 C   0  0  0  0  0  0
  -16.5359  -29.9084   23.6331 C   0  0  0  0  0  0
  -16.7280  -28.6501   23.0354 C   0  0  0  0  0  0
  -26.4500  -31.6581   25.0723 C   0  0  0  0  0  0
  -25.3721  -31.3739   26.1442 C   0  0  0  0  0  0
  -27.0350  -30.2994   24.6218 C   0  0  0  0  0  0
  -27.6046  -32.4328   25.7500 C   0  0  0  0  0  0
  -27.5578  -37.1801   24.8467 C   0  0  0  0  0  0
  -21.4214  -29.3046   22.3651 N   0  0  0  0  0  0
  -26.4293  -37.3769   23.9405 N   0  0  0  0  0  0
  -24.6978  -31.0511   22.0963 N   0  0  0  0  0  0
  -23.4203  -28.8138   23.3011 O   0  0  0  0  0  0
  -28.2747  -26.3196   20.1796 O   0  0  0  0  0  0
  -26.5633  -34.8915   22.4667 O   0  0  0  0  0  0
  -23.5460  -32.1373   23.7272 O   0  0  0  0  0  0
  -28.4029  -19.3345   21.3720 C   0  0  0  0  0  0
  -30.2787  -19.5677   19.9757 C   0  0  0  0  0  0
  -28.6085  -17.9214   21.4327 C   0  0  0  0  0  0
  -30.5100  -18.1383   20.0304 C   0  0  0  0  0  0
  -29.2087  -20.2590   20.6419 C   0  0  0  0  0  0
  -29.6683  -17.2520   20.7675 C   0  0  0  0  0  0
  -28.4293  -23.7432   20.6065 C   0  0  0  0  0  0
  -27.9214  -22.5499   21.2755 C   0  0  0  0  0  0
  -27.9438  -25.0462   20.7318 C   0  0  0  0  0  0
  -29.4924  -22.8480   19.8987 C   0  0  0  0  0  0
  -28.8783  -21.7167   20.6595 N   0  0  0  0  0  0
  -29.7251  -15.7689   20.8757 N   0  0  0  0  0  0
  -27.0000  -22.4088   22.0534 O   0  0  0  0  0  0
  -31.4873  -12.6094   19.1601 H   0  0  0  0  0  0
  -30.4196  -11.4667   19.9265 H   0  0  0  0  0  0
  -29.7978  -11.7551   17.5089 H   0  0  0  0  0  0
  -29.6389  -13.4788   17.7316 H   0  0  0  0  0  0
  -27.8959  -11.2860   18.8961 H   0  0  0  0  0  0
  -27.3834  -12.5432   17.8020 H   0  0  0  0  0  0
  -27.6590  -14.2507   19.5044 H   0  0  0  0  0  0
  -28.7336  -12.0849   21.3792 H   0  0  0  0  0  0
  -28.4235  -13.7320   21.8440 H   0  0  0  0  0  0
  -25.2765   -9.5679   22.4756 H   0  0  0  0  0  0
  -24.0002   -7.4632   22.7472 H   0  0  0  0  0  0
  -21.0841   -8.8775   19.8954 H   0  0  0  0  0  0
  -22.3699  -10.9675   19.6168 H   0  0  0  0  0  0
  -21.2003   -7.6146   23.9714 H   0  0  0  0  0  0
  -21.1482   -6.0523   25.9077 H   0  0  0  0  0  0
  -22.0598   -2.7608   23.2849 H   0  0  0  0  0  0
  -22.4112  -11.9883   22.4805 H   0  0  0  0  0  0
  -21.1112  -13.1244   22.2625 H   0  0  0  0  0  0
  -24.6575  -15.8417   20.5130 H   0  0  0  0  0  0
  -26.2695  -15.6261   20.0572 H   0  0  0  0  0  0
  -26.7203  -32.5413   23.1078 H   0  0  0  0  0  0
  -25.0056  -33.9694   25.0388 H   0  0  0  0  0  0
  -22.7267  -31.2991   21.3942 H   0  0  0  0  0  0
  -23.3748  -35.9624   23.3310 H   0  0  0  0  0  0
  -24.3576  -36.8903   22.2053 H   0  0  0  0  0  0
  -23.7250  -37.6493   23.6660 H   0  0  0  0  0  0
  -26.1151  -31.5291   20.6108 H   0  0  0  0  0  0
  -26.8527  -30.8178   22.0143 H   0  0  0  0  0  0
  -28.1239  -28.9182   21.2254 H   0  0  0  0  0  0
  -25.9908  -25.9067   18.9974 H   0  0  0  0  0  0
  -23.9817  -27.3114   18.9890 H   0  0  0  0  0  0
  -23.7723  -30.5871   19.4016 H   0  0  0  0  0  0
  -22.7691  -29.2423   19.8529 H   0  0  0  0  0  0
  -25.1300  -36.1921   25.0818 H   0  0  0  0  0  0
  -20.9994  -28.3279   24.1384 H   0  0  0  0  0  0
  -20.5679  -26.2312   23.3613 H   0  0  0  0  0  0
  -21.6647  -26.7435   22.1201 H   0  0  0  0  0  0
  -19.6917  -25.6289   21.1246 H   0  0  0  0  0  0
  -19.6687  -27.3188   20.6739 H   0  0  0  0  0  0
  -17.4203  -26.6666   21.4037 H   0  0  0  0  0  0
  -18.0347  -26.0068   22.9029 H   0  0  0  0  0  0
  -19.7945  -30.7279   24.2251 H   0  0  0  0  0  0
  -17.5022  -31.6265   24.5167 H   0  0  0  0  0  0
  -15.5359  -30.2985   23.7655 H   0  0  0  0  0  0
  -15.8682  -28.0815   22.7074 H   0  0  0  0  0  0
  -24.5878  -30.7113   25.7763 H   0  0  0  0  0  0
  -24.8937  -32.2916   26.4871 H   0  0  0  0  0  0
  -25.8026  -30.8900   27.0217 H   0  0  0  0  0  0
  -26.2939  -29.6739   24.1226 H   0  0  0  0  0  0
  -27.4008  -29.7259   25.4745 H   0  0  0  0  0  0
  -27.8828  -30.4263   23.9482 H   0  0  0  0  0  0
  -27.2638  -33.3623   26.2072 H   0  0  0  0  0  0
  -28.3859  -32.6897   25.0335 H   0  0  0  0  0  0
  -28.0713  -31.8462   26.5425 H   0  0  0  0  0  0
  -28.2602  -38.0091   24.7498 H   0  0  0  0  0  0
  -28.1067  -36.2621   24.6314 H   0  0  0  0  0  0
  -27.2292  -37.1474   25.8869 H   0  0  0  0  0  0
  -20.9401  -29.8772   21.6857 H   0  0  0  0  0  0
  -26.0174  -38.2846   24.1392 H   0  0  0  0  0  0
  -27.5585  -19.7204   21.9252 H   0  0  0  0  0  0
  -30.9661  -20.1570   19.3856 H   0  0  0  0  0  0
  -27.9079  -17.3412   22.0169 H   0  0  0  0  0  0
  -31.3442  -17.7292   19.4781 H   0  0  0  0  0  0
  -27.1101  -25.1709   21.4114 H   0  0  0  0  0  0
  -30.5386  -22.9973   20.1702 H   0  0  0  0  0  0
  -29.3951  -22.7088   18.8208 H   0  0  0  0  0  0
  -28.8810  -15.3792   21.2665 H   0  0  0  0  0  0
  1 25  1  0  0  0
  1 30  2  0  0  0
  1 82  1  0  0  0
  2  3  1  0  0  0
  2 25  1  0  0  0
  2 84  1  0  0  0
  2 85  1  0  0  0
  3  4  1  0  0  0
  3 86  1  0  0  0
  3 87  1  0  0  0
  4  5  1  0  0  0
  4 88  1  0  0  0
  4 89  1  0  0  0
  5  6  1  0  0  0
  5 26  1  0  0  0
  5 90  1  0  0  0
  6 25  1  0  0  0
  6 91  1  0  0  0
  6 92  1  0  0  0
  7  8  2  0  0  0
  7 26  1  0  0  0
  7 29  1  0  0  0
  8  9  1  0  0  0
  8 22  1  0  0  0
  9 10  1  0  0  0
  9 27  2  0  0  0
 10 11  2  0  0  0
 10 15  1  0  0  0
 11 12  1  0  0  0
 11 93  1  0  0  0
 12 13  2  0  0  0
 12 94  1  0  0  0
 13 14  1  0  0  0
 13 31  1  0  0  0
 14 15  2  0  0  0
 14 95  1  0  0  0
 15 96  1  0  0  0
 16 17  2  0  0  0
 16 21  1  0  0  0
 16 31  1  0  0  0
 17 18  1  0  0  0
 17 97  1  0  0  0
 18 19  2  0  0  0
 18 98  1  0  0  0
 19 20  1  0  0  0
 19 24  1  0  0  0
 20 21  2  0  0  0
 20 99  1  0  0  0
 21 23  1  0  0  0
 22 28  1  0  0  0
 22 32  2  0  0  0
 26 27  1  0  0  0
 28100  1  0  0  0
 28101  1  0  0  0
 29102  1  0  0  0
 29103  1  0  0  0
 33 34  1  0  0  0
 33 66  1  0  0  0
 33 70  2  0  0  0
 34 36  1  0  0  0
 34 59  1  0  0  0
 34104  1  0  0  0
 35 44  2  0  0  0
 35 45  1  0  0  0
 35 68  1  0  0  0
 36 56  1  0  0  0
 36105  1  0  0  0
 37 39  1  0  0  0
 37 47  1  0  0  0
 37 66  1  0  0  0
 37106  1  0  0  0
 38 43  2  0  0  0
 38 46  1  0  0  0
 38 47  1  0  0  0
 39 64  1  0  0  0
 39 67  2  0  0  0
 40 52  1  0  0  0
 40 53  2  0  0  0
 40 58  1  0  0  0
 41107  1  0  0  0
 41108  1  0  0  0
 41109  1  0  0  0
 41 48  1  0  0  0
 42 43  1  0  0  0
 42 66  1  0  0  0
 42110  1  0  0  0
 42111  1  0  0  0
 43 44  1  0  0  0
 44112  1  0  0  0
 45 46  2  0  0  0
 45113  1  0  0  0
 46114  1  0  0  0
 47115  1  0  0  0
 47116  1  0  0  0
 48 56  1  0  0  0
 48 65  1  0  0  0
 48117  1  0  0  0
 49 50  1  0  0  0
 49 53  1  0  0  0
 49 64  1  0  0  0
 49118  1  0  0  0
 50 51  1  0  0  0
 50119  1  0  0  0
 50120  1  0  0  0
 51 52  1  0  0  0
 51121  1  0  0  0
 51122  1  0  0  0
 52123  1  0  0  0
 52124  1  0  0  0
 53 54  1  0  0  0
 54 55  2  0  0  0
 54125  1  0  0  0
 55 57  1  0  0  0
 55126  1  0  0  0
 56 69  2  0  0  0
 57 58  2  0  0  0
 57127  1  0  0  0
 58128  1  0  0  0
 59 60  1  0  0  0
 59 61  1  0  0  0
 59 62  1  0  0  0
 60129  1  0  0  0
 60130  1  0  0  0
 60131  1  0  0  0
 61132  1  0  0  0
 61133  1  0  0  0
 61134  1  0  0  0
 62135  1  0  0  0
 62136  1  0  0  0
 62137  1  0  0  0
 63 65  1  0  0  0
 63138  1  0  0  0
 63139  1  0  0  0
 63140  1  0  0  0
 64141  1  0  0  0
 65142  1  0  0  0
 68 79  1  0  0  0
 71 73  2  0  0  0
 71 75  1  0  0  0
 71143  1  0  0  0
 72 74  1  0  0  0
 72 75  2  0  0  0
 72144  1  0  0  0
 73 76  1  0  0  0
 73145  1  0  0  0
 74 76  2  0  0  0
 74146  1  0  0  0
 75 81  1  0  0  0
 76 82  1  0  0  0
 77 78  1  0  0  0
 77 79  2  0  0  0
 77 80  1  0  0  0
 78 81  1  0  0  0
 78 83  2  0  0  0
 79147  1  0  0  0
 80 81  1  0  0  0
 80148  1  0  0  0
 80149  1  0  0  0
 82150  1  0  0  0
M  ISO  4   1 100  68 101  79 101  82 100
M  END
> <chiral flag>
0

> <version>
0

> <s_m_source_file>
/data/baiqing/PycharmProjects/Reinvent-master-3.2/result/LINK_invent/BTK/process_docking_weight1_custom_product_contain_oxygen_bond_distance_aromatic_linkinvent_7_9_3/rearranged_h_0082.sdf

> <i_m_source_file_index>
44

> <r_mmod_Potential_Energy-OPLS-2005>
216.110015869141

> <r_mmod_Stretch_Energy-OPLS-2005>
106.537666320801

> <r_mmod_Bend_Energy-OPLS-2005>
270.702850341797

> <r_mmod_Torsional_Energy-OPLS-2005>
219.89909362793

> <r_mmod_Improper_Torsional_Energy-OPLS-2005>
3.45828318595886

> <r_mmod_Van_der_Waal_Energy-OPLS-2005>
134.482055664062

> <r_mmod_Electrostatic_Energy-OPLS-2005>
-389.401977539062

> <r_mmod_Solvation_Energy-OPLS-2005>
-217.736526489258

> <b_mmod_Minimization_Converged-OPLS-2005>
0

> <r_mmod_RMS_Derivative-OPLS-2005>
0.385791778564453

$$$$
44
                    3D
 Structure written by MMmdl.
150158  0  0  1  0            999 V2000
  -30.7013  -14.5507   20.5478 C   0  0  0  0  0  0
  -30.4181  -12.3538   19.4381 C   0  0  0  0  0  0
  -29.4943  -12.5066   18.2129 C   0  0  0  0  0  0
  -28.0176  -12.3570   18.6259 C   0  0  0  0  0  0
  -27.6510  -13.2210   19.8625 C   0  0  2  0  0  0
  -28.6952  -13.0685   20.9910 C   0  0  0  0  0  0
  -25.2542  -13.8189   20.5692 C   0  0  0  0  0  0
  -24.1813  -13.0445   20.9187 C   0  0  0  0  0  0
  -24.6389  -11.6916   20.8736 C   0  0  0  0  0  0
  -23.9066  -10.4294   21.0402 C   0  0  0  0  0  0
  -24.3618   -9.4206   21.9179 C   0  0  0  0  0  0
  -23.6299   -8.2244   22.0751 C   0  0  0  0  0  0
  -22.4278   -8.0280   21.3542 C   0  0  0  0  0  0
  -21.9912   -9.0259   20.4645 C   0  0  0  0  0  0
  -22.7245  -10.2136   20.3049 C   0  0  0  0  0  0
  -21.6856   -6.0733   22.5280 C   0  0  0  0  0  0
  -21.4018   -6.5637   23.8216 C   0  0  0  0  0  0
  -21.3655   -5.6788   24.9179 C   0  0  0  0  0  0
  -21.6040   -4.3052   24.7229 C   0  0  0  0  0  0
  -21.8819   -3.8148   23.4353 C   0  0  0  0  0  0
  -21.9196   -4.6963   22.3402 C   0  0  0  0  0  0
  -22.7836  -13.5229   21.1849 C   0  0  0  0  0  0
  -22.1665   -4.2145   21.0983 F   0  0  0  0  0  0
  -21.5621   -3.4534   25.7742 F   0  0  0  0  0  0
  -30.0164  -13.3753   20.4234 N   0  0  0  0  0  0
  -26.2971  -12.9382   20.3323 N   0  0  0  0  0  0
  -25.9318  -11.6527   20.5756 N   0  0  0  0  0  0
  -22.0474  -12.8221   22.0404 N   0  0  0  0  0  0
  -25.4247  -15.1917   20.4121 N   0  0  0  0  0  0
  -31.8555  -14.6662   20.1273 O   0  0  0  0  0  0
  -21.6644   -6.8878   21.4241 O   0  0  0  0  0  0
  -22.3526  -14.5532   20.6690 O   0  0  0  0  0  0
  -24.6209  -31.8650   23.2083 C   0  0  0  0  0  0
  -25.9081  -32.4807   23.8395 C   0  0  1  0  0  0
  -27.2184  -27.3751   20.1178 C   0  0  0  0  0  0
  -25.5919  -33.8603   24.2323 N   0  0  0  0  0  0
  -23.4123  -30.4919   21.5480 C   0  0  2  0  0  0
  -24.8610  -28.9615   20.1029 C   0  0  0  0  0  0
  -22.7448  -29.4657   22.4941 C   0  0  0  0  0  0
  -18.0279  -28.1380   22.8487 C   0  0  0  0  0  0
  -24.1492  -36.7301   23.2640 C   0  0  0  0  0  0
  -25.9484  -30.8140   21.3731 C   0  0  0  0  0  0
  -26.0245  -29.4468   20.7154 C   0  0  0  0  0  0
  -27.2089  -28.6610   20.7236 C   0  0  0  0  0  0
  -26.0472  -26.9456   19.4524 C   0  0  0  0  0  0
  -24.8708  -27.7142   19.4614 C   0  0  0  0  0  0
  -23.6246  -29.8316   20.1600 C   0  0  0  0  0  0
  -25.4109  -36.3097   24.0343 C   0  0  1  0  0  0
  -20.5882  -28.3681   23.1288 C   0  0  2  0  0  0
  -20.6765  -26.9412   22.5406 C   0  0  0  0  0  0
  -19.5752  -26.6390   21.5199 C   0  0  0  0  0  0
  -18.1927  -26.7924   22.1614 C   0  0  0  0  0  0
  -19.1531  -28.8842   23.2886 C   0  0  0  0  0  0
  -18.9455  -30.1445   23.8907 C   0  0  0  0  0  0
  -17.6460  -30.6585   24.0556 C   0  0  0  0  0  0
  -25.9041  -34.9464   23.5128 C   0  0  0  0  0  0
  -16.5352  -29.9086   23.6327 C   0  0  0  0  0  0
  -16.7265  -28.6499   23.0355 C   0  0  0  0  0  0
  -26.4487  -31.6584   25.0736 C   0  0  0  0  0  0
  -25.3744  -31.3708   26.1480 C   0  0  0  0  0  0
  -27.0297  -30.3007   24.6139 C   0  0  0  0  0  0
  -27.6082  -32.4286   25.7483 C   0  0  0  0  0  0
  -27.5580  -37.1807   24.8463 C   0  0  0  0  0  0
  -21.4169  -29.3045   22.3684 N   0  0  0  0  0  0
  -26.4290  -37.3786   23.9411 N   0  0  0  0  0  0
  -24.6789  -31.0720   22.1005 N   0  0  0  0  0  0
  -23.4203  -28.8193   23.2990 O   0  0  0  0  0  0
  -28.2929  -26.4908   20.2066 O   0  0  0  0  0  0
  -26.5595  -34.8924   22.4685 O   0  0  0  0  0  0
  -23.5386  -32.1412   23.7446 O   0  0  0  0  0  0
  -32.2686  -18.4370   22.0864 C   0  0  0  0  0  0
  -31.7755  -17.1508   21.8029 C   0  0  0  0  0  0
  -31.5017  -19.5831   21.8029 C   0  0  0  0  0  0
  -29.7154  -18.1510   20.9797 C   0  0  0  0  0  0
  -30.4957  -16.9754   21.2293 C   0  0  0  0  0  0
  -30.2056  -19.4726   21.2421 C   0  0  0  0  0  0
  -28.9096  -23.0705   20.9967 C   0  0  0  0  0  0
  -28.0542  -25.2496   20.8412 C   0  0  0  0  0  0
  -29.9630  -21.9382   21.0473 C   0  0  0  0  0  0
  -29.1035  -24.3054   20.6446 N   0  0  0  0  0  0
  -29.9956  -15.6406   20.9616 N   0  0  0  0  0  0
  -27.0251  -25.0179   21.4875 O   0  0  0  0  0  0
  -29.4079  -20.5906   20.9601 O   0  0  0  0  0  0
  -31.4618  -12.4519   19.1337 H   0  0  0  0  0  0
  -30.3274  -11.3567   19.8710 H   0  0  0  0  0  0
  -29.7475  -11.7662   17.4530 H   0  0  0  0  0  0
  -29.6504  -13.4838   17.7539 H   0  0  0  0  0  0
  -27.8391  -11.3031   18.8432 H   0  0  0  0  0  0
  -27.3655  -12.6061   17.7875 H   0  0  0  0  0  0
  -27.6736  -14.2581   19.5281 H   0  0  0  0  0  0
  -28.6870  -12.0522   21.3871 H   0  0  0  0  0  0
  -28.4525  -13.7197   21.8320 H   0  0  0  0  0  0
  -25.2761   -9.5687   22.4747 H   0  0  0  0  0  0
  -24.0009   -7.4626   22.7468 H   0  0  0  0  0  0
  -21.0839   -8.8781   19.8955 H   0  0  0  0  0  0
  -22.3705  -10.9668   19.6152 H   0  0  0  0  0  0
  -21.2016   -7.6146   23.9718 H   0  0  0  0  0  0
  -21.1470   -6.0520   25.9081 H   0  0  0  0  0  0
  -22.0600   -2.7609   23.2851 H   0  0  0  0  0  0
  -22.4086  -11.9887   22.4795 H   0  0  0  0  0  0
  -21.1091  -13.1254   22.2594 H   0  0  0  0  0  0
  -24.6581  -15.8470   20.5210 H   0  0  0  0  0  0
  -26.2757  -15.6317   20.0856 H   0  0  0  0  0  0
  -26.7155  -32.5510   23.1158 H   0  0  0  0  0  0
  -25.0090  -33.9749   25.0485 H   0  0  0  0  0  0
  -22.7045  -31.3125   21.4098 H   0  0  0  0  0  0
  -23.3750  -35.9637   23.3313 H   0  0  0  0  0  0
  -24.3590  -36.8896   22.2050 H   0  0  0  0  0  0
  -23.7253  -37.6520   23.6635 H   0  0  0  0  0  0
  -26.0721  -31.5801   20.6059 H   0  0  0  0  0  0
  -26.8331  -30.8635   21.9969 H   0  0  0  0  0  0
  -28.0952  -29.0144   21.2313 H   0  0  0  0  0  0
  -26.0282  -25.9806   18.9651 H   0  0  0  0  0  0
  -23.9813  -27.3406   18.9731 H   0  0  0  0  0  0
  -23.7340  -30.6100   19.4036 H   0  0  0  0  0  0
  -22.7471  -29.2544   19.8623 H   0  0  0  0  0  0
  -25.1282  -36.1962   25.0834 H   0  0  0  0  0  0
  -20.9980  -28.3255   24.1409 H   0  0  0  0  0  0
  -20.5665  -26.2295   23.3603 H   0  0  0  0  0  0
  -21.6640  -26.7443   22.1212 H   0  0  0  0  0  0
  -19.6924  -25.6304   21.1228 H   0  0  0  0  0  0
  -19.6696  -27.3195   20.6732 H   0  0  0  0  0  0
  -17.4204  -26.6674   21.4009 H   0  0  0  0  0  0
  -18.0332  -26.0057   22.9005 H   0  0  0  0  0  0
  -19.7933  -30.7237   24.2302 H   0  0  0  0  0  0
  -17.5021  -31.6271   24.5148 H   0  0  0  0  0  0
  -15.5350  -30.2990   23.7649 H   0  0  0  0  0  0
  -15.8667  -28.0813   22.7080 H   0  0  0  0  0  0
  -24.5919  -30.7048   25.7821 H   0  0  0  0  0  0
  -24.8930  -32.2864   26.4927 H   0  0  0  0  0  0
  -25.8092  -30.8882   27.0243 H   0  0  0  0  0  0
  -26.2834  -29.6780   24.1190 H   0  0  0  0  0  0
  -27.4026  -29.7240   25.4613 H   0  0  0  0  0  0
  -27.8704  -30.4282   23.9317 H   0  0  0  0  0  0
  -27.2737  -33.3606   26.2051 H   0  0  0  0  0  0
  -28.3899  -32.6803   25.0303 H   0  0  0  0  0  0
  -28.0739  -31.8405   26.5401 H   0  0  0  0  0  0
  -28.2607  -38.0095   24.7494 H   0  0  0  0  0  0
  -28.1064  -36.2626   24.6294 H   0  0  0  0  0  0
  -27.2305  -37.1470   25.8871 H   0  0  0  0  0  0
  -20.9343  -29.8756   21.6888 H   0  0  0  0  0  0
  -26.0180  -38.2870   24.1393 H   0  0  0  0  0  0
  -33.2496  -18.5454   22.5278 H   0  0  0  0  0  0
  -32.3981  -16.2994   22.0378 H   0  0  0  0  0  0
  -31.9451  -20.5369   22.0439 H   0  0  0  0  0  0
  -28.7255  -18.0452   20.5588 H   0  0  0  0  0  0
  -27.9333  -22.7160   21.3416 H   0  0  0  0  0  0
  -30.4870  -22.0705   21.9940 H   0  0  0  0  0  0
  -30.6912  -22.0860   20.2488 H   0  0  0  0  0  0
  -29.0023  -15.5001   21.0645 H   0  0  0  0  0  0
  1 25  1  0  0  0
  1 30  2  0  0  0
  1 81  1  0  0  0
  2  3  1  0  0  0
  2 25  1  0  0  0
  2 84  1  0  0  0
  2 85  1  0  0  0
  3  4  1  0  0  0
  3 86  1  0  0  0
  3 87  1  0  0  0
  4  5  1  0  0  0
  4 88  1  0  0  0
  4 89  1  0  0  0
  5  6  1  0  0  0
  5 26  1  0  0  0
  5 90  1  0  0  0
  6 25  1  0  0  0
  6 91  1  0  0  0
  6 92  1  0  0  0
  7  8  2  0  0  0
  7 26  1  0  0  0
  7 29  1  0  0  0
  8  9  1  0  0  0
  8 22  1  0  0  0
  9 10  1  0  0  0
  9 27  2  0  0  0
 10 11  2  0  0  0
 10 15  1  0  0  0
 11 12  1  0  0  0
 11 93  1  0  0  0
 12 13  2  0  0  0
 12 94  1  0  0  0
 13 14  1  0  0  0
 13 31  1  0  0  0
 14 15  2  0  0  0
 14 95  1  0  0  0
 15 96  1  0  0  0
 16 17  2  0  0  0
 16 21  1  0  0  0
 16 31  1  0  0  0
 17 18  1  0  0  0
 17 97  1  0  0  0
 18 19  2  0  0  0
 18 98  1  0  0  0
 19 20  1  0  0  0
 19 24  1  0  0  0
 20 21  2  0  0  0
 20 99  1  0  0  0
 21 23  1  0  0  0
 22 28  1  0  0  0
 22 32  2  0  0  0
 26 27  1  0  0  0
 28100  1  0  0  0
 28101  1  0  0  0
 29102  1  0  0  0
 29103  1  0  0  0
 33 34  1  0  0  0
 33 66  1  0  0  0
 33 70  2  0  0  0
 34 36  1  0  0  0
 34 59  1  0  0  0
 34104  1  0  0  0
 35 44  2  0  0  0
 35 45  1  0  0  0
 35 68  1  0  0  0
 36 56  1  0  0  0
 36105  1  0  0  0
 37 39  1  0  0  0
 37 47  1  0  0  0
 37 66  1  0  0  0
 37106  1  0  0  0
 38 43  2  0  0  0
 38 46  1  0  0  0
 38 47  1  0  0  0
 39 64  1  0  0  0
 39 67  2  0  0  0
 40 52  1  0  0  0
 40 53  2  0  0  0
 40 58  1  0  0  0
 41107  1  0  0  0
 41108  1  0  0  0
 41109  1  0  0  0
 41 48  1  0  0  0
 42 43  1  0  0  0
 42 66  1  0  0  0
 42110  1  0  0  0
 42111  1  0  0  0
 43 44  1  0  0  0
 44112  1  0  0  0
 45 46  2  0  0  0
 45113  1  0  0  0
 46114  1  0  0  0
 47115  1  0  0  0
 47116  1  0  0  0
 48 56  1  0  0  0
 48 65  1  0  0  0
 48117  1  0  0  0
 49 50  1  0  0  0
 49 53  1  0  0  0
 49 64  1  0  0  0
 49118  1  0  0  0
 50 51  1  0  0  0
 50119  1  0  0  0
 50120  1  0  0  0
 51 52  1  0  0  0
 51121  1  0  0  0
 51122  1  0  0  0
 52123  1  0  0  0
 52124  1  0  0  0
 53 54  1  0  0  0
 54 55  2  0  0  0
 54125  1  0  0  0
 55 57  1  0  0  0
 55126  1  0  0  0
 56 69  2  0  0  0
 57 58  2  0  0  0
 57127  1  0  0  0
 58128  1  0  0  0
 59 60  1  0  0  0
 59 61  1  0  0  0
 59 62  1  0  0  0
 60129  1  0  0  0
 60130  1  0  0  0
 60131  1  0  0  0
 61132  1  0  0  0
 61133  1  0  0  0
 61134  1  0  0  0
 62135  1  0  0  0
 62136  1  0  0  0
 62137  1  0  0  0
 63 65  1  0  0  0
 63138  1  0  0  0
 63139  1  0  0  0
 63140  1  0  0  0
 64141  1  0  0  0
 65142  1  0  0  0
 68 78  1  0  0  0
 71 72  2  0  0  0
 71 73  1  0  0  0
 71143  1  0  0  0
 72 75  1  0  0  0
 72144  1  0  0  0
 73 76  2  0  0  0
 73145  1  0  0  0
 74 75  2  0  0  0
 74 76  1  0  0  0
 74146  1  0  0  0
 75 81  1  0  0  0
 76 83  1  0  0  0
 77 79  1  0  0  0
 77 80  2  0  0  0
 77147  1  0  0  0
 78 80  1  0  0  0
 78 82  2  0  0  0
 79 83  1  0  0  0
 79148  1  0  0  0
 79149  1  0  0  0
 81150  1  0  0  0
M  ISO  4   1 100  68 101  78 101  81 100
M  END
> <chiral flag>
0

> <version>
0

> <s_m_source_file>
/data/baiqing/PycharmProjects/Reinvent-master-3.2/result/LINK_invent/BTK/process_docking_weight1_custom_product_contain_oxygen_bond_distance_aromatic_linkinvent_7_9_3/rearranged_h_0082.sdf

> <i_m_source_file_index>
45

> <r_mmod_Potential_Energy-OPLS-2005>
11.2619028091431

> <r_mmod_Stretch_Energy-OPLS-2005>
63.3893585205078

> <r_mmod_Bend_Energy-OPLS-2005>
106.71354675293

> <r_mmod_Torsional_Energy-OPLS-2005>
220.481658935547

> <r_mmod_Improper_Torsional_Energy-OPLS-2005>
4.60369634628296

> <r_mmod_Van_der_Waal_Energy-OPLS-2005>
168.995086669922

> <r_mmod_Electrostatic_Energy-OPLS-2005>
-367.466766357422

> <r_mmod_Solvation_Energy-OPLS-2005>
-219.638763427734

> <b_mmod_Minimization_Converged-OPLS-2005>
0

> <r_mmod_RMS_Derivative-OPLS-2005>
1.73903286457062

$$$$
45
                    3D
 Structure written by MMmdl.
156165  0  0  1  0            999 V2000
  -30.6380  -14.5204   20.5900 C   0  0  0  0  0  0
  -30.4368  -12.3404   19.4250 C   0  0  0  0  0  0
  -29.5020  -12.5282   18.2095 C   0  0  0  0  0  0
  -28.0217  -12.3752   18.6155 C   0  0  0  0  0  0
  -27.6610  -13.2025   19.8780 C   0  0  2  0  0  0
  -28.6993  -12.9593   20.9961 C   0  0  0  0  0  0
  -25.2569  -13.8146   20.5609 C   0  0  0  0  0  0
  -24.1819  -13.0436   20.9154 C   0  0  0  0  0  0
  -24.6360  -11.6902   20.8726 C   0  0  0  0  0  0
  -23.9029  -10.4291   21.0407 C   0  0  0  0  0  0
  -24.3592   -9.4214   21.9183 C   0  0  0  0  0  0
  -23.6267   -8.2244   22.0758 C   0  0  0  0  0  0
  -22.4254   -8.0275   21.3545 C   0  0  0  0  0  0
  -21.9872   -9.0251   20.4653 C   0  0  0  0  0  0
  -22.7202  -10.2131   20.3061 C   0  0  0  0  0  0
  -21.6854   -6.0715   22.5267 C   0  0  0  0  0  0
  -21.4020   -6.5619   23.8204 C   0  0  0  0  0  0
  -21.3658   -5.6773   24.9161 C   0  0  0  0  0  0
  -21.6044   -4.3036   24.7217 C   0  0  0  0  0  0
  -21.8822   -3.8123   23.4340 C   0  0  0  0  0  0
  -21.9193   -4.6939   22.3397 C   0  0  0  0  0  0
  -22.7848  -13.5256   21.1822 C   0  0  0  0  0  0
  -22.1665   -4.2124   21.0971 F   0  0  0  0  0  0
  -21.5619   -3.4521   25.7741 F   0  0  0  0  0  0
  -30.0298  -13.3058   20.4614 N   0  0  0  0  0  0
  -26.3002  -12.9300   20.3329 N   0  0  0  0  0  0
  -25.9289  -11.6471   20.5743 N   0  0  0  0  0  0
  -22.0477  -12.8288   22.0394 N   0  0  0  0  0  0
  -25.4290  -15.1855   20.3922 N   0  0  0  0  0  0
  -31.7480  -14.7581   20.1015 O   0  0  0  0  0  0
  -21.6637   -6.8855   21.4230 O   0  0  0  0  0  0
  -22.3547  -14.5568   20.6660 O   0  0  0  0  0  0
  -24.6198  -31.8620   23.2055 C   0  0  0  0  0  0
  -25.9072  -32.4782   23.8362 C   0  0  1  0  0  0
  -27.2293  -27.3769   20.0886 C   0  0  0  0  0  0
  -25.5907  -33.8581   24.2292 N   0  0  0  0  0  0
  -23.4094  -30.4853   21.5491 C   0  0  2  0  0  0
  -24.8521  -28.9448   20.1108 C   0  0  0  0  0  0
  -22.7441  -29.4617   22.4968 C   0  0  0  0  0  0
  -18.0280  -28.1369   22.8468 C   0  0  0  0  0  0
  -24.1492  -36.7302   23.2630 C   0  0  0  0  0  0
  -25.9451  -30.8059   21.3689 C   0  0  0  0  0  0
  -26.0162  -29.4379   20.7120 C   0  0  0  0  0  0
  -27.2028  -28.6590   20.7017 C   0  0  0  0  0  0
  -26.0324  -26.9051   19.5000 C   0  0  0  0  0  0
  -24.8571  -27.6786   19.5047 C   0  0  0  0  0  0
  -23.6173  -29.8177   20.1636 C   0  0  0  0  0  0
  -25.4101  -36.3085   24.0333 C   0  0  1  0  0  0
  -20.5869  -28.3664   23.1286 C   0  0  2  0  0  0
  -20.6768  -26.9393   22.5409 C   0  0  0  0  0  0
  -19.5751  -26.6368   21.5201 C   0  0  0  0  0  0
  -18.1925  -26.7912   22.1606 C   0  0  0  0  0  0
  -19.1528  -28.8836   23.2869 C   0  0  0  0  0  0
  -18.9460  -30.1439   23.8888 C   0  0  0  0  0  0
  -17.6460  -30.6566   24.0556 C   0  0  0  0  0  0
  -25.9038  -34.9451   23.5109 C   0  0  0  0  0  0
  -16.5352  -29.9066   23.6324 C   0  0  0  0  0  0
  -16.7267  -28.6486   23.0339 C   0  0  0  0  0  0
  -26.4465  -31.6578   25.0712 C   0  0  0  0  0  0
  -25.3728  -31.3725   26.1470 C   0  0  0  0  0  0
  -27.0280  -30.3003   24.6128 C   0  0  0  0  0  0
  -27.6053  -32.4286   25.7453 C   0  0  0  0  0  0
  -27.5590  -37.1778   24.8431 C   0  0  0  0  0  0
  -21.4161  -29.3021   22.3698 N   0  0  0  0  0  0
  -26.4273  -37.3785   23.9424 N   0  0  0  0  0  0
  -24.6767  -31.0668   22.0982 N   0  0  0  0  0  0
  -23.4184  -28.8152   23.3026 O   0  0  0  0  0  0
  -28.3915  -26.6116   20.1282 O   0  0  0  0  0  0
  -26.5614  -34.8913   22.4691 O   0  0  0  0  0  0
  -23.5380  -32.1391   23.7425 O   0  0  0  0  0  0
  -28.3492  -18.8884   21.1924 C   0  0  0  0  0  0
  -30.6295  -19.1020   20.4263 C   0  0  0  0  0  0
  -28.5485  -17.4952   21.3659 C   0  0  0  0  0  0
  -30.8293  -17.7071   20.5938 C   0  0  0  0  0  0
  -29.3825  -19.7304   20.7013 C   0  0  0  0  0  0
  -29.7801  -16.8733   21.0490 C   0  0  0  0  0  0
  -28.0001  -21.8511   20.6268 C   0  0  0  0  0  0
  -30.0576  -23.5005   19.5902 C   0  0  0  0  0  0
  -29.1879  -21.2163   20.4479 C   0  0  0  0  0  0
  -28.8710  -24.1168   19.7612 C   0  0  0  0  0  0
  -30.3715  -22.0454   19.9393 C   0  0  0  0  0  0
  -27.6999  -23.3391   20.3567 C   0  0  0  0  0  0
  -28.6057  -25.5317   19.1813 C   0  0  0  0  0  0
  -29.8847  -15.4491   21.2313 N   0  0  0  0  0  0
  -31.4785  -12.4728   19.1254 H   0  0  0  0  0  0
  -30.3649  -11.3234   19.8126 H   0  0  0  0  0  0
  -29.7499  -11.8100   17.4260 H   0  0  0  0  0  0
  -29.6594  -13.5179   17.7749 H   0  0  0  0  0  0
  -27.8354  -11.3165   18.8011 H   0  0  0  0  0  0
  -27.3740  -12.6553   17.7839 H   0  0  0  0  0  0
  -27.7085  -14.2540   19.5948 H   0  0  0  0  0  0
  -28.6883  -11.9108   21.2940 H   0  0  0  0  0  0
  -28.4417  -13.5113   21.9010 H   0  0  0  0  0  0
  -25.2735   -9.5673   22.4764 H   0  0  0  0  0  0
  -23.9973   -7.4632   22.7470 H   0  0  0  0  0  0
  -21.0797   -8.8772   19.8970 H   0  0  0  0  0  0
  -22.3661  -10.9670   19.6166 H   0  0  0  0  0  0
  -21.2035   -7.6131   23.9698 H   0  0  0  0  0  0
  -21.1468   -6.0503   25.9061 H   0  0  0  0  0  0
  -22.0608   -2.7580   23.2860 H   0  0  0  0  0  0
  -22.4056  -11.9946   22.4823 H   0  0  0  0  0  0
  -21.1104  -13.1359   22.2605 H   0  0  0  0  0  0
  -24.6474  -15.8313   20.4376 H   0  0  0  0  0  0
  -26.2629  -15.6044   20.0016 H   0  0  0  0  0  0
  -26.7135  -32.5453   23.1108 H   0  0  0  0  0  0
  -25.0047  -33.9719   25.0433 H   0  0  0  0  0  0
  -22.6994  -31.3032   21.4097 H   0  0  0  0  0  0
  -23.3751  -35.9637   23.3249 H   0  0  0  0  0  0
  -24.3619  -36.8962   22.2060 H   0  0  0  0  0  0
  -23.7231  -37.6486   23.6678 H   0  0  0  0  0  0
  -26.0711  -31.5682   20.5990 H   0  0  0  0  0  0
  -26.8298  -30.8532   21.9926 H   0  0  0  0  0  0
  -28.1002  -29.0332   21.1741 H   0  0  0  0  0  0
  -25.9641  -25.9233   19.0583 H   0  0  0  0  0  0
  -23.9573  -27.2829   19.0527 H   0  0  0  0  0  0
  -23.7236  -30.5923   19.4035 H   0  0  0  0  0  0
  -22.7380  -29.2399   19.8706 H   0  0  0  0  0  0
  -25.1268  -36.1937   25.0823 H   0  0  0  0  0  0
  -20.9955  -28.3251   24.1412 H   0  0  0  0  0  0
  -20.5652  -26.2279   23.3608 H   0  0  0  0  0  0
  -21.6645  -26.7410   22.1217 H   0  0  0  0  0  0
  -19.6912  -25.6285   21.1215 H   0  0  0  0  0  0
  -19.6684  -27.3188   20.6741 H   0  0  0  0  0  0
  -17.4195  -26.6652   21.4010 H   0  0  0  0  0  0
  -18.0318  -26.0054   22.9001 H   0  0  0  0  0  0
  -19.7941  -30.7264   24.2239 H   0  0  0  0  0  0
  -17.5013  -31.6243   24.5164 H   0  0  0  0  0  0
  -15.5354  -30.2961   23.7654 H   0  0  0  0  0  0
  -15.8669  -28.0808   22.7046 H   0  0  0  0  0  0
  -24.5883  -30.7076   25.7832 H   0  0  0  0  0  0
  -24.8946  -32.2902   26.4909 H   0  0  0  0  0  0
  -25.8078  -30.8902   27.0232 H   0  0  0  0  0  0
  -26.2829  -29.6767   24.1171 H   0  0  0  0  0  0
  -27.4009  -29.7236   25.4599 H   0  0  0  0  0  0
  -27.8686  -30.4294   23.9310 H   0  0  0  0  0  0
  -27.2695  -33.3588   26.2050 H   0  0  0  0  0  0
  -28.3845  -32.6832   25.0256 H   0  0  0  0  0  0
  -28.0732  -31.8391   26.5346 H   0  0  0  0  0  0
  -28.2536  -38.0148   24.7596 H   0  0  0  0  0  0
  -28.1162  -36.2692   24.6089 H   0  0  0  0  0  0
  -27.2345  -37.1222   25.8837 H   0  0  0  0  0  0
  -20.9335  -29.8771   21.6932 H   0  0  0  0  0  0
  -26.0145  -38.2844   24.1500 H   0  0  0  0  0  0
  -27.3757  -19.2807   21.4413 H   0  0  0  0  0  0
  -31.4671  -19.6793   20.0639 H   0  0  0  0  0  0
  -27.7232  -16.9020   21.7366 H   0  0  0  0  0  0
  -31.8009  -17.2929   20.3676 H   0  0  0  0  0  0
  -27.1399  -21.3031   20.9767 H   0  0  0  0  0  0
  -30.8673  -24.0364   19.1148 H   0  0  0  0  0  0
  -31.1813  -22.0179   20.6696 H   0  0  0  0  0  0
  -30.7411  -21.5790   19.0254 H   0  0  0  0  0  0
  -27.3777  -23.8211   21.2803 H   0  0  0  0  0  0
  -26.8622  -23.3878   19.6595 H   0  0  0  0  0  0
  -27.8599  -25.4543   18.3934 H   0  0  0  0  0  0
  -29.5026  -25.8245   18.6352 H   0  0  0  0  0  0
  -29.0765  -15.0308   21.6667 H   0  0  0  0  0  0
  1 25  1  0  0  0
  1 30  2  0  0  0
  1 84  1  0  0  0
  2  3  1  0  0  0
  2 25  1  0  0  0
  2 85  1  0  0  0
  2 86  1  0  0  0
  3  4  1  0  0  0
  3 87  1  0  0  0
  3 88  1  0  0  0
  4  5  1  0  0  0
  4 89  1  0  0  0
  4 90  1  0  0  0
  5  6  1  0  0  0
  5 26  1  0  0  0
  5 91  1  0  0  0
  6 25  1  0  0  0
  6 92  1  0  0  0
  6 93  1  0  0  0
  7  8  2  0  0  0
  7 26  1  0  0  0
  7 29  1  0  0  0
  8  9  1  0  0  0
  8 22  1  0  0  0
  9 10  1  0  0  0
  9 27  2  0  0  0
 10 11  2  0  0  0
 10 15  1  0  0  0
 11 12  1  0  0  0
 11 94  1  0  0  0
 12 13  2  0  0  0
 12 95  1  0  0  0
 13 14  1  0  0  0
 13 31  1  0  0  0
 14 15  2  0  0  0
 14 96  1  0  0  0
 15 97  1  0  0  0
 16 17  2  0  0  0
 16 21  1  0  0  0
 16 31  1  0  0  0
 17 18  1  0  0  0
 17 98  1  0  0  0
 18 19  2  0  0  0
 18 99  1  0  0  0
 19 20  1  0  0  0
 19 24  1  0  0  0
 20 21  2  0  0  0
 20100  1  0  0  0
 21 23  1  0  0  0
 22 28  1  0  0  0
 22 32  2  0  0  0
 26 27  1  0  0  0
 28101  1  0  0  0
 28102  1  0  0  0
 29103  1  0  0  0
 29104  1  0  0  0
 33 34  1  0  0  0
 33 66  1  0  0  0
 33 70  2  0  0  0
 34 36  1  0  0  0
 34 59  1  0  0  0
 34105  1  0  0  0
 35 44  2  0  0  0
 35 45  1  0  0  0
 35 68  1  0  0  0
 36 56  1  0  0  0
 36106  1  0  0  0
 37 39  1  0  0  0
 37 47  1  0  0  0
 37 66  1  0  0  0
 37107  1  0  0  0
 38 43  2  0  0  0
 38 46  1  0  0  0
 38 47  1  0  0  0
 39 64  1  0  0  0
 39 67  2  0  0  0
 40 52  1  0  0  0
 40 53  2  0  0  0
 40 58  1  0  0  0
 41108  1  0  0  0
 41109  1  0  0  0
 41110  1  0  0  0
 41 48  1  0  0  0
 42 43  1  0  0  0
 42 66  1  0  0  0
 42111  1  0  0  0
 42112  1  0  0  0
 43 44  1  0  0  0
 44113  1  0  0  0
 45 46  2  0  0  0
 45114  1  0  0  0
 46115  1  0  0  0
 47116  1  0  0  0
 47117  1  0  0  0
 48 56  1  0  0  0
 48 65  1  0  0  0
 48118  1  0  0  0
 49 50  1  0  0  0
 49 53  1  0  0  0
 49 64  1  0  0  0
 49119  1  0  0  0
 50 51  1  0  0  0
 50120  1  0  0  0
 50121  1  0  0  0
 51 52  1  0  0  0
 51122  1  0  0  0
 51123  1  0  0  0
 52124  1  0  0  0
 52125  1  0  0  0
 53 54  1  0  0  0
 54 55  2  0  0  0
 54126  1  0  0  0
 55 57  1  0  0  0
 55127  1  0  0  0
 56 69  2  0  0  0
 57 58  2  0  0  0
 57128  1  0  0  0
 58129  1  0  0  0
 59 60  1  0  0  0
 59 61  1  0  0  0
 59 62  1  0  0  0
 60130  1  0  0  0
 60131  1  0  0  0
 60132  1  0  0  0
 61133  1  0  0  0
 61134  1  0  0  0
 61135  1  0  0  0
 62136  1  0  0  0
 62137  1  0  0  0
 62138  1  0  0  0
 63 65  1  0  0  0
 63139  1  0  0  0
 63140  1  0  0  0
 63141  1  0  0  0
 64142  1  0  0  0
 65143  1  0  0  0
 68 83  1  0  0  0
 71 73  2  0  0  0
 71 75  1  0  0  0
 71144  1  0  0  0
 72 74  1  0  0  0
 72 75  2  0  0  0
 72145  1  0  0  0
 73 76  1  0  0  0
 73146  1  0  0  0
 74 76  2  0  0  0
 74147  1  0  0  0
 75 79  1  0  0  0
 76 84  1  0  0  0
 77 79  2  0  0  0
 77 82  1  0  0  0
 77148  1  0  0  0
 78 80  2  0  0  0
 78 81  1  0  0  0
 78149  1  0  0  0
 79 81  1  0  0  0
 80 82  1  0  0  0
 80 83  1  0  0  0
 81150  1  0  0  0
 81151  1  0  0  0
 82152  1  0  0  0
 82153  1  0  0  0
 83154  1  0  0  0
 83155  1  0  0  0
 84156  1  0  0  0
M  ISO  4   1 100  68 101  83 101  84 100
M  END
> <chiral flag>
0

> <version>
0

> <s_m_source_file>
/data/baiqing/PycharmProjects/Reinvent-master-3.2/result/LINK_invent/BTK/process_docking_weight1_custom_product_contain_oxygen_bond_distance_aromatic_linkinvent_7_9_3/rearranged_h_0082.sdf

> <i_m_source_file_index>
46

> <r_mmod_Potential_Energy-OPLS-2005>
-20.3249568939209

> <r_mmod_Stretch_Energy-OPLS-2005>
53.1826667785645

> <r_mmod_Bend_Energy-OPLS-2005>
128.29573059082

> <r_mmod_Torsional_Energy-OPLS-2005>
175.731704711914

> <r_mmod_Improper_Torsional_Energy-OPLS-2005>
4.58684062957764

> <r_mmod_Van_der_Waal_Energy-OPLS-2005>
163.574234008789

> <r_mmod_Electrostatic_Energy-OPLS-2005>
-364.520629882812

> <r_mmod_Solvation_Energy-OPLS-2005>
-203.048858642578

> <b_mmod_Minimization_Converged-OPLS-2005>
0

> <r_mmod_RMS_Derivative-OPLS-2005>
2.41687965393066

$$$$
46
                    3D
 Structure written by MMmdl.
150159  0  0  1  0            999 V2000
  -30.5729  -14.7439   20.4846 C   0  0  0  0  0  0
  -30.4506  -12.4572   19.4680 C   0  0  0  0  0  0
  -29.5163  -12.5185   18.2365 C   0  0  0  0  0  0
  -28.0410  -12.3387   18.6486 C   0  0  0  0  0  0
  -27.6511  -13.2227   19.8625 C   0  0  2  0  0  0
  -28.6967  -13.1104   20.9949 C   0  0  0  0  0  0
  -25.2544  -13.8170   20.5678 C   0  0  0  0  0  0
  -24.1818  -13.0431   20.9182 C   0  0  0  0  0  0
  -24.6402  -11.6908   20.8743 C   0  0  0  0  0  0
  -23.9073  -10.4290   21.0407 C   0  0  0  0  0  0
  -24.3622   -9.4205   21.9183 C   0  0  0  0  0  0
  -23.6295   -8.2241   22.0754 C   0  0  0  0  0  0
  -22.4276   -8.0281   21.3546 C   0  0  0  0  0  0
  -21.9913   -9.0257   20.4649 C   0  0  0  0  0  0
  -22.7245  -10.2134   20.3059 C   0  0  0  0  0  0
  -21.6853   -6.0733   22.5279 C   0  0  0  0  0  0
  -21.4013   -6.5637   23.8211 C   0  0  0  0  0  0
  -21.3659   -5.6792   24.9175 C   0  0  0  0  0  0
  -21.6045   -4.3054   24.7227 C   0  0  0  0  0  0
  -21.8821   -3.8146   23.4349 C   0  0  0  0  0  0
  -21.9193   -4.6961   22.3404 C   0  0  0  0  0  0
  -22.7841  -13.5223   21.1847 C   0  0  0  0  0  0
  -22.1658   -4.2144   21.0983 F   0  0  0  0  0  0
  -21.5636   -3.4538   25.7742 F   0  0  0  0  0  0
  -30.0028  -13.4897   20.4304 N   0  0  0  0  0  0
  -26.2985  -12.9366   20.3328 N   0  0  0  0  0  0
  -25.9337  -11.6516   20.5772 N   0  0  0  0  0  0
  -22.0491  -12.8218   22.0413 N   0  0  0  0  0  0
  -25.4238  -15.1887   20.4079 N   0  0  0  0  0  0
  -31.7307  -14.9218   20.0917 O   0  0  0  0  0  0
  -21.6643   -6.8876   21.4241 O   0  0  0  0  0  0
  -22.3518  -14.5524   20.6694 O   0  0  0  0  0  0
  -24.6312  -31.8552   23.1981 C   0  0  0  0  0  0
  -25.9133  -32.4756   23.8332 C   0  0  1  0  0  0
  -27.2254  -27.2666   20.1305 C   0  0  0  0  0  0
  -25.5925  -33.8558   24.2251 N   0  0  0  0  0  0
  -23.4299  -30.4766   21.5411 C   0  0  2  0  0  0
  -24.8814  -28.9256   20.1086 C   0  0  0  0  0  0
  -22.7508  -29.4596   22.4906 C   0  0  0  0  0  0
  -18.0296  -28.1381   22.8488 C   0  0  0  0  0  0
  -24.1489  -36.7288   23.2640 C   0  0  0  0  0  0
  -25.9760  -30.7680   21.3805 C   0  0  0  0  0  0
  -26.0526  -29.3912   20.7222 C   0  0  0  0  0  0
  -27.2300  -28.5729   20.7259 C   0  0  0  0  0  0
  -26.0365  -26.8730   19.4798 C   0  0  0  0  0  0
  -24.8778  -27.6733   19.4756 C   0  0  0  0  0  0
  -23.6499  -29.8102   20.1576 C   0  0  0  0  0  0
  -25.4116  -36.3072   24.0324 C   0  0  1  0  0  0
  -20.5899  -28.3698   23.1263 C   0  0  2  0  0  0
  -20.6780  -26.9414   22.5406 C   0  0  0  0  0  0
  -19.5753  -26.6379   21.5212 C   0  0  0  0  0  0
  -18.1937  -26.7921   22.1632 C   0  0  0  0  0  0
  -19.1550  -28.8857   23.2869 C   0  0  0  0  0  0
  -18.9470  -30.1459   23.8886 C   0  0  0  0  0  0
  -17.6468  -30.6585   24.0562 C   0  0  0  0  0  0
  -25.9055  -34.9441   23.5092 C   0  0  0  0  0  0
  -16.5359  -29.9082   23.6329 C   0  0  0  0  0  0
  -16.7282  -28.6498   23.0354 C   0  0  0  0  0  0
  -26.4499  -31.6580   25.0723 C   0  0  0  0  0  0
  -25.3722  -31.3746   26.1445 C   0  0  0  0  0  0
  -27.0342  -30.2990   24.6221 C   0  0  0  0  0  0
  -27.6045  -32.4328   25.7501 C   0  0  0  0  0  0
  -27.5579  -37.1799   24.8466 C   0  0  0  0  0  0
  -21.4213  -29.3045   22.3650 N   0  0  0  0  0  0
  -26.4293  -37.3768   23.9407 N   0  0  0  0  0  0
  -24.6978  -31.0512   22.0961 N   0  0  0  0  0  0
  -23.4203  -28.8140   23.3013 O   0  0  0  0  0  0
  -28.2755  -26.3192   20.1831 O   0  0  0  0  0  0
  -26.5635  -34.8917   22.4666 O   0  0  0  0  0  0
  -23.5459  -32.1376   23.7270 O   0  0  0  0  0  0
  -30.3145  -19.5787   20.0086 C   0  0  0  0  0  0
  -30.5504  -18.1502   20.0558 C   0  0  0  0  0  0
  -28.3987  -19.3223   21.3474 C   0  0  0  0  0  0
  -29.2225  -20.2587   20.6507 C   0  0  0  0  0  0
  -29.6892  -17.2567   20.7605 C   0  0  0  0  0  0
  -28.6057  -17.9086   21.4006 C   0  0  0  0  0  0
  -28.4365  -23.7433   20.6153 C   0  0  0  0  0  0
  -27.9263  -22.5486   21.2796 C   0  0  0  0  0  0
  -27.9439  -25.0446   20.7333 C   0  0  0  0  0  0
  -29.5123  -22.8520   19.9215 C   0  0  0  0  0  0
  -28.8910  -21.7178   20.6722 N   0  0  0  0  0  0
  -29.7381  -15.7750   20.8724 N   0  0  0  0  0  0
  -26.9982  -22.4039   22.0491 O   0  0  0  0  0  0
  -27.7206  -17.1472   22.0893 F   0  0  0  0  0  0
  -31.4870  -12.6091   19.1613 H   0  0  0  0  0  0
  -30.4182  -11.4692   19.9296 H   0  0  0  0  0  0
  -29.7977  -11.7532   17.5117 H   0  0  0  0  0  0
  -29.6392  -13.4774   17.7308 H   0  0  0  0  0  0
  -27.8952  -11.2872   18.8979 H   0  0  0  0  0  0
  -27.3831  -12.5438   17.8033 H   0  0  0  0  0  0
  -27.6575  -14.2525   19.5042 H   0  0  0  0  0  0
  -28.7333  -12.0916   21.3832 H   0  0  0  0  0  0
  -28.4234  -13.7411   21.8422 H   0  0  0  0  0  0
  -25.2768   -9.5677   22.4757 H   0  0  0  0  0  0
  -24.0004   -7.4632   22.7473 H   0  0  0  0  0  0
  -21.0844   -8.8778   19.8955 H   0  0  0  0  0  0
  -22.3704  -10.9674   19.6171 H   0  0  0  0  0  0
  -21.2001   -7.6143   23.9713 H   0  0  0  0  0  0
  -21.1480   -6.0522   25.9078 H   0  0  0  0  0  0
  -22.0599   -2.7606   23.2853 H   0  0  0  0  0  0
  -22.4114  -11.9884   22.4802 H   0  0  0  0  0  0
  -21.1115  -13.1246   22.2635 H   0  0  0  0  0  0
  -24.6615  -15.8447   20.5357 H   0  0  0  0  0  0
  -26.2880  -15.6369   20.1328 H   0  0  0  0  0  0
  -26.7203  -32.5410   23.1078 H   0  0  0  0  0  0
  -25.0051  -33.9694   25.0382 H   0  0  0  0  0  0
  -22.7265  -31.2988   21.3937 H   0  0  0  0  0  0
  -23.3748  -35.9625   23.3305 H   0  0  0  0  0  0
  -24.3576  -36.8910   22.2054 H   0  0  0  0  0  0
  -23.7250  -37.6493   23.6663 H   0  0  0  0  0  0
  -26.1156  -31.5286   20.6111 H   0  0  0  0  0  0
  -26.8523  -30.8172   22.0149 H   0  0  0  0  0  0
  -28.1233  -28.9176   21.2275 H   0  0  0  0  0  0
  -25.9923  -25.9065   18.9975 H   0  0  0  0  0  0
  -23.9827  -27.3111   18.9883 H   0  0  0  0  0  0
  -23.7723  -30.5864   19.4013 H   0  0  0  0  0  0
  -22.7695  -29.2415   19.8526 H   0  0  0  0  0  0
  -25.1300  -36.1918   25.0817 H   0  0  0  0  0  0
  -20.9995  -28.3277   24.1382 H   0  0  0  0  0  0
  -20.5676  -26.2312   23.3615 H   0  0  0  0  0  0
  -21.6647  -26.7430   22.1201 H   0  0  0  0  0  0
  -19.6914  -25.6288   21.1247 H   0  0  0  0  0  0
  -19.6683  -27.3186   20.6740 H   0  0  0  0  0  0
  -17.4201  -26.6662   21.4041 H   0  0  0  0  0  0
  -18.0349  -26.0063   22.9032 H   0  0  0  0  0  0
  -19.7947  -30.7278   24.2245 H   0  0  0  0  0  0
  -17.5024  -31.6263   24.5169 H   0  0  0  0  0  0
  -15.5359  -30.2983   23.7654 H   0  0  0  0  0  0
  -15.8683  -28.0814   22.7072 H   0  0  0  0  0  0
  -24.5856  -30.7150   25.7767 H   0  0  0  0  0  0
  -24.8970  -32.2933   26.4897 H   0  0  0  0  0  0
  -25.8023  -30.8883   27.0209 H   0  0  0  0  0  0
  -26.2930  -29.6739   24.1226 H   0  0  0  0  0  0
  -27.3995  -29.7251   25.4750 H   0  0  0  0  0  0
  -27.8825  -30.4253   23.9487 H   0  0  0  0  0  0
  -27.2630  -33.3619   26.2078 H   0  0  0  0  0  0
  -28.3852  -32.6907   25.0332 H   0  0  0  0  0  0
  -28.0715  -31.8461   26.5420 H   0  0  0  0  0  0
  -28.2598  -38.0093   24.7499 H   0  0  0  0  0  0
  -28.1070  -36.2622   24.6306 H   0  0  0  0  0  0
  -27.2294  -37.1467   25.8869 H   0  0  0  0  0  0
  -20.9401  -29.8775   21.6860 H   0  0  0  0  0  0
  -26.0171  -38.2845   24.1396 H   0  0  0  0  0  0
  -31.0171  -20.1776   19.4465 H   0  0  0  0  0  0
  -31.4023  -17.7474   19.5268 H   0  0  0  0  0  0
  -27.5371  -19.6972   21.8789 H   0  0  0  0  0  0
  -27.1021  -25.1664   21.4035 H   0  0  0  0  0  0
  -30.5540  -23.0043   20.2088 H   0  0  0  0  0  0
  -29.4314  -22.7135   18.8421 H   0  0  0  0  0  0
  -28.8870  -15.4125   21.2766 H   0  0  0  0  0  0
  1 25  1  0  0  0
  1 30  2  0  0  0
  1 82  1  0  0  0
  2  3  1  0  0  0
  2 25  1  0  0  0
  2 85  1  0  0  0
  2 86  1  0  0  0
  3  4  1  0  0  0
  3 87  1  0  0  0
  3 88  1  0  0  0
  4  5  1  0  0  0
  4 89  1  0  0  0
  4 90  1  0  0  0
  5  6  1  0  0  0
  5 26  1  0  0  0
  5 91  1  0  0  0
  6 25  1  0  0  0
  6 92  1  0  0  0
  6 93  1  0  0  0
  7  8  2  0  0  0
  7 26  1  0  0  0
  7 29  1  0  0  0
  8  9  1  0  0  0
  8 22  1  0  0  0
  9 10  1  0  0  0
  9 27  2  0  0  0
 10 11  2  0  0  0
 10 15  1  0  0  0
 11 12  1  0  0  0
 11 94  1  0  0  0
 12 13  2  0  0  0
 12 95  1  0  0  0
 13 14  1  0  0  0
 13 31  1  0  0  0
 14 15  2  0  0  0
 14 96  1  0  0  0
 15 97  1  0  0  0
 16 17  2  0  0  0
 16 21  1  0  0  0
 16 31  1  0  0  0
 17 18  1  0  0  0
 17 98  1  0  0  0
 18 19  2  0  0  0
 18 99  1  0  0  0
 19 20  1  0  0  0
 19 24  1  0  0  0
 20 21  2  0  0  0
 20100  1  0  0  0
 21 23  1  0  0  0
 22 28  1  0  0  0
 22 32  2  0  0  0
 26 27  1  0  0  0
 28101  1  0  0  0
 28102  1  0  0  0
 29103  1  0  0  0
 29104  1  0  0  0
 33 34  1  0  0  0
 33 66  1  0  0  0
 33 70  2  0  0  0
 34 36  1  0  0  0
 34 59  1  0  0  0
 34105  1  0  0  0
 35 44  2  0  0  0
 35 45  1  0  0  0
 35 68  1  0  0  0
 36 56  1  0  0  0
 36106  1  0  0  0
 37 39  1  0  0  0
 37 47  1  0  0  0
 37 66  1  0  0  0
 37107  1  0  0  0
 38 43  2  0  0  0
 38 46  1  0  0  0
 38 47  1  0  0  0
 39 64  1  0  0  0
 39 67  2  0  0  0
 40 52  1  0  0  0
 40 53  2  0  0  0
 40 58  1  0  0  0
 41108  1  0  0  0
 41109  1  0  0  0
 41110  1  0  0  0
 41 48  1  0  0  0
 42 43  1  0  0  0
 42 66  1  0  0  0
 42111  1  0  0  0
 42112  1  0  0  0
 43 44  1  0  0  0
 44113  1  0  0  0
 45 46  2  0  0  0
 45114  1  0  0  0
 46115  1  0  0  0
 47116  1  0  0  0
 47117  1  0  0  0
 48 56  1  0  0  0
 48 65  1  0  0  0
 48118  1  0  0  0
 49 50  1  0  0  0
 49 53  1  0  0  0
 49 64  1  0  0  0
 49119  1  0  0  0
 50 51  1  0  0  0
 50120  1  0  0  0
 50121  1  0  0  0
 51 52  1  0  0  0
 51122  1  0  0  0
 51123  1  0  0  0
 52124  1  0  0  0
 52125  1  0  0  0
 53 54  1  0  0  0
 54 55  2  0  0  0
 54126  1  0  0  0
 55 57  1  0  0  0
 55127  1  0  0  0
 56 69  2  0  0  0
 57 58  2  0  0  0
 57128  1  0  0  0
 58129  1  0  0  0
 59 60  1  0  0  0
 59 61  1  0  0  0
 59 62  1  0  0  0
 60130  1  0  0  0
 60131  1  0  0  0
 60132  1  0  0  0
 61133  1  0  0  0
 61134  1  0  0  0
 61135  1  0  0  0
 62136  1  0  0  0
 62137  1  0  0  0
 62138  1  0  0  0
 63 65  1  0  0  0
 63139  1  0  0  0
 63140  1  0  0  0
 63141  1  0  0  0
 64142  1  0  0  0
 65143  1  0  0  0
 68 79  1  0  0  0
 71 72  2  0  0  0
 71 74  1  0  0  0
 71144  1  0  0  0
 72 75  1  0  0  0
 72145  1  0  0  0
 73 74  2  0  0  0
 73 76  1  0  0  0
 73146  1  0  0  0
 74 81  1  0  0  0
 75 76  2  0  0  0
 75 82  1  0  0  0
 76 84  1  0  0  0
 77 78  1  0  0  0
 77 79  2  0  0  0
 77 80  1  0  0  0
 78 81  1  0  0  0
 78 83  2  0  0  0
 79147  1  0  0  0
 80 81  1  0  0  0
 80148  1  0  0  0
 80149  1  0  0  0
 82150  1  0  0  0
M  ISO  4   1 100  68 101  79 101  82 100
M  END
> <chiral flag>
0

> <version>
0

> <s_m_source_file>
/data/baiqing/PycharmProjects/Reinvent-master-3.2/result/LINK_invent/BTK/process_docking_weight1_custom_product_contain_oxygen_bond_distance_aromatic_linkinvent_7_9_3/rearranged_h_0082.sdf

> <i_m_source_file_index>
47

> <r_mmod_Potential_Energy-OPLS-2005>
198.142578125

> <r_mmod_Stretch_Energy-OPLS-2005>
106.317687988281

> <r_mmod_Bend_Energy-OPLS-2005>
271.832885742188

> <r_mmod_Torsional_Energy-OPLS-2005>
219.378356933594

> <r_mmod_Improper_Torsional_Energy-OPLS-2005>
3.23730540275574

> <r_mmod_Van_der_Waal_Energy-OPLS-2005>
133.984222412109

> <r_mmod_Electrostatic_Energy-OPLS-2005>
-415.522491455078

> <r_mmod_Solvation_Energy-OPLS-2005>
-209.682037353516

> <b_mmod_Minimization_Converged-OPLS-2005>
0

> <r_mmod_RMS_Derivative-OPLS-2005>
0.625052928924561

$$$$
47
                    3D
 Structure written by MMmdl.
154163  0  0  1  0            999 V2000
  -30.5942  -14.8062   20.4379 C   0  0  0  0  0  0
  -30.4338  -12.4899   19.4979 C   0  0  0  0  0  0
  -29.5170  -12.5190   18.2539 C   0  0  0  0  0  0
  -28.0434  -12.3364   18.6623 C   0  0  0  0  0  0
  -27.6418  -13.2424   19.8566 C   0  0  2  0  0  0
  -28.6832  -13.2010   20.9972 C   0  0  0  0  0  0
  -25.2501  -13.8225   20.5714 C   0  0  0  0  0  0
  -24.1795  -13.0456   20.9204 C   0  0  0  0  0  0
  -24.6401  -11.6938   20.8732 C   0  0  0  0  0  0
  -23.9065  -10.4315   21.0391 C   0  0  0  0  0  0
  -24.3614   -9.4235   21.9179 C   0  0  0  0  0  0
  -23.6299   -8.2258   22.0732 C   0  0  0  0  0  0
  -22.4280   -8.0280   21.3526 C   0  0  0  0  0  0
  -21.9914   -9.0252   20.4630 C   0  0  0  0  0  0
  -22.7230  -10.2147   20.3040 C   0  0  0  0  0  0
  -21.6860   -6.0732   22.5279 C   0  0  0  0  0  0
  -21.4010   -6.5637   23.8209 C   0  0  0  0  0  0
  -21.3662   -5.6791   24.9176 C   0  0  0  0  0  0
  -21.6055   -4.3055   24.7229 C   0  0  0  0  0  0
  -21.8817   -3.8140   23.4351 C   0  0  0  0  0  0
  -21.9186   -4.6954   22.3409 C   0  0  0  0  0  0
  -22.7810  -13.5226   21.1848 C   0  0  0  0  0  0
  -22.1650   -4.2142   21.0987 F   0  0  0  0  0  0
  -21.5643   -3.4534   25.7733 F   0  0  0  0  0  0
  -29.9842  -13.5638   20.4227 N   0  0  0  0  0  0
  -26.2939  -12.9461   20.3313 N   0  0  0  0  0  0
  -25.9341  -11.6584   20.5758 N   0  0  0  0  0  0
  -22.0452  -12.8218   22.0404 N   0  0  0  0  0  0
  -25.4190  -15.1954   20.4133 N   0  0  0  0  0  0
  -31.7662  -14.8954   20.0622 O   0  0  0  0  0  0
  -21.6641   -6.8876   21.4240 O   0  0  0  0  0  0
  -22.3497  -14.5522   20.6678 O   0  0  0  0  0  0
  -24.6362  -31.8515   23.1976 C   0  0  0  0  0  0
  -25.9178  -32.4721   23.8325 C   0  0  1  0  0  0
  -27.2064  -27.1941   20.1375 C   0  0  0  0  0  0
  -25.5970  -33.8529   24.2234 N   0  0  0  0  0  0
  -23.4348  -30.4765   21.5418 C   0  0  2  0  0  0
  -24.8813  -28.9195   20.1113 C   0  0  0  0  0  0
  -22.7526  -29.4582   22.4887 C   0  0  0  0  0  0
  -18.0300  -28.1389   22.8478 C   0  0  0  0  0  0
  -24.1500  -36.7255   23.2640 C   0  0  0  0  0  0
  -25.9882  -30.7404   21.3932 C   0  0  0  0  0  0
  -26.0556  -29.3568   20.7385 C   0  0  0  0  0  0
  -27.2153  -28.5025   20.7525 C   0  0  0  0  0  0
  -26.0183  -26.8730   19.4356 C   0  0  0  0  0  0
  -24.8722  -27.6867   19.4506 C   0  0  0  0  0  0
  -23.6567  -29.8143   20.1578 C   0  0  0  0  0  0
  -25.4129  -36.3032   24.0312 C   0  0  1  0  0  0
  -20.5908  -28.3696   23.1246 C   0  0  2  0  0  0
  -20.6776  -26.9407   22.5397 C   0  0  0  0  0  0
  -19.5751  -26.6373   21.5202 C   0  0  0  0  0  0
  -18.1938  -26.7932   22.1613 C   0  0  0  0  0  0
  -19.1557  -28.8854   23.2866 C   0  0  0  0  0  0
  -18.9472  -30.1453   23.8879 C   0  0  0  0  0  0
  -17.6470  -30.6585   24.0554 C   0  0  0  0  0  0
  -25.9080  -34.9410   23.5066 C   0  0  0  0  0  0
  -16.5358  -29.9078   23.6338 C   0  0  0  0  0  0
  -16.7284  -28.6501   23.0355 C   0  0  0  0  0  0
  -26.4534  -31.6568   25.0731 C   0  0  0  0  0  0
  -25.3745  -31.3730   26.1438 C   0  0  0  0  0  0
  -27.0378  -30.2961   24.6273 C   0  0  0  0  0  0
  -27.6097  -32.4309   25.7497 C   0  0  0  0  0  0
  -27.5579  -37.1781   24.8465 C   0  0  0  0  0  0
  -21.4225  -29.3045   22.3629 N   0  0  0  0  0  0
  -26.4286  -37.3743   23.9416 N   0  0  0  0  0  0
  -24.7054  -31.0430   22.0993 N   0  0  0  0  0  0
  -23.4201  -28.8121   23.3008 O   0  0  0  0  0  0
  -28.2630  -26.2289   20.2151 O   0  0  0  0  0  0
  -26.5660  -34.8891   22.4636 O   0  0  0  0  0  0
  -23.5496  -32.1356   23.7235 O   0  0  0  0  0  0
  -29.8196  -18.4851   17.9065 C   0  0  0  0  0  0
  -29.5840  -19.7332   18.5183 C   0  0  0  0  0  0
  -29.9516  -17.3033   18.6622 C   0  0  0  0  0  0
  -29.6044  -18.6219   20.6854 C   0  0  0  0  0  0
  -29.4719  -19.8736   19.9208 C   0  0  0  0  0  0
  -29.8426  -17.3020   20.0714 C   0  0  0  0  0  0
  -28.7783  -23.6514   20.3530 C   0  0  0  0  0  0
  -30.1125  -23.4976   20.8691 C   0  0  0  0  0  0
  -28.3470  -22.2307   20.0810 C   0  0  0  0  0  0
  -30.9220  -24.5077   21.2279 C   0  0  0  0  0  0
  -28.0080  -24.8017   20.1122 C   0  0  0  0  0  0
  -30.4818  -22.0185   20.9633 C   0  0  0  0  0  0
  -29.3248  -21.2903   20.4168 N   0  0  0  0  0  0
  -29.8581  -15.9577   20.7441 N   0  0  0  0  0  0
  -27.2467  -21.9079   19.6217 O   0  0  0  0  0  0
  -31.4738  -12.6163   19.1922 H   0  0  0  0  0  0
  -30.3900  -11.5173   19.9906 H   0  0  0  0  0  0
  -29.8081  -11.7383   17.5495 H   0  0  0  0  0  0
  -29.6420  -13.4674   17.7277 H   0  0  0  0  0  0
  -27.9053  -11.2880   18.9295 H   0  0  0  0  0  0
  -27.3867  -12.5221   17.8125 H   0  0  0  0  0  0
  -27.6303  -14.2610   19.4695 H   0  0  0  0  0  0
  -28.7295  -12.2102   21.4513 H   0  0  0  0  0  0
  -28.4020  -13.8908   21.7941 H   0  0  0  0  0  0
  -25.2751   -9.5707   22.4765 H   0  0  0  0  0  0
  -23.9997   -7.4647   22.7456 H   0  0  0  0  0  0
  -21.0837   -8.8749   19.8957 H   0  0  0  0  0  0
  -22.3657  -10.9664   19.6135 H   0  0  0  0  0  0
  -21.1992   -7.6139   23.9715 H   0  0  0  0  0  0
  -21.1490   -6.0520   25.9084 H   0  0  0  0  0  0
  -22.0592   -2.7596   23.2853 H   0  0  0  0  0  0
  -22.4059  -11.9889   22.4806 H   0  0  0  0  0  0
  -21.1048  -13.1216   22.2555 H   0  0  0  0  0  0
  -24.6539  -15.8510   20.5311 H   0  0  0  0  0  0
  -26.2693  -15.6376   20.0882 H   0  0  0  0  0  0
  -26.7245  -32.5337   23.1069 H   0  0  0  0  0  0
  -25.0125  -33.9681   25.0380 H   0  0  0  0  0  0
  -22.7332  -31.3014   21.3948 H   0  0  0  0  0  0
  -23.3765  -35.9583   23.3268 H   0  0  0  0  0  0
  -24.3606  -36.8906   22.2063 H   0  0  0  0  0  0
  -23.7239  -37.6434   23.6696 H   0  0  0  0  0  0
  -26.1404  -31.4935   20.6194 H   0  0  0  0  0  0
  -26.8625  -30.7892   22.0303 H   0  0  0  0  0  0
  -28.1047  -28.8247   21.2761 H   0  0  0  0  0  0
  -25.9227  -25.9648   18.8644 H   0  0  0  0  0  0
  -23.9801  -27.3546   18.9357 H   0  0  0  0  0  0
  -23.7884  -30.5908   19.4042 H   0  0  0  0  0  0
  -22.7726  -29.2535   19.8487 H   0  0  0  0  0  0
  -25.1315  -36.1854   25.0801 H   0  0  0  0  0  0
  -21.0013  -28.3272   24.1362 H   0  0  0  0  0  0
  -20.5635  -26.2320   23.3621 H   0  0  0  0  0  0
  -21.6645  -26.7407   22.1199 H   0  0  0  0  0  0
  -19.6905  -25.6279   21.1243 H   0  0  0  0  0  0
  -19.6684  -27.3177   20.6731 H   0  0  0  0  0  0
  -17.4205  -26.6679   21.4026 H   0  0  0  0  0  0
  -18.0339  -26.0073   22.9003 H   0  0  0  0  0  0
  -19.7948  -30.7281   24.2228 H   0  0  0  0  0  0
  -17.5025  -31.6275   24.5147 H   0  0  0  0  0  0
  -15.5352  -30.2971   23.7679 H   0  0  0  0  0  0
  -15.8693  -28.0815   22.7079 H   0  0  0  0  0  0
  -24.5963  -30.7029   25.7772 H   0  0  0  0  0  0
  -24.8894  -32.2887   26.4818 H   0  0  0  0  0  0
  -25.8045  -30.8947   27.0244 H   0  0  0  0  0  0
  -26.2967  -29.6706   24.1276 H   0  0  0  0  0  0
  -27.4003  -29.7237   25.4829 H   0  0  0  0  0  0
  -27.8883  -30.4209   23.9565 H   0  0  0  0  0  0
  -27.2741  -33.3651   26.2014 H   0  0  0  0  0  0
  -28.3939  -32.6782   25.0330 H   0  0  0  0  0  0
  -28.0733  -31.8457   26.5453 H   0  0  0  0  0  0
  -28.2566  -38.0110   24.7529 H   0  0  0  0  0  0
  -28.1096  -36.2631   24.6255 H   0  0  0  0  0  0
  -27.2305  -37.1368   25.8871 H   0  0  0  0  0  0
  -20.9420  -29.8777   21.6842 H   0  0  0  0  0  0
  -26.0136  -38.2792   24.1452 H   0  0  0  0  0  0
  -29.8983  -18.4322   16.8286 H   0  0  0  0  0  0
  -29.5118  -20.6072   17.8840 H   0  0  0  0  0  0
  -30.1086  -16.3765   18.1261 H   0  0  0  0  0  0
  -29.5266  -18.6760   21.7622 H   0  0  0  0  0  0
  -30.6148  -25.5395   21.1428 H   0  0  0  0  0  0
  -31.9117  -24.3165   21.6180 H   0  0  0  0  0  0
  -27.0122  -24.5949   19.7675 H   0  0  0  0  0  0
  -30.6615  -21.7329   22.0001 H   0  0  0  0  0  0
  -31.3791  -21.8043   20.3793 H   0  0  0  0  0  0
  -29.0450  -15.7728   21.3119 H   0  0  0  0  0  0
  1 25  1  0  0  0
  1 30  2  0  0  0
  1 84  1  0  0  0
  2  3  1  0  0  0
  2 25  1  0  0  0
  2 86  1  0  0  0
  2 87  1  0  0  0
  3  4  1  0  0  0
  3 88  1  0  0  0
  3 89  1  0  0  0
  4  5  1  0  0  0
  4 90  1  0  0  0
  4 91  1  0  0  0
  5  6  1  0  0  0
  5 26  1  0  0  0
  5 92  1  0  0  0
  6 25  1  0  0  0
  6 93  1  0  0  0
  6 94  1  0  0  0
  7  8  2  0  0  0
  7 26  1  0  0  0
  7 29  1  0  0  0
  8  9  1  0  0  0
  8 22  1  0  0  0
  9 10  1  0  0  0
  9 27  2  0  0  0
 10 11  2  0  0  0
 10 15  1  0  0  0
 11 12  1  0  0  0
 11 95  1  0  0  0
 12 13  2  0  0  0
 12 96  1  0  0  0
 13 14  1  0  0  0
 13 31  1  0  0  0
 14 15  2  0  0  0
 14 97  1  0  0  0
 15 98  1  0  0  0
 16 17  2  0  0  0
 16 21  1  0  0  0
 16 31  1  0  0  0
 17 18  1  0  0  0
 17 99  1  0  0  0
 18 19  2  0  0  0
 18100  1  0  0  0
 19 20  1  0  0  0
 19 24  1  0  0  0
 20 21  2  0  0  0
 20101  1  0  0  0
 21 23  1  0  0  0
 22 28  1  0  0  0
 22 32  2  0  0  0
 26 27  1  0  0  0
 28102  1  0  0  0
 28103  1  0  0  0
 29104  1  0  0  0
 29105  1  0  0  0
 33 34  1  0  0  0
 33 66  1  0  0  0
 33 70  2  0  0  0
 34 36  1  0  0  0
 34 59  1  0  0  0
 34106  1  0  0  0
 35 44  2  0  0  0
 35 45  1  0  0  0
 35 68  1  0  0  0
 36 56  1  0  0  0
 36107  1  0  0  0
 37 39  1  0  0  0
 37 47  1  0  0  0
 37 66  1  0  0  0
 37108  1  0  0  0
 38 43  2  0  0  0
 38 46  1  0  0  0
 38 47  1  0  0  0
 39 64  1  0  0  0
 39 67  2  0  0  0
 40 52  1  0  0  0
 40 53  2  0  0  0
 40 58  1  0  0  0
 41109  1  0  0  0
 41110  1  0  0  0
 41111  1  0  0  0
 41 48  1  0  0  0
 42 43  1  0  0  0
 42 66  1  0  0  0
 42112  1  0  0  0
 42113  1  0  0  0
 43 44  1  0  0  0
 44114  1  0  0  0
 45 46  2  0  0  0
 45115  1  0  0  0
 46116  1  0  0  0
 47117  1  0  0  0
 47118  1  0  0  0
 48 56  1  0  0  0
 48 65  1  0  0  0
 48119  1  0  0  0
 49 50  1  0  0  0
 49 53  1  0  0  0
 49 64  1  0  0  0
 49120  1  0  0  0
 50 51  1  0  0  0
 50121  1  0  0  0
 50122  1  0  0  0
 51 52  1  0  0  0
 51123  1  0  0  0
 51124  1  0  0  0
 52125  1  0  0  0
 52126  1  0  0  0
 53 54  1  0  0  0
 54 55  2  0  0  0
 54127  1  0  0  0
 55 57  1  0  0  0
 55128  1  0  0  0
 56 69  2  0  0  0
 57 58  2  0  0  0
 57129  1  0  0  0
 58130  1  0  0  0
 59 60  1  0  0  0
 59 61  1  0  0  0
 59 62  1  0  0  0
 60131  1  0  0  0
 60132  1  0  0  0
 60133  1  0  0  0
 61134  1  0  0  0
 61135  1  0  0  0
 61136  1  0  0  0
 62137  1  0  0  0
 62138  1  0  0  0
 62139  1  0  0  0
 63 65  1  0  0  0
 63140  1  0  0  0
 63141  1  0  0  0
 63142  1  0  0  0
 64143  1  0  0  0
 65144  1  0  0  0
 68 81  1  0  0  0
 71 72  2  0  0  0
 71 73  1  0  0  0
 71145  1  0  0  0
 72 75  1  0  0  0
 72146  1  0  0  0
 73 76  2  0  0  0
 73147  1  0  0  0
 74 75  2  0  0  0
 74 76  1  0  0  0
 74148  1  0  0  0
 75 83  1  0  0  0
 76 84  1  0  0  0
 77 78  1  0  0  0
 77 79  1  0  0  0
 77 81  2  0  0  0
 78 80  2  0  0  0
 78 82  1  0  0  0
 79 83  1  0  0  0
 79 85  2  0  0  0
 80149  1  0  0  0
 80150  1  0  0  0
 81151  1  0  0  0
 82 83  1  0  0  0
 82152  1  0  0  0
 82153  1  0  0  0
 84154  1  0  0  0
M  ISO  4   1 100  68 101  81 101  84 100
M  END
> <chiral flag>
0

> <version>
0

> <s_m_source_file>
/data/baiqing/PycharmProjects/Reinvent-master-3.2/result/LINK_invent/BTK/process_docking_weight1_custom_product_contain_oxygen_bond_distance_aromatic_linkinvent_7_9_3/rearranged_h_0082.sdf

> <i_m_source_file_index>
48

> <r_mmod_Potential_Energy-OPLS-2005>
442.194610595703

> <r_mmod_Stretch_Energy-OPLS-2005>
157.351211547852

> <r_mmod_Bend_Energy-OPLS-2005>
226.942138671875

> <r_mmod_Torsional_Energy-OPLS-2005>
314.095306396484

> <r_mmod_Improper_Torsional_Energy-OPLS-2005>
5.54168939590454

> <r_mmod_Van_der_Waal_Energy-OPLS-2005>
136.364700317383

> <r_mmod_Electrostatic_Energy-OPLS-2005>
-307.944549560547

> <r_mmod_Solvation_Energy-OPLS-2005>
-215.307159423828

> <b_mmod_Minimization_Converged-OPLS-2005>
0

> <r_mmod_RMS_Derivative-OPLS-2005>
2.36531853675842

$$$$
48
                    3D
 Structure written by MMmdl.
142149  0  0  1  0            999 V2000
  -29.8716  -16.8990   20.2771 C   0  0  0  0  0  0
  -30.2479  -14.0658   19.4907 C   0  0  0  0  0  0
  -29.5655  -13.0679   18.4445 C   0  0  0  0  0  0
  -28.2819  -12.4313   18.9707 C   0  0  0  0  0  0
  -27.5735  -13.4839   19.8282 C   0  0  2  0  0  0
  -28.4825  -14.3282   20.8284 C   0  0  0  0  0  0
  -25.2153  -13.8596   20.6046 C   0  0  0  0  0  0
  -24.1688  -13.0495   20.9349 C   0  0  0  0  0  0
  -24.6626  -11.7091   20.8709 C   0  0  0  0  0  0
  -23.9336  -10.4346   21.0278 C   0  0  0  0  0  0
  -24.3787   -9.4251   21.9108 C   0  0  0  0  0  0
  -23.6389   -8.2313   22.0739 C   0  0  0  0  0  0
  -22.4366   -8.0346   21.3538 C   0  0  0  0  0  0
  -22.0056   -9.0328   20.4624 C   0  0  0  0  0  0
  -22.7453  -10.2174   20.2982 C   0  0  0  0  0  0
  -21.6902   -6.0775   22.5270 C   0  0  0  0  0  0
  -21.4048   -6.5660   23.8206 C   0  0  0  0  0  0
  -21.3656   -5.6807   24.9159 C   0  0  0  0  0  0
  -21.6046   -4.3070   24.7211 C   0  0  0  0  0  0
  -21.8817   -3.8168   23.4331 C   0  0  0  0  0  0
  -21.9205   -4.6992   22.3391 C   0  0  0  0  0  0
  -22.7644  -13.5063   21.1919 C   0  0  0  0  0  0
  -22.1671   -4.2167   21.0974 F   0  0  0  0  0  0
  -21.5615   -3.4547   25.7719 F   0  0  0  0  0  0
  -29.4074  -15.3410   20.0861 N   0  0  0  0  0  0
  -26.2880  -13.0322   20.3633 N   0  0  0  0  0  0
  -25.9668  -11.7168   20.5655 N   0  0  0  0  0  0
  -22.0383  -12.7981   22.0480 N   0  0  0  0  0  0
  -25.3457  -15.2369   20.4533 N   0  0  0  0  0  0
  -31.0950  -16.5012   20.2976 O   0  0  0  0  0  0
  -21.6699   -6.8949   21.4246 O   0  0  0  0  0  0
  -22.3237  -14.5318   20.6742 O   0  0  0  0  0  0
  -24.7674  -31.6911   23.0828 C   0  0  0  0  0  0
  -25.9791  -32.3962   23.7736 C   0  0  1  0  0  0
  -27.2783  -25.8252   20.2908 C   0  0  0  0  0  0
  -25.6006  -33.7847   24.1515 N   0  0  0  0  0  0
  -23.6320  -30.2469   21.4607 C   0  0  2  0  0  0
  -25.0957  -28.3956   20.1550 C   0  0  0  0  0  0
  -22.8126  -29.3722   22.4547 C   0  0  0  0  0  0
  -18.0376  -28.1449   22.8431 C   0  0  0  0  0  0
  -24.1488  -36.6933   23.2664 C   0  0  0  0  0  0
  -26.2352  -30.1291   21.4816 C   0  0  0  0  0  0
  -26.2920  -28.5924   20.8514 C   0  0  0  0  0  0
  -27.3207  -27.3706   20.8630 C   0  0  0  0  0  0
  -26.0478  -26.0629   19.5280 C   0  0  0  0  0  0
  -25.0643  -27.1590   19.4653 C   0  0  0  0  0  0
  -23.9308  -29.4539   20.1385 C   0  0  0  0  0  0
  -25.4174  -36.2622   24.0226 C   0  0  1  0  0  0
  -20.6052  -28.3837   23.0989 C   0  0  2  0  0  0
  -20.6810  -26.9434   22.5370 C   0  0  0  0  0  0
  -19.5764  -26.6317   21.5231 C   0  0  0  0  0  0
  -18.1980  -26.7927   22.1685 C   0  0  0  0  0  0
  -19.1667  -28.8994   23.2646 C   0  0  0  0  0  0
  -18.9566  -30.1573   23.8704 C   0  0  0  0  0  0
  -17.6548  -30.6634   24.0513 C   0  0  0  0  0  0
  -25.9209  -34.9019   23.4796 C   0  0  0  0  0  0
  -16.5433  -29.9093   23.6371 C   0  0  0  0  0  0
  -16.7357  -28.6513   23.0398 C   0  0  0  0  0  0
  -26.4731  -31.6371   25.0698 C   0  0  0  0  0  0
  -25.3616  -31.3891   26.1196 C   0  0  0  0  0  0
  -27.0822  -30.2662   24.7138 C   0  0  0  0  0  0
  -27.6024  -32.4456   25.7541 C   0  0  0  0  0  0
  -27.5553  -37.1597   24.8469 C   0  0  0  0  0  0
  -21.4705  -29.2904   22.3250 N   0  0  0  0  0  0
  -26.4232  -37.3478   23.9428 N   0  0  0  0  0  0
  -24.9140  -30.7433   22.0614 N   0  0  0  0  0  0
  -23.4151  -28.7504   23.3314 O   0  0  0  0  0  0
  -28.1716  -24.2379   20.2600 O   0  0  0  0  0  0
  -26.6003  -34.8763   22.4518 O   0  0  0  0  0  0
  -23.6508  -32.0417   23.5180 O   0  0  0  0  0  0
  -31.3312  -20.3667   19.9431 C   0  0  0  0  0  0
  -30.7058  -19.2162   19.6286 C   0  0  0  0  0  0
  -28.1258  -22.2970   20.3959 C   0  0  0  0  0  0
  -28.5132  -20.5069   20.3843 C   0  0  0  0  0  0
  -27.2472  -19.8681   20.9367 C   0  0  0  0  0  0
  -29.4854  -18.7402   20.1409 N   0  0  0  0  0  0
  -31.0972  -14.4840   18.9478 H   0  0  0  0  0  0
  -30.7304  -13.5032   20.2929 H   0  0  0  0  0  0
  -30.2708  -12.2931   18.1401 H   0  0  0  0  0  0
  -29.3286  -13.6266   17.5395 H   0  0  0  0  0  0
  -28.5342  -11.5709   19.5933 H   0  0  0  0  0  0
  -27.6521  -12.0662   18.1587 H   0  0  0  0  0  0
  -27.2836  -14.2175   19.0729 H   0  0  0  0  0  0
  -29.0017  -13.6856   21.5428 H   0  0  0  0  0  0
  -27.8394  -14.9428   21.4586 H   0  0  0  0  0  0
  -25.2917   -9.5690   22.4713 H   0  0  0  0  0  0
  -24.0049   -7.4722   22.7495 H   0  0  0  0  0  0
  -21.0972   -8.8872   19.8946 H   0  0  0  0  0  0
  -22.3897  -10.9702   19.6082 H   0  0  0  0  0  0
  -21.2063   -7.6172   23.9709 H   0  0  0  0  0  0
  -21.1466   -6.0541   25.9061 H   0  0  0  0  0  0
  -22.0593   -2.7628   23.2830 H   0  0  0  0  0  0
  -22.4153  -11.9728   22.4899 H   0  0  0  0  0  0
  -21.0946  -13.0862   22.2654 H   0  0  0  0  0  0
  -24.5737  -15.8786   20.5975 H   0  0  0  0  0  0
  -26.2055  -15.6988   20.1848 H   0  0  0  0  0  0
  -26.8005  -32.4306   23.0569 H   0  0  0  0  0  0
  -24.9869  -33.8739   24.9475 H   0  0  0  0  0  0
  -23.0088  -31.1027   21.1937 H   0  0  0  0  0  0
  -23.3833  -35.9170   23.3137 H   0  0  0  0  0  0
  -24.3536  -36.8857   22.2120 H   0  0  0  0  0  0
  -23.7146  -37.5975   23.6941 H   0  0  0  0  0  0
  -26.5194  -30.7907   20.6627 H   0  0  0  0  0  0
  -27.0607  -30.2248   22.1703 H   0  0  0  0  0  0
  -28.2102  -27.5741   21.4423 H   0  0  0  0  0  0
  -25.7572  -25.2073   18.9351 H   0  0  0  0  0  0
  -24.1977  -26.9763   18.8449 H   0  0  0  0  0  0
  -24.1652  -30.1720   19.3521 H   0  0  0  0  0  0
  -23.0208  -28.9559   19.8027 H   0  0  0  0  0  0
  -25.1402  -36.1289   25.0710 H   0  0  0  0  0  0
  -21.0073  -28.3493   24.1141 H   0  0  0  0  0  0
  -20.5672  -26.2478   23.3692 H   0  0  0  0  0  0
  -21.6649  -26.7296   22.1174 H   0  0  0  0  0  0
  -19.6907  -25.6182   21.1365 H   0  0  0  0  0  0
  -19.6668  -27.3035   20.6688 H   0  0  0  0  0  0
  -17.4191  -26.6568   21.4166 H   0  0  0  0  0  0
  -18.0452  -26.0154   22.9185 H   0  0  0  0  0  0
  -19.8048  -30.7428   24.1986 H   0  0  0  0  0  0
  -17.5104  -31.6308   24.5124 H   0  0  0  0  0  0
  -15.5424  -30.2958   23.7780 H   0  0  0  0  0  0
  -15.8749  -28.0770   22.7231 H   0  0  0  0  0  0
  -24.5395  -30.7940   25.7218 H   0  0  0  0  0  0
  -24.9403  -32.3242   26.4898 H   0  0  0  0  0  0
  -25.7448  -30.8490   26.9866 H   0  0  0  0  0  0
  -26.3686  -29.5981   24.2318 H   0  0  0  0  0  0
  -27.4158  -29.7456   25.6120 H   0  0  0  0  0  0
  -27.9683  -30.3669   24.0878 H   0  0  0  0  0  0
  -27.2384  -33.3772   26.1885 H   0  0  0  0  0  0
  -28.3908  -32.7054   25.0469 H   0  0  0  0  0  0
  -28.0671  -31.8848   26.5659 H   0  0  0  0  0  0
  -28.2425  -38.0025   24.7652 H   0  0  0  0  0  0
  -28.1204  -36.2551   24.6164 H   0  0  0  0  0  0
  -27.2272  -37.1033   25.8861 H   0  0  0  0  0  0
  -21.0247  -29.8407   21.6038 H   0  0  0  0  0  0
  -25.9996  -38.2482   24.1521 H   0  0  0  0  0  0
  -32.2604  -20.6206   19.4519 H   0  0  0  0  0  0
  -30.9686  -21.0682   20.6795 H   0  0  0  0  0  0
  -31.1413  -18.5632   18.8817 H   0  0  0  0  0  0
  -27.1156  -22.2695   20.7743 H   0  0  0  0  0  0
  -27.0533  -20.2421   21.9438 H   0  0  0  0  0  0
  -27.2823  -18.7817   21.0038 H   0  0  0  0  0  0
  -26.3940  -20.1223   20.3072 H   0  0  0  0  0  0
  1 25  1  0  0  0
  1 30  2  0  0  0
  1 76  1  0  0  0
  2  3  1  0  0  0
  2 25  1  0  0  0
  2 77  1  0  0  0
  2 78  1  0  0  0
  3  4  1  0  0  0
  3 79  1  0  0  0
  3 80  1  0  0  0
  4  5  1  0  0  0
  4 81  1  0  0  0
  4 82  1  0  0  0
  5  6  1  0  0  0
  5 26  1  0  0  0
  5 83  1  0  0  0
  6 25  1  0  0  0
  6 84  1  0  0  0
  6 85  1  0  0  0
  7  8  2  0  0  0
  7 26  1  0  0  0
  7 29  1  0  0  0
  8  9  1  0  0  0
  8 22  1  0  0  0
  9 10  1  0  0  0
  9 27  2  0  0  0
 10 11  2  0  0  0
 10 15  1  0  0  0
 11 12  1  0  0  0
 11 86  1  0  0  0
 12 13  2  0  0  0
 12 87  1  0  0  0
 13 14  1  0  0  0
 13 31  1  0  0  0
 14 15  2  0  0  0
 14 88  1  0  0  0
 15 89  1  0  0  0
 16 17  2  0  0  0
 16 21  1  0  0  0
 16 31  1  0  0  0
 17 18  1  0  0  0
 17 90  1  0  0  0
 18 19  2  0  0  0
 18 91  1  0  0  0
 19 20  1  0  0  0
 19 24  1  0  0  0
 20 21  2  0  0  0
 20 92  1  0  0  0
 21 23  1  0  0  0
 22 28  1  0  0  0
 22 32  2  0  0  0
 26 27  1  0  0  0
 28 93  1  0  0  0
 28 94  1  0  0  0
 29 95  1  0  0  0
 29 96  1  0  0  0
 33 34  1  0  0  0
 33 66  1  0  0  0
 33 70  2  0  0  0
 34 36  1  0  0  0
 34 59  1  0  0  0
 34 97  1  0  0  0
 35 44  2  0  0  0
 35 45  1  0  0  0
 35 68  1  0  0  0
 36 56  1  0  0  0
 36 98  1  0  0  0
 37 39  1  0  0  0
 37 47  1  0  0  0
 37 66  1  0  0  0
 37 99  1  0  0  0
 38 43  2  0  0  0
 38 46  1  0  0  0
 38 47  1  0  0  0
 39 64  1  0  0  0
 39 67  2  0  0  0
 40 52  1  0  0  0
 40 53  2  0  0  0
 40 58  1  0  0  0
 41100  1  0  0  0
 41101  1  0  0  0
 41102  1  0  0  0
 41 48  1  0  0  0
 42 43  1  0  0  0
 42 66  1  0  0  0
 42103  1  0  0  0
 42104  1  0  0  0
 43 44  1  0  0  0
 44105  1  0  0  0
 45 46  2  0  0  0
 45106  1  0  0  0
 46107  1  0  0  0
 47108  1  0  0  0
 47109  1  0  0  0
 48 56  1  0  0  0
 48 65  1  0  0  0
 48110  1  0  0  0
 49 50  1  0  0  0
 49 53  1  0  0  0
 49 64  1  0  0  0
 49111  1  0  0  0
 50 51  1  0  0  0
 50112  1  0  0  0
 50113  1  0  0  0
 51 52  1  0  0  0
 51114  1  0  0  0
 51115  1  0  0  0
 52116  1  0  0  0
 52117  1  0  0  0
 53 54  1  0  0  0
 54 55  2  0  0  0
 54118  1  0  0  0
 55 57  1  0  0  0
 55119  1  0  0  0
 56 69  2  0  0  0
 57 58  2  0  0  0
 57120  1  0  0  0
 58121  1  0  0  0
 59 60  1  0  0  0
 59 61  1  0  0  0
 59 62  1  0  0  0
 60122  1  0  0  0
 60123  1  0  0  0
 60124  1  0  0  0
 61125  1  0  0  0
 61126  1  0  0  0
 61127  1  0  0  0
 62128  1  0  0  0
 62129  1  0  0  0
 62130  1  0  0  0
 63 65  1  0  0  0
 63131  1  0  0  0
 63132  1  0  0  0
 63133  1  0  0  0
 64134  1  0  0  0
 65135  1  0  0  0
 68 73  1  0  0  0
 71 72  2  0  0  0
 71136  1  0  0  0
 71137  1  0  0  0
 72 76  1  0  0  0
 72138  1  0  0  0
 73 74  2  0  0  0
 73139  1  0  0  0
 74 75  1  0  0  0
 74 76  1  0  0  0
 75140  1  0  0  0
 75141  1  0  0  0
 75142  1  0  0  0
M  ISO  4   1 100  68 101  73 101  76 100
M  END
> <chiral flag>
0

> <version>
0

> <s_m_source_file>
/data/baiqing/PycharmProjects/Reinvent-master-3.2/result/LINK_invent/BTK/process_docking_weight1_custom_product_contain_oxygen_bond_distance_aromatic_linkinvent_7_9_3/rearranged_h_0082.sdf

> <i_m_source_file_index>
49

> <r_mmod_Potential_Energy-OPLS-2005>
8717.818359375

> <r_mmod_Stretch_Energy-OPLS-2005>
3492.63647460938

> <r_mmod_Bend_Energy-OPLS-2005>
1516.24450683594

> <r_mmod_Torsional_Energy-OPLS-2005>
272.591125488281

> <r_mmod_Improper_Torsional_Energy-OPLS-2005>
17.2769546508789

> <r_mmod_Van_der_Waal_Energy-OPLS-2005>
143.668869018555

> <r_mmod_Electrostatic_Energy-OPLS-2005>
-287.288360595703

> <r_mmod_Solvation_Energy-OPLS-2005>
-195.304595947266

> <b_mmod_Minimization_Converged-OPLS-2005>
0

> <r_mmod_RMS_Derivative-OPLS-2005>
2.42997670173645

$$$$
49
                    3D
 Structure written by MMmdl.
149157  0  0  1  0            999 V2000
  -30.6170  -14.7891   20.4584 C   0  0  0  0  0  0
  -30.4250  -12.4826   19.4881 C   0  0  0  0  0  0
  -29.5057  -12.5140   18.2477 C   0  0  0  0  0  0
  -28.0364  -12.3231   18.6656 C   0  0  0  0  0  0
  -27.6356  -13.2395   19.8518 C   0  0  2  0  0  0
  -28.6797  -13.2078   20.9904 C   0  0  0  0  0  0
  -25.2478  -13.8220   20.5720 C   0  0  0  0  0  0
  -24.1785  -13.0443   20.9232 C   0  0  0  0  0  0
  -24.6388  -11.6925   20.8765 C   0  0  0  0  0  0
  -23.9065  -10.4292   21.0402 C   0  0  0  0  0  0
  -24.3618   -9.4207   21.9176 C   0  0  0  0  0  0
  -23.6292   -8.2236   22.0748 C   0  0  0  0  0  0
  -22.4271   -8.0265   21.3538 C   0  0  0  0  0  0
  -21.9913   -9.0237   20.4634 C   0  0  0  0  0  0
  -22.7238  -10.2118   20.3046 C   0  0  0  0  0  0
  -21.6858   -6.0725   22.5272 C   0  0  0  0  0  0
  -21.4015   -6.5633   23.8202 C   0  0  0  0  0  0
  -21.3661   -5.6792   24.9171 C   0  0  0  0  0  0
  -21.6046   -4.3050   24.7228 C   0  0  0  0  0  0
  -21.8822   -3.8136   23.4351 C   0  0  0  0  0  0
  -21.9197   -4.6951   22.3405 C   0  0  0  0  0  0
  -22.7797  -13.5198   21.1878 C   0  0  0  0  0  0
  -22.1667   -4.2128   21.0981 F   0  0  0  0  0  0
  -21.5631   -3.4530   25.7744 F   0  0  0  0  0  0
  -29.9768  -13.5647   20.4031 N   0  0  0  0  0  0
  -26.2906  -12.9430   20.3312 N   0  0  0  0  0  0
  -25.9318  -11.6565   20.5790 N   0  0  0  0  0  0
  -22.0467  -12.8168   22.0432 N   0  0  0  0  0  0
  -25.4160  -15.1938   20.4099 N   0  0  0  0  0  0
  -31.8097  -14.8247   20.1448 O   0  0  0  0  0  0
  -21.6642   -6.8854   21.4226 O   0  0  0  0  0  0
  -22.3463  -14.5493   20.6709 O   0  0  0  0  0  0
  -24.6325  -31.8507   23.1938 C   0  0  0  0  0  0
  -25.9133  -32.4731   23.8305 C   0  0  1  0  0  0
  -27.2269  -27.2312   20.1543 C   0  0  0  0  0  0
  -25.5915  -33.8532   24.2234 N   0  0  0  0  0  0
  -23.4325  -30.4683   21.5353 C   0  0  2  0  0  0
  -24.8827  -28.9064   20.1091 C   0  0  0  0  0  0
  -22.7522  -29.4559   22.4899 C   0  0  0  0  0  0
  -18.0309  -28.1360   22.8488 C   0  0  0  0  0  0
  -24.1485  -36.7291   23.2649 C   0  0  0  0  0  0
  -25.9774  -30.7574   21.3749 C   0  0  0  0  0  0
  -26.0508  -29.3745   20.7229 C   0  0  0  0  0  0
  -27.2200  -28.5474   20.7365 C   0  0  0  0  0  0
  -26.0324  -26.8309   19.5147 C   0  0  0  0  0  0
  -24.8808  -27.6447   19.4939 C   0  0  0  0  0  0
  -23.6529  -29.7940   20.1536 C   0  0  0  0  0  0
  -25.4120  -36.3062   24.0319 C   0  0  1  0  0  0
  -20.5906  -28.3693   23.1290 C   0  0  2  0  0  0
  -20.6771  -26.9413   22.5432 C   0  0  0  0  0  0
  -19.5766  -26.6383   21.5205 C   0  0  0  0  0  0
  -18.1943  -26.7912   22.1606 C   0  0  0  0  0  0
  -19.1563  -28.8843   23.2878 C   0  0  0  0  0  0
  -18.9468  -30.1444   23.8889 C   0  0  0  0  0  0
  -17.6453  -30.6561   24.0559 C   0  0  0  0  0  0
  -25.9048  -34.9422   23.5091 C   0  0  0  0  0  0
  -16.5355  -29.9045   23.6332 C   0  0  0  0  0  0
  -16.7291  -28.6463   23.0357 C   0  0  0  0  0  0
  -26.4489  -31.6579   25.0723 C   0  0  0  0  0  0
  -25.3717  -31.3731   26.1454 C   0  0  0  0  0  0
  -27.0350  -30.2993   24.6233 C   0  0  0  0  0  0
  -27.6033  -32.4329   25.7521 C   0  0  0  0  0  0
  -27.5559  -37.1832   24.8487 C   0  0  0  0  0  0
  -21.4214  -29.3042   22.3667 N   0  0  0  0  0  0
  -26.4310  -37.3746   23.9373 N   0  0  0  0  0  0
  -24.7000  -31.0458   22.0913 N   0  0  0  0  0  0
  -23.4208  -28.8107   23.3021 O   0  0  0  0  0  0
  -28.3334  -26.3528   20.2760 O   0  0  0  0  0  0
  -26.5638  -34.8890   22.4659 O   0  0  0  0  0  0
  -23.5471  -32.1324   23.7244 O   0  0  0  0  0  0
  -31.9643  -19.1617   20.2368 C   0  0  0  0  0  0
  -31.0418  -20.2159   20.3680 C   0  0  0  0  0  0
  -31.5710  -17.8112   20.3362 C   0  0  0  0  0  0
  -29.2917  -18.5509   20.7000 C   0  0  0  0  0  0
  -29.6747  -19.9657   20.6009 C   0  0  0  0  0  0
  -30.2270  -17.4244   20.5649 C   0  0  0  0  0  0
  -28.4251  -23.6004   20.5109 C   0  0  0  0  0  0
  -28.7487  -21.2064   20.8521 C   0  0  0  0  0  0
  -28.4353  -24.9762   19.6597 C   0  0  0  0  0  0
  -28.9667  -22.4436   20.1415 N   0  0  0  0  0  0
  -29.8719  -15.9618   20.6669 N   0  0  0  0  0  0
  -27.8459  -21.0458   21.6740 O   0  0  0  0  0  0
  -31.4652  -12.6008   19.1796 H   0  0  0  0  0  0
  -30.3682  -11.5152   19.9903 H   0  0  0  0  0  0
  -29.7975  -11.7414   17.5362 H   0  0  0  0  0  0
  -29.6191  -13.4679   17.7298 H   0  0  0  0  0  0
  -27.9119  -11.2776   18.9522 H   0  0  0  0  0  0
  -27.3731  -12.4872   17.8149 H   0  0  0  0  0  0
  -27.6199  -14.2540   19.4546 H   0  0  0  0  0  0
  -28.7278  -12.2212   21.4538 H   0  0  0  0  0  0
  -28.4090  -13.9071   21.7833 H   0  0  0  0  0  0
  -25.2752   -9.5687   22.4771 H   0  0  0  0  0  0
  -24.0001   -7.4622   22.7472 H   0  0  0  0  0  0
  -21.0847   -8.8748   19.8936 H   0  0  0  0  0  0
  -22.3684  -10.9659   19.6160 H   0  0  0  0  0  0
  -21.2014   -7.6135   23.9697 H   0  0  0  0  0  0
  -21.1481   -6.0524   25.9072 H   0  0  0  0  0  0
  -22.0608   -2.7593   23.2861 H   0  0  0  0  0  0
  -22.4112  -11.9821   22.4802 H   0  0  0  0  0  0
  -21.1075  -13.1163   22.2641 H   0  0  0  0  0  0
  -24.6458  -15.8475   20.5025 H   0  0  0  0  0  0
  -26.2583  -15.6267   20.0516 H   0  0  0  0  0  0
  -26.7225  -32.5372   23.1063 H   0  0  0  0  0  0
  -25.0026  -33.9651   25.0361 H   0  0  0  0  0  0
  -22.7290  -31.2903   21.3832 H   0  0  0  0  0  0
  -23.3717  -35.9662   23.3365 H   0  0  0  0  0  0
  -24.3565  -36.8869   22.2059 H   0  0  0  0  0  0
  -23.7292  -37.6522   23.6649 H   0  0  0  0  0  0
  -26.1146  -31.5106   20.5981 H   0  0  0  0  0  0
  -26.8563  -30.8147   22.0060 H   0  0  0  0  0  0
  -28.1104  -28.8976   21.2418 H   0  0  0  0  0  0
  -25.9373  -25.8557   19.0667 H   0  0  0  0  0  0
  -23.9836  -27.2764   19.0156 H   0  0  0  0  0  0
  -23.7793  -30.5643   19.3926 H   0  0  0  0  0  0
  -22.7728  -29.2225   19.8524 H   0  0  0  0  0  0
  -25.1321  -36.1920   25.0824 H   0  0  0  0  0  0
  -20.9991  -28.3267   24.1412 H   0  0  0  0  0  0
  -20.5636  -26.2310   23.3633 H   0  0  0  0  0  0
  -21.6647  -26.7398   22.1281 H   0  0  0  0  0  0
  -19.6955  -25.6283   21.1243 H   0  0  0  0  0  0
  -19.6717  -27.3218   20.6757 H   0  0  0  0  0  0
  -17.4243  -26.6698   21.3972 H   0  0  0  0  0  0
  -18.0314  -26.0015   22.8952 H   0  0  0  0  0  0
  -19.7920  -30.7286   24.2248 H   0  0  0  0  0  0
  -17.4994  -31.6245   24.5135 H   0  0  0  0  0  0
  -15.5348  -30.2923   23.7656 H   0  0  0  0  0  0
  -15.8701  -28.0780   22.7053 H   0  0  0  0  0  0
  -24.5897  -30.7059   25.7795 H   0  0  0  0  0  0
  -24.8891  -32.2901   26.4859 H   0  0  0  0  0  0
  -25.8044  -30.8940   27.0252 H   0  0  0  0  0  0
  -26.2937  -29.6738   24.1237 H   0  0  0  0  0  0
  -27.4002  -29.7258   25.4768 H   0  0  0  0  0  0
  -27.8827  -30.4262   23.9491 H   0  0  0  0  0  0
  -27.2627  -33.3654   26.2037 H   0  0  0  0  0  0
  -28.3886  -32.6853   25.0383 H   0  0  0  0  0  0
  -28.0641  -31.8490   26.5503 H   0  0  0  0  0  0
  -28.2666  -38.0031   24.7378 H   0  0  0  0  0  0
  -28.0957  -36.2557   24.6521 H   0  0  0  0  0  0
  -27.2248  -37.1741   25.8884 H   0  0  0  0  0  0
  -20.9404  -29.8767   21.6856 H   0  0  0  0  0  0
  -26.0190  -38.2842   24.1267 H   0  0  0  0  0  0
  -33.0077  -19.3957   20.0688 H   0  0  0  0  0  0
  -31.4032  -21.2349   20.3121 H   0  0  0  0  0  0
  -32.3574  -17.0845   20.2380 H   0  0  0  0  0  0
  -28.2549  -18.3274   20.8997 H   0  0  0  0  0  0
  -27.8846  -23.6985   21.4589 H   0  0  0  0  0  0
  -27.7385  -24.8596   18.8343 H   0  0  0  0  0  0
  -29.4048  -24.9892   19.1639 H   0  0  0  0  0  0
  -28.9039  -15.7762   20.8758 H   0  0  0  0  0  0
  1 25  1  0  0  0
  1 30  2  0  0  0
  1 81  1  0  0  0
  2  3  1  0  0  0
  2 25  1  0  0  0
  2 83  1  0  0  0
  2 84  1  0  0  0
  3  4  1  0  0  0
  3 85  1  0  0  0
  3 86  1  0  0  0
  4  5  1  0  0  0
  4 87  1  0  0  0
  4 88  1  0  0  0
  5  6  1  0  0  0
  5 26  1  0  0  0
  5 89  1  0  0  0
  6 25  1  0  0  0
  6 90  1  0  0  0
  6 91  1  0  0  0
  7  8  2  0  0  0
  7 26  1  0  0  0
  7 29  1  0  0  0
  8  9  1  0  0  0
  8 22  1  0  0  0
  9 10  1  0  0  0
  9 27  2  0  0  0
 10 11  2  0  0  0
 10 15  1  0  0  0
 11 12  1  0  0  0
 11 92  1  0  0  0
 12 13  2  0  0  0
 12 93  1  0  0  0
 13 14  1  0  0  0
 13 31  1  0  0  0
 14 15  2  0  0  0
 14 94  1  0  0  0
 15 95  1  0  0  0
 16 17  2  0  0  0
 16 21  1  0  0  0
 16 31  1  0  0  0
 17 18  1  0  0  0
 17 96  1  0  0  0
 18 19  2  0  0  0
 18 97  1  0  0  0
 19 20  1  0  0  0
 19 24  1  0  0  0
 20 21  2  0  0  0
 20 98  1  0  0  0
 21 23  1  0  0  0
 22 28  1  0  0  0
 22 32  2  0  0  0
 26 27  1  0  0  0
 28 99  1  0  0  0
 28100  1  0  0  0
 29101  1  0  0  0
 29102  1  0  0  0
 33 34  1  0  0  0
 33 66  1  0  0  0
 33 70  2  0  0  0
 34 36  1  0  0  0
 34 59  1  0  0  0
 34103  1  0  0  0
 35 44  2  0  0  0
 35 45  1  0  0  0
 35 68  1  0  0  0
 36 56  1  0  0  0
 36104  1  0  0  0
 37 39  1  0  0  0
 37 47  1  0  0  0
 37 66  1  0  0  0
 37105  1  0  0  0
 38 43  2  0  0  0
 38 46  1  0  0  0
 38 47  1  0  0  0
 39 64  1  0  0  0
 39 67  2  0  0  0
 40 52  1  0  0  0
 40 53  2  0  0  0
 40 58  1  0  0  0
 41106  1  0  0  0
 41107  1  0  0  0
 41108  1  0  0  0
 41 48  1  0  0  0
 42 43  1  0  0  0
 42 66  1  0  0  0
 42109  1  0  0  0
 42110  1  0  0  0
 43 44  1  0  0  0
 44111  1  0  0  0
 45 46  2  0  0  0
 45112  1  0  0  0
 46113  1  0  0  0
 47114  1  0  0  0
 47115  1  0  0  0
 48 56  1  0  0  0
 48 65  1  0  0  0
 48116  1  0  0  0
 49 50  1  0  0  0
 49 53  1  0  0  0
 49 64  1  0  0  0
 49117  1  0  0  0
 50 51  1  0  0  0
 50118  1  0  0  0
 50119  1  0  0  0
 51 52  1  0  0  0
 51120  1  0  0  0
 51121  1  0  0  0
 52122  1  0  0  0
 52123  1  0  0  0
 53 54  1  0  0  0
 54 55  2  0  0  0
 54124  1  0  0  0
 55 57  1  0  0  0
 55125  1  0  0  0
 56 69  2  0  0  0
 57 58  2  0  0  0
 57126  1  0  0  0
 58127  1  0  0  0
 59 60  1  0  0  0
 59 61  1  0  0  0
 59 62  1  0  0  0
 60128  1  0  0  0
 60129  1  0  0  0
 60130  1  0  0  0
 61131  1  0  0  0
 61132  1  0  0  0
 61133  1  0  0  0
 62134  1  0  0  0
 62135  1  0  0  0
 62136  1  0  0  0
 63 65  1  0  0  0
 63137  1  0  0  0
 63138  1  0  0  0
 63139  1  0  0  0
 64140  1  0  0  0
 65141  1  0  0  0
 68 79  1  0  0  0
 71 72  2  0  0  0
 71 73  1  0  0  0
 71142  1  0  0  0
 72 75  1  0  0  0
 72143  1  0  0  0
 73 76  2  0  0  0
 73144  1  0  0  0
 74 75  2  0  0  0
 74 76  1  0  0  0
 74145  1  0  0  0
 75 78  1  0  0  0
 76 81  1  0  0  0
 77 79  1  0  0  0
 77 80  2  0  0  0
 77146  1  0  0  0
 78 80  1  0  0  0
 78 82  2  0  0  0
 79147  1  0  0  0
 79148  1  0  0  0
 81149  1  0  0  0
M  ISO  4   1 100  68 101  79 101  81 100
M  END
> <chiral flag>
0

> <version>
0

> <s_m_source_file>
/data/baiqing/PycharmProjects/Reinvent-master-3.2/result/LINK_invent/BTK/process_docking_weight1_custom_product_contain_oxygen_bond_distance_aromatic_linkinvent_7_9_3/rearranged_h_0082.sdf

> <i_m_source_file_index>
50

> <r_mmod_Potential_Energy-OPLS-2005>
197.424713134766

> <r_mmod_Stretch_Energy-OPLS-2005>
150.405853271484

> <r_mmod_Bend_Energy-OPLS-2005>
187.024124145508

> <r_mmod_Torsional_Energy-OPLS-2005>
208.832473754883

> <r_mmod_Improper_Torsional_Energy-OPLS-2005>
4.95082712173462

> <r_mmod_Van_der_Waal_Energy-OPLS-2005>
147.212203979492

> <r_mmod_Electrostatic_Energy-OPLS-2005>
-395.593200683594

> <r_mmod_Solvation_Energy-OPLS-2005>
-210.38883972168

> <b_mmod_Minimization_Converged-OPLS-2005>
0

> <r_mmod_RMS_Derivative-OPLS-2005>
3.2891891002655

$$$$
50
                    3D
 Structure written by MMmdl.
139146  0  0  1  0            999 V2000
  -29.9185  -16.6699   20.2456 C   0  0  0  0  0  0
  -30.3081  -13.8570   19.5543 C   0  0  0  0  0  0
  -29.5813  -12.9880   18.4396 C   0  0  0  0  0  0
  -28.2536  -12.4037   18.9226 C   0  0  0  0  0  0
  -27.5707  -13.4491   19.8137 C   0  0  2  0  0  0
  -28.4890  -14.1955   20.8563 C   0  0  0  0  0  0
  -25.2137  -13.8523   20.5937 C   0  0  0  0  0  0
  -24.1668  -13.0478   20.9335 C   0  0  0  0  0  0
  -24.6565  -11.7055   20.8724 C   0  0  0  0  0  0
  -23.9282  -10.4332   21.0325 C   0  0  0  0  0  0
  -24.3755   -9.4240   21.9142 C   0  0  0  0  0  0
  -23.6373   -8.2297   22.0745 C   0  0  0  0  0  0
  -22.4348   -8.0332   21.3544 C   0  0  0  0  0  0
  -22.0027   -9.0314   20.4634 C   0  0  0  0  0  0
  -22.7413  -10.2166   20.3010 C   0  0  0  0  0  0
  -21.6882   -6.0770   22.5279 C   0  0  0  0  0  0
  -21.4039   -6.5660   23.8217 C   0  0  0  0  0  0
  -21.3665   -5.6805   24.9173 C   0  0  0  0  0  0
  -21.6042   -4.3066   24.7217 C   0  0  0  0  0  0
  -21.8813   -3.8165   23.4336 C   0  0  0  0  0  0
  -21.9202   -4.6991   22.3398 C   0  0  0  0  0  0
  -22.7640  -13.5086   21.1939 C   0  0  0  0  0  0
  -22.1663   -4.2175   21.0974 F   0  0  0  0  0  0
  -21.5622   -3.4543   25.7725 F   0  0  0  0  0  0
  -29.5100  -15.1183   20.1729 N   0  0  0  0  0  0
  -26.2797  -13.0159   20.3440 N   0  0  0  0  0  0
  -25.9578  -11.7061   20.5629 N   0  0  0  0  0  0
  -22.0348  -12.8032   22.0494 N   0  0  0  0  0  0
  -25.3472  -15.2292   20.4375 N   0  0  0  0  0  0
  -31.1597  -16.3862   20.1781 O   0  0  0  0  0  0
  -21.6683   -6.8937   21.4251 O   0  0  0  0  0  0
  -22.3267  -14.5368   20.6776 O   0  0  0  0  0  0
  -24.7516  -31.7127   23.0923 C   0  0  0  0  0  0
  -25.9739  -32.4053   23.7746 C   0  0  1  0  0  0
  -27.2677  -25.9898   20.2728 C   0  0  0  0  0  0
  -25.6013  -33.7919   24.1550 N   0  0  0  0  0  0
  -23.6095  -30.2791   21.4646 C   0  0  2  0  0  0
  -25.0731  -28.4648   20.1427 C   0  0  0  0  0  0
  -22.8065  -29.3847   22.4540 C   0  0  0  0  0  0
  -18.0378  -28.1457   22.8425 C   0  0  0  0  0  0
  -24.1498  -36.6977   23.2676 C   0  0  0  0  0  0
  -26.2113  -30.2085   21.4642 C   0  0  0  0  0  0
  -26.2710  -28.6920   20.8279 C   0  0  0  0  0  0
  -27.3145  -27.5103   20.8394 C   0  0  0  0  0  0
  -26.0320  -26.1544   19.5223 C   0  0  0  0  0  0
  -25.0351  -27.2256   19.4634 C   0  0  0  0  0  0
  -23.9008  -29.5044   20.1338 C   0  0  0  0  0  0
  -25.4176  -36.2659   24.0234 C   0  0  1  0  0  0
  -20.6045  -28.3841   23.1021 C   0  0  2  0  0  0
  -20.6805  -26.9437   22.5418 C   0  0  0  0  0  0
  -19.5790  -26.6347   21.5228 C   0  0  0  0  0  0
  -18.1976  -26.7968   22.1618 C   0  0  0  0  0  0
  -19.1662  -28.8991   23.2679 C   0  0  0  0  0  0
  -18.9556  -30.1557   23.8754 C   0  0  0  0  0  0
  -17.6539  -30.6623   24.0534 C   0  0  0  0  0  0
  -25.9192  -34.9063   23.4788 C   0  0  0  0  0  0
  -16.5424  -29.9091   23.6370 C   0  0  0  0  0  0
  -16.7354  -28.6517   23.0385 C   0  0  0  0  0  0
  -26.4702  -31.6401   25.0655 C   0  0  0  0  0  0
  -25.3591  -31.3899   26.1143 C   0  0  0  0  0  0
  -27.0757  -30.2683   24.7045 C   0  0  0  0  0  0
  -27.6013  -32.4439   25.7506 C   0  0  0  0  0  0
  -27.5533  -37.1655   24.8479 C   0  0  0  0  0  0
  -21.4653  -29.2939   22.3266 N   0  0  0  0  0  0
  -26.4250  -37.3489   23.9391 N   0  0  0  0  0  0
  -24.8907  -30.7842   22.0589 N   0  0  0  0  0  0
  -23.4170  -28.7584   23.3222 O   0  0  0  0  0  0
  -28.1606  -24.4617   20.3189 O   0  0  0  0  0  0
  -26.5940  -34.8780   22.4478 O   0  0  0  0  0  0
  -23.6387  -32.0531   23.5419 O   0  0  0  0  0  0
  -29.1911  -18.5550   20.2601 C   0  0  0  0  0  0
  -29.1607  -20.3333   20.2742 C   0  0  0  0  0  0
  -30.5656  -20.9348   20.3496 C   0  0  0  0  0  0
  -28.1394  -22.3268   20.2235 C   0  0  0  0  0  0
  -31.2154  -14.2334   19.0813 H   0  0  0  0  0  0
  -30.6906  -13.2096   20.3460 H   0  0  0  0  0  0
  -30.2375  -12.1908   18.0881 H   0  0  0  0  0  0
  -29.3920  -13.6272   17.5762 H   0  0  0  0  0  0
  -28.4554  -11.5049   19.5072 H   0  0  0  0  0  0
  -27.6202  -12.1064   18.0856 H   0  0  0  0  0  0
  -27.3091  -14.2262   19.0933 H   0  0  0  0  0  0
  -28.9383  -13.4998   21.5673 H   0  0  0  0  0  0
  -27.8712  -14.8465   21.4746 H   0  0  0  0  0  0
  -25.2886   -9.5704   22.4742 H   0  0  0  0  0  0
  -24.0054   -7.4700   22.7496 H   0  0  0  0  0  0
  -21.0947   -8.8863   19.8950 H   0  0  0  0  0  0
  -22.3869  -10.9701   19.6117 H   0  0  0  0  0  0
  -21.2044   -7.6168   23.9731 H   0  0  0  0  0  0
  -21.1488   -6.0530   25.9079 H   0  0  0  0  0  0
  -22.0583   -2.7625   23.2828 H   0  0  0  0  0  0
  -22.4036  -11.9733   22.4899 H   0  0  0  0  0  0
  -21.0935  -13.0976   22.2678 H   0  0  0  0  0  0
  -24.5653  -15.8645   20.5548 H   0  0  0  0  0  0
  -26.1933  -15.6928   20.1317 H   0  0  0  0  0  0
  -26.7916  -32.4404   23.0536 H   0  0  0  0  0  0
  -24.9940  -33.8835   24.9559 H   0  0  0  0  0  0
  -22.9774  -31.1325   21.2115 H   0  0  0  0  0  0
  -23.3777  -35.9286   23.3275 H   0  0  0  0  0  0
  -24.3526  -36.8741   22.2102 H   0  0  0  0  0  0
  -23.7259  -37.6116   23.6850 H   0  0  0  0  0  0
  -26.4838  -30.8836   20.6520 H   0  0  0  0  0  0
  -27.0394  -30.2980   22.1529 H   0  0  0  0  0  0
  -28.2027  -27.7267   21.4160 H   0  0  0  0  0  0
  -25.7548  -25.2771   18.9552 H   0  0  0  0  0  0
  -24.1559  -27.0237   18.8670 H   0  0  0  0  0  0
  -24.1301  -30.2315   19.3541 H   0  0  0  0  0  0
  -22.9924  -29.0032   19.7956 H   0  0  0  0  0  0
  -25.1425  -36.1332   25.0723 H   0  0  0  0  0  0
  -21.0094  -28.3515   24.1162 H   0  0  0  0  0  0
  -20.5608  -26.2484   23.3741 H   0  0  0  0  0  0
  -21.6658  -26.7272   22.1274 H   0  0  0  0  0  0
  -19.6930  -25.6221   21.1347 H   0  0  0  0  0  0
  -19.6749  -27.3083   20.6701 H   0  0  0  0  0  0
  -17.4245  -26.6714   21.4020 H   0  0  0  0  0  0
  -18.0340  -26.0147   22.9047 H   0  0  0  0  0  0
  -19.8032  -30.7404   24.2066 H   0  0  0  0  0  0
  -17.5088  -31.6288   24.5162 H   0  0  0  0  0  0
  -15.5418  -30.2950   23.7773 H   0  0  0  0  0  0
  -15.8755  -28.0785   22.7187 H   0  0  0  0  0  0
  -24.5799  -30.7254   25.7388 H   0  0  0  0  0  0
  -24.8776  -32.3184   26.4223 H   0  0  0  0  0  0
  -25.7600  -30.9246   27.0156 H   0  0  0  0  0  0
  -26.3587  -29.6062   24.2187 H   0  0  0  0  0  0
  -27.4067  -29.7433   25.6016 H   0  0  0  0  0  0
  -27.9603  -30.3687   24.0756 H   0  0  0  0  0  0
  -27.2452  -33.3879   26.1646 H   0  0  0  0  0  0
  -28.4030  -32.6787   25.0490 H   0  0  0  0  0  0
  -28.0458  -31.8886   26.5775 H   0  0  0  0  0  0
  -28.2521  -37.9969   24.7459 H   0  0  0  0  0  0
  -28.1054  -36.2477   24.6401 H   0  0  0  0  0  0
  -27.2227  -37.1388   25.8877 H   0  0  0  0  0  0
  -21.0133  -29.8474   21.6122 H   0  0  0  0  0  0
  -26.0022  -38.2517   24.1363 H   0  0  0  0  0  0
  -30.2496  -18.6485   20.3709 H   0  0  0  0  0  0
  -30.6634  -21.5081   21.2721 H   0  0  0  0  0  0
  -30.6976  -21.6317   19.5211 H   0  0  0  0  0  0
  -31.4076  -20.2446   20.3076 H   0  0  0  0  0  0
  -27.3397  -22.1275   20.9368 H   0  0  0  0  0  0
  -27.6419  -22.2203   19.2594 H   0  0  0  0  0  0
  1 25  1  0  0  0
  1 30  2  0  0  0
  1 71  1  0  0  0
  2  3  1  0  0  0
  2 25  1  0  0  0
  2 75  1  0  0  0
  2 76  1  0  0  0
  3  4  1  0  0  0
  3 77  1  0  0  0
  3 78  1  0  0  0
  4  5  1  0  0  0
  4 79  1  0  0  0
  4 80  1  0  0  0
  5  6  1  0  0  0
  5 26  1  0  0  0
  5 81  1  0  0  0
  6 25  1  0  0  0
  6 82  1  0  0  0
  6 83  1  0  0  0
  7  8  2  0  0  0
  7 26  1  0  0  0
  7 29  1  0  0  0
  8  9  1  0  0  0
  8 22  1  0  0  0
  9 10  1  0  0  0
  9 27  2  0  0  0
 10 11  2  0  0  0
 10 15  1  0  0  0
 11 12  1  0  0  0
 11 84  1  0  0  0
 12 13  2  0  0  0
 12 85  1  0  0  0
 13 14  1  0  0  0
 13 31  1  0  0  0
 14 15  2  0  0  0
 14 86  1  0  0  0
 15 87  1  0  0  0
 16 17  2  0  0  0
 16 21  1  0  0  0
 16 31  1  0  0  0
 17 18  1  0  0  0
 17 88  1  0  0  0
 18 19  2  0  0  0
 18 89  1  0  0  0
 19 20  1  0  0  0
 19 24  1  0  0  0
 20 21  2  0  0  0
 20 90  1  0  0  0
 21 23  1  0  0  0
 22 28  1  0  0  0
 22 32  2  0  0  0
 26 27  1  0  0  0
 28 91  1  0  0  0
 28 92  1  0  0  0
 29 93  1  0  0  0
 29 94  1  0  0  0
 33 34  1  0  0  0
 33 66  1  0  0  0
 33 70  2  0  0  0
 34 36  1  0  0  0
 34 59  1  0  0  0
 34 95  1  0  0  0
 35 44  2  0  0  0
 35 45  1  0  0  0
 35 68  1  0  0  0
 36 56  1  0  0  0
 36 96  1  0  0  0
 37 39  1  0  0  0
 37 47  1  0  0  0
 37 66  1  0  0  0
 37 97  1  0  0  0
 38 43  2  0  0  0
 38 46  1  0  0  0
 38 47  1  0  0  0
 39 64  1  0  0  0
 39 67  2  0  0  0
 40 52  1  0  0  0
 40 53  2  0  0  0
 40 58  1  0  0  0
 41 98  1  0  0  0
 41 99  1  0  0  0
 41100  1  0  0  0
 41 48  1  0  0  0
 42 43  1  0  0  0
 42 66  1  0  0  0
 42101  1  0  0  0
 42102  1  0  0  0
 43 44  1  0  0  0
 44103  1  0  0  0
 45 46  2  0  0  0
 45104  1  0  0  0
 46105  1  0  0  0
 47106  1  0  0  0
 47107  1  0  0  0
 48 56  1  0  0  0
 48 65  1  0  0  0
 48108  1  0  0  0
 49 50  1  0  0  0
 49 53  1  0  0  0
 49 64  1  0  0  0
 49109  1  0  0  0
 50 51  1  0  0  0
 50110  1  0  0  0
 50111  1  0  0  0
 51 52  1  0  0  0
 51112  1  0  0  0
 51113  1  0  0  0
 52114  1  0  0  0
 52115  1  0  0  0
 53 54  1  0  0  0
 54 55  2  0  0  0
 54116  1  0  0  0
 55 57  1  0  0  0
 55117  1  0  0  0
 56 69  2  0  0  0
 57 58  2  0  0  0
 57118  1  0  0  0
 58119  1  0  0  0
 59 60  1  0  0  0
 59 61  1  0  0  0
 59 62  1  0  0  0
 60120  1  0  0  0
 60121  1  0  0  0
 60122  1  0  0  0
 61123  1  0  0  0
 61124  1  0  0  0
 61125  1  0  0  0
 62126  1  0  0  0
 62127  1  0  0  0
 62128  1  0  0  0
 63 65  1  0  0  0
 63129  1  0  0  0
 63130  1  0  0  0
 63131  1  0  0  0
 64132  1  0  0  0
 65133  1  0  0  0
 68 74  1  0  0  0
 71 72  2  0  0  0
 71134  1  0  0  0
 72 73  1  0  0  0
 72 74  1  0  0  0
 73135  1  0  0  0
 73136  1  0  0  0
 73137  1  0  0  0
 74138  1  0  0  0
 74139  1  0  0  0
M  ISO  4   1 100  68 101  71 100  74 101
M  END
> <chiral flag>
0

> <version>
0

> <s_m_source_file>
/data/baiqing/PycharmProjects/Reinvent-master-3.2/result/LINK_invent/BTK/process_docking_weight1_custom_product_contain_oxygen_bond_distance_aromatic_linkinvent_7_9_3/rearranged_h_0082.sdf

> <i_m_source_file_index>
51

> <r_mmod_Potential_Energy-OPLS-2005>
7454.54052734375

> <r_mmod_Stretch_Energy-OPLS-2005>
3206.9072265625

> <r_mmod_Bend_Energy-OPLS-2005>
1324.37255859375

> <r_mmod_Torsional_Energy-OPLS-2005>
203.982727050781

> <r_mmod_Improper_Torsional_Energy-OPLS-2005>
3.84829497337341

> <r_mmod_Van_der_Waal_Energy-OPLS-2005>
131.790878295898

> <r_mmod_Electrostatic_Energy-OPLS-2005>
-306.259613037109

> <r_mmod_Solvation_Energy-OPLS-2005>
-193.516952514648

> <b_mmod_Minimization_Converged-OPLS-2005>
0

> <r_mmod_RMS_Derivative-OPLS-2005>
0.447121679782867

$$$$
51
                    3D
 Structure written by MMmdl.
158167  0  0  1  0            999 V2000
  -30.7441  -14.4468   20.6325 C   0  0  0  0  0  0
  -30.4184  -12.3191   19.4113 C   0  0  0  0  0  0
  -29.4880  -12.5167   18.1994 C   0  0  0  0  0  0
  -28.0125  -12.3689   18.6175 C   0  0  0  0  0  0
  -27.6606  -13.2102   19.8734 C   0  0  2  0  0  0
  -28.7030  -12.9940   20.9924 C   0  0  0  0  0  0
  -25.2577  -13.8168   20.5685 C   0  0  0  0  0  0
  -24.1828  -13.0436   20.9165 C   0  0  0  0  0  0
  -24.6391  -11.6907   20.8725 C   0  0  0  0  0  0
  -23.9059  -10.4291   21.0396 C   0  0  0  0  0  0
  -24.3610   -9.4208   21.9178 C   0  0  0  0  0  0
  -23.6288   -8.2242   22.0751 C   0  0  0  0  0  0
  -22.4270   -8.0277   21.3543 C   0  0  0  0  0  0
  -21.9904   -9.0249   20.4643 C   0  0  0  0  0  0
  -22.7231  -10.2128   20.3049 C   0  0  0  0  0  0
  -21.6854   -6.0730   22.5279 C   0  0  0  0  0  0
  -21.4013   -6.5636   23.8211 C   0  0  0  0  0  0
  -21.3662   -5.6788   24.9175 C   0  0  0  0  0  0
  -21.6046   -4.3051   24.7224 C   0  0  0  0  0  0
  -21.8820   -3.8143   23.4345 C   0  0  0  0  0  0
  -21.9192   -4.6960   22.3401 C   0  0  0  0  0  0
  -22.7851  -13.5229   21.1841 C   0  0  0  0  0  0
  -22.1663   -4.2146   21.0978 F   0  0  0  0  0  0
  -21.5631   -3.4534   25.7737 F   0  0  0  0  0  0
  -30.0348  -13.2997   20.4404 N   0  0  0  0  0  0
  -26.3021  -12.9347   20.3370 N   0  0  0  0  0  0
  -25.9320  -11.6499   20.5760 N   0  0  0  0  0  0
  -22.0498  -12.8220   22.0401 N   0  0  0  0  0  0
  -25.4303  -15.1885   20.4127 N   0  0  0  0  0  0
  -31.8328  -14.6560   20.0904 O   0  0  0  0  0  0
  -21.6639   -6.8872   21.4241 O   0  0  0  0  0  0
  -22.3531  -14.5538   20.6700 O   0  0  0  0  0  0
  -24.6181  -31.8692   23.2127 C   0  0  0  0  0  0
  -25.9068  -32.4832   23.8419 C   0  0  1  0  0  0
  -27.2218  -27.4083   20.0882 C   0  0  0  0  0  0
  -25.5915  -33.8630   24.2346 N   0  0  0  0  0  0
  -23.4058  -30.4978   21.5548 C   0  0  2  0  0  0
  -24.8479  -28.9736   20.1123 C   0  0  0  0  0  0
  -22.7433  -29.4670   22.4987 C   0  0  0  0  0  0
  -18.0271  -28.1385   22.8506 C   0  0  0  0  0  0
  -24.1481  -36.7312   23.2638 C   0  0  0  0  0  0
  -25.9415  -30.8264   21.3716 C   0  0  0  0  0  0
  -26.0155  -29.4625   20.7119 C   0  0  0  0  0  0
  -27.2048  -28.6891   20.6986 C   0  0  0  0  0  0
  -26.0284  -26.9614   19.4624 C   0  0  0  0  0  0
  -24.8511  -27.7223   19.4845 C   0  0  0  0  0  0
  -23.6140  -29.8433   20.1658 C   0  0  0  0  0  0
  -25.4106  -36.3117   24.0337 C   0  0  1  0  0  0
  -20.5870  -28.3674   23.1317 C   0  0  2  0  0  0
  -20.6766  -26.9409   22.5415 C   0  0  0  0  0  0
  -19.5737  -26.6395   21.5218 C   0  0  0  0  0  0
  -18.1917  -26.7935   22.1630 C   0  0  0  0  0  0
  -19.1526  -28.8846   23.2907 C   0  0  0  0  0  0
  -18.9454  -30.1451   23.8915 C   0  0  0  0  0  0
  -17.6459  -30.6596   24.0573 C   0  0  0  0  0  0
  -25.9042  -34.9481   23.5139 C   0  0  0  0  0  0
  -16.5349  -29.9101   23.6333 C   0  0  0  0  0  0
  -16.7261  -28.6514   23.0364 C   0  0  0  0  0  0
  -26.4485  -31.6607   25.0748 C   0  0  0  0  0  0
  -25.3743  -31.3716   26.1488 C   0  0  0  0  0  0
  -27.0312  -30.3046   24.6128 C   0  0  0  0  0  0
  -27.6060  -32.4321   25.7507 C   0  0  0  0  0  0
  -27.5577  -37.1817   24.8470 C   0  0  0  0  0  0
  -21.4155  -29.3044   22.3732 N   0  0  0  0  0  0
  -26.4294  -37.3798   23.9411 N   0  0  0  0  0  0
  -24.6735  -31.0785   22.1037 N   0  0  0  0  0  0
  -23.4200  -28.8195   23.3015 O   0  0  0  0  0  0
  -28.3629  -26.6116   20.1303 O   0  0  0  0  0  0
  -26.5593  -34.8929   22.4691 O   0  0  0  0  0  0
  -23.5367  -32.1455   23.7505 O   0  0  0  0  0  0
  -31.6289  -18.7201   21.1145 C   0  0  0  0  0  0
  -31.4469  -20.0917   20.8294 C   0  0  0  0  0  0
  -29.1191  -19.9006   21.4683 C   0  0  0  0  0  0
  -30.5731  -17.9209   21.6101 C   0  0  0  0  0  0
  -30.1885  -20.7129   21.0081 C   0  0  0  0  0  0
  -29.3025  -18.5303   21.7777 C   0  0  0  0  0  0
  -30.4639  -24.3979   20.6583 C   0  0  0  0  0  0
  -29.1993  -24.2042   20.2894 C   0  0  0  0  0  0
  -28.9188  -22.7749   20.3385 C   0  0  0  0  0  0
  -31.1346  -23.0865   20.9683 C   0  0  0  0  0  0
  -30.8966  -16.4880   22.0806 C   0  0  0  0  0  0
  -28.1353  -25.2082   19.8523 C   0  0  0  0  0  0
  -30.0355  -22.1316   20.7744 N   0  0  0  0  0  0
  -28.2211  -17.8159   22.2921 N   0  0  0  0  0  0
  -30.1910  -15.3576   21.4517 N   0  0  0  0  0  0
  -27.8542  -22.2362   20.0182 O   0  0  0  0  0  0
  -31.4618  -12.4165   19.1065 H   0  0  0  0  0  0
  -30.3214  -11.3070   19.8069 H   0  0  0  0  0  0
  -29.7286  -11.7961   17.4165 H   0  0  0  0  0  0
  -29.6514  -13.5051   17.7666 H   0  0  0  0  0  0
  -27.8297  -11.3124   18.8177 H   0  0  0  0  0  0
  -27.3567  -12.6385   17.7891 H   0  0  0  0  0  0
  -27.7045  -14.2586   19.5759 H   0  0  0  0  0  0
  -28.6817  -11.9582   21.3339 H   0  0  0  0  0  0
  -28.4530  -13.5912   21.8694 H   0  0  0  0  0  0
  -25.2753   -9.5689   22.4752 H   0  0  0  0  0  0
  -24.0002   -7.4632   22.7465 H   0  0  0  0  0  0
  -21.0839   -8.8761   19.8944 H   0  0  0  0  0  0
  -22.3688  -10.9663   19.6153 H   0  0  0  0  0  0
  -21.2005   -7.6143   23.9715 H   0  0  0  0  0  0
  -21.1486   -6.0518   25.9077 H   0  0  0  0  0  0
  -22.0597   -2.7606   23.2844 H   0  0  0  0  0  0
  -22.4113  -11.9877   22.4785 H   0  0  0  0  0  0
  -21.1115  -13.1244   22.2605 H   0  0  0  0  0  0
  -24.6744  -15.8507   20.5472 H   0  0  0  0  0  0
  -26.3056  -15.6347   20.1653 H   0  0  0  0  0  0
  -26.7143  -32.5533   23.1186 H   0  0  0  0  0  0
  -25.0088  -33.9798   25.0505 H   0  0  0  0  0  0
  -22.6950  -31.3158   21.4223 H   0  0  0  0  0  0
  -23.3744  -35.9644   23.3322 H   0  0  0  0  0  0
  -24.3582  -36.8904   22.2050 H   0  0  0  0  0  0
  -23.7228  -37.6523   23.6636 H   0  0  0  0  0  0
  -26.0641  -31.5948   20.6068 H   0  0  0  0  0  0
  -26.8265  -30.8728   21.9943 H   0  0  0  0  0  0
  -28.1008  -29.0618   21.1759 H   0  0  0  0  0  0
  -25.9623  -26.0153   18.9470 H   0  0  0  0  0  0
  -23.9553  -27.3438   19.0110 H   0  0  0  0  0  0
  -23.7269  -30.6245   19.4129 H   0  0  0  0  0  0
  -22.7354  -29.2696   19.8652 H   0  0  0  0  0  0
  -25.1281  -36.1991   25.0830 H   0  0  0  0  0  0
  -20.9965  -28.3228   24.1435 H   0  0  0  0  0  0
  -20.5682  -26.2276   23.3602 H   0  0  0  0  0  0
  -21.6635  -26.7460   22.1196 H   0  0  0  0  0  0
  -19.6893  -25.6307   21.1238 H   0  0  0  0  0  0
  -19.6672  -27.3218   20.6756 H   0  0  0  0  0  0
  -17.4190  -26.6702   21.4028 H   0  0  0  0  0  0
  -18.0307  -26.0071   22.9019 H   0  0  0  0  0  0
  -19.7927  -30.7268   24.2295 H   0  0  0  0  0  0
  -17.5012  -31.6278   24.5169 H   0  0  0  0  0  0
  -15.5350  -30.3015   23.7641 H   0  0  0  0  0  0
  -15.8661  -28.0837   22.7079 H   0  0  0  0  0  0
  -24.5915  -30.7066   25.7827 H   0  0  0  0  0  0
  -24.8937  -32.2871   26.4942 H   0  0  0  0  0  0
  -25.8093  -30.8882   27.0244 H   0  0  0  0  0  0
  -26.2861  -29.6818   24.1164 H   0  0  0  0  0  0
  -27.4066  -29.7270   25.4586 H   0  0  0  0  0  0
  -27.8707  -30.4372   23.9300 H   0  0  0  0  0  0
  -27.2686  -33.3613   26.2110 H   0  0  0  0  0  0
  -28.3856  -32.6894   25.0325 H   0  0  0  0  0  0
  -28.0743  -31.8428   26.5402 H   0  0  0  0  0  0
  -28.2614  -38.0097   24.7510 H   0  0  0  0  0  0
  -28.1054  -36.2633   24.6306 H   0  0  0  0  0  0
  -27.2300  -37.1484   25.8875 H   0  0  0  0  0  0
  -20.9313  -29.8792   21.6981 H   0  0  0  0  0  0
  -26.0185  -38.2877   24.1410 H   0  0  0  0  0  0
  -32.6125  -18.2898   20.9873 H   0  0  0  0  0  0
  -32.2964  -20.6607   20.4790 H   0  0  0  0  0  0
  -28.1477  -20.3434   21.6366 H   0  0  0  0  0  0
  -30.9702  -25.3509   20.7167 H   0  0  0  0  0  0
  -31.5064  -23.0671   21.9934 H   0  0  0  0  0  0
  -31.9579  -22.9111   20.2751 H   0  0  0  0  0  0
  -30.6703  -16.4455   23.1464 H   0  0  0  0  0  0
  -31.9750  -16.3287   22.0267 H   0  0  0  0  0  0
  -27.2293  -24.8808   20.3673 H   0  0  0  0  0  0
  -27.9812  -25.0704   18.7812 H   0  0  0  0  0  0
  -27.4185  -18.3363   22.6314 H   0  0  0  0  0  0
  -28.4062  -16.9878   22.8442 H   0  0  0  0  0  0
  -29.2701  -15.1438   21.8017 H   0  0  0  0  0  0
  1 25  1  0  0  0
  1 30  2  0  0  0
  1 85  1  0  0  0
  2  3  1  0  0  0
  2 25  1  0  0  0
  2 87  1  0  0  0
  2 88  1  0  0  0
  3  4  1  0  0  0
  3 89  1  0  0  0
  3 90  1  0  0  0
  4  5  1  0  0  0
  4 91  1  0  0  0
  4 92  1  0  0  0
  5  6  1  0  0  0
  5 26  1  0  0  0
  5 93  1  0  0  0
  6 25  1  0  0  0
  6 94  1  0  0  0
  6 95  1  0  0  0
  7  8  2  0  0  0
  7 26  1  0  0  0
  7 29  1  0  0  0
  8  9  1  0  0  0
  8 22  1  0  0  0
  9 10  1  0  0  0
  9 27  2  0  0  0
 10 11  2  0  0  0
 10 15  1  0  0  0
 11 12  1  0  0  0
 11 96  1  0  0  0
 12 13  2  0  0  0
 12 97  1  0  0  0
 13 14  1  0  0  0
 13 31  1  0  0  0
 14 15  2  0  0  0
 14 98  1  0  0  0
 15 99  1  0  0  0
 16 17  2  0  0  0
 16 21  1  0  0  0
 16 31  1  0  0  0
 17 18  1  0  0  0
 17100  1  0  0  0
 18 19  2  0  0  0
 18101  1  0  0  0
 19 20  1  0  0  0
 19 24  1  0  0  0
 20 21  2  0  0  0
 20102  1  0  0  0
 21 23  1  0  0  0
 22 28  1  0  0  0
 22 32  2  0  0  0
 26 27  1  0  0  0
 28103  1  0  0  0
 28104  1  0  0  0
 29105  1  0  0  0
 29106  1  0  0  0
 33 34  1  0  0  0
 33 66  1  0  0  0
 33 70  2  0  0  0
 34 36  1  0  0  0
 34 59  1  0  0  0
 34107  1  0  0  0
 35 44  2  0  0  0
 35 45  1  0  0  0
 35 68  1  0  0  0
 36 56  1  0  0  0
 36108  1  0  0  0
 37 39  1  0  0  0
 37 47  1  0  0  0
 37 66  1  0  0  0
 37109  1  0  0  0
 38 43  2  0  0  0
 38 46  1  0  0  0
 38 47  1  0  0  0
 39 64  1  0  0  0
 39 67  2  0  0  0
 40 52  1  0  0  0
 40 53  2  0  0  0
 40 58  1  0  0  0
 41110  1  0  0  0
 41111  1  0  0  0
 41112  1  0  0  0
 41 48  1  0  0  0
 42 43  1  0  0  0
 42 66  1  0  0  0
 42113  1  0  0  0
 42114  1  0  0  0
 43 44  1  0  0  0
 44115  1  0  0  0
 45 46  2  0  0  0
 45116  1  0  0  0
 46117  1  0  0  0
 47118  1  0  0  0
 47119  1  0  0  0
 48 56  1  0  0  0
 48 65  1  0  0  0
 48120  1  0  0  0
 49 50  1  0  0  0
 49 53  1  0  0  0
 49 64  1  0  0  0
 49121  1  0  0  0
 50 51  1  0  0  0
 50122  1  0  0  0
 50123  1  0  0  0
 51 52  1  0  0  0
 51124  1  0  0  0
 51125  1  0  0  0
 52126  1  0  0  0
 52127  1  0  0  0
 53 54  1  0  0  0
 54 55  2  0  0  0
 54128  1  0  0  0
 55 57  1  0  0  0
 55129  1  0  0  0
 56 69  2  0  0  0
 57 58  2  0  0  0
 57130  1  0  0  0
 58131  1  0  0  0
 59 60  1  0  0  0
 59 61  1  0  0  0
 59 62  1  0  0  0
 60132  1  0  0  0
 60133  1  0  0  0
 60134  1  0  0  0
 61135  1  0  0  0
 61136  1  0  0  0
 61137  1  0  0  0
 62138  1  0  0  0
 62139  1  0  0  0
 62140  1  0  0  0
 63 65  1  0  0  0
 63141  1  0  0  0
 63142  1  0  0  0
 63143  1  0  0  0
 64144  1  0  0  0
 65145  1  0  0  0
 68 82  1  0  0  0
 71 72  2  0  0  0
 71 74  1  0  0  0
 71146  1  0  0  0
 72 75  1  0  0  0
 72147  1  0  0  0
 73 75  2  0  0  0
 73 76  1  0  0  0
 73148  1  0  0  0
 74 76  2  0  0  0
 74 81  1  0  0  0
 75 83  1  0  0  0
 76 84  1  0  0  0
 77 78  2  0  0  0
 77 80  1  0  0  0
 77149  1  0  0  0
 78 79  1  0  0  0
 78 82  1  0  0  0
 79 83  1  0  0  0
 79 86  2  0  0  0
 80 83  1  0  0  0
 80150  1  0  0  0
 80151  1  0  0  0
 81 85  1  0  0  0
 81152  1  0  0  0
 81153  1  0  0  0
 82154  1  0  0  0
 82155  1  0  0  0
 84156  1  0  0  0
 84157  1  0  0  0
 85158  1  0  0  0
M  ISO  4   1 100  68 101  82 101  85 100
M  END
> <chiral flag>
0

> <version>
0

> <s_m_source_file>
/data/baiqing/PycharmProjects/Reinvent-master-3.2/result/LINK_invent/BTK/process_docking_weight1_custom_product_contain_oxygen_bond_distance_aromatic_linkinvent_7_9_3/rearranged_h_0082.sdf

> <i_m_source_file_index>
52

> <r_mmod_Potential_Energy-OPLS-2005>
13.4240169525146

> <r_mmod_Stretch_Energy-OPLS-2005>
44.9799652099609

> <r_mmod_Bend_Energy-OPLS-2005>
155.044479370117

> <r_mmod_Torsional_Energy-OPLS-2005>
231.546005249023

> <r_mmod_Improper_Torsional_Energy-OPLS-2005>
5.73924016952515

> <r_mmod_Van_der_Waal_Energy-OPLS-2005>
162.432876586914

> <r_mmod_Electrostatic_Energy-OPLS-2005>
-376.550506591797

> <r_mmod_Solvation_Energy-OPLS-2005>
-224.951080322266

> <b_mmod_Minimization_Converged-OPLS-2005>
0

> <r_mmod_RMS_Derivative-OPLS-2005>
0.918940782546997

$$$$
52
                    3D
 Structure written by MMmdl.
147155  0  0  1  0            999 V2000
  -30.5205  -14.8058   20.4678 C   0  0  0  0  0  0
  -30.4582  -12.4945   19.4666 C   0  0  0  0  0  0
  -29.5220  -12.5320   18.2345 C   0  0  0  0  0  0
  -28.0470  -12.3360   18.6456 C   0  0  0  0  0  0
  -27.6481  -13.2209   19.8555 C   0  0  2  0  0  0
  -28.6950  -13.1194   20.9882 C   0  0  0  0  0  0
  -25.2553  -13.8159   20.5701 C   0  0  0  0  0  0
  -24.1827  -13.0428   20.9211 C   0  0  0  0  0  0
  -24.6393  -11.6898   20.8737 C   0  0  0  0  0  0
  -23.9057  -10.4286   21.0402 C   0  0  0  0  0  0
  -24.3604   -9.4205   21.9183 C   0  0  0  0  0  0
  -23.6281   -8.2239   22.0757 C   0  0  0  0  0  0
  -22.4263   -8.0277   21.3551 C   0  0  0  0  0  0
  -21.9895   -9.0252   20.4655 C   0  0  0  0  0  0
  -22.7224  -10.2131   20.3059 C   0  0  0  0  0  0
  -21.6851   -6.0729   22.5279 C   0  0  0  0  0  0
  -21.4017   -6.5634   23.8211 C   0  0  0  0  0  0
  -21.3660   -5.6788   24.9174 C   0  0  0  0  0  0
  -21.6041   -4.3049   24.7225 C   0  0  0  0  0  0
  -21.8817   -3.8142   23.4344 C   0  0  0  0  0  0
  -21.9194   -4.6959   22.3403 C   0  0  0  0  0  0
  -22.7852  -13.5238   21.1871 C   0  0  0  0  0  0
  -22.1662   -4.2146   21.0979 F   0  0  0  0  0  0
  -21.5633   -3.4526   25.7735 F   0  0  0  0  0  0
  -29.9935  -13.5275   20.4228 N   0  0  0  0  0  0
  -26.2960  -12.9334   20.3258 N   0  0  0  0  0  0
  -25.9316  -11.6488   20.5705 N   0  0  0  0  0  0
  -22.0476  -12.8243   22.0417 N   0  0  0  0  0  0
  -25.4268  -15.1877   20.4105 N   0  0  0  0  0  0
  -31.6844  -15.0079   20.1031 O   0  0  0  0  0  0
  -21.6638   -6.8868   21.4239 O   0  0  0  0  0  0
  -22.3545  -14.5539   20.6707 O   0  0  0  0  0  0
  -24.6362  -31.8518   23.1966 C   0  0  0  0  0  0
  -25.9168  -32.4743   23.8324 C   0  0  1  0  0  0
  -27.2184  -27.2222   20.1244 C   0  0  0  0  0  0
  -25.5936  -33.8545   24.2240 N   0  0  0  0  0  0
  -23.4349  -30.4762   21.5406 C   0  0  2  0  0  0
  -24.8818  -28.9194   20.1109 C   0  0  0  0  0  0
  -22.7527  -29.4595   22.4887 C   0  0  0  0  0  0
  -18.0299  -28.1392   22.8480 C   0  0  0  0  0  0
  -24.1495  -36.7281   23.2640 C   0  0  0  0  0  0
  -25.9857  -30.7524   21.3841 C   0  0  0  0  0  0
  -26.0573  -29.3727   20.7220 C   0  0  0  0  0  0
  -27.2276  -28.5381   20.7161 C   0  0  0  0  0  0
  -26.0135  -26.8498   19.4838 C   0  0  0  0  0  0
  -24.8675  -27.6683   19.4803 C   0  0  0  0  0  0
  -23.6559  -29.8130   20.1565 C   0  0  0  0  0  0
  -25.4124  -36.3065   24.0322 C   0  0  1  0  0  0
  -20.5907  -28.3715   23.1252 C   0  0  2  0  0  0
  -20.6790  -26.9431   22.5402 C   0  0  0  0  0  0
  -19.5760  -26.6388   21.5213 C   0  0  0  0  0  0
  -18.1941  -26.7930   22.1628 C   0  0  0  0  0  0
  -19.1552  -28.8872   23.2860 C   0  0  0  0  0  0
  -18.9468  -30.1464   23.8893 C   0  0  0  0  0  0
  -17.6465  -30.6594   24.0560 C   0  0  0  0  0  0
  -25.9060  -34.9432   23.5088 C   0  0  0  0  0  0
  -16.5358  -29.9089   23.6332 C   0  0  0  0  0  0
  -16.7281  -28.6506   23.0358 C   0  0  0  0  0  0
  -26.4512  -31.6578   25.0731 C   0  0  0  0  0  0
  -25.3720  -31.3746   26.1443 C   0  0  0  0  0  0
  -27.0356  -30.2982   24.6260 C   0  0  0  0  0  0
  -27.6067  -32.4318   25.7504 C   0  0  0  0  0  0
  -27.5580  -37.1802   24.8467 C   0  0  0  0  0  0
  -21.4229  -29.3060   22.3641 N   0  0  0  0  0  0
  -26.4299  -37.3764   23.9402 N   0  0  0  0  0  0
  -24.7049  -31.0450   22.0969 N   0  0  0  0  0  0
  -23.4211  -28.8135   23.3002 O   0  0  0  0  0  0
  -28.2983  -26.2921   20.1769 O   0  0  0  0  0  0
  -26.5633  -34.8915   22.4663 O   0  0  0  0  0  0
  -23.5496  -32.1358   23.7225 O   0  0  0  0  0  0
  -30.1336  -18.4840   20.3547 C   0  0  0  0  0  0
  -28.0851  -17.6727   21.0947 C   0  0  0  0  0  0
  -29.3524  -17.2814   20.7239 C   0  0  0  0  0  0
  -29.4488  -19.7320   20.4604 C   0  0  0  0  0  0
  -29.8498  -21.2424   20.3043 C   0  0  0  0  0  0
  -29.1828  -23.7105   20.2383 C   0  0  0  0  0  0
  -28.0081  -24.8005   20.0169 C   0  0  0  0  0  0
  -29.6107  -15.8035   20.8149 N   0  0  0  0  0  0
  -28.9514  -22.3208   20.2584 N   0  0  0  0  0  0
  -31.0658  -21.4344   20.2082 O   0  0  0  0  0  0
  -30.3187  -24.1781   20.3799 O   0  0  0  0  0  0
  -27.8195  -19.4090   20.9996 S   0  0  0  0  0  0
  -31.4927  -12.6645   19.1624 H   0  0  0  0  0  0
  -30.4414  -11.5086   19.9332 H   0  0  0  0  0  0
  -29.8156  -11.7692   17.5122 H   0  0  0  0  0  0
  -29.6298  -13.4921   17.7254 H   0  0  0  0  0  0
  -27.9104  -11.2840   18.9018 H   0  0  0  0  0  0
  -27.3870  -12.5304   17.7990 H   0  0  0  0  0  0
  -27.6480  -14.2483   19.4892 H   0  0  0  0  0  0
  -28.7473  -12.1012   21.3744 H   0  0  0  0  0  0
  -28.4109  -13.7381   21.8419 H   0  0  0  0  0  0
  -25.2749   -9.5690   22.4752 H   0  0  0  0  0  0
  -24.0001   -7.4628   22.7468 H   0  0  0  0  0  0
  -21.0828   -8.8765   19.8952 H   0  0  0  0  0  0
  -22.3676  -10.9672   19.6162 H   0  0  0  0  0  0
  -21.2010   -7.6140   23.9714 H   0  0  0  0  0  0
  -21.1487   -6.0517   25.9081 H   0  0  0  0  0  0
  -22.0596   -2.7600   23.2840 H   0  0  0  0  0  0
  -22.4063  -11.9912   22.4832 H   0  0  0  0  0  0
  -21.1090  -13.1288   22.2591 H   0  0  0  0  0  0
  -24.6473  -15.8307   20.5000 H   0  0  0  0  0  0
  -26.2348  -15.6052   19.9678 H   0  0  0  0  0  0
  -26.7235  -32.5378   23.1059 H   0  0  0  0  0  0
  -25.0075  -33.9676   25.0381 H   0  0  0  0  0  0
  -22.7343  -31.3010   21.3944 H   0  0  0  0  0  0
  -23.3749  -35.9622   23.3319 H   0  0  0  0  0  0
  -24.3577  -36.8890   22.2050 H   0  0  0  0  0  0
  -23.7260  -37.6493   23.6657 H   0  0  0  0  0  0
  -26.1315  -31.5140   20.6167 H   0  0  0  0  0  0
  -26.8599  -30.7983   22.0219 H   0  0  0  0  0  0
  -28.1257  -28.8798   21.2112 H   0  0  0  0  0  0
  -25.9166  -25.8985   18.9845 H   0  0  0  0  0  0
  -23.9681  -27.3193   18.9919 H   0  0  0  0  0  0
  -23.7886  -30.5913   19.4036 H   0  0  0  0  0  0
  -22.7717  -29.2526   19.8471 H   0  0  0  0  0  0
  -25.1311  -36.1911   25.0812 H   0  0  0  0  0  0
  -20.9993  -28.3296   24.1372 H   0  0  0  0  0  0
  -20.5702  -26.2328   23.3610 H   0  0  0  0  0  0
  -21.6657  -26.7457   22.1190 H   0  0  0  0  0  0
  -19.6926  -25.6293   21.1264 H   0  0  0  0  0  0
  -19.6690  -27.3186   20.6732 H   0  0  0  0  0  0
  -17.4206  -26.6657   21.4035 H   0  0  0  0  0  0
  -18.0355  -26.0080   22.9037 H   0  0  0  0  0  0
  -19.7942  -30.7279   24.2264 H   0  0  0  0  0  0
  -17.5022  -31.6277   24.5155 H   0  0  0  0  0  0
  -15.5358  -30.2993   23.7657 H   0  0  0  0  0  0
  -15.8679  -28.0823   22.7079 H   0  0  0  0  0  0
  -24.5864  -30.7146   25.7749 H   0  0  0  0  0  0
  -24.8949  -32.2923   26.4888 H   0  0  0  0  0  0
  -25.8003  -30.8878   27.0212 H   0  0  0  0  0  0
  -26.2946  -29.6723   24.1275 H   0  0  0  0  0  0
  -27.3996  -29.7265   25.4806 H   0  0  0  0  0  0
  -27.8854  -30.4230   23.9547 H   0  0  0  0  0  0
  -27.2688  -33.3635   26.2057 H   0  0  0  0  0  0
  -28.3894  -32.6845   25.0337 H   0  0  0  0  0  0
  -28.0728  -31.8455   26.5438 H   0  0  0  0  0  0
  -28.2607  -38.0087   24.7494 H   0  0  0  0  0  0
  -28.1062  -36.2614   24.6325 H   0  0  0  0  0  0
  -27.2288  -37.1500   25.8868 H   0  0  0  0  0  0
  -20.9425  -29.8773   21.6832 H   0  0  0  0  0  0
  -26.0175  -38.2844   24.1374 H   0  0  0  0  0  0
  -31.1688  -18.4071   20.0513 H   0  0  0  0  0  0
  -27.2632  -17.0550   21.4398 H   0  0  0  0  0  0
  -27.1839  -24.5298   20.6764 H   0  0  0  0  0  0
  -27.6653  -24.6299   18.9964 H   0  0  0  0  0  0
  -28.7878  -15.3220   21.1413 H   0  0  0  0  0  0
  -27.9811  -22.0517   20.2270 H   0  0  0  0  0  0
  1 25  1  0  0  0
  1 30  2  0  0  0
  1 78  1  0  0  0
  2  3  1  0  0  0
  2 25  1  0  0  0
  2 83  1  0  0  0
  2 84  1  0  0  0
  3  4  1  0  0  0
  3 85  1  0  0  0
  3 86  1  0  0  0
  4  5  1  0  0  0
  4 87  1  0  0  0
  4 88  1  0  0  0
  5  6  1  0  0  0
  5 26  1  0  0  0
  5 89  1  0  0  0
  6 25  1  0  0  0
  6 90  1  0  0  0
  6 91  1  0  0  0
  7  8  2  0  0  0
  7 26  1  0  0  0
  7 29  1  0  0  0
  8  9  1  0  0  0
  8 22  1  0  0  0
  9 10  1  0  0  0
  9 27  2  0  0  0
 10 11  2  0  0  0
 10 15  1  0  0  0
 11 12  1  0  0  0
 11 92  1  0  0  0
 12 13  2  0  0  0
 12 93  1  0  0  0
 13 14  1  0  0  0
 13 31  1  0  0  0
 14 15  2  0  0  0
 14 94  1  0  0  0
 15 95  1  0  0  0
 16 17  2  0  0  0
 16 21  1  0  0  0
 16 31  1  0  0  0
 17 18  1  0  0  0
 17 96  1  0  0  0
 18 19  2  0  0  0
 18 97  1  0  0  0
 19 20  1  0  0  0
 19 24  1  0  0  0
 20 21  2  0  0  0
 20 98  1  0  0  0
 21 23  1  0  0  0
 22 28  1  0  0  0
 22 32  2  0  0  0
 26 27  1  0  0  0
 28 99  1  0  0  0
 28100  1  0  0  0
 29101  1  0  0  0
 29102  1  0  0  0
 33 34  1  0  0  0
 33 66  1  0  0  0
 33 70  2  0  0  0
 34 36  1  0  0  0
 34 59  1  0  0  0
 34103  1  0  0  0
 35 44  2  0  0  0
 35 45  1  0  0  0
 35 68  1  0  0  0
 36 56  1  0  0  0
 36104  1  0  0  0
 37 39  1  0  0  0
 37 47  1  0  0  0
 37 66  1  0  0  0
 37105  1  0  0  0
 38 43  2  0  0  0
 38 46  1  0  0  0
 38 47  1  0  0  0
 39 64  1  0  0  0
 39 67  2  0  0  0
 40 52  1  0  0  0
 40 53  2  0  0  0
 40 58  1  0  0  0
 41106  1  0  0  0
 41107  1  0  0  0
 41108  1  0  0  0
 41 48  1  0  0  0
 42 43  1  0  0  0
 42 66  1  0  0  0
 42109  1  0  0  0
 42110  1  0  0  0
 43 44  1  0  0  0
 44111  1  0  0  0
 45 46  2  0  0  0
 45112  1  0  0  0
 46113  1  0  0  0
 47114  1  0  0  0
 47115  1  0  0  0
 48 56  1  0  0  0
 48 65  1  0  0  0
 48116  1  0  0  0
 49 50  1  0  0  0
 49 53  1  0  0  0
 49 64  1  0  0  0
 49117  1  0  0  0
 50 51  1  0  0  0
 50118  1  0  0  0
 50119  1  0  0  0
 51 52  1  0  0  0
 51120  1  0  0  0
 51121  1  0  0  0
 52122  1  0  0  0
 52123  1  0  0  0
 53 54  1  0  0  0
 54 55  2  0  0  0
 54124  1  0  0  0
 55 57  1  0  0  0
 55125  1  0  0  0
 56 69  2  0  0  0
 57 58  2  0  0  0
 57126  1  0  0  0
 58127  1  0  0  0
 59 60  1  0  0  0
 59 61  1  0  0  0
 59 62  1  0  0  0
 60128  1  0  0  0
 60129  1  0  0  0
 60130  1  0  0  0
 61131  1  0  0  0
 61132  1  0  0  0
 61133  1  0  0  0
 62134  1  0  0  0
 62135  1  0  0  0
 62136  1  0  0  0
 63 65  1  0  0  0
 63137  1  0  0  0
 63138  1  0  0  0
 63139  1  0  0  0
 64140  1  0  0  0
 65141  1  0  0  0
 68 77  1  0  0  0
 71 73  1  0  0  0
 71 74  2  0  0  0
 71142  1  0  0  0
 72 73  2  0  0  0
 72 82  1  0  0  0
 72143  1  0  0  0
 73 78  1  0  0  0
 74 75  1  0  0  0
 74 82  1  0  0  0
 75 79  1  0  0  0
 75 80  2  0  0  0
 76 77  1  0  0  0
 76 79  1  0  0  0
 76 81  2  0  0  0
 77144  1  0  0  0
 77145  1  0  0  0
 78146  1  0  0  0
 79147  1  0  0  0
M  ISO  4   1 100  68 101  77 101  78 100
M  END
> <chiral flag>
0

> <version>
0

> <s_m_source_file>
/data/baiqing/PycharmProjects/Reinvent-master-3.2/result/LINK_invent/BTK/process_docking_weight1_custom_product_contain_oxygen_bond_distance_aromatic_linkinvent_7_9_3/rearranged_h_0082.sdf

> <i_m_source_file_index>
53

> <r_mmod_Potential_Energy-OPLS-2005>
111.175140380859

> <r_mmod_Stretch_Energy-OPLS-2005>
151.003356933594

> <r_mmod_Bend_Energy-OPLS-2005>
227.248489379883

> <r_mmod_Torsional_Energy-OPLS-2005>
230.074447631836

> <r_mmod_Improper_Torsional_Energy-OPLS-2005>
4.29958248138428

> <r_mmod_Van_der_Waal_Energy-OPLS-2005>
119.96989440918

> <r_mmod_Electrostatic_Energy-OPLS-2005>
-437.215454101562

> <r_mmod_Solvation_Energy-OPLS-2005>
-299.203918457031

> <b_mmod_Minimization_Converged-OPLS-2005>
0

> <r_mmod_RMS_Derivative-OPLS-2005>
1.66864466667175

$$$$
53
                    3D
 Structure written by MMmdl.
153162  0  0  1  0            999 V2000
  -30.6195  -14.7437   20.5594 C   0  0  0  0  0  0
  -30.4408  -12.4777   19.4717 C   0  0  0  0  0  0
  -29.5139  -12.5324   18.2360 C   0  0  0  0  0  0
  -28.0401  -12.3423   18.6431 C   0  0  0  0  0  0
  -27.6465  -13.2264   19.8533 C   0  0  2  0  0  0
  -28.6836  -13.1139   20.9863 C   0  0  0  0  0  0
  -25.2537  -13.8187   20.5684 C   0  0  0  0  0  0
  -24.1816  -13.0439   20.9184 C   0  0  0  0  0  0
  -24.6396  -11.6914   20.8722 C   0  0  0  0  0  0
  -23.9069  -10.4293   21.0398 C   0  0  0  0  0  0
  -24.3620   -9.4210   21.9178 C   0  0  0  0  0  0
  -23.6295   -8.2245   22.0751 C   0  0  0  0  0  0
  -22.4275   -8.0281   21.3543 C   0  0  0  0  0  0
  -21.9910   -9.0255   20.4645 C   0  0  0  0  0  0
  -22.7239  -10.2134   20.3052 C   0  0  0  0  0  0
  -21.6854   -6.0735   22.5279 C   0  0  0  0  0  0
  -21.4015   -6.5639   23.8212 C   0  0  0  0  0  0
  -21.3660   -5.6793   24.9174 C   0  0  0  0  0  0
  -21.6044   -4.3056   24.7224 C   0  0  0  0  0  0
  -21.8820   -3.8146   23.4346 C   0  0  0  0  0  0
  -21.9193   -4.6963   22.3404 C   0  0  0  0  0  0
  -22.7838  -13.5225   21.1860 C   0  0  0  0  0  0
  -22.1661   -4.2149   21.0982 F   0  0  0  0  0  0
  -21.5628   -3.4541   25.7736 F   0  0  0  0  0  0
  -29.9936  -13.5115   20.4406 N   0  0  0  0  0  0
  -26.2952  -12.9379   20.3252 N   0  0  0  0  0  0
  -25.9321  -11.6525   20.5709 N   0  0  0  0  0  0
  -22.0490  -12.8214   22.0423 N   0  0  0  0  0  0
  -25.4258  -15.1913   20.4153 N   0  0  0  0  0  0
  -31.7269  -14.9086   20.0352 O   0  0  0  0  0  0
  -21.6640   -6.8878   21.4240 O   0  0  0  0  0  0
  -22.3516  -14.5530   20.6709 O   0  0  0  0  0  0
  -24.6327  -31.8543   23.1978 C   0  0  0  0  0  0
  -25.9146  -32.4751   23.8330 C   0  0  1  0  0  0
  -27.2220  -27.2556   20.1293 C   0  0  0  0  0  0
  -25.5936  -33.8553   24.2252 N   0  0  0  0  0  0
  -23.4312  -30.4762   21.5410 C   0  0  2  0  0  0
  -24.8821  -28.9238   20.1088 C   0  0  0  0  0  0
  -22.7517  -29.4592   22.4903 C   0  0  0  0  0  0
  -18.0296  -28.1383   22.8483 C   0  0  0  0  0  0
  -24.1491  -36.7281   23.2638 C   0  0  0  0  0  0
  -25.9788  -30.7641   21.3812 C   0  0  0  0  0  0
  -26.0547  -29.3862   20.7226 C   0  0  0  0  0  0
  -27.2305  -28.5638   20.7249 C   0  0  0  0  0  0
  -26.0309  -26.8672   19.4802 C   0  0  0  0  0  0
  -24.8753  -27.6717   19.4759 C   0  0  0  0  0  0
  -23.6521  -29.8110   20.1573 C   0  0  0  0  0  0
  -25.4117  -36.3067   24.0326 C   0  0  1  0  0  0
  -20.5903  -28.3698   23.1261 C   0  0  2  0  0  0
  -20.6784  -26.9413   22.5404 C   0  0  0  0  0  0
  -19.5756  -26.6380   21.5211 C   0  0  0  0  0  0
  -18.1939  -26.7923   22.1628 C   0  0  0  0  0  0
  -19.1551  -28.8858   23.2866 C   0  0  0  0  0  0
  -18.9471  -30.1459   23.8884 C   0  0  0  0  0  0
  -17.6469  -30.6584   24.0560 C   0  0  0  0  0  0
  -25.9060  -34.9438   23.5092 C   0  0  0  0  0  0
  -16.5360  -29.9079   23.6331 C   0  0  0  0  0  0
  -16.7283  -28.6497   23.0353 C   0  0  0  0  0  0
  -26.4508  -31.6578   25.0723 C   0  0  0  0  0  0
  -25.3725  -31.3736   26.1438 C   0  0  0  0  0  0
  -27.0359  -30.2991   24.6223 C   0  0  0  0  0  0
  -27.6056  -32.4324   25.7498 C   0  0  0  0  0  0
  -27.5581  -37.1793   24.8464 C   0  0  0  0  0  0
  -21.4221  -29.3042   22.3647 N   0  0  0  0  0  0
  -26.4289  -37.3769   23.9412 N   0  0  0  0  0  0
  -24.6998  -31.0495   22.0962 N   0  0  0  0  0  0
  -23.4209  -28.8133   23.3009 O   0  0  0  0  0  0
  -28.2678  -26.3005   20.1734 O   0  0  0  0  0  0
  -26.5635  -34.8916   22.4664 O   0  0  0  0  0  0
  -23.5472  -32.1370   23.7261 O   0  0  0  0  0  0
  -28.4685  -19.3273   21.5076 C   0  0  0  0  0  0
  -30.1320  -19.4708   19.8643 C   0  0  0  0  0  0
  -28.7247  -17.9284   21.6594 C   0  0  0  0  0  0
  -30.4007  -18.0502   19.9968 C   0  0  0  0  0  0
  -29.1584  -20.2093   20.6241 C   0  0  0  0  0  0
  -29.7198  -17.2103   20.9337 C   0  0  0  0  0  0
  -28.4015  -23.7095   20.5763 C   0  0  0  0  0  0
  -27.8937  -22.5196   21.2548 C   0  0  0  0  0  0
  -27.9348  -25.0209   20.7181 C   0  0  0  0  0  0
  -29.4405  -22.7979   19.8481 C   0  0  0  0  0  0
  -29.9502  -15.5070   22.7308 C   0  0  0  0  0  0
  -28.8072  -21.6668   20.5966 N   0  0  0  0  0  0
  -30.0022  -15.7716   21.2808 N   0  0  0  0  0  0
  -27.0129  -22.3954   22.0807 O   0  0  0  0  0  0
  -31.4781  -12.6207   19.1652 H   0  0  0  0  0  0
  -30.4073  -11.4893   19.9329 H   0  0  0  0  0  0
  -29.8031  -11.7687   17.5130 H   0  0  0  0  0  0
  -29.6325  -13.4924   17.7314 H   0  0  0  0  0  0
  -27.8999  -11.2903   18.8950 H   0  0  0  0  0  0
  -27.3824  -12.5419   17.7964 H   0  0  0  0  0  0
  -27.6555  -14.2578   19.4998 H   0  0  0  0  0  0
  -28.7261  -12.0939   21.3715 H   0  0  0  0  0  0
  -28.3643  -13.7257   21.8246 H   0  0  0  0  0  0
  -25.2766   -9.5687   22.4751 H   0  0  0  0  0  0
  -24.0004   -7.4639   22.7472 H   0  0  0  0  0  0
  -21.0839   -8.8773   19.8954 H   0  0  0  0  0  0
  -22.3694  -10.9671   19.6160 H   0  0  0  0  0  0
  -21.2010   -7.6146   23.9716 H   0  0  0  0  0  0
  -21.1482   -6.0522   25.9077 H   0  0  0  0  0  0
  -22.0599   -2.7607   23.2847 H   0  0  0  0  0  0
  -22.4109  -11.9874   22.4804 H   0  0  0  0  0  0
  -21.1110  -13.1238   22.2639 H   0  0  0  0  0  0
  -24.6657  -15.8508   20.5409 H   0  0  0  0  0  0
  -26.2887  -15.6321   20.1215 H   0  0  0  0  0  0
  -26.7211  -32.5402   23.1070 H   0  0  0  0  0  0
  -25.0069  -33.9688   25.0388 H   0  0  0  0  0  0
  -22.7279  -31.2986   21.3942 H   0  0  0  0  0  0
  -23.3757  -35.9609   23.3294 H   0  0  0  0  0  0
  -24.3581  -36.8911   22.2054 H   0  0  0  0  0  0
  -23.7242  -37.6477   23.6670 H   0  0  0  0  0  0
  -26.1204  -31.5252   20.6127 H   0  0  0  0  0  0
  -26.8546  -30.8123   22.0167 H   0  0  0  0  0  0
  -28.1255  -28.9072   21.2246 H   0  0  0  0  0  0
  -25.9818  -25.9012   18.9978 H   0  0  0  0  0  0
  -23.9792  -27.3124   18.9890 H   0  0  0  0  0  0
  -23.7774  -30.5885   19.4029 H   0  0  0  0  0  0
  -22.7703  -29.2458   19.8502 H   0  0  0  0  0  0
  -25.1300  -36.1908   25.0818 H   0  0  0  0  0  0
  -20.9996  -28.3276   24.1383 H   0  0  0  0  0  0
  -20.5684  -26.2308   23.3609 H   0  0  0  0  0  0
  -21.6651  -26.7430   22.1198 H   0  0  0  0  0  0
  -19.6918  -25.6290   21.1243 H   0  0  0  0  0  0
  -19.6689  -27.3189   20.6739 H   0  0  0  0  0  0
  -17.4205  -26.6663   21.4036 H   0  0  0  0  0  0
  -18.0347  -26.0067   22.9029 H   0  0  0  0  0  0
  -19.7948  -30.7280   24.2246 H   0  0  0  0  0  0
  -17.5022  -31.6264   24.5164 H   0  0  0  0  0  0
  -15.5360  -30.2977   23.7660 H   0  0  0  0  0  0
  -15.8684  -28.0812   22.7073 H   0  0  0  0  0  0
  -24.5888  -30.7103   25.7761 H   0  0  0  0  0  0
  -24.8932  -32.2911   26.4862 H   0  0  0  0  0  0
  -25.8029  -30.8903   27.0216 H   0  0  0  0  0  0
  -26.2948  -29.6730   24.1237 H   0  0  0  0  0  0
  -27.4024  -29.7263   25.4751 H   0  0  0  0  0  0
  -27.8836  -30.4261   23.9485 H   0  0  0  0  0  0
  -27.2659  -33.3630   26.2059 H   0  0  0  0  0  0
  -28.3874  -32.6875   25.0332 H   0  0  0  0  0  0
  -28.0715  -31.8459   26.5427 H   0  0  0  0  0  0
  -28.2589  -38.0101   24.7526 H   0  0  0  0  0  0
  -28.1088  -36.2633   24.6273 H   0  0  0  0  0  0
  -27.2300  -37.1417   25.8867 H   0  0  0  0  0  0
  -20.9410  -29.8762   21.6848 H   0  0  0  0  0  0
  -26.0166  -38.2841   24.1421 H   0  0  0  0  0  0
  -27.6919  -19.7412   22.1349 H   0  0  0  0  0  0
  -30.7223  -20.0183   19.1435 H   0  0  0  0  0  0
  -28.1218  -17.4076   22.3882 H   0  0  0  0  0  0
  -31.1835  -17.6205   19.3877 H   0  0  0  0  0  0
  -27.1164  -25.1499   21.4147 H   0  0  0  0  0  0
  -30.4911  -22.9215   20.1160 H   0  0  0  0  0  0
  -29.3364  -22.6764   18.7687 H   0  0  0  0  0  0
  -28.9233  -15.4721   23.0945 H   0  0  0  0  0  0
  -30.4678  -16.2979   23.2757 H   0  0  0  0  0  0
  -30.4264  -14.5691   23.0272 H   0  0  0  0  0  0
  1 25  1  0  0  0
  1 30  2  0  0  0
  1 83  1  0  0  0
  2  3  1  0  0  0
  2 25  1  0  0  0
  2 85  1  0  0  0
  2 86  1  0  0  0
  3  4  1  0  0  0
  3 87  1  0  0  0
  3 88  1  0  0  0
  4  5  1  0  0  0
  4 89  1  0  0  0
  4 90  1  0  0  0
  5  6  1  0  0  0
  5 26  1  0  0  0
  5 91  1  0  0  0
  6 25  1  0  0  0
  6 92  1  0  0  0
  6 93  1  0  0  0
  7  8  2  0  0  0
  7 26  1  0  0  0
  7 29  1  0  0  0
  8  9  1  0  0  0
  8 22  1  0  0  0
  9 10  1  0  0  0
  9 27  2  0  0  0
 10 11  2  0  0  0
 10 15  1  0  0  0
 11 12  1  0  0  0
 11 94  1  0  0  0
 12 13  2  0  0  0
 12 95  1  0  0  0
 13 14  1  0  0  0
 13 31  1  0  0  0
 14 15  2  0  0  0
 14 96  1  0  0  0
 15 97  1  0  0  0
 16 17  2  0  0  0
 16 21  1  0  0  0
 16 31  1  0  0  0
 17 18  1  0  0  0
 17 98  1  0  0  0
 18 19  2  0  0  0
 18 99  1  0  0  0
 19 20  1  0  0  0
 19 24  1  0  0  0
 20 21  2  0  0  0
 20100  1  0  0  0
 21 23  1  0  0  0
 22 28  1  0  0  0
 22 32  2  0  0  0
 26 27  1  0  0  0
 28101  1  0  0  0
 28102  1  0  0  0
 29103  1  0  0  0
 29104  1  0  0  0
 33 34  1  0  0  0
 33 66  1  0  0  0
 33 70  2  0  0  0
 34 36  1  0  0  0
 34 59  1  0  0  0
 34105  1  0  0  0
 35 44  2  0  0  0
 35 45  1  0  0  0
 35 68  1  0  0  0
 36 56  1  0  0  0
 36106  1  0  0  0
 37 39  1  0  0  0
 37 47  1  0  0  0
 37 66  1  0  0  0
 37107  1  0  0  0
 38 43  2  0  0  0
 38 46  1  0  0  0
 38 47  1  0  0  0
 39 64  1  0  0  0
 39 67  2  0  0  0
 40 52  1  0  0  0
 40 53  2  0  0  0
 40 58  1  0  0  0
 41108  1  0  0  0
 41109  1  0  0  0
 41110  1  0  0  0
 41 48  1  0  0  0
 42 43  1  0  0  0
 42 66  1  0  0  0
 42111  1  0  0  0
 42112  1  0  0  0
 43 44  1  0  0  0
 44113  1  0  0  0
 45 46  2  0  0  0
 45114  1  0  0  0
 46115  1  0  0  0
 47116  1  0  0  0
 47117  1  0  0  0
 48 56  1  0  0  0
 48 65  1  0  0  0
 48118  1  0  0  0
 49 50  1  0  0  0
 49 53  1  0  0  0
 49 64  1  0  0  0
 49119  1  0  0  0
 50 51  1  0  0  0
 50120  1  0  0  0
 50121  1  0  0  0
 51 52  1  0  0  0
 51122  1  0  0  0
 51123  1  0  0  0
 52124  1  0  0  0
 52125  1  0  0  0
 53 54  1  0  0  0
 54 55  2  0  0  0
 54126  1  0  0  0
 55 57  1  0  0  0
 55127  1  0  0  0
 56 69  2  0  0  0
 57 58  2  0  0  0
 57128  1  0  0  0
 58129  1  0  0  0
 59 60  1  0  0  0
 59 61  1  0  0  0
 59 62  1  0  0  0
 60130  1  0  0  0
 60131  1  0  0  0
 60132  1  0  0  0
 61133  1  0  0  0
 61134  1  0  0  0
 61135  1  0  0  0
 62136  1  0  0  0
 62137  1  0  0  0
 62138  1  0  0  0
 63 65  1  0  0  0
 63139  1  0  0  0
 63140  1  0  0  0
 63141  1  0  0  0
 64142  1  0  0  0
 65143  1  0  0  0
 68 79  1  0  0  0
 71 73  2  0  0  0
 71 75  1  0  0  0
 71144  1  0  0  0
 72 74  1  0  0  0
 72 75  2  0  0  0
 72145  1  0  0  0
 73 76  1  0  0  0
 73146  1  0  0  0
 74 76  2  0  0  0
 74147  1  0  0  0
 75 82  1  0  0  0
 76 83  1  0  0  0
 77 78  1  0  0  0
 77 79  2  0  0  0
 77 80  1  0  0  0
 78 82  1  0  0  0
 78 84  2  0  0  0
 79148  1  0  0  0
 80 82  1  0  0  0
 80149  1  0  0  0
 80150  1  0  0  0
 81 83  1  0  0  0
 81151  1  0  0  0
 81152  1  0  0  0
 81153  1  0  0  0
M  ISO  4   1 100  68 101  79 101  83 100
M  END
> <chiral flag>
0

> <version>
0

> <s_m_source_file>
/data/baiqing/PycharmProjects/Reinvent-master-3.2/result/LINK_invent/BTK/process_docking_weight1_custom_product_contain_oxygen_bond_distance_aromatic_linkinvent_7_9_3/rearranged_h_0082.sdf

> <i_m_source_file_index>
54

> <r_mmod_Potential_Energy-OPLS-2005>
417.577972412109

> <r_mmod_Stretch_Energy-OPLS-2005>
124.389739990234

> <r_mmod_Bend_Energy-OPLS-2005>
278.238494873047

> <r_mmod_Torsional_Energy-OPLS-2005>
292.219543457031

> <r_mmod_Improper_Torsional_Energy-OPLS-2005>
2.90872621536255

> <r_mmod_Van_der_Waal_Energy-OPLS-2005>
144.656921386719

> <r_mmod_Electrostatic_Energy-OPLS-2005>
-315.148071289062

> <r_mmod_Solvation_Energy-OPLS-2005>
-199.283325195312

> <b_mmod_Minimization_Converged-OPLS-2005>
0

> <r_mmod_RMS_Derivative-OPLS-2005>
0.436084657907486

$$$$
54
                    3D
 Structure written by MMmdl.
154163  0  0  1  0            999 V2000
  -30.5238  -14.8931   20.4538 C   0  0  0  0  0  0
  -30.4417  -12.5477   19.5204 C   0  0  0  0  0  0
  -29.5258  -12.5439   18.2726 C   0  0  0  0  0  0
  -28.0530  -12.3349   18.6706 C   0  0  0  0  0  0
  -27.6357  -13.2470   19.8548 C   0  0  2  0  0  0
  -28.6676  -13.2156   21.0034 C   0  0  0  0  0  0
  -25.2432  -13.8237   20.5682 C   0  0  0  0  0  0
  -24.1741  -13.0451   20.9192 C   0  0  0  0  0  0
  -24.6356  -11.6939   20.8720 C   0  0  0  0  0  0
  -23.9052  -10.4298   21.0390 C   0  0  0  0  0  0
  -24.3606   -9.4223   21.9170 C   0  0  0  0  0  0
  -23.6294   -8.2249   22.0740 C   0  0  0  0  0  0
  -22.4276   -8.0268   21.3532 C   0  0  0  0  0  0
  -21.9899   -9.0239   20.4637 C   0  0  0  0  0  0
  -22.7217  -10.2127   20.3051 C   0  0  0  0  0  0
  -21.6857   -6.0726   22.5271 C   0  0  0  0  0  0
  -21.4023   -6.5637   23.8202 C   0  0  0  0  0  0
  -21.3660   -5.6790   24.9165 C   0  0  0  0  0  0
  -21.6048   -4.3049   24.7216 C   0  0  0  0  0  0
  -21.8821   -3.8137   23.4337 C   0  0  0  0  0  0
  -21.9190   -4.6954   22.3395 C   0  0  0  0  0  0
  -22.7751  -13.5209   21.1869 C   0  0  0  0  0  0
  -22.1653   -4.2144   21.0971 F   0  0  0  0  0  0
  -21.5624   -3.4533   25.7725 F   0  0  0  0  0  0
  -29.9660  -13.6185   20.4422 N   0  0  0  0  0  0
  -26.2881  -12.9474   20.3267 N   0  0  0  0  0  0
  -25.9295  -11.6606   20.5727 N   0  0  0  0  0  0
  -22.0417  -12.8206   22.0448 N   0  0  0  0  0  0
  -25.4100  -15.1966   20.4098 N   0  0  0  0  0  0
  -31.6768  -15.0241   20.0293 O   0  0  0  0  0  0
  -21.6639   -6.8865   21.4232 O   0  0  0  0  0  0
  -22.3415  -14.5495   20.6688 O   0  0  0  0  0  0
  -24.6388  -31.8467   23.1904 C   0  0  0  0  0  0
  -25.9182  -32.4699   23.8284 C   0  0  1  0  0  0
  -27.2171  -27.1655   20.1522 C   0  0  0  0  0  0
  -25.5956  -33.8513   24.2196 N   0  0  0  0  0  0
  -23.4407  -30.4627   21.5372 C   0  0  2  0  0  0
  -24.8876  -28.8932   20.1095 C   0  0  0  0  0  0
  -22.7544  -29.4544   22.4909 C   0  0  0  0  0  0
  -18.0291  -28.1394   22.8477 C   0  0  0  0  0  0
  -24.1490  -36.7259   23.2643 C   0  0  0  0  0  0
  -25.9908  -30.7270   21.3854 C   0  0  0  0  0  0
  -26.0594  -29.3410   20.7297 C   0  0  0  0  0  0
  -27.2217  -28.4906   20.7381 C   0  0  0  0  0  0
  -26.0199  -26.8076   19.4942 C   0  0  0  0  0  0
  -24.8772  -27.6395   19.4784 C   0  0  0  0  0  0
  -23.6628  -29.7918   20.1553 C   0  0  0  0  0  0
  -25.4123  -36.3036   24.0309 C   0  0  1  0  0  0
  -20.5899  -28.3697   23.1261 C   0  0  2  0  0  0
  -20.6785  -26.9414   22.5412 C   0  0  0  0  0  0
  -19.5766  -26.6374   21.5219 C   0  0  0  0  0  0
  -18.1943  -26.7931   22.1626 C   0  0  0  0  0  0
  -19.1548  -28.8867   23.2853 C   0  0  0  0  0  0
  -18.9472  -30.1471   23.8858 C   0  0  0  0  0  0
  -17.6472  -30.6588   24.0557 C   0  0  0  0  0  0
  -25.9073  -34.9410   23.5055 C   0  0  0  0  0  0
  -16.5358  -29.9079   23.6352 C   0  0  0  0  0  0
  -16.7280  -28.6511   23.0349 C   0  0  0  0  0  0
  -26.4521  -31.6570   25.0716 C   0  0  0  0  0  0
  -25.3724  -31.3757   26.1417 C   0  0  0  0  0  0
  -27.0384  -30.2974   24.6282 C   0  0  0  0  0  0
  -27.6043  -32.4342   25.7506 C   0  0  0  0  0  0
  -27.5570  -37.1797   24.8468 C   0  0  0  0  0  0
  -21.4239  -29.3023   22.3642 N   0  0  0  0  0  0
  -26.4288  -37.3751   23.9397 N   0  0  0  0  0  0
  -24.7097  -31.0335   22.0929 N   0  0  0  0  0  0
  -23.4212  -28.8102   23.3047 O   0  0  0  0  0  0
  -28.3061  -26.2356   20.2319 O   0  0  0  0  0  0
  -26.5658  -34.8908   22.4634 O   0  0  0  0  0  0
  -23.5516  -32.1329   23.7149 O   0  0  0  0  0  0
  -29.5188  -19.8399   21.4329 C   0  0  0  0  0  0
  -29.7048  -18.4570   21.4094 C   0  0  0  0  0  0
  -28.9127  -20.5183   19.2682 C   0  0  0  0  0  0
  -29.3492  -17.7831   19.1891 C   0  0  0  0  0  0
  -29.1763  -20.8684   20.5533 C   0  0  0  0  0  0
  -29.6975  -17.4528   20.4607 C   0  0  0  0  0  0
  -28.9777  -19.1449   18.6232 C   0  0  0  0  0  0
  -29.6117  -24.0768   21.9017 C   0  0  0  0  0  0
  -28.8795  -23.7894   20.8154 C   0  0  0  0  0  0
  -29.9755  -25.1785   22.5806 C   0  0  0  0  0  0
  -28.2221  -24.7853   20.0674 C   0  0  0  0  0  0
  -29.9061  -22.6454   22.1888 C   0  0  0  0  0  0
  -29.1573  -22.3171   20.9697 N   0  0  0  0  0  0
  -29.7296  -16.0019   20.8273 N   0  0  0  0  0  0
  -28.6495  -19.1289   17.4338 O   0  0  0  0  0  0
  -31.4797  -12.7002   19.2214 H   0  0  0  0  0  0
  -30.4237  -11.5798   20.0221 H   0  0  0  0  0  0
  -29.8408  -11.7685   17.5730 H   0  0  0  0  0  0
  -29.6267  -13.4954   17.7468 H   0  0  0  0  0  0
  -27.9258  -11.2868   18.9462 H   0  0  0  0  0  0
  -27.4029  -12.5051   17.8101 H   0  0  0  0  0  0
  -27.6171  -14.2638   19.4586 H   0  0  0  0  0  0
  -28.7254  -12.2194   21.4438 H   0  0  0  0  0  0
  -28.3622  -13.8862   21.8078 H   0  0  0  0  0  0
  -25.2752   -9.5700   22.4733 H   0  0  0  0  0  0
  -24.0005   -7.4637   22.7459 H   0  0  0  0  0  0
  -21.0821   -8.8741   19.8950 H   0  0  0  0  0  0
  -22.3654  -10.9646   19.6146 H   0  0  0  0  0  0
  -21.2031   -7.6145   23.9713 H   0  0  0  0  0  0
  -21.1480   -6.0514   25.9074 H   0  0  0  0  0  0
  -22.0602   -2.7601   23.2833 H   0  0  0  0  0  0
  -22.4047  -11.9894   22.4869 H   0  0  0  0  0  0
  -21.1023  -13.1198   22.2660 H   0  0  0  0  0  0
  -24.6390  -15.8481   20.5108 H   0  0  0  0  0  0
  -26.2612  -15.6387   20.0879 H   0  0  0  0  0  0
  -26.7240  -32.5301   23.1010 H   0  0  0  0  0  0
  -25.0093  -33.9644   25.0334 H   0  0  0  0  0  0
  -22.7411  -31.2869   21.3859 H   0  0  0  0  0  0
  -23.3753  -35.9599   23.3318 H   0  0  0  0  0  0
  -24.3558  -36.8879   22.2056 H   0  0  0  0  0  0
  -23.7257  -37.6465   23.6669 H   0  0  0  0  0  0
  -26.1408  -31.4824   20.6141 H   0  0  0  0  0  0
  -26.8636  -30.7739   22.0235 H   0  0  0  0  0  0
  -28.1142  -28.8273   21.2457 H   0  0  0  0  0  0
  -25.9348  -25.8467   19.0110 H   0  0  0  0  0  0
  -23.9788  -27.2912   18.9865 H   0  0  0  0  0  0
  -23.7962  -30.5653   19.3979 H   0  0  0  0  0  0
  -22.7795  -29.2285   19.8495 H   0  0  0  0  0  0
  -25.1323  -36.1868   25.0806 H   0  0  0  0  0  0
  -20.9964  -28.3266   24.1393 H   0  0  0  0  0  0
  -20.5693  -26.2311   23.3618 H   0  0  0  0  0  0
  -21.6653  -26.7453   22.1206 H   0  0  0  0  0  0
  -19.6934  -25.6278   21.1265 H   0  0  0  0  0  0
  -19.6703  -27.3177   20.6743 H   0  0  0  0  0  0
  -17.4224  -26.6667   21.4019 H   0  0  0  0  0  0
  -18.0341  -26.0069   22.9020 H   0  0  0  0  0  0
  -19.7940  -30.7299   24.2198 H   0  0  0  0  0  0
  -17.5022  -31.6259   24.5163 H   0  0  0  0  0  0
  -15.5357  -30.2969   23.7687 H   0  0  0  0  0  0
  -15.8683  -28.0822   22.7072 H   0  0  0  0  0  0
  -24.5891  -30.7115   25.7748 H   0  0  0  0  0  0
  -24.8927  -32.2939   26.4820 H   0  0  0  0  0  0
  -25.8011  -30.8948   27.0219 H   0  0  0  0  0  0
  -26.3001  -29.6699   24.1276 H   0  0  0  0  0  0
  -27.3994  -29.7264   25.4848 H   0  0  0  0  0  0
  -27.8907  -30.4221   23.9598 H   0  0  0  0  0  0
  -27.2631  -33.3653   26.2048 H   0  0  0  0  0  0
  -28.3878  -32.6897   25.0359 H   0  0  0  0  0  0
  -28.0691  -31.8504   26.5461 H   0  0  0  0  0  0
  -28.2613  -38.0071   24.7488 H   0  0  0  0  0  0
  -28.1042  -36.2601   24.6337 H   0  0  0  0  0  0
  -27.2277  -37.1500   25.8871 H   0  0  0  0  0  0
  -20.9454  -29.8724   21.6797 H   0  0  0  0  0  0
  -26.0151  -38.2824   24.1389 H   0  0  0  0  0  0
  -29.6260  -20.1914   22.4482 H   0  0  0  0  0  0
  -29.9260  -18.0729   22.3981 H   0  0  0  0  0  0
  -28.6481  -21.3420   18.6201 H   0  0  0  0  0  0
  -29.3357  -16.9572   18.4926 H   0  0  0  0  0  0
  -29.6809  -26.1674   22.2646 H   0  0  0  0  0  0
  -30.5806  -25.1048   23.4718 H   0  0  0  0  0  0
  -27.6398  -24.5205   19.1992 H   0  0  0  0  0  0
  -29.4512  -22.2394   23.0927 H   0  0  0  0  0  0
  -30.9487  -22.3320   22.1182 H   0  0  0  0  0  0
  -28.9084  -15.7125   21.3378 H   0  0  0  0  0  0
  1 25  1  0  0  0
  1 30  2  0  0  0
  1 84  1  0  0  0
  2  3  1  0  0  0
  2 25  1  0  0  0
  2 86  1  0  0  0
  2 87  1  0  0  0
  3  4  1  0  0  0
  3 88  1  0  0  0
  3 89  1  0  0  0
  4  5  1  0  0  0
  4 90  1  0  0  0
  4 91  1  0  0  0
  5  6  1  0  0  0
  5 26  1  0  0  0
  5 92  1  0  0  0
  6 25  1  0  0  0
  6 93  1  0  0  0
  6 94  1  0  0  0
  7  8  2  0  0  0
  7 26  1  0  0  0
  7 29  1  0  0  0
  8  9  1  0  0  0
  8 22  1  0  0  0
  9 10  1  0  0  0
  9 27  2  0  0  0
 10 11  2  0  0  0
 10 15  1  0  0  0
 11 12  1  0  0  0
 11 95  1  0  0  0
 12 13  2  0  0  0
 12 96  1  0  0  0
 13 14  1  0  0  0
 13 31  1  0  0  0
 14 15  2  0  0  0
 14 97  1  0  0  0
 15 98  1  0  0  0
 16 17  2  0  0  0
 16 21  1  0  0  0
 16 31  1  0  0  0
 17 18  1  0  0  0
 17 99  1  0  0  0
 18 19  2  0  0  0
 18100  1  0  0  0
 19 20  1  0  0  0
 19 24  1  0  0  0
 20 21  2  0  0  0
 20101  1  0  0  0
 21 23  1  0  0  0
 22 28  1  0  0  0
 22 32  2  0  0  0
 26 27  1  0  0  0
 28102  1  0  0  0
 28103  1  0  0  0
 29104  1  0  0  0
 29105  1  0  0  0
 33 34  1  0  0  0
 33 66  1  0  0  0
 33 70  2  0  0  0
 34 36  1  0  0  0
 34 59  1  0  0  0
 34106  1  0  0  0
 35 44  2  0  0  0
 35 45  1  0  0  0
 35 68  1  0  0  0
 36 56  1  0  0  0
 36107  1  0  0  0
 37 39  1  0  0  0
 37 47  1  0  0  0
 37 66  1  0  0  0
 37108  1  0  0  0
 38 43  2  0  0  0
 38 46  1  0  0  0
 38 47  1  0  0  0
 39 64  1  0  0  0
 39 67  2  0  0  0
 40 52  1  0  0  0
 40 53  2  0  0  0
 40 58  1  0  0  0
 41109  1  0  0  0
 41110  1  0  0  0
 41111  1  0  0  0
 41 48  1  0  0  0
 42 43  1  0  0  0
 42 66  1  0  0  0
 42112  1  0  0  0
 42113  1  0  0  0
 43 44  1  0  0  0
 44114  1  0  0  0
 45 46  2  0  0  0
 45115  1  0  0  0
 46116  1  0  0  0
 47117  1  0  0  0
 47118  1  0  0  0
 48 56  1  0  0  0
 48 65  1  0  0  0
 48119  1  0  0  0
 49 50  1  0  0  0
 49 53  1  0  0  0
 49 64  1  0  0  0
 49120  1  0  0  0
 50 51  1  0  0  0
 50121  1  0  0  0
 50122  1  0  0  0
 51 52  1  0  0  0
 51123  1  0  0  0
 51124  1  0  0  0
 52125  1  0  0  0
 52126  1  0  0  0
 53 54  1  0  0  0
 54 55  2  0  0  0
 54127  1  0  0  0
 55 57  1  0  0  0
 55128  1  0  0  0
 56 69  2  0  0  0
 57 58  2  0  0  0
 57129  1  0  0  0
 58130  1  0  0  0
 59 60  1  0  0  0
 59 61  1  0  0  0
 59 62  1  0  0  0
 60131  1  0  0  0
 60132  1  0  0  0
 60133  1  0  0  0
 61134  1  0  0  0
 61135  1  0  0  0
 61136  1  0  0  0
 62137  1  0  0  0
 62138  1  0  0  0
 62139  1  0  0  0
 63 65  1  0  0  0
 63140  1  0  0  0
 63141  1  0  0  0
 63142  1  0  0  0
 64143  1  0  0  0
 65144  1  0  0  0
 68 81  1  0  0  0
 71 72  2  0  0  0
 71 75  1  0  0  0
 71145  1  0  0  0
 72 76  1  0  0  0
 72146  1  0  0  0
 73 75  2  0  0  0
 73 77  1  0  0  0
 73147  1  0  0  0
 74 76  2  0  0  0
 74 77  1  0  0  0
 74148  1  0  0  0
 75 83  1  0  0  0
 76 84  1  0  0  0
 77 85  2  0  0  0
 78 79  1  0  0  0
 78 80  2  0  0  0
 78 82  1  0  0  0
 79 81  2  0  0  0
 79 83  1  0  0  0
 80149  1  0  0  0
 80150  1  0  0  0
 81151  1  0  0  0
 82 83  1  0  0  0
 82152  1  0  0  0
 82153  1  0  0  0
 84154  1  0  0  0
M  ISO  4   1 100  68 101  81 101  84 100
M  END
> <chiral flag>
0

> <version>
0

> <s_m_source_file>
/data/baiqing/PycharmProjects/Reinvent-master-3.2/result/LINK_invent/BTK/process_docking_weight1_custom_product_contain_oxygen_bond_distance_aromatic_linkinvent_7_9_3/rearranged_h_0082.sdf

> <i_m_source_file_index>
55

> <r_mmod_Potential_Energy-OPLS-2005>
449.160003662109

> <r_mmod_Stretch_Energy-OPLS-2005>
204.880401611328

> <r_mmod_Bend_Energy-OPLS-2005>
289.823638916016

> <r_mmod_Torsional_Energy-OPLS-2005>
219.041717529297

> <r_mmod_Improper_Torsional_Energy-OPLS-2005>
4.4085054397583

> <r_mmod_Van_der_Waal_Energy-OPLS-2005>
134.737197875977

> <r_mmod_Electrostatic_Energy-OPLS-2005>
-336.801666259766

> <r_mmod_Solvation_Energy-OPLS-2005>
-225.572692871094

> <b_mmod_Minimization_Converged-OPLS-2005>
0

> <r_mmod_RMS_Derivative-OPLS-2005>
2.76419067382812

$$$$
55
                    3D
 Structure written by MMmdl.
156165  0  0  1  0            999 V2000
  -30.7622  -14.5115   20.5255 C   0  0  0  0  0  0
  -30.3911  -12.3233   19.4388 C   0  0  0  0  0  0
  -29.4805  -12.4780   18.2074 C   0  0  0  0  0  0
  -28.0062  -12.3454   18.6268 C   0  0  0  0  0  0
  -27.6461  -13.2236   19.8553 C   0  0  2  0  0  0
  -28.6925  -13.1050   20.9854 C   0  0  0  0  0  0
  -25.2535  -13.8201   20.5707 C   0  0  0  0  0  0
  -24.1815  -13.0464   20.9221 C   0  0  0  0  0  0
  -24.6384  -11.6931   20.8762 C   0  0  0  0  0  0
  -23.9065  -10.4310   21.0428 C   0  0  0  0  0  0
  -24.3632   -9.4224   21.9203 C   0  0  0  0  0  0
  -23.6309   -8.2253   22.0757 C   0  0  0  0  0  0
  -22.4286   -8.0295   21.3549 C   0  0  0  0  0  0
  -21.9926   -9.0264   20.4642 C   0  0  0  0  0  0
  -22.7244  -10.2148   20.3061 C   0  0  0  0  0  0
  -21.6854   -6.0752   22.5282 C   0  0  0  0  0  0
  -21.3993   -6.5650   23.8217 C   0  0  0  0  0  0
  -21.3660   -5.6802   24.9177 C   0  0  0  0  0  0
  -21.6059   -4.3068   24.7224 C   0  0  0  0  0  0
  -21.8816   -3.8157   23.4342 C   0  0  0  0  0  0
  -21.9193   -4.6979   22.3401 C   0  0  0  0  0  0
  -22.7839  -13.5247   21.1876 C   0  0  0  0  0  0
  -22.1668   -4.2165   21.0981 F   0  0  0  0  0  0
  -21.5637   -3.4544   25.7732 F   0  0  0  0  0  0
  -30.0126  -13.3758   20.4048 N   0  0  0  0  0  0
  -26.2961  -12.9400   20.3317 N   0  0  0  0  0  0
  -25.9310  -11.6549   20.5777 N   0  0  0  0  0  0
  -22.0473  -12.8228   22.0411 N   0  0  0  0  0  0
  -25.4254  -15.1914   20.4118 N   0  0  0  0  0  0
  -31.9202  -14.5159   20.1010 O   0  0  0  0  0  0
  -21.6650   -6.8892   21.4240 O   0  0  0  0  0  0
  -22.3540  -14.5570   20.6747 O   0  0  0  0  0  0
  -24.6188  -31.8617   23.2070 C   0  0  0  0  0  0
  -25.9060  -32.4789   23.8392 C   0  0  1  0  0  0
  -27.2194  -27.4075   20.1007 C   0  0  0  0  0  0
  -25.5912  -33.8594   24.2319 N   0  0  0  0  0  0
  -23.4074  -30.4865   21.5467 C   0  0  2  0  0  0
  -24.8570  -28.9641   20.0920 C   0  0  0  0  0  0
  -22.7440  -29.4612   22.4952 C   0  0  0  0  0  0
  -18.0271  -28.1370   22.8474 C   0  0  0  0  0  0
  -24.1472  -36.7297   23.2641 C   0  0  0  0  0  0
  -25.9399  -30.8275   21.3597 C   0  0  0  0  0  0
  -26.0202  -29.4667   20.6909 C   0  0  0  0  0  0
  -27.2117  -28.6986   20.6888 C   0  0  0  0  0  0
  -26.0478  -26.9333   19.4793 C   0  0  0  0  0  0
  -24.8690  -27.7004   19.4764 C   0  0  0  0  0  0
  -23.6151  -29.8246   20.1579 C   0  0  0  0  0  0
  -25.4092  -36.3095   24.0353 C   0  0  1  0  0  0
  -20.5860  -28.3651   23.1296 C   0  0  2  0  0  0
  -20.6743  -26.9377   22.5407 C   0  0  0  0  0  0
  -19.5737  -26.6364   21.5192 C   0  0  0  0  0  0
  -18.1917  -26.7912   22.1599 C   0  0  0  0  0  0
  -19.1521  -28.8837   23.2864 C   0  0  0  0  0  0
  -18.9441  -30.1438   23.8881 C   0  0  0  0  0  0
  -17.6445  -30.6571   24.0554 C   0  0  0  0  0  0
  -25.9036  -34.9465   23.5136 C   0  0  0  0  0  0
  -16.5335  -29.9060   23.6343 C   0  0  0  0  0  0
  -16.7259  -28.6476   23.0368 C   0  0  0  0  0  0
  -26.4488  -31.6597   25.0746 C   0  0  0  0  0  0
  -25.3759  -31.3684   26.1485 C   0  0  0  0  0  0
  -27.0338  -30.3045   24.6152 C   0  0  0  0  0  0
  -27.6070  -32.4316   25.7506 C   0  0  0  0  0  0
  -27.5560  -37.1794   24.8472 C   0  0  0  0  0  0
  -21.4163  -29.3009   22.3708 N   0  0  0  0  0  0
  -26.4264  -37.3796   23.9434 N   0  0  0  0  0  0
  -24.6736  -31.0726   22.0956 N   0  0  0  0  0  0
  -23.4204  -28.8157   23.3003 O   0  0  0  0  0  0
  -28.2400  -26.4988   20.3052 O   0  0  0  0  0  0
  -26.5587  -34.8933   22.4685 O   0  0  0  0  0  0
  -23.5376  -32.1362   23.7457 O   0  0  0  0  0  0
  -30.8206  -19.3366   21.5882 C   0  0  0  0  0  0
  -30.2584  -20.6300   21.5891 C   0  0  0  0  0  0
  -28.7652  -18.4007   20.7200 C   0  0  0  0  0  0
  -30.0958  -18.1910   21.1645 C   0  0  0  0  0  0
  -28.9284  -20.8299   21.1764 C   0  0  0  0  0  0
  -28.1838  -19.7005   20.7440 C   0  0  0  0  0  0
  -28.0251  -24.3752   21.6399 C   0  0  0  0  0  0
  -27.4570  -23.7275   22.7990 C   0  0  0  0  0  0
  -28.5939  -23.3071   20.8053 C   0  0  0  0  0  0
  -26.9514  -24.3206   23.8957 C   0  0  0  0  0  0
  -27.9446  -25.7204   21.4174 C   0  0  0  0  0  0
  -30.8161  -16.8449   21.1376 C   0  0  0  0  0  0
  -27.5164  -22.2463   22.6216 C   0  0  0  0  0  0
  -28.3168  -22.1081   21.4115 N   0  0  0  0  0  0
  -30.1557  -15.6673   20.9275 N   0  0  0  0  0  0
  -29.2167  -23.4370   19.7469 O   0  0  0  0  0  0
  -32.0361  -16.8893   21.3472 O   0  0  0  0  0  0
  -26.8905  -19.8543   20.3717 F   0  0  0  0  0  0
  -31.4376  -12.3640   19.1320 H   0  0  0  0  0  0
  -30.2572  -11.3364   19.8867 H   0  0  0  0  0  0
  -29.7230  -11.7196   17.4611 H   0  0  0  0  0  0
  -29.6465  -13.4444   17.7300 H   0  0  0  0  0  0
  -27.8235  -11.2939   18.8565 H   0  0  0  0  0  0
  -27.3528  -12.5858   17.7874 H   0  0  0  0  0  0
  -27.6617  -14.2550   19.5061 H   0  0  0  0  0  0
  -28.6765  -12.1061   21.4230 H   0  0  0  0  0  0
  -28.4602  -13.7949   21.7982 H   0  0  0  0  0  0
  -25.2772   -9.5711   22.4785 H   0  0  0  0  0  0
  -24.0032   -7.4641   22.7466 H   0  0  0  0  0  0
  -21.0869   -8.8770   19.8942 H   0  0  0  0  0  0
  -22.3704  -10.9695   19.6173 H   0  0  0  0  0  0
  -21.1958   -7.6159   23.9720 H   0  0  0  0  0  0
  -21.1491   -6.0533   25.9087 H   0  0  0  0  0  0
  -22.0592   -2.7616   23.2831 H   0  0  0  0  0  0
  -22.4076  -11.9872   22.4781 H   0  0  0  0  0  0
  -21.1089  -13.1242   22.2601 H   0  0  0  0  0  0
  -24.6556  -15.8440   20.5161 H   0  0  0  0  0  0
  -26.2686  -15.6275   20.0637 H   0  0  0  0  0  0
  -26.7150  -32.5480   23.1174 H   0  0  0  0  0  0
  -25.0148  -33.9757   25.0515 H   0  0  0  0  0  0
  -22.6958  -31.3025   21.4094 H   0  0  0  0  0  0
  -23.3760  -35.9605   23.3300 H   0  0  0  0  0  0
  -24.3552  -36.8900   22.2054 H   0  0  0  0  0  0
  -23.7208  -37.6502   23.6641 H   0  0  0  0  0  0
  -26.0573  -31.5996   20.5988 H   0  0  0  0  0  0
  -26.8244  -30.8727   21.9830 H   0  0  0  0  0  0
  -28.0957  -29.0592   21.1952 H   0  0  0  0  0  0
  -26.0315  -25.9348   19.0654 H   0  0  0  0  0  0
  -23.9715  -27.3008   19.0237 H   0  0  0  0  0  0
  -23.7130  -30.5994   19.3971 H   0  0  0  0  0  0
  -22.7395  -29.2409   19.8679 H   0  0  0  0  0  0
  -25.1267  -36.1958   25.0853 H   0  0  0  0  0  0
  -20.9926  -28.3182   24.1427 H   0  0  0  0  0  0
  -20.5603  -26.2264   23.3601 H   0  0  0  0  0  0
  -21.6613  -26.7367   22.1218 H   0  0  0  0  0  0
  -19.6881  -25.6273   21.1222 H   0  0  0  0  0  0
  -19.6681  -27.3171   20.6720 H   0  0  0  0  0  0
  -17.4174  -26.6673   21.4009 H   0  0  0  0  0  0
  -18.0299  -26.0057   22.8994 H   0  0  0  0  0  0
  -19.7919  -30.7250   24.2253 H   0  0  0  0  0  0
  -17.5000  -31.6267   24.5129 H   0  0  0  0  0  0
  -15.5333  -30.2958   23.7688 H   0  0  0  0  0  0
  -15.8652  -28.0787   22.7115 H   0  0  0  0  0  0
  -24.5970  -30.6981   25.7822 H   0  0  0  0  0  0
  -24.8905  -32.2820   26.4930 H   0  0  0  0  0  0
  -25.8128  -30.8877   27.0243 H   0  0  0  0  0  0
  -26.2904  -29.6787   24.1206 H   0  0  0  0  0  0
  -27.4103  -29.7307   25.4630 H   0  0  0  0  0  0
  -27.8729  -30.4383   23.9323 H   0  0  0  0  0  0
  -27.2722  -33.3634   26.2076 H   0  0  0  0  0  0
  -28.3889  -32.6830   25.0327 H   0  0  0  0  0  0
  -28.0739  -31.8445   26.5426 H   0  0  0  0  0  0
  -28.2575  -38.0093   24.7522 H   0  0  0  0  0  0
  -28.1058  -36.2625   24.6286 H   0  0  0  0  0  0
  -27.2288  -37.1412   25.8877 H   0  0  0  0  0  0
  -20.9339  -29.8785   21.6973 H   0  0  0  0  0  0
  -26.0156  -38.2869   24.1462 H   0  0  0  0  0  0
  -31.8411  -19.2396   21.9329 H   0  0  0  0  0  0
  -30.8422  -21.4607   21.9604 H   0  0  0  0  0  0
  -28.1727  -17.5691   20.3717 H   0  0  0  0  0  0
  -26.9182  -25.3917   24.0260 H   0  0  0  0  0  0
  -26.5515  -23.7226   24.7031 H   0  0  0  0  0  0
  -27.4702  -26.3336   22.1714 H   0  0  0  0  0  0
  -26.5200  -21.8283   22.4791 H   0  0  0  0  0  0
  -27.9937  -21.7642   23.4758 H   0  0  0  0  0  0
  -29.1553  -15.6659   21.0153 H   0  0  0  0  0  0
  1 25  1  0  0  0
  1 30  2  0  0  0
  1 85  1  0  0  0
  2  3  1  0  0  0
  2 25  1  0  0  0
  2 89  1  0  0  0
  2 90  1  0  0  0
  3  4  1  0  0  0
  3 91  1  0  0  0
  3 92  1  0  0  0
  4  5  1  0  0  0
  4 93  1  0  0  0
  4 94  1  0  0  0
  5  6  1  0  0  0
  5 26  1  0  0  0
  5 95  1  0  0  0
  6 25  1  0  0  0
  6 96  1  0  0  0
  6 97  1  0  0  0
  7  8  2  0  0  0
  7 26  1  0  0  0
  7 29  1  0  0  0
  8  9  1  0  0  0
  8 22  1  0  0  0
  9 10  1  0  0  0
  9 27  2  0  0  0
 10 11  2  0  0  0
 10 15  1  0  0  0
 11 12  1  0  0  0
 11 98  1  0  0  0
 12 13  2  0  0  0
 12 99  1  0  0  0
 13 14  1  0  0  0
 13 31  1  0  0  0
 14 15  2  0  0  0
 14100  1  0  0  0
 15101  1  0  0  0
 16 17  2  0  0  0
 16 21  1  0  0  0
 16 31  1  0  0  0
 17 18  1  0  0  0
 17102  1  0  0  0
 18 19  2  0  0  0
 18103  1  0  0  0
 19 20  1  0  0  0
 19 24  1  0  0  0
 20 21  2  0  0  0
 20104  1  0  0  0
 21 23  1  0  0  0
 22 28  1  0  0  0
 22 32  2  0  0  0
 26 27  1  0  0  0
 28105  1  0  0  0
 28106  1  0  0  0
 29107  1  0  0  0
 29108  1  0  0  0
 33 34  1  0  0  0
 33 66  1  0  0  0
 33 70  2  0  0  0
 34 36  1  0  0  0
 34 59  1  0  0  0
 34109  1  0  0  0
 35 44  2  0  0  0
 35 45  1  0  0  0
 35 68  1  0  0  0
 36 56  1  0  0  0
 36110  1  0  0  0
 37 39  1  0  0  0
 37 47  1  0  0  0
 37 66  1  0  0  0
 37111  1  0  0  0
 38 43  2  0  0  0
 38 46  1  0  0  0
 38 47  1  0  0  0
 39 64  1  0  0  0
 39 67  2  0  0  0
 40 52  1  0  0  0
 40 53  2  0  0  0
 40 58  1  0  0  0
 41112  1  0  0  0
 41113  1  0  0  0
 41114  1  0  0  0
 41 48  1  0  0  0
 42 43  1  0  0  0
 42 66  1  0  0  0
 42115  1  0  0  0
 42116  1  0  0  0
 43 44  1  0  0  0
 44117  1  0  0  0
 45 46  2  0  0  0
 45118  1  0  0  0
 46119  1  0  0  0
 47120  1  0  0  0
 47121  1  0  0  0
 48 56  1  0  0  0
 48 65  1  0  0  0
 48122  1  0  0  0
 49 50  1  0  0  0
 49 53  1  0  0  0
 49 64  1  0  0  0
 49123  1  0  0  0
 50 51  1  0  0  0
 50124  1  0  0  0
 50125  1  0  0  0
 51 52  1  0  0  0
 51126  1  0  0  0
 51127  1  0  0  0
 52128  1  0  0  0
 52129  1  0  0  0
 53 54  1  0  0  0
 54 55  2  0  0  0
 54130  1  0  0  0
 55 57  1  0  0  0
 55131  1  0  0  0
 56 69  2  0  0  0
 57 58  2  0  0  0
 57132  1  0  0  0
 58133  1  0  0  0
 59 60  1  0  0  0
 59 61  1  0  0  0
 59 62  1  0  0  0
 60134  1  0  0  0
 60135  1  0  0  0
 60136  1  0  0  0
 61137  1  0  0  0
 61138  1  0  0  0
 61139  1  0  0  0
 62140  1  0  0  0
 62141  1  0  0  0
 62142  1  0  0  0
 63 65  1  0  0  0
 63143  1  0  0  0
 63144  1  0  0  0
 63145  1  0  0  0
 64146  1  0  0  0
 65147  1  0  0  0
 68 81  1  0  0  0
 71 72  2  0  0  0
 71 74  1  0  0  0
 71148  1  0  0  0
 72 75  1  0  0  0
 72149  1  0  0  0
 73 74  2  0  0  0
 73 76  1  0  0  0
 73150  1  0  0  0
 74 82  1  0  0  0
 75 76  2  0  0  0
 75 84  1  0  0  0
 76 88  1  0  0  0
 77 78  1  0  0  0
 77 79  1  0  0  0
 77 81  2  0  0  0
 78 80  2  0  0  0
 78 83  1  0  0  0
 79 84  1  0  0  0
 79 86  2  0  0  0
 80151  1  0  0  0
 80152  1  0  0  0
 81153  1  0  0  0
 82 85  1  0  0  0
 82 87  2  0  0  0
 83 84  1  0  0  0
 83154  1  0  0  0
 83155  1  0  0  0
 85156  1  0  0  0
M  ISO  4   1 100  68 101  81 101  85 100
M  END
> <chiral flag>
0

> <version>
0

> <s_m_source_file>
/data/baiqing/PycharmProjects/Reinvent-master-3.2/result/LINK_invent/BTK/process_docking_weight1_custom_product_contain_oxygen_bond_distance_aromatic_linkinvent_7_9_3/rearranged_h_0082.sdf

> <i_m_source_file_index>
56

> <r_mmod_Potential_Energy-OPLS-2005>
116.486907958984

> <r_mmod_Stretch_Energy-OPLS-2005>
50.7929153442383

> <r_mmod_Bend_Energy-OPLS-2005>
184.522094726562

> <r_mmod_Torsional_Energy-OPLS-2005>
318.547729492188

> <r_mmod_Improper_Torsional_Energy-OPLS-2005>
7.63501119613647

> <r_mmod_Van_der_Waal_Energy-OPLS-2005>
160.617965698242

> <r_mmod_Electrostatic_Energy-OPLS-2005>
-414.624206542969

> <r_mmod_Solvation_Energy-OPLS-2005>
-232.392272949219

> <b_mmod_Minimization_Converged-OPLS-2005>
0

> <r_mmod_RMS_Derivative-OPLS-2005>
2.51394391059875

$$$$
56
                    3D
 Structure written by MMmdl.
158166  0  0  1  0            999 V2000
  -30.7506  -14.3552   20.7024 C   0  0  0  0  0  0
  -30.4269  -12.2880   19.3897 C   0  0  0  0  0  0
  -29.4877  -12.5328   18.1927 C   0  0  0  0  0  0
  -28.0124  -12.3824   18.6087 C   0  0  0  0  0  0
  -27.6716  -13.1964   19.8829 C   0  0  2  0  0  0
  -28.7069  -12.9153   20.9945 C   0  0  0  0  0  0
  -25.2631  -13.8143   20.5664 C   0  0  0  0  0  0
  -24.1863  -13.0439   20.9158 C   0  0  0  0  0  0
  -24.6394  -11.6898   20.8713 C   0  0  0  0  0  0
  -23.9049  -10.4292   21.0394 C   0  0  0  0  0  0
  -24.3604   -9.4214   21.9178 C   0  0  0  0  0  0
  -23.6283   -8.2246   22.0750 C   0  0  0  0  0  0
  -22.4266   -8.0278   21.3541 C   0  0  0  0  0  0
  -21.9896   -9.0250   20.4645 C   0  0  0  0  0  0
  -22.7219  -10.2133   20.3051 C   0  0  0  0  0  0
  -21.6852   -6.0733   22.5278 C   0  0  0  0  0  0
  -21.4014   -6.5637   23.8211 C   0  0  0  0  0  0
  -21.3661   -5.6791   24.9173 C   0  0  0  0  0  0
  -21.6045   -4.3053   24.7224 C   0  0  0  0  0  0
  -21.8820   -3.8144   23.4345 C   0  0  0  0  0  0
  -21.9192   -4.6961   22.3401 C   0  0  0  0  0  0
  -22.7886  -13.5250   21.1827 C   0  0  0  0  0  0
  -22.1662   -4.2148   21.0979 F   0  0  0  0  0  0
  -21.5628   -3.4537   25.7739 F   0  0  0  0  0  0
  -30.0599  -13.2081   20.4746 N   0  0  0  0  0  0
  -26.3069  -12.9297   20.3376 N   0  0  0  0  0  0
  -25.9320  -11.6465   20.5737 N   0  0  0  0  0  0
  -22.0518  -12.8251   22.0385 N   0  0  0  0  0  0
  -25.4371  -15.1857   20.4065 N   0  0  0  0  0  0
  -31.7317  -14.7074   20.0382 O   0  0  0  0  0  0
  -21.6632   -6.8876   21.4240 O   0  0  0  0  0  0
  -22.3577  -14.5561   20.6682 O   0  0  0  0  0  0
  -24.6101  -31.8705   23.2129 C   0  0  0  0  0  0
  -25.9009  -32.4838   23.8412 C   0  0  1  0  0  0
  -27.2418  -27.4774   20.0889 C   0  0  0  0  0  0
  -25.5875  -33.8635   24.2341 N   0  0  0  0  0  0
  -23.3971  -30.4925   21.5525 C   0  0  2  0  0  0
  -24.8467  -28.9595   20.1194 C   0  0  0  0  0  0
  -22.7390  -29.4661   22.5016 C   0  0  0  0  0  0
  -18.0265  -28.1372   22.8499 C   0  0  0  0  0  0
  -24.1484  -36.7334   23.2637 C   0  0  0  0  0  0
  -25.9211  -30.8470   21.3611 C   0  0  0  0  0  0
  -26.0023  -29.4812   20.7160 C   0  0  0  0  0  0
  -27.2046  -28.7441   20.7052 C   0  0  0  0  0  0
  -26.0763  -26.9560   19.4934 C   0  0  0  0  0  0
  -24.8751  -27.6917   19.5094 C   0  0  0  0  0  0
  -23.6055  -29.8213   20.1679 C   0  0  0  0  0  0
  -25.4102  -36.3126   24.0339 C   0  0  1  0  0  0
  -20.5852  -28.3647   23.1337 C   0  0  2  0  0  0
  -20.6753  -26.9390   22.5423 C   0  0  0  0  0  0
  -19.5733  -26.6387   21.5215 C   0  0  0  0  0  0
  -18.1912  -26.7921   22.1627 C   0  0  0  0  0  0
  -19.1515  -28.8828   23.2913 C   0  0  0  0  0  0
  -18.9445  -30.1439   23.8917 C   0  0  0  0  0  0
  -17.6449  -30.6582   24.0569 C   0  0  0  0  0  0
  -25.9022  -34.9488   23.5139 C   0  0  0  0  0  0
  -16.5338  -29.9086   23.6329 C   0  0  0  0  0  0
  -16.7256  -28.6503   23.0349 C   0  0  0  0  0  0
  -26.4459  -31.6608   25.0722 C   0  0  0  0  0  0
  -25.3742  -31.3701   26.1484 C   0  0  0  0  0  0
  -27.0292  -30.3061   24.6064 C   0  0  0  0  0  0
  -27.6039  -32.4329   25.7477 C   0  0  0  0  0  0
  -27.5582  -37.1820   24.8463 C   0  0  0  0  0  0
  -21.4124  -29.3022   22.3752 N   0  0  0  0  0  0
  -26.4296  -37.3804   23.9406 N   0  0  0  0  0  0
  -24.6608  -31.0833   22.1014 N   0  0  0  0  0  0
  -23.4180  -28.8205   23.3044 O   0  0  0  0  0  0
  -28.4047  -26.7572   20.0293 O   0  0  0  0  0  0
  -26.5591  -34.8932   22.4704 O   0  0  0  0  0  0
  -23.5304  -32.1438   23.7545 O   0  0  0  0  0  0
  -29.9991  -18.7211   21.1509 C   0  0  0  0  0  0
  -30.4602  -17.3939   21.0005 C   0  0  0  0  0  0
  -28.7435  -18.0601   23.1343 C   0  0  0  0  0  0
  -29.1233  -19.0582   22.2101 C   0  0  0  0  0  0
  -30.0383  -16.3894   21.9054 C   0  0  0  0  0  0
  -29.1941  -16.7381   22.9777 C   0  0  0  0  0  0
  -28.5658  -20.4095   22.3436 C   0  0  0  0  0  0
  -28.9654  -22.8770   22.2502 C   0  0  0  0  0  0
  -30.0650  -23.8949   21.9230 C   0  0  0  0  0  0
  -29.6797  -24.8776   20.7946 C   0  0  0  0  0  0
  -28.6307  -25.9408   21.1693 C   0  0  0  0  0  0
  -30.3581  -15.0134   21.7970 N   0  0  0  0  0  0
  -29.3501  -21.4947   22.1600 N   0  0  0  0  0  0
  -27.2662  -20.5193   22.6443 N   0  3  0  0  0  0
  -27.8234  -23.2263   22.5695 O   0  0  0  0  0  0
  -28.7871  -15.7800   23.8464 F   0  0  0  0  0  0
  -31.4684  -12.4047   19.0841 H   0  0  0  0  0  0
  -30.3351  -11.2586   19.7387 H   0  0  0  0  0  0
  -29.7206  -11.8369   17.3854 H   0  0  0  0  0  0
  -29.6563  -13.5338   17.7917 H   0  0  0  0  0  0
  -27.8211  -11.3229   18.7831 H   0  0  0  0  0  0
  -27.3572  -12.6772   17.7886 H   0  0  0  0  0  0
  -27.7374  -14.2529   19.6215 H   0  0  0  0  0  0
  -28.6610  -11.8660   21.2900 H   0  0  0  0  0  0
  -28.4427  -13.4729   21.8933 H   0  0  0  0  0  0
  -25.2751   -9.5695   22.4747 H   0  0  0  0  0  0
  -23.9997   -7.4639   22.7468 H   0  0  0  0  0  0
  -21.0825   -8.8763   19.8954 H   0  0  0  0  0  0
  -22.3669  -10.9668   19.6156 H   0  0  0  0  0  0
  -21.2007   -7.6145   23.9716 H   0  0  0  0  0  0
  -21.1482   -6.0518   25.9077 H   0  0  0  0  0  0
  -22.0597   -2.7607   23.2844 H   0  0  0  0  0  0
  -22.4117  -11.9909   22.4785 H   0  0  0  0  0  0
  -21.1142  -13.1293   22.2586 H   0  0  0  0  0  0
  -24.6704  -15.8420   20.5054 H   0  0  0  0  0  0
  -26.2916  -15.6201   20.0814 H   0  0  0  0  0  0
  -26.7083  -32.5574   23.1188 H   0  0  0  0  0  0
  -25.0026  -33.9801   25.0485 H   0  0  0  0  0  0
  -22.6837  -31.3073   21.4134 H   0  0  0  0  0  0
  -23.3736  -35.9679   23.3315 H   0  0  0  0  0  0
  -24.3577  -36.8931   22.2049 H   0  0  0  0  0  0
  -23.7249  -37.6549   23.6640 H   0  0  0  0  0  0
  -26.0230  -31.6105   20.5885 H   0  0  0  0  0  0
  -26.8129  -30.9072   21.9732 H   0  0  0  0  0  0
  -28.1014  -29.1464   21.1559 H   0  0  0  0  0  0
  -26.1030  -25.9866   19.0157 H   0  0  0  0  0  0
  -23.9870  -27.2833   19.0470 H   0  0  0  0  0  0
  -23.7089  -30.5941   19.4053 H   0  0  0  0  0  0
  -22.7317  -29.2360   19.8758 H   0  0  0  0  0  0
  -25.1278  -36.2001   25.0833 H   0  0  0  0  0  0
  -20.9942  -28.3206   24.1457 H   0  0  0  0  0  0
  -20.5659  -26.2252   23.3601 H   0  0  0  0  0  0
  -21.6624  -26.7442   22.1213 H   0  0  0  0  0  0
  -19.6892  -25.6307   21.1223 H   0  0  0  0  0  0
  -19.6672  -27.3219   20.6763 H   0  0  0  0  0  0
  -17.4184  -26.6680   21.4025 H   0  0  0  0  0  0
  -18.0307  -26.0056   22.9014 H   0  0  0  0  0  0
  -19.7921  -30.7251   24.2293 H   0  0  0  0  0  0
  -17.5004  -31.6265   24.5167 H   0  0  0  0  0  0
  -15.5340  -30.2995   23.7639 H   0  0  0  0  0  0
  -15.8655  -28.0831   22.7048 H   0  0  0  0  0  0
  -24.5903  -30.7057   25.7829 H   0  0  0  0  0  0
  -24.8946  -32.2853   26.4964 H   0  0  0  0  0  0
  -25.8110  -30.8853   27.0225 H   0  0  0  0  0  0
  -26.2823  -29.6818   24.1144 H   0  0  0  0  0  0
  -27.4112  -29.7292   25.4497 H   0  0  0  0  0  0
  -27.8634  -30.4398   23.9171 H   0  0  0  0  0  0
  -27.2654  -33.3608   26.2101 H   0  0  0  0  0  0
  -28.3820  -32.6928   25.0287 H   0  0  0  0  0  0
  -28.0745  -31.8433   26.5355 H   0  0  0  0  0  0
  -28.2613  -38.0106   24.7506 H   0  0  0  0  0  0
  -28.1064  -36.2640   24.6295 H   0  0  0  0  0  0
  -27.2301  -37.1482   25.8867 H   0  0  0  0  0  0
  -20.9277  -29.8744   21.6981 H   0  0  0  0  0  0
  -26.0192  -38.2888   24.1397 H   0  0  0  0  0  0
  -30.2985  -19.4639   20.4238 H   0  0  0  0  0  0
  -31.1105  -17.1611   20.1700 H   0  0  0  0  0  0
  -28.0859  -18.2923   23.9596 H   0  0  0  0  0  0
  -30.9727  -23.3658   21.6327 H   0  0  0  0  0  0
  -30.3129  -24.4442   22.8316 H   0  0  0  0  0  0
  -29.3255  -24.3140   19.9303 H   0  0  0  0  0  0
  -30.5831  -25.3896   20.4618 H   0  0  0  0  0  0
  -28.9850  -26.5580   21.9968 H   0  0  0  0  0  0
  -27.6960  -25.4769   21.4849 H   0  0  0  0  0  0
  -29.8193  -14.4466   22.4351 H   0  0  0  0  0  0
  -30.2987  -21.2320   21.9426 H   0  0  0  0  0  0
  -26.6718  -19.7075   22.6978 H   0  0  0  0  0  0
  -26.8719  -21.4464   22.7487 H   0  0  0  0  0  0
  1 25  1  0  0  0
  1 30  2  0  0  0
  1 82  1  0  0  0
  2  3  1  0  0  0
  2 25  1  0  0  0
  2 87  1  0  0  0
  2 88  1  0  0  0
  3  4  1  0  0  0
  3 89  1  0  0  0
  3 90  1  0  0  0
  4  5  1  0  0  0
  4 91  1  0  0  0
  4 92  1  0  0  0
  5  6  1  0  0  0
  5 26  1  0  0  0
  5 93  1  0  0  0
  6 25  1  0  0  0
  6 94  1  0  0  0
  6 95  1  0  0  0
  7  8  2  0  0  0
  7 26  1  0  0  0
  7 29  1  0  0  0
  8  9  1  0  0  0
  8 22  1  0  0  0
  9 10  1  0  0  0
  9 27  2  0  0  0
 10 11  2  0  0  0
 10 15  1  0  0  0
 11 12  1  0  0  0
 11 96  1  0  0  0
 12 13  2  0  0  0
 12 97  1  0  0  0
 13 14  1  0  0  0
 13 31  1  0  0  0
 14 15  2  0  0  0
 14 98  1  0  0  0
 15 99  1  0  0  0
 16 17  2  0  0  0
 16 21  1  0  0  0
 16 31  1  0  0  0
 17 18  1  0  0  0
 17100  1  0  0  0
 18 19  2  0  0  0
 18101  1  0  0  0
 19 20  1  0  0  0
 19 24  1  0  0  0
 20 21  2  0  0  0
 20102  1  0  0  0
 21 23  1  0  0  0
 22 28  1  0  0  0
 22 32  2  0  0  0
 26 27  1  0  0  0
 28103  1  0  0  0
 28104  1  0  0  0
 29105  1  0  0  0
 29106  1  0  0  0
 33 34  1  0  0  0
 33 66  1  0  0  0
 33 70  2  0  0  0
 34 36  1  0  0  0
 34 59  1  0  0  0
 34107  1  0  0  0
 35 44  2  0  0  0
 35 45  1  0  0  0
 35 68  1  0  0  0
 36 56  1  0  0  0
 36108  1  0  0  0
 37 39  1  0  0  0
 37 47  1  0  0  0
 37 66  1  0  0  0
 37109  1  0  0  0
 38 43  2  0  0  0
 38 46  1  0  0  0
 38 47  1  0  0  0
 39 64  1  0  0  0
 39 67  2  0  0  0
 40 52  1  0  0  0
 40 53  2  0  0  0
 40 58  1  0  0  0
 41110  1  0  0  0
 41111  1  0  0  0
 41112  1  0  0  0
 41 48  1  0  0  0
 42 43  1  0  0  0
 42 66  1  0  0  0
 42113  1  0  0  0
 42114  1  0  0  0
 43 44  1  0  0  0
 44115  1  0  0  0
 45 46  2  0  0  0
 45116  1  0  0  0
 46117  1  0  0  0
 47118  1  0  0  0
 47119  1  0  0  0
 48 56  1  0  0  0
 48 65  1  0  0  0
 48120  1  0  0  0
 49 50  1  0  0  0
 49 53  1  0  0  0
 49 64  1  0  0  0
 49121  1  0  0  0
 50 51  1  0  0  0
 50122  1  0  0  0
 50123  1  0  0  0
 51 52  1  0  0  0
 51124  1  0  0  0
 51125  1  0  0  0
 52126  1  0  0  0
 52127  1  0  0  0
 53 54  1  0  0  0
 54 55  2  0  0  0
 54128  1  0  0  0
 55 57  1  0  0  0
 55129  1  0  0  0
 56 69  2  0  0  0
 57 58  2  0  0  0
 57130  1  0  0  0
 58131  1  0  0  0
 59 60  1  0  0  0
 59 61  1  0  0  0
 59 62  1  0  0  0
 60132  1  0  0  0
 60133  1  0  0  0
 60134  1  0  0  0
 61135  1  0  0  0
 61136  1  0  0  0
 61137  1  0  0  0
 62138  1  0  0  0
 62139  1  0  0  0
 62140  1  0  0  0
 63 65  1  0  0  0
 63141  1  0  0  0
 63142  1  0  0  0
 63143  1  0  0  0
 64144  1  0  0  0
 65145  1  0  0  0
 68 81  1  0  0  0
 71 72  2  0  0  0
 71 74  1  0  0  0
 71146  1  0  0  0
 72 75  1  0  0  0
 72147  1  0  0  0
 73 74  2  0  0  0
 73 76  1  0  0  0
 73148  1  0  0  0
 74 77  1  0  0  0
 75 76  2  0  0  0
 75 82  1  0  0  0
 76 86  1  0  0  0
 77 83  1  0  0  0
 77 84  2  0  0  0
 78 79  1  0  0  0
 78 83  1  0  0  0
 78 85  2  0  0  0
 79 80  1  0  0  0
 79149  1  0  0  0
 79150  1  0  0  0
 80 81  1  0  0  0
 80151  1  0  0  0
 80152  1  0  0  0
 81153  1  0  0  0
 81154  1  0  0  0
 82155  1  0  0  0
 83156  1  0  0  0
 84157  1  0  0  0
 84158  1  0  0  0
M  CHG  1  84   1
M  ISO  4   1 100  68 101  81 101  82 100
M  END
> <chiral flag>
0

> <version>
0

> <s_m_source_file>
/data/baiqing/PycharmProjects/Reinvent-master-3.2/result/LINK_invent/BTK/process_docking_weight1_custom_product_contain_oxygen_bond_distance_aromatic_linkinvent_7_9_3/rearranged_h_0082.sdf

> <i_m_source_file_index>
57

> <r_mmod_Potential_Energy-OPLS-2005>
-436.041137695312

> <r_mmod_Stretch_Energy-OPLS-2005>
32.3173217773438

> <r_mmod_Bend_Energy-OPLS-2005>
103.001976013184

> <r_mmod_Torsional_Energy-OPLS-2005>
239.211395263672

> <r_mmod_Improper_Torsional_Energy-OPLS-2005>
5.53969383239746

> <r_mmod_Van_der_Waal_Energy-OPLS-2005>
165.444808959961

> <r_mmod_Electrostatic_Energy-OPLS-2005>
-532.804321289062

> <r_mmod_Solvation_Energy-OPLS-2005>
-455.410888671875

> <b_mmod_Minimization_Converged-OPLS-2005>
0

> <r_mmod_RMS_Derivative-OPLS-2005>
0.648087739944458

$$$$
57
                    3D
 Structure written by MMmdl.
151160  0  0  1  0            999 V2000
  -30.7561  -14.4954   20.5301 C   0  0  0  0  0  0
  -30.3960  -12.3141   19.4384 C   0  0  0  0  0  0
  -29.4846  -12.4858   18.2097 C   0  0  0  0  0  0
  -28.0089  -12.3511   18.6262 C   0  0  0  0  0  0
  -27.6484  -13.2231   19.8600 C   0  0  2  0  0  0
  -28.6950  -13.0873   20.9894 C   0  0  0  0  0  0
  -25.2531  -13.8200   20.5701 C   0  0  0  0  0  0
  -24.1810  -13.0451   20.9204 C   0  0  0  0  0  0
  -24.6388  -11.6925   20.8754 C   0  0  0  0  0  0
  -23.9065  -10.4299   21.0411 C   0  0  0  0  0  0
  -24.3618   -9.4212   21.9186 C   0  0  0  0  0  0
  -23.6294   -8.2246   22.0754 C   0  0  0  0  0  0
  -22.4277   -8.0283   21.3544 C   0  0  0  0  0  0
  -21.9912   -9.0257   20.4647 C   0  0  0  0  0  0
  -22.7239  -10.2138   20.3058 C   0  0  0  0  0  0
  -21.6854   -6.0737   22.5279 C   0  0  0  0  0  0
  -21.4015   -6.5641   23.8212 C   0  0  0  0  0  0
  -21.3660   -5.6793   24.9174 C   0  0  0  0  0  0
  -21.6044   -4.3056   24.7225 C   0  0  0  0  0  0
  -21.8819   -3.8148   23.4346 C   0  0  0  0  0  0
  -21.9193   -4.6964   22.3403 C   0  0  0  0  0  0
  -22.7830  -13.5233   21.1860 C   0  0  0  0  0  0
  -22.1662   -4.2150   21.0980 F   0  0  0  0  0  0
  -21.5628   -3.4539   25.7738 F   0  0  0  0  0  0
  -30.0161  -13.3568   20.4091 N   0  0  0  0  0  0
  -26.2966  -12.9399   20.3339 N   0  0  0  0  0  0
  -25.9319  -11.6544   20.5782 N   0  0  0  0  0  0
  -22.0475  -12.8223   22.0415 N   0  0  0  0  0  0
  -25.4226  -15.1922   20.4103 N   0  0  0  0  0  0
  -31.9241  -14.5141   20.1331 O   0  0  0  0  0  0
  -21.6642   -6.8880   21.4241 O   0  0  0  0  0  0
  -22.3515  -14.5539   20.6706 O   0  0  0  0  0  0
  -24.6161  -31.8675   23.2097 C   0  0  0  0  0  0
  -25.9047  -32.4822   23.8397 C   0  0  1  0  0  0
  -27.2230  -27.4267   20.0959 C   0  0  0  0  0  0
  -25.5898  -33.8620   24.2328 N   0  0  0  0  0  0
  -23.4052  -30.4920   21.5499 C   0  0  2  0  0  0
  -24.8525  -28.9631   20.1069 C   0  0  0  0  0  0
  -22.7424  -29.4657   22.4973 C   0  0  0  0  0  0
  -18.0276  -28.1379   22.8492 C   0  0  0  0  0  0
  -24.1487  -36.7318   23.2639 C   0  0  0  0  0  0
  -25.9358  -30.8320   21.3643 C   0  0  0  0  0  0
  -26.0148  -29.4684   20.7059 C   0  0  0  0  0  0
  -27.2089  -28.7071   20.6985 C   0  0  0  0  0  0
  -26.0504  -26.9429   19.4822 C   0  0  0  0  0  0
  -24.8658  -27.7009   19.4888 C   0  0  0  0  0  0
  -23.6138  -29.8288   20.1626 C   0  0  0  0  0  0
  -25.4108  -36.3114   24.0338 C   0  0  1  0  0  0
  -20.5869  -28.3670   23.1311 C   0  0  2  0  0  0
  -20.6767  -26.9404   22.5416 C   0  0  0  0  0  0
  -19.5744  -26.6387   21.5213 C   0  0  0  0  0  0
  -18.1924  -26.7925   22.1625 C   0  0  0  0  0  0
  -19.1526  -28.8840   23.2899 C   0  0  0  0  0  0
  -18.9453  -30.1445   23.8912 C   0  0  0  0  0  0
  -17.6455  -30.6584   24.0566 C   0  0  0  0  0  0
  -25.9034  -34.9477   23.5131 C   0  0  0  0  0  0
  -16.5346  -29.9087   23.6325 C   0  0  0  0  0  0
  -16.7265  -28.6503   23.0348 C   0  0  0  0  0  0
  -26.4471  -31.6600   25.0726 C   0  0  0  0  0  0
  -25.3736  -31.3700   26.1473 C   0  0  0  0  0  0
  -27.0304  -30.3043   24.6101 C   0  0  0  0  0  0
  -27.6048  -32.4318   25.7487 C   0  0  0  0  0  0
  -27.5581  -37.1814   24.8466 C   0  0  0  0  0  0
  -21.4149  -29.3036   22.3715 N   0  0  0  0  0  0
  -26.4296  -37.3796   23.9407 N   0  0  0  0  0  0
  -24.6707  -31.0773   22.0999 N   0  0  0  0  0  0
  -23.4192  -28.8195   23.3015 O   0  0  0  0  0  0
  -28.3143  -26.5896   20.1607 O   0  0  0  0  0  0
  -26.5598  -34.8928   22.4694 O   0  0  0  0  0  0
  -23.5350  -32.1426   23.7486 O   0  0  0  0  0  0
  -30.4814  -19.0501   19.8838 C   0  0  0  0  0  0
  -28.9396  -18.5668   21.6767 C   0  0  0  0  0  0
  -29.9970  -20.3740   19.8139 C   0  0  0  0  0  0
  -28.4834  -19.9098   21.6119 C   0  0  0  0  0  0
  -29.9863  -18.1340   20.8370 C   0  0  0  0  0  0
  -29.0226  -20.8744   20.7121 C   0  0  0  0  0  0
  -28.3739  -24.2438   20.9010 C   0  0  0  0  0  0
  -28.1628  -23.1056   21.7469 C   0  0  0  0  0  0
  -28.8661  -23.3724   19.8724 C   0  0  0  0  0  0
  -28.1472  -25.5689   21.0783 C   0  0  0  0  0  0
  -30.7364  -16.8379   21.0509 C   0  0  0  0  0  0
  -28.6529  -22.2633   20.7307 N   0  0  0  0  0  0
  -30.1141  -15.6423   20.8794 N   0  0  0  0  0  0
  -27.7632  -23.0061   22.8910 O   0  0  0  0  0  0
  -29.3121  -23.5875   18.7618 O   0  0  0  0  0  0
  -31.9331  -16.9564   21.3445 O   0  0  0  0  0  0
  -31.4436  -12.3608   19.1363 H   0  0  0  0  0  0
  -30.2635  -11.3247   19.8793 H   0  0  0  0  0  0
  -29.7277  -11.7400   17.4516 H   0  0  0  0  0  0
  -29.6550  -13.4602   17.7491 H   0  0  0  0  0  0
  -27.8283  -11.2993   18.8508 H   0  0  0  0  0  0
  -27.3559  -12.5971   17.7880 H   0  0  0  0  0  0
  -27.6679  -14.2581   19.5185 H   0  0  0  0  0  0
  -28.6750  -12.0829   21.4148 H   0  0  0  0  0  0
  -28.4692  -13.7682   21.8115 H   0  0  0  0  0  0
  -25.2761   -9.5690   22.4762 H   0  0  0  0  0  0
  -24.0005   -7.4638   22.7473 H   0  0  0  0  0  0
  -21.0844   -8.8777   19.8953 H   0  0  0  0  0  0
  -22.3696  -10.9678   19.6170 H   0  0  0  0  0  0
  -21.2009   -7.6149   23.9716 H   0  0  0  0  0  0
  -21.1482   -6.0524   25.9077 H   0  0  0  0  0  0
  -22.0597   -2.7610   23.2847 H   0  0  0  0  0  0
  -22.4094  -11.9885   22.4803 H   0  0  0  0  0  0
  -21.1092  -13.1245   22.2620 H   0  0  0  0  0  0
  -24.6528  -15.8441   20.5163 H   0  0  0  0  0  0
  -26.2676  -15.6326   20.0700 H   0  0  0  0  0  0
  -26.7121  -32.5535   23.1165 H   0  0  0  0  0  0
  -25.0049  -33.9781   25.0474 H   0  0  0  0  0  0
  -22.6943  -31.3094   21.4126 H   0  0  0  0  0  0
  -23.3744  -35.9656   23.3314 H   0  0  0  0  0  0
  -24.3580  -36.8919   22.2051 H   0  0  0  0  0  0
  -23.7245  -37.6529   23.6644 H   0  0  0  0  0  0
  -26.0506  -31.6007   20.5988 H   0  0  0  0  0  0
  -26.8226  -30.8828   21.9845 H   0  0  0  0  0  0
  -28.1024  -29.0800   21.1795 H   0  0  0  0  0  0
  -26.0495  -25.9647   19.0224 H   0  0  0  0  0  0
  -23.9725  -27.3063   19.0245 H   0  0  0  0  0  0
  -23.7205  -30.6064   19.4053 H   0  0  0  0  0  0
  -22.7377  -29.2492   19.8660 H   0  0  0  0  0  0
  -25.1285  -36.1983   25.0832 H   0  0  0  0  0  0
  -20.9962  -28.3237   24.1431 H   0  0  0  0  0  0
  -20.5672  -26.2278   23.3604 H   0  0  0  0  0  0
  -21.6637  -26.7447   22.1207 H   0  0  0  0  0  0
  -19.6907  -25.6301   21.1233 H   0  0  0  0  0  0
  -19.6683  -27.3206   20.6750 H   0  0  0  0  0  0
  -17.4194  -26.6673   21.4027 H   0  0  0  0  0  0
  -18.0326  -26.0064   22.9019 H   0  0  0  0  0  0
  -19.7929  -30.7256   24.2289 H   0  0  0  0  0  0
  -17.5011  -31.6266   24.5165 H   0  0  0  0  0  0
  -15.5347  -30.2994   23.7640 H   0  0  0  0  0  0
  -15.8664  -28.0828   22.7054 H   0  0  0  0  0  0
  -24.5907  -30.7052   25.7806 H   0  0  0  0  0  0
  -24.8930  -32.2853   26.4937 H   0  0  0  0  0  0
  -25.8089  -30.8856   27.0222 H   0  0  0  0  0  0
  -26.2850  -29.6808   24.1149 H   0  0  0  0  0  0
  -27.4071  -29.7275   25.4558 H   0  0  0  0  0  0
  -27.8687  -30.4368   23.9257 H   0  0  0  0  0  0
  -27.2667  -33.3602   26.2103 H   0  0  0  0  0  0
  -28.3834  -32.6905   25.0300 H   0  0  0  0  0  0
  -28.0743  -31.8421   26.5371 H   0  0  0  0  0  0
  -28.2609  -38.0101   24.7505 H   0  0  0  0  0  0
  -28.1066  -36.2634   24.6303 H   0  0  0  0  0  0
  -27.2299  -37.1479   25.8870 H   0  0  0  0  0  0
  -20.9309  -29.8763   21.6942 H   0  0  0  0  0  0
  -26.0189  -38.2878   24.1396 H   0  0  0  0  0  0
  -31.2915  -18.7544   19.2308 H   0  0  0  0  0  0
  -28.5411  -17.9025   22.4312 H   0  0  0  0  0  0
  -30.4473  -21.0379   19.0890 H   0  0  0  0  0  0
  -27.7202  -20.2146   22.3146 H   0  0  0  0  0  0
  -27.7400  -25.9369   22.0107 H   0  0  0  0  0  0
  -29.1091  -15.6346   20.8820 H   0  0  0  0  0  0
  1 25  1  0  0  0
  1 30  2  0  0  0
  1 83  1  0  0  0
  2  3  1  0  0  0
  2 25  1  0  0  0
  2 87  1  0  0  0
  2 88  1  0  0  0
  3  4  1  0  0  0
  3 89  1  0  0  0
  3 90  1  0  0  0
  4  5  1  0  0  0
  4 91  1  0  0  0
  4 92  1  0  0  0
  5  6  1  0  0  0
  5 26  1  0  0  0
  5 93  1  0  0  0
  6 25  1  0  0  0
  6 94  1  0  0  0
  6 95  1  0  0  0
  7  8  2  0  0  0
  7 26  1  0  0  0
  7 29  1  0  0  0
  8  9  1  0  0  0
  8 22  1  0  0  0
  9 10  1  0  0  0
  9 27  2  0  0  0
 10 11  2  0  0  0
 10 15  1  0  0  0
 11 12  1  0  0  0
 11 96  1  0  0  0
 12 13  2  0  0  0
 12 97  1  0  0  0
 13 14  1  0  0  0
 13 31  1  0  0  0
 14 15  2  0  0  0
 14 98  1  0  0  0
 15 99  1  0  0  0
 16 17  2  0  0  0
 16 21  1  0  0  0
 16 31  1  0  0  0
 17 18  1  0  0  0
 17100  1  0  0  0
 18 19  2  0  0  0
 18101  1  0  0  0
 19 20  1  0  0  0
 19 24  1  0  0  0
 20 21  2  0  0  0
 20102  1  0  0  0
 21 23  1  0  0  0
 22 28  1  0  0  0
 22 32  2  0  0  0
 26 27  1  0  0  0
 28103  1  0  0  0
 28104  1  0  0  0
 29105  1  0  0  0
 29106  1  0  0  0
 33 34  1  0  0  0
 33 66  1  0  0  0
 33 70  2  0  0  0
 34 36  1  0  0  0
 34 59  1  0  0  0
 34107  1  0  0  0
 35 44  2  0  0  0
 35 45  1  0  0  0
 35 68  1  0  0  0
 36 56  1  0  0  0
 36108  1  0  0  0
 37 39  1  0  0  0
 37 47  1  0  0  0
 37 66  1  0  0  0
 37109  1  0  0  0
 38 43  2  0  0  0
 38 46  1  0  0  0
 38 47  1  0  0  0
 39 64  1  0  0  0
 39 67  2  0  0  0
 40 52  1  0  0  0
 40 53  2  0  0  0
 40 58  1  0  0  0
 41110  1  0  0  0
 41111  1  0  0  0
 41112  1  0  0  0
 41 48  1  0  0  0
 42 43  1  0  0  0
 42 66  1  0  0  0
 42113  1  0  0  0
 42114  1  0  0  0
 43 44  1  0  0  0
 44115  1  0  0  0
 45 46  2  0  0  0
 45116  1  0  0  0
 46117  1  0  0  0
 47118  1  0  0  0
 47119  1  0  0  0
 48 56  1  0  0  0
 48 65  1  0  0  0
 48120  1  0  0  0
 49 50  1  0  0  0
 49 53  1  0  0  0
 49 64  1  0  0  0
 49121  1  0  0  0
 50 51  1  0  0  0
 50122  1  0  0  0
 50123  1  0  0  0
 51 52  1  0  0  0
 51124  1  0  0  0
 51125  1  0  0  0
 52126  1  0  0  0
 52127  1  0  0  0
 53 54  1  0  0  0
 54 55  2  0  0  0
 54128  1  0  0  0
 55 57  1  0  0  0
 55129  1  0  0  0
 56 69  2  0  0  0
 57 58  2  0  0  0
 57130  1  0  0  0
 58131  1  0  0  0
 59 60  1  0  0  0
 59 61  1  0  0  0
 59 62  1  0  0  0
 60132  1  0  0  0
 60133  1  0  0  0
 60134  1  0  0  0
 61135  1  0  0  0
 61136  1  0  0  0
 61137  1  0  0  0
 62138  1  0  0  0
 62139  1  0  0  0
 62140  1  0  0  0
 63 65  1  0  0  0
 63141  1  0  0  0
 63142  1  0  0  0
 63143  1  0  0  0
 64144  1  0  0  0
 65145  1  0  0  0
 68 80  1  0  0  0
 71 73  2  0  0  0
 71 75  1  0  0  0
 71146  1  0  0  0
 72 74  1  0  0  0
 72 75  2  0  0  0
 72147  1  0  0  0
 73 76  1  0  0  0
 73148  1  0  0  0
 74 76  2  0  0  0
 74149  1  0  0  0
 75 81  1  0  0  0
 76 82  1  0  0  0
 77 78  1  0  0  0
 77 79  1  0  0  0
 77 80  2  0  0  0
 78 82  1  0  0  0
 78 84  2  0  0  0
 79 82  1  0  0  0
 79 85  2  0  0  0
 80150  1  0  0  0
 81 83  1  0  0  0
 81 86  2  0  0  0
 83151  1  0  0  0
M  ISO  4   1 100  68 101  80 101  83 100
M  END
> <chiral flag>
0

> <version>
0

> <s_m_source_file>
/data/baiqing/PycharmProjects/Reinvent-master-3.2/result/LINK_invent/BTK/process_docking_weight1_custom_product_contain_oxygen_bond_distance_aromatic_linkinvent_7_9_3/rearranged_h_0082.sdf

> <i_m_source_file_index>
58

> <r_mmod_Potential_Energy-OPLS-2005>
-16.5997467041016

> <r_mmod_Stretch_Energy-OPLS-2005>
42.8458709716797

> <r_mmod_Bend_Energy-OPLS-2005>
189.383560180664

> <r_mmod_Torsional_Energy-OPLS-2005>
251.005508422852

> <r_mmod_Improper_Torsional_Energy-OPLS-2005>
7.27307558059692

> <r_mmod_Van_der_Waal_Energy-OPLS-2005>
151.860458374023

> <r_mmod_Electrostatic_Energy-OPLS-2005>
-444.487915039062

> <r_mmod_Solvation_Energy-OPLS-2005>
-241.523300170898

> <b_mmod_Minimization_Converged-OPLS-2005>
0

> <r_mmod_RMS_Derivative-OPLS-2005>
0.225808456540108

$$$$
58
                    3D
 Structure written by MMmdl.
152161  0  0  1  0            999 V2000
  -30.5131  -15.1283   20.2758 C   0  0  0  0  0  0
  -30.4307  -12.6878   19.4913 C   0  0  0  0  0  0
  -29.5188  -12.5319   18.2563 C   0  0  0  0  0  0
  -28.0587  -12.3064   18.6896 C   0  0  0  0  0  0
  -27.6228  -13.2712   19.8275 C   0  0  2  0  0  0
  -28.6770  -13.4059   20.9487 C   0  0  0  0  0  0
  -25.2510  -13.8297   20.5756 C   0  0  0  0  0  0
  -24.1852  -13.0481   20.9226 C   0  0  0  0  0  0
  -24.6490  -11.6991   20.8793 C   0  0  0  0  0  0
  -23.9147  -10.4360   21.0369 C   0  0  0  0  0  0
  -24.3697   -9.4284   21.9150 C   0  0  0  0  0  0
  -23.6335   -8.2332   22.0773 C   0  0  0  0  0  0
  -22.4301   -8.0383   21.3568 C   0  0  0  0  0  0
  -21.9976   -9.0352   20.4641 C   0  0  0  0  0  0
  -22.7325  -10.2206   20.3026 C   0  0  0  0  0  0
  -21.6882   -6.0841   22.5321 C   0  0  0  0  0  0
  -21.4013   -6.5699   23.8281 C   0  0  0  0  0  0
  -21.3625   -5.6796   24.9206 C   0  0  0  0  0  0
  -21.6050   -4.3077   24.7204 C   0  0  0  0  0  0
  -21.8812   -3.8211   23.4312 C   0  0  0  0  0  0
  -21.9196   -4.7061   22.3392 C   0  0  0  0  0  0
  -22.7859  -13.5249   21.1779 C   0  0  0  0  0  0
  -22.1671   -4.2303   21.0952 F   0  0  0  0  0  0
  -21.5602   -3.4527   25.7671 F   0  0  0  0  0  0
  -29.9178  -13.8503   20.2909 N   0  0  0  0  0  0
  -26.2935  -12.9557   20.3331 N   0  0  0  0  0  0
  -25.9456  -11.6682   20.5912 N   0  0  0  0  0  0
  -22.0489  -12.8292   22.0318 N   0  0  0  0  0  0
  -25.4029  -15.2053   20.4137 N   0  0  0  0  0  0
  -31.7447  -15.0845   20.1183 O   0  0  0  0  0  0
  -21.6637   -6.9015   21.4304 O   0  0  0  0  0  0
  -22.3535  -14.5522   20.6588 O   0  0  0  0  0  0
  -24.6579  -31.8348   23.1741 C   0  0  0  0  0  0
  -25.9270  -32.4656   23.8227 C   0  0  1  0  0  0
  -27.2238  -27.0208   20.1353 C   0  0  0  0  0  0
  -25.5949  -33.8471   24.2095 N   0  0  0  0  0  0
  -23.4753  -30.4517   21.5227 C   0  0  2  0  0  0
  -24.9193  -28.8402   20.1279 C   0  0  0  0  0  0
  -22.7678  -29.4553   22.4778 C   0  0  0  0  0  0
  -18.0347  -28.1486   22.8393 C   0  0  0  0  0  0
  -24.1498  -36.7222   23.2649 C   0  0  0  0  0  0
  -26.0404  -30.6673   21.3943 C   0  0  0  0  0  0
  -26.1101  -29.2639   20.7331 C   0  0  0  0  0  0
  -27.2666  -28.3742   20.7119 C   0  0  0  0  0  0
  -26.0018  -26.7265   19.4983 C   0  0  0  0  0  0
  -24.8811  -27.5885   19.4989 C   0  0  0  0  0  0
  -23.7083  -29.7605   20.1522 C   0  0  0  0  0  0
  -25.4145  -36.2995   24.0295 C   0  0  1  0  0  0
  -20.5971  -28.3860   23.1127 C   0  0  2  0  0  0
  -20.6850  -26.9532   22.5341 C   0  0  0  0  0  0
  -19.5821  -26.6388   21.5231 C   0  0  0  0  0  0
  -18.1987  -26.7984   22.1638 C   0  0  0  0  0  0
  -19.1629  -28.8986   23.2729 C   0  0  0  0  0  0
  -18.9500  -30.1560   23.8762 C   0  0  0  0  0  0
  -17.6520  -30.6588   24.0518 C   0  0  0  0  0  0
  -25.9099  -34.9389   23.5031 C   0  0  0  0  0  0
  -16.5398  -29.9102   23.6272 C   0  0  0  0  0  0
  -16.7316  -28.6532   23.0276 C   0  0  0  0  0  0
  -26.4548  -31.6587   25.0723 C   0  0  0  0  0  0
  -25.3684  -31.3771   26.1349 C   0  0  0  0  0  0
  -27.0398  -30.2956   24.6416 C   0  0  0  0  0  0
  -27.6048  -32.4391   25.7508 C   0  0  0  0  0  0
  -27.5573  -37.1761   24.8450 C   0  0  0  0  0  0
  -21.4351  -29.3149   22.3495 N   0  0  0  0  0  0
  -26.4284  -37.3717   23.9391 N   0  0  0  0  0  0
  -24.7449  -31.0100   22.0824 N   0  0  0  0  0  0
  -23.4235  -28.8106   23.3010 O   0  0  0  0  0  0
  -28.2606  -25.9901   20.0067 O   0  0  0  0  0  0
  -26.5698  -34.8891   22.4608 O   0  0  0  0  0  0
  -23.5642  -32.1268   23.6863 O   0  0  0  0  0  0
  -29.5951  -18.8005   16.9471 C   0  0  0  0  0  0
  -30.7541  -18.0727   17.2340 C   0  0  0  0  0  0
  -28.8624  -19.3331   18.0166 C   0  0  0  0  0  0
  -31.0006  -17.6318   18.5502 C   0  0  0  0  0  0
  -29.2311  -19.1204   19.3750 C   0  0  0  0  0  0
  -30.0628  -17.8310   19.6003 C   0  0  0  0  0  0
  -27.4919  -22.0767   20.9893 C   0  0  0  0  0  0
  -28.3110  -22.9198   20.3276 C   0  0  0  0  0  0
  -27.8292  -20.6465   20.8779 C   0  0  0  0  0  0
  -29.2830  -21.8492   19.7818 C   0  0  0  0  0  0
  -28.3363  -24.5761   20.7525 C   0  0  0  0  0  0
  -28.9288  -20.4932   20.1109 N   0  0  0  0  0  0
  -29.7881  -16.4064   20.2453 N   0  0  0  0  0  0
  -27.2416  -19.7147   21.4389 O   0  0  0  0  0  0
  -30.3082  -22.1198   19.1495 O   0  0  0  0  0  0
  -31.4723  -12.8158   19.1756 H   0  0  0  0  0  0
  -30.4239  -11.7770   20.0915 H   0  0  0  0  0  0
  -29.8547  -11.7059   17.6341 H   0  0  0  0  0  0
  -29.5913  -13.4255   17.6324 H   0  0  0  0  0  0
  -27.9624  -11.2780   19.0407 H   0  0  0  0  0  0
  -27.3876  -12.3883   17.8311 H   0  0  0  0  0  0
  -27.5569  -14.2548   19.3548 H   0  0  0  0  0  0
  -28.8198  -12.4612   21.4747 H   0  0  0  0  0  0
  -28.3679  -14.1302   21.7061 H   0  0  0  0  0  0
  -25.2890   -9.5779   22.4676 H   0  0  0  0  0  0
  -24.0091   -7.4748   22.7509 H   0  0  0  0  0  0
  -21.0934   -8.8860   19.8909 H   0  0  0  0  0  0
  -22.3811  -10.9736   19.6106 H   0  0  0  0  0  0
  -21.1985   -7.6205   23.9862 H   0  0  0  0  0  0
  -21.1430   -6.0487   25.9141 H   0  0  0  0  0  0
  -22.0586   -2.7700   23.2724 H   0  0  0  0  0  0
  -22.4119  -11.9972   22.4710 H   0  0  0  0  0  0
  -21.1134  -13.1414   22.2509 H   0  0  0  0  0  0
  -24.5995  -15.8248   20.4877 H   0  0  0  0  0  0
  -26.2360  -15.6623   20.0679 H   0  0  0  0  0  0
  -26.7328  -32.5221   23.0946 H   0  0  0  0  0  0
  -25.0082  -33.9566   25.0229 H   0  0  0  0  0  0
  -22.7898  -31.2835   21.3448 H   0  0  0  0  0  0
  -23.3795  -35.9516   23.3274 H   0  0  0  0  0  0
  -24.3590  -36.8913   22.2074 H   0  0  0  0  0  0
  -23.7218  -37.6379   23.6731 H   0  0  0  0  0  0
  -26.2242  -31.4176   20.6222 H   0  0  0  0  0  0
  -26.9034  -30.7132   22.0486 H   0  0  0  0  0  0
  -28.1899  -28.7121   21.1572 H   0  0  0  0  0  0
  -25.9086  -25.7831   18.9799 H   0  0  0  0  0  0
  -23.9748  -27.2570   19.0124 H   0  0  0  0  0  0
  -23.8572  -30.5120   19.3770 H   0  0  0  0  0  0
  -22.8245  -29.1986   19.8410 H   0  0  0  0  0  0
  -25.1349  -36.1838   25.0789 H   0  0  0  0  0  0
  -21.0085  -28.3573   24.1268 H   0  0  0  0  0  0
  -20.5805  -26.2427   23.3525 H   0  0  0  0  0  0
  -21.6684  -26.7513   22.1121 H   0  0  0  0  0  0
  -19.7020  -25.6297   21.1333 H   0  0  0  0  0  0
  -19.6854  -27.3217   20.6792 H   0  0  0  0  0  0
  -17.4230  -26.6702   21.4117 H   0  0  0  0  0  0
  -18.0461  -26.0223   22.9144 H   0  0  0  0  0  0
  -19.7947  -30.7427   24.2113 H   0  0  0  0  0  0
  -17.5065  -31.6269   24.5148 H   0  0  0  0  0  0
  -15.5389  -30.2928   23.7661 H   0  0  0  0  0  0
  -15.8736  -28.0804   22.7045 H   0  0  0  0  0  0
  -24.5921  -30.7087   25.7591 H   0  0  0  0  0  0
  -24.8827  -32.2935   26.4696 H   0  0  0  0  0  0
  -25.7933  -30.8966   27.0180 H   0  0  0  0  0  0
  -26.3011  -29.6660   24.1431 H   0  0  0  0  0  0
  -27.3903  -29.7305   25.5069 H   0  0  0  0  0  0
  -27.8986  -30.4093   23.9802 H   0  0  0  0  0  0
  -27.2633  -33.3741   26.1975 H   0  0  0  0  0  0
  -28.3912  -32.6907   25.0373 H   0  0  0  0  0  0
  -28.0668  -31.8626   26.5526 H   0  0  0  0  0  0
  -28.2551  -38.0092   24.7539 H   0  0  0  0  0  0
  -28.1117  -36.2624   24.6267 H   0  0  0  0  0  0
  -27.2279  -37.1380   25.8845 H   0  0  0  0  0  0
  -20.9609  -29.8753   21.6561 H   0  0  0  0  0  0
  -26.0160  -38.2772   24.1452 H   0  0  0  0  0  0
  -29.3394  -19.0652   15.9250 H   0  0  0  0  0  0
  -31.4027  -17.7794   16.4220 H   0  0  0  0  0  0
  -28.1162  -20.0690   17.7454 H   0  0  0  0  0  0
  -31.8121  -16.9358   18.6554 H   0  0  0  0  0  0
  -26.7334  -22.4326   21.6663 H   0  0  0  0  0  0
  -27.4809  -24.6405   21.4247 H   0  0  0  0  0  0
  -29.2075  -24.6718   21.3979 H   0  0  0  0  0  0
  -28.8196  -16.2863   20.5043 H   0  0  0  0  0  0
  1 25  1  0  0  0
  1 30  2  0  0  0
  1 83  1  0  0  0
  2  3  1  0  0  0
  2 25  1  0  0  0
  2 86  1  0  0  0
  2 87  1  0  0  0
  3  4  1  0  0  0
  3 88  1  0  0  0
  3 89  1  0  0  0
  4  5  1  0  0  0
  4 90  1  0  0  0
  4 91  1  0  0  0
  5  6  1  0  0  0
  5 26  1  0  0  0
  5 92  1  0  0  0
  6 25  1  0  0  0
  6 93  1  0  0  0
  6 94  1  0  0  0
  7  8  2  0  0  0
  7 26  1  0  0  0
  7 29  1  0  0  0
  8  9  1  0  0  0
  8 22  1  0  0  0
  9 10  1  0  0  0
  9 27  2  0  0  0
 10 11  2  0  0  0
 10 15  1  0  0  0
 11 12  1  0  0  0
 11 95  1  0  0  0
 12 13  2  0  0  0
 12 96  1  0  0  0
 13 14  1  0  0  0
 13 31  1  0  0  0
 14 15  2  0  0  0
 14 97  1  0  0  0
 15 98  1  0  0  0
 16 17  2  0  0  0
 16 21  1  0  0  0
 16 31  1  0  0  0
 17 18  1  0  0  0
 17 99  1  0  0  0
 18 19  2  0  0  0
 18100  1  0  0  0
 19 20  1  0  0  0
 19 24  1  0  0  0
 20 21  2  0  0  0
 20101  1  0  0  0
 21 23  1  0  0  0
 22 28  1  0  0  0
 22 32  2  0  0  0
 26 27  1  0  0  0
 28102  1  0  0  0
 28103  1  0  0  0
 29104  1  0  0  0
 29105  1  0  0  0
 33 34  1  0  0  0
 33 66  1  0  0  0
 33 70  2  0  0  0
 34 36  1  0  0  0
 34 59  1  0  0  0
 34106  1  0  0  0
 35 44  2  0  0  0
 35 45  1  0  0  0
 35 68  1  0  0  0
 36 56  1  0  0  0
 36107  1  0  0  0
 37 39  1  0  0  0
 37 47  1  0  0  0
 37 66  1  0  0  0
 37108  1  0  0  0
 38 43  2  0  0  0
 38 46  1  0  0  0
 38 47  1  0  0  0
 39 64  1  0  0  0
 39 67  2  0  0  0
 40 52  1  0  0  0
 40 53  2  0  0  0
 40 58  1  0  0  0
 41109  1  0  0  0
 41110  1  0  0  0
 41111  1  0  0  0
 41 48  1  0  0  0
 42 43  1  0  0  0
 42 66  1  0  0  0
 42112  1  0  0  0
 42113  1  0  0  0
 43 44  1  0  0  0
 44114  1  0  0  0
 45 46  2  0  0  0
 45115  1  0  0  0
 46116  1  0  0  0
 47117  1  0  0  0
 47118  1  0  0  0
 48 56  1  0  0  0
 48 65  1  0  0  0
 48119  1  0  0  0
 49 50  1  0  0  0
 49 53  1  0  0  0
 49 64  1  0  0  0
 49120  1  0  0  0
 50 51  1  0  0  0
 50121  1  0  0  0
 50122  1  0  0  0
 51 52  1  0  0  0
 51123  1  0  0  0
 51124  1  0  0  0
 52125  1  0  0  0
 52126  1  0  0  0
 53 54  1  0  0  0
 54 55  2  0  0  0
 54127  1  0  0  0
 55 57  1  0  0  0
 55128  1  0  0  0
 56 69  2  0  0  0
 57 58  2  0  0  0
 57129  1  0  0  0
 58130  1  0  0  0
 59 60  1  0  0  0
 59 61  1  0  0  0
 59 62  1  0  0  0
 60131  1  0  0  0
 60132  1  0  0  0
 60133  1  0  0  0
 61134  1  0  0  0
 61135  1  0  0  0
 61136  1  0  0  0
 62137  1  0  0  0
 62138  1  0  0  0
 62139  1  0  0  0
 63 65  1  0  0  0
 63140  1  0  0  0
 63141  1  0  0  0
 63142  1  0  0  0
 64143  1  0  0  0
 65144  1  0  0  0
 68 81  1  0  0  0
 71 72  2  0  0  0
 71 73  1  0  0  0
 71145  1  0  0  0
 72 74  1  0  0  0
 72146  1  0  0  0
 73 75  2  0  0  0
 73147  1  0  0  0
 74 76  2  0  0  0
 74148  1  0  0  0
 75 76  1  0  0  0
 75 82  1  0  0  0
 76 83  1  0  0  0
 77 78  2  0  0  0
 77 79  1  0  0  0
 77149  1  0  0  0
 78 80  1  0  0  0
 78 81  1  0  0  0
 79 82  1  0  0  0
 79 84  2  0  0  0
 80 82  1  0  0  0
 80 85  2  0  0  0
 81150  1  0  0  0
 81151  1  0  0  0
 83152  1  0  0  0
M  ISO  4   1 100  68 101  81 101  83 100
M  END
> <chiral flag>
0

> <version>
0

> <s_m_source_file>
/data/baiqing/PycharmProjects/Reinvent-master-3.2/result/LINK_invent/BTK/process_docking_weight1_custom_product_contain_oxygen_bond_distance_aromatic_linkinvent_7_9_3/rearranged_h_0082.sdf

> <i_m_source_file_index>
59

> <r_mmod_Potential_Energy-OPLS-2005>
1173.283203125

> <r_mmod_Stretch_Energy-OPLS-2005>
415.913513183594

> <r_mmod_Bend_Energy-OPLS-2005>
492.446197509766

> <r_mmod_Torsional_Energy-OPLS-2005>
477.148895263672

> <r_mmod_Improper_Torsional_Energy-OPLS-2005>
23.2736358642578

> <r_mmod_Van_der_Waal_Energy-OPLS-2005>
131.309417724609

> <r_mmod_Electrostatic_Energy-OPLS-2005>
-444.538940429688

> <r_mmod_Solvation_Energy-OPLS-2005>
-243.390045166016

> <b_mmod_Minimization_Converged-OPLS-2005>
0

> <r_mmod_RMS_Derivative-OPLS-2005>
9.82234859466553

$$$$
59
                    3D
 Structure written by MMmdl.
154162  0  0  1  0            999 V2000
  -30.6382  -14.5634   20.5357 C   0  0  0  0  0  0
  -30.4364  -12.3527   19.4398 C   0  0  0  0  0  0
  -29.5078  -12.5247   18.2171 C   0  0  0  0  0  0
  -28.0263  -12.3803   18.6212 C   0  0  0  0  0  0
  -27.6617  -13.2147   19.8784 C   0  0  2  0  0  0
  -28.7034  -13.0092   21.0017 C   0  0  0  0  0  0
  -25.2576  -13.8179   20.5692 C   0  0  0  0  0  0
  -24.1828  -13.0446   20.9169 C   0  0  0  0  0  0
  -24.6388  -11.6914   20.8702 C   0  0  0  0  0  0
  -23.9053  -10.4297   21.0378 C   0  0  0  0  0  0
  -24.3611   -9.4218   21.9157 C   0  0  0  0  0  0
  -23.6291   -8.2250   22.0747 C   0  0  0  0  0  0
  -22.4264   -8.0282   21.3548 C   0  0  0  0  0  0
  -21.9890   -9.0250   20.4643 C   0  0  0  0  0  0
  -22.7220  -10.2131   20.3039 C   0  0  0  0  0  0
  -21.6858   -6.0723   22.5278 C   0  0  0  0  0  0
  -21.4022   -6.5626   23.8211 C   0  0  0  0  0  0
  -21.3664   -5.6775   24.9169 C   0  0  0  0  0  0
  -21.6047   -4.3040   24.7220 C   0  0  0  0  0  0
  -21.8824   -3.8136   23.4342 C   0  0  0  0  0  0
  -21.9198   -4.6952   22.3398 C   0  0  0  0  0  0
  -22.7847  -13.5242   21.1844 C   0  0  0  0  0  0
  -22.1664   -4.2143   21.0973 F   0  0  0  0  0  0
  -21.5631   -3.4523   25.7733 F   0  0  0  0  0  0
  -30.0283  -13.3440   20.4520 N   0  0  0  0  0  0
  -26.3020  -12.9361   20.3360 N   0  0  0  0  0  0
  -25.9322  -11.6514   20.5741 N   0  0  0  0  0  0
  -22.0490  -12.8244   22.0407 N   0  0  0  0  0  0
  -25.4298  -15.1907   20.4177 N   0  0  0  0  0  0
  -31.7743  -14.7562   20.0885 O   0  0  0  0  0  0
  -21.6647   -6.8867   21.4240 O   0  0  0  0  0  0
  -22.3527  -14.5544   20.6691 O   0  0  0  0  0  0
  -24.6240  -31.8626   23.2048 C   0  0  0  0  0  0
  -25.9102  -32.4791   23.8365 C   0  0  1  0  0  0
  -27.2299  -27.3685   20.0995 C   0  0  0  0  0  0
  -25.5932  -33.8584   24.2298 N   0  0  0  0  0  0
  -23.4147  -30.4882   21.5458 C   0  0  2  0  0  0
  -24.8601  -28.9484   20.1091 C   0  0  0  0  0  0
  -22.7455  -29.4657   22.4944 C   0  0  0  0  0  0
  -18.0293  -28.1388   22.8484 C   0  0  0  0  0  0
  -24.1491  -36.7296   23.2639 C   0  0  0  0  0  0
  -25.9516  -30.8063   21.3701 C   0  0  0  0  0  0
  -26.0263  -29.4392   20.7095 C   0  0  0  0  0  0
  -27.2131  -28.6561   20.7036 C   0  0  0  0  0  0
  -26.0356  -26.9061   19.4998 C   0  0  0  0  0  0
  -24.8624  -27.6827   19.5007 C   0  0  0  0  0  0
  -23.6273  -29.8249   20.1595 C   0  0  0  0  0  0
  -25.4111  -36.3091   24.0340 C   0  0  1  0  0  0
  -20.5891  -28.3691   23.1283 C   0  0  2  0  0  0
  -20.6787  -26.9411   22.5414 C   0  0  0  0  0  0
  -19.5761  -26.6386   21.5216 C   0  0  0  0  0  0
  -18.1938  -26.7935   22.1624 C   0  0  0  0  0  0
  -19.1544  -28.8852   23.2879 C   0  0  0  0  0  0
  -18.9470  -30.1456   23.8897 C   0  0  0  0  0  0
  -17.6472  -30.6588   24.0567 C   0  0  0  0  0  0
  -25.9043  -34.9458   23.5115 C   0  0  0  0  0  0
  -16.5362  -29.9091   23.6330 C   0  0  0  0  0  0
  -16.7281  -28.6508   23.0345 C   0  0  0  0  0  0
  -26.4495  -31.6597   25.0725 C   0  0  0  0  0  0
  -25.3752  -31.3735   26.1476 C   0  0  0  0  0  0
  -27.0334  -30.3027   24.6152 C   0  0  0  0  0  0
  -27.6047  -32.4343   25.7501 C   0  0  0  0  0  0
  -27.5579  -37.1807   24.8466 C   0  0  0  0  0  0
  -21.4174  -29.3052   22.3676 N   0  0  0  0  0  0
  -26.4294  -37.3780   23.9406 N   0  0  0  0  0  0
  -24.6818  -31.0678   22.0981 N   0  0  0  0  0  0
  -23.4186  -28.8216   23.3033 O   0  0  0  0  0  0
  -28.3516  -26.5431   20.1611 O   0  0  0  0  0  0
  -26.5592  -34.8927   22.4671 O   0  0  0  0  0  0
  -23.5410  -32.1423   23.7392 O   0  0  0  0  0  0
  -30.5230  -19.0263   19.5478 C   0  0  0  0  0  0
  -29.1132  -19.2588   21.4919 C   0  0  0  0  0  0
  -30.5866  -17.6203   19.7436 C   0  0  0  0  0  0
  -29.1672  -17.8497   21.6833 C   0  0  0  0  0  0
  -29.7829  -19.8831   20.4064 C   0  0  0  0  0  0
  -29.9079  -16.9993   20.8215 C   0  0  0  0  0  0
  -28.5183  -25.5670   19.1886 C   0  0  0  0  0  0
  -29.7864  -21.4016   20.1767 C   0  0  0  0  0  0
  -28.5744  -24.2004   19.2990 C   0  0  0  0  0  0
  -28.4461  -23.4714   20.5899 C   0  0  0  0  0  0
  -28.6576  -23.4136   17.9942 C   0  0  0  0  0  0
  -29.8712  -15.5670   21.0424 N   0  0  0  0  0  0
  -28.7627  -22.1396   20.6786 N   0  0  0  0  0  0
  -30.7263  -21.8937   19.5453 O   0  0  0  0  0  0
  -27.9111  -23.9876   21.5744 O   0  0  0  0  0  0
  -31.4808  -12.4709   19.1436 H   0  0  0  0  0  0
  -30.3562  -11.3427   19.8452 H   0  0  0  0  0  0
  -29.7596  -11.7975   17.4443 H   0  0  0  0  0  0
  -29.6690  -13.5078   17.7708 H   0  0  0  0  0  0
  -27.8366  -11.3238   18.8098 H   0  0  0  0  0  0
  -27.3828  -12.6638   17.7876 H   0  0  0  0  0  0
  -27.6984  -14.2626   19.5794 H   0  0  0  0  0  0
  -28.6960  -11.9729   21.3444 H   0  0  0  0  0  0
  -28.4578  -13.6047   21.8821 H   0  0  0  0  0  0
  -25.2767   -9.5708   22.4707 H   0  0  0  0  0  0
  -24.0021   -7.4644   22.7467 H   0  0  0  0  0  0
  -21.0818   -8.8759   19.8946 H   0  0  0  0  0  0
  -22.3677  -10.9658   19.6134 H   0  0  0  0  0  0
  -21.2019   -7.6134   23.9720 H   0  0  0  0  0  0
  -21.1481   -6.0496   25.9072 H   0  0  0  0  0  0
  -22.0601   -2.7600   23.2838 H   0  0  0  0  0  0
  -22.4113  -11.9910   22.4802 H   0  0  0  0  0  0
  -21.1107  -13.1270   22.2610 H   0  0  0  0  0  0
  -24.6652  -15.8465   20.5349 H   0  0  0  0  0  0
  -26.2892  -15.6352   20.1195 H   0  0  0  0  0  0
  -26.7171  -32.5473   23.1113 H   0  0  0  0  0  0
  -25.0142  -33.9724   25.0489 H   0  0  0  0  0  0
  -22.7077  -31.3086   21.4034 H   0  0  0  0  0  0
  -23.3752  -35.9631   23.3320 H   0  0  0  0  0  0
  -24.3583  -36.8896   22.2052 H   0  0  0  0  0  0
  -23.7260  -37.6514   23.6634 H   0  0  0  0  0  0
  -26.0791  -31.5749   20.6070 H   0  0  0  0  0  0
  -26.8326  -30.8498   21.9986 H   0  0  0  0  0  0
  -28.1081  -29.0224   21.1863 H   0  0  0  0  0  0
  -25.9873  -25.9231   19.0530 H   0  0  0  0  0  0
  -23.9643  -27.2907   19.0437 H   0  0  0  0  0  0
  -23.7487  -30.6034   19.4056 H   0  0  0  0  0  0
  -22.7475  -29.2559   19.8557 H   0  0  0  0  0  0
  -25.1292  -36.1947   25.0836 H   0  0  0  0  0  0
  -20.9968  -28.3275   24.1410 H   0  0  0  0  0  0
  -20.5707  -26.2289   23.3613 H   0  0  0  0  0  0
  -21.6654  -26.7462   22.1193 H   0  0  0  0  0  0
  -19.6917  -25.6295   21.1249 H   0  0  0  0  0  0
  -19.6705  -27.3195   20.6745 H   0  0  0  0  0  0
  -17.4207  -26.6687   21.4027 H   0  0  0  0  0  0
  -18.0324  -26.0082   22.9024 H   0  0  0  0  0  0
  -19.7950  -30.7267   24.2262 H   0  0  0  0  0  0
  -17.5036  -31.6270   24.5165 H   0  0  0  0  0  0
  -15.5365  -30.2994   23.7650 H   0  0  0  0  0  0
  -15.8684  -28.0832   22.7047 H   0  0  0  0  0  0
  -24.5909  -30.7086   25.7836 H   0  0  0  0  0  0
  -24.8967  -32.2909   26.4916 H   0  0  0  0  0  0
  -25.8121  -30.8923   27.0239 H   0  0  0  0  0  0
  -26.2897  -29.6783   24.1182 H   0  0  0  0  0  0
  -27.4064  -29.7271   25.4635 H   0  0  0  0  0  0
  -27.8751  -30.4333   23.9344 H   0  0  0  0  0  0
  -27.2627  -33.3633   26.2076 H   0  0  0  0  0  0
  -28.3856  -32.6933   25.0336 H   0  0  0  0  0  0
  -28.0704  -31.8480   26.5435 H   0  0  0  0  0  0
  -28.2606  -38.0089   24.7485 H   0  0  0  0  0  0
  -28.1064  -36.2623   24.6321 H   0  0  0  0  0  0
  -27.2288  -37.1497   25.8866 H   0  0  0  0  0  0
  -20.9333  -29.8763   21.6890 H   0  0  0  0  0  0
  -26.0186  -38.2862   24.1391 H   0  0  0  0  0  0
  -31.0600  -19.4511   18.7100 H   0  0  0  0  0  0
  -28.5498  -19.8511   22.1988 H   0  0  0  0  0  0
  -31.1529  -17.0283   19.0385 H   0  0  0  0  0  0
  -28.6261  -17.4236   22.5172 H   0  0  0  0  0  0
  -28.5913  -26.0391   18.2193 H   0  0  0  0  0  0
  -28.2151  -23.9789   17.1737 H   0  0  0  0  0  0
  -28.1080  -22.4735   18.0492 H   0  0  0  0  0  0
  -29.6907  -23.2107   17.7160 H   0  0  0  0  0  0
  -29.0532  -15.2342   21.5305 H   0  0  0  0  0  0
  -28.2412  -21.6444   21.3805 H   0  0  0  0  0  0
  1 25  1  0  0  0
  1 30  2  0  0  0
  1 82  1  0  0  0
  2  3  1  0  0  0
  2 25  1  0  0  0
  2 86  1  0  0  0
  2 87  1  0  0  0
  3  4  1  0  0  0
  3 88  1  0  0  0
  3 89  1  0  0  0
  4  5  1  0  0  0
  4 90  1  0  0  0
  4 91  1  0  0  0
  5  6  1  0  0  0
  5 26  1  0  0  0
  5 92  1  0  0  0
  6 25  1  0  0  0
  6 93  1  0  0  0
  6 94  1  0  0  0
  7  8  2  0  0  0
  7 26  1  0  0  0
  7 29  1  0  0  0
  8  9  1  0  0  0
  8 22  1  0  0  0
  9 10  1  0  0  0
  9 27  2  0  0  0
 10 11  2  0  0  0
 10 15  1  0  0  0
 11 12  1  0  0  0
 11 95  1  0  0  0
 12 13  2  0  0  0
 12 96  1  0  0  0
 13 14  1  0  0  0
 13 31  1  0  0  0
 14 15  2  0  0  0
 14 97  1  0  0  0
 15 98  1  0  0  0
 16 17  2  0  0  0
 16 21  1  0  0  0
 16 31  1  0  0  0
 17 18  1  0  0  0
 17 99  1  0  0  0
 18 19  2  0  0  0
 18100  1  0  0  0
 19 20  1  0  0  0
 19 24  1  0  0  0
 20 21  2  0  0  0
 20101  1  0  0  0
 21 23  1  0  0  0
 22 28  1  0  0  0
 22 32  2  0  0  0
 26 27  1  0  0  0
 28102  1  0  0  0
 28103  1  0  0  0
 29104  1  0  0  0
 29105  1  0  0  0
 33 34  1  0  0  0
 33 66  1  0  0  0
 33 70  2  0  0  0
 34 36  1  0  0  0
 34 59  1  0  0  0
 34106  1  0  0  0
 35 44  2  0  0  0
 35 45  1  0  0  0
 35 68  1  0  0  0
 36 56  1  0  0  0
 36107  1  0  0  0
 37 39  1  0  0  0
 37 47  1  0  0  0
 37 66  1  0  0  0
 37108  1  0  0  0
 38 43  2  0  0  0
 38 46  1  0  0  0
 38 47  1  0  0  0
 39 64  1  0  0  0
 39 67  2  0  0  0
 40 52  1  0  0  0
 40 53  2  0  0  0
 40 58  1  0  0  0
 41109  1  0  0  0
 41110  1  0  0  0
 41111  1  0  0  0
 41 48  1  0  0  0
 42 43  1  0  0  0
 42 66  1  0  0  0
 42112  1  0  0  0
 42113  1  0  0  0
 43 44  1  0  0  0
 44114  1  0  0  0
 45 46  2  0  0  0
 45115  1  0  0  0
 46116  1  0  0  0
 47117  1  0  0  0
 47118  1  0  0  0
 48 56  1  0  0  0
 48 65  1  0  0  0
 48119  1  0  0  0
 49 50  1  0  0  0
 49 53  1  0  0  0
 49 64  1  0  0  0
 49120  1  0  0  0
 50 51  1  0  0  0
 50121  1  0  0  0
 50122  1  0  0  0
 51 52  1  0  0  0
 51123  1  0  0  0
 51124  1  0  0  0
 52125  1  0  0  0
 52126  1  0  0  0
 53 54  1  0  0  0
 54 55  2  0  0  0
 54127  1  0  0  0
 55 57  1  0  0  0
 55128  1  0  0  0
 56 69  2  0  0  0
 57 58  2  0  0  0
 57129  1  0  0  0
 58130  1  0  0  0
 59 60  1  0  0  0
 59 61  1  0  0  0
 59 62  1  0  0  0
 60131  1  0  0  0
 60132  1  0  0  0
 60133  1  0  0  0
 61134  1  0  0  0
 61135  1  0  0  0
 61136  1  0  0  0
 62137  1  0  0  0
 62138  1  0  0  0
 62139  1  0  0  0
 63 65  1  0  0  0
 63140  1  0  0  0
 63141  1  0  0  0
 63142  1  0  0  0
 64143  1  0  0  0
 65144  1  0  0  0
 68 77  1  0  0  0
 71 73  2  0  0  0
 71 75  1  0  0  0
 71145  1  0  0  0
 72 74  1  0  0  0
 72 75  2  0  0  0
 72146  1  0  0  0
 73 76  1  0  0  0
 73147  1  0  0  0
 74 76  2  0  0  0
 74148  1  0  0  0
 75 78  1  0  0  0
 76 82  1  0  0  0
 77 79  2  0  0  0
 77149  1  0  0  0
 78 83  1  0  0  0
 78 84  2  0  0  0
 79 80  1  0  0  0
 79 81  1  0  0  0
 80 83  1  0  0  0
 80 85  2  0  0  0
 81150  1  0  0  0
 81151  1  0  0  0
 81152  1  0  0  0
 82153  1  0  0  0
 83154  1  0  0  0
M  ISO  4   1 100  68 101  77 101  82 100
M  END
> <chiral flag>
0

> <version>
0

> <s_m_source_file>
/data/baiqing/PycharmProjects/Reinvent-master-3.2/result/LINK_invent/BTK/process_docking_weight1_custom_product_contain_oxygen_bond_distance_aromatic_linkinvent_7_9_3/rearranged_h_0082.sdf

> <i_m_source_file_index>
60

> <r_mmod_Potential_Energy-OPLS-2005>
-59.9501647949219

> <r_mmod_Stretch_Energy-OPLS-2005>
58.1501083374023

> <r_mmod_Bend_Energy-OPLS-2005>
146.909576416016

> <r_mmod_Torsional_Energy-OPLS-2005>
267.599945068359

> <r_mmod_Improper_Torsional_Energy-OPLS-2005>
6.66718053817749

> <r_mmod_Van_der_Waal_Energy-OPLS-2005>
160.501205444336

> <r_mmod_Electrostatic_Energy-OPLS-2005>
-484.819183349609

> <r_mmod_Solvation_Energy-OPLS-2005>
-244.549423217773

> <b_mmod_Minimization_Converged-OPLS-2005>
0

> <r_mmod_RMS_Derivative-OPLS-2005>
1.85966801643372

$$$$
60
                    3D
 Structure written by MMmdl.
155164  0  0  1  0            999 V2000
  -30.5493  -14.6870   20.4303 C   0  0  0  0  0  0
  -30.4639  -12.4051   19.4493 C   0  0  0  0  0  0
  -29.5165  -12.5031   18.2266 C   0  0  0  0  0  0
  -28.0397  -12.3152   18.6374 C   0  0  0  0  0  0
  -27.6523  -13.1888   19.8558 C   0  0  2  0  0  0
  -28.7071  -13.0525   20.9804 C   0  0  0  0  0  0
  -25.2581  -13.8041   20.5734 C   0  0  0  0  0  0
  -24.1809  -13.0354   20.9175 C   0  0  0  0  0  0
  -24.6358  -11.6828   20.8723 C   0  0  0  0  0  0
  -23.9021  -10.4245   21.0406 C   0  0  0  0  0  0
  -24.3584   -9.4174   21.9191 C   0  0  0  0  0  0
  -23.6265   -8.2211   22.0757 C   0  0  0  0  0  0
  -22.4249   -8.0257   21.3543 C   0  0  0  0  0  0
  -21.9876   -9.0226   20.4645 C   0  0  0  0  0  0
  -22.7199  -10.2103   20.3052 C   0  0  0  0  0  0
  -21.6838   -6.0725   22.5282 C   0  0  0  0  0  0
  -21.4000   -6.5634   23.8215 C   0  0  0  0  0  0
  -21.3656   -5.6788   24.9178 C   0  0  0  0  0  0
  -21.6046   -4.3052   24.7229 C   0  0  0  0  0  0
  -21.8818   -3.8143   23.4352 C   0  0  0  0  0  0
  -21.9188   -4.6956   22.3406 C   0  0  0  0  0  0
  -22.7851  -13.5201   21.1862 C   0  0  0  0  0  0
  -22.1662   -4.2143   21.0982 F   0  0  0  0  0  0
  -21.5631   -3.4538   25.7744 F   0  0  0  0  0  0
  -30.0327  -13.4131   20.4353 N   0  0  0  0  0  0
  -26.2985  -12.9177   20.3314 N   0  0  0  0  0  0
  -25.9271  -11.6362   20.5722 N   0  0  0  0  0  0
  -22.0482  -12.8208   22.0420 N   0  0  0  0  0  0
  -25.4321  -15.1753   20.4332 N   0  0  0  0  0  0
  -31.7373  -14.8900   20.1735 O   0  0  0  0  0  0
  -21.6614   -6.8860   21.4242 O   0  0  0  0  0  0
  -22.3563  -14.5534   20.6735 O   0  0  0  0  0  0
  -24.6264  -31.8600   23.2014 C   0  0  0  0  0  0
  -25.9111  -32.4781   23.8338 C   0  0  1  0  0  0
  -27.2353  -27.3214   20.1003 C   0  0  0  0  0  0
  -25.5928  -33.8579   24.2273 N   0  0  0  0  0  0
  -23.4198  -30.4839   21.5454 C   0  0  2  0  0  0
  -24.8656  -28.9392   20.1127 C   0  0  0  0  0  0
  -22.7482  -29.4628   22.4952 C   0  0  0  0  0  0
  -18.0285  -28.1379   22.8497 C   0  0  0  0  0  0
  -24.1492  -36.7291   23.2638 C   0  0  0  0  0  0
  -25.9612  -30.7906   21.3717 C   0  0  0  0  0  0
  -26.0357  -29.4171   20.7149 C   0  0  0  0  0  0
  -27.2192  -28.6187   20.7025 C   0  0  0  0  0  0
  -26.0262  -26.8894   19.4996 C   0  0  0  0  0  0
  -24.8622  -27.6788   19.5006 C   0  0  0  0  0  0
  -23.6326  -29.8171   20.1617 C   0  0  0  0  0  0
  -25.4119  -36.3085   24.0330 C   0  0  1  0  0  0
  -20.5886  -28.3678   23.1300 C   0  0  2  0  0  0
  -20.6779  -26.9405   22.5413 C   0  0  0  0  0  0
  -19.5753  -26.6384   21.5216 C   0  0  0  0  0  0
  -18.1931  -26.7924   22.1626 C   0  0  0  0  0  0
  -19.1540  -28.8846   23.2893 C   0  0  0  0  0  0
  -18.9465  -30.1452   23.8900 C   0  0  0  0  0  0
  -17.6464  -30.6583   24.0563 C   0  0  0  0  0  0
  -25.9055  -34.9455   23.5103 C   0  0  0  0  0  0
  -16.5354  -29.9081   23.6331 C   0  0  0  0  0  0
  -16.7273  -28.6497   23.0358 C   0  0  0  0  0  0
  -26.4488  -31.6583   25.0705 C   0  0  0  0  0  0
  -25.3720  -31.3706   26.1429 C   0  0  0  0  0  0
  -27.0320  -30.3014   24.6127 C   0  0  0  0  0  0
  -27.6059  -32.4295   25.7471 C   0  0  0  0  0  0
  -27.5579  -37.1801   24.8467 C   0  0  0  0  0  0
  -21.4193  -29.3038   22.3700 N   0  0  0  0  0  0
  -26.4293  -37.3785   23.9408 N   0  0  0  0  0  0
  -24.6883  -31.0612   22.0966 N   0  0  0  0  0  0
  -23.4209  -28.8176   23.3038 O   0  0  0  0  0  0
  -28.3737  -26.4910   20.1409 O   0  0  0  0  0  0
  -26.5630  -34.8926   22.4674 O   0  0  0  0  0  0
  -23.5431  -32.1391   23.7354 O   0  0  0  0  0  0
  -27.5946  -18.5291   19.5469 C   0  0  0  0  0  0
  -30.2911  -19.3986   20.4356 C   0  0  0  0  0  0
  -28.1022  -17.3088   19.7830 C   0  0  0  0  0  0
  -30.4753  -18.0270   20.4519 C   0  0  0  0  0  0
  -28.0674  -19.7756   19.6942 C   0  0  0  0  0  0
  -29.2660  -20.2573   20.0957 C   0  0  0  0  0  0
  -28.9203  -24.0194   20.1288 C   0  0  0  0  0  0
  -29.4507  -16.9338   20.2560 C   0  0  0  0  0  0
  -29.7784  -23.7944   21.2608 C   0  0  0  0  0  0
  -28.7423  -22.6926   19.5028 C   0  0  0  0  0  0
  -30.1592  -24.7244   22.1525 C   0  0  0  0  0  0
  -28.3291  -25.1695   19.6476 C   0  0  0  0  0  0
  -30.1807  -22.3295   21.3097 C   0  0  0  0  0  0
  -29.5055  -15.6411   20.4321 N   0  0  0  0  0  0
  -29.3740  -21.7076   20.2483 N   0  0  0  0  0  0
  -28.1094  -22.4915   18.4591 O   0  0  0  0  0  0
  -31.4993  -12.5596   19.1403 H   0  0  0  0  0  0
  -30.4254  -11.4060   19.8869 H   0  0  0  0  0  0
  -29.7898  -11.7558   17.4805 H   0  0  0  0  0  0
  -29.6390  -13.4743   17.7441 H   0  0  0  0  0  0
  -27.8939  -11.2622   18.8802 H   0  0  0  0  0  0
  -27.3808  -12.5275   17.7948 H   0  0  0  0  0  0
  -27.6478  -14.2103   19.4869 H   0  0  0  0  0  0
  -28.7247  -12.0322   21.3657 H   0  0  0  0  0  0
  -28.4468  -13.6853   21.8305 H   0  0  0  0  0  0
  -25.2727   -9.5658   22.4766 H   0  0  0  0  0  0
  -23.9979   -7.4597   22.7469 H   0  0  0  0  0  0
  -21.0810   -8.8741   19.8946 H   0  0  0  0  0  0
  -22.3666  -10.9644   19.6160 H   0  0  0  0  0  0
  -21.1984   -7.6140   23.9719 H   0  0  0  0  0  0
  -21.1481   -6.0517   25.9080 H   0  0  0  0  0  0
  -22.0601   -2.7606   23.2851 H   0  0  0  0  0  0
  -22.4073  -11.9847   22.4780 H   0  0  0  0  0  0
  -21.1116  -13.1268   22.2642 H   0  0  0  0  0  0
  -24.6888  -15.8443   20.5984 H   0  0  0  0  0  0
  -26.3353  -15.6043   20.2884 H   0  0  0  0  0  0
  -26.7180  -32.5450   23.1087 H   0  0  0  0  0  0
  -25.0062  -33.9717   25.0409 H   0  0  0  0  0  0
  -22.7126  -31.3034   21.4025 H   0  0  0  0  0  0
  -23.3757  -35.9621   23.3303 H   0  0  0  0  0  0
  -24.3586  -36.8905   22.2052 H   0  0  0  0  0  0
  -23.7237  -37.6494   23.6651 H   0  0  0  0  0  0
  -26.0888  -31.5523   20.6016 H   0  0  0  0  0  0
  -26.8442  -30.8429   21.9974 H   0  0  0  0  0  0
  -28.1176  -28.9843   21.1799 H   0  0  0  0  0  0
  -25.9295  -25.9196   19.0391 H   0  0  0  0  0  0
  -23.9617  -27.2990   19.0380 H   0  0  0  0  0  0
  -23.7465  -30.5906   19.4022 H   0  0  0  0  0  0
  -22.7539  -29.2425   19.8631 H   0  0  0  0  0  0
  -25.1296  -36.1939   25.0823 H   0  0  0  0  0  0
  -20.9967  -28.3236   24.1423 H   0  0  0  0  0  0
  -20.5694  -26.2278   23.3605 H   0  0  0  0  0  0
  -21.6648  -26.7445   22.1194 H   0  0  0  0  0  0
  -19.6917  -25.6301   21.1231 H   0  0  0  0  0  0
  -19.6692  -27.3208   20.6761 H   0  0  0  0  0  0
  -17.4206  -26.6683   21.4023 H   0  0  0  0  0  0
  -18.0327  -26.0059   22.9016 H   0  0  0  0  0  0
  -19.7942  -30.7270   24.2260 H   0  0  0  0  0  0
  -17.5019  -31.6265   24.5164 H   0  0  0  0  0  0
  -15.5357  -30.2984   23.7653 H   0  0  0  0  0  0
  -15.8675  -28.0814   22.7071 H   0  0  0  0  0  0
  -24.5916  -30.7033   25.7747 H   0  0  0  0  0  0
  -24.8890  -32.2865   26.4838 H   0  0  0  0  0  0
  -25.8054  -30.8892   27.0207 H   0  0  0  0  0  0
  -26.2875  -29.6777   24.1163 H   0  0  0  0  0  0
  -27.4054  -29.7250   25.4600 H   0  0  0  0  0  0
  -27.8728  -30.4315   23.9312 H   0  0  0  0  0  0
  -27.2686  -33.3600   26.2041 H   0  0  0  0  0  0
  -28.3870  -32.6834   25.0294 H   0  0  0  0  0  0
  -28.0715  -31.8411   26.5386 H   0  0  0  0  0  0
  -28.2601  -38.0096   24.7521 H   0  0  0  0  0  0
  -28.1072  -36.2628   24.6285 H   0  0  0  0  0  0
  -27.2297  -37.1436   25.8872 H   0  0  0  0  0  0
  -20.9366  -29.8757   21.6907 H   0  0  0  0  0  0
  -26.0175  -38.2860   24.1418 H   0  0  0  0  0  0
  -26.5766  -18.4983   19.1833 H   0  0  0  0  0  0
  -31.1996  -19.9179   20.7026 H   0  0  0  0  0  0
  -27.5013  -16.4996   19.4018 H   0  0  0  0  0  0
  -31.4653  -17.6936   20.7272 H   0  0  0  0  0  0
  -27.2819  -20.5100   19.5895 H   0  0  0  0  0  0
  -29.8358  -25.7522   22.0745 H   0  0  0  0  0  0
  -30.8053  -24.4705   22.9808 H   0  0  0  0  0  0
  -27.7669  -25.1112   18.7283 H   0  0  0  0  0  0
  -29.9457  -21.8922   22.2814 H   0  0  0  0  0  0
  -31.2473  -22.2199   21.1119 H   0  0  0  0  0  0
  1 25  1  0  0  0
  1 30  2  0  0  0
  1 84  1  0  0  0
  2  3  1  0  0  0
  2 25  1  0  0  0
  2 87  1  0  0  0
  2 88  1  0  0  0
  3  4  1  0  0  0
  3 89  1  0  0  0
  3 90  1  0  0  0
  4  5  1  0  0  0
  4 91  1  0  0  0
  4 92  1  0  0  0
  5  6  1  0  0  0
  5 26  1  0  0  0
  5 93  1  0  0  0
  6 25  1  0  0  0
  6 94  1  0  0  0
  6 95  1  0  0  0
  7  8  2  0  0  0
  7 26  1  0  0  0
  7 29  1  0  0  0
  8  9  1  0  0  0
  8 22  1  0  0  0
  9 10  1  0  0  0
  9 27  2  0  0  0
 10 11  2  0  0  0
 10 15  1  0  0  0
 11 12  1  0  0  0
 11 96  1  0  0  0
 12 13  2  0  0  0
 12 97  1  0  0  0
 13 14  1  0  0  0
 13 31  1  0  0  0
 14 15  2  0  0  0
 14 98  1  0  0  0
 15 99  1  0  0  0
 16 17  2  0  0  0
 16 21  1  0  0  0
 16 31  1  0  0  0
 17 18  1  0  0  0
 17100  1  0  0  0
 18 19  2  0  0  0
 18101  1  0  0  0
 19 20  1  0  0  0
 19 24  1  0  0  0
 20 21  2  0  0  0
 20102  1  0  0  0
 21 23  1  0  0  0
 22 28  1  0  0  0
 22 32  2  0  0  0
 26 27  1  0  0  0
 28103  1  0  0  0
 28104  1  0  0  0
 29105  1  0  0  0
 29106  1  0  0  0
 33 34  1  0  0  0
 33 66  1  0  0  0
 33 70  2  0  0  0
 34 36  1  0  0  0
 34 59  1  0  0  0
 34107  1  0  0  0
 35 44  2  0  0  0
 35 45  1  0  0  0
 35 68  1  0  0  0
 36 56  1  0  0  0
 36108  1  0  0  0
 37 39  1  0  0  0
 37 47  1  0  0  0
 37 66  1  0  0  0
 37109  1  0  0  0
 38 43  2  0  0  0
 38 46  1  0  0  0
 38 47  1  0  0  0
 39 64  1  0  0  0
 39 67  2  0  0  0
 40 52  1  0  0  0
 40 53  2  0  0  0
 40 58  1  0  0  0
 41110  1  0  0  0
 41111  1  0  0  0
 41112  1  0  0  0
 41 48  1  0  0  0
 42 43  1  0  0  0
 42 66  1  0  0  0
 42113  1  0  0  0
 42114  1  0  0  0
 43 44  1  0  0  0
 44115  1  0  0  0
 45 46  2  0  0  0
 45116  1  0  0  0
 46117  1  0  0  0
 47118  1  0  0  0
 47119  1  0  0  0
 48 56  1  0  0  0
 48 65  1  0  0  0
 48120  1  0  0  0
 49 50  1  0  0  0
 49 53  1  0  0  0
 49 64  1  0  0  0
 49121  1  0  0  0
 50 51  1  0  0  0
 50122  1  0  0  0
 50123  1  0  0  0
 51 52  1  0  0  0
 51124  1  0  0  0
 51125  1  0  0  0
 52126  1  0  0  0
 52127  1  0  0  0
 53 54  1  0  0  0
 54 55  2  0  0  0
 54128  1  0  0  0
 55 57  1  0  0  0
 55129  1  0  0  0
 56 69  2  0  0  0
 57 58  2  0  0  0
 57130  1  0  0  0
 58131  1  0  0  0
 59 60  1  0  0  0
 59 61  1  0  0  0
 59 62  1  0  0  0
 60132  1  0  0  0
 60133  1  0  0  0
 60134  1  0  0  0
 61135  1  0  0  0
 61136  1  0  0  0
 61137  1  0  0  0
 62138  1  0  0  0
 62139  1  0  0  0
 62140  1  0  0  0
 63 65  1  0  0  0
 63141  1  0  0  0
 63142  1  0  0  0
 63143  1  0  0  0
 64144  1  0  0  0
 65145  1  0  0  0
 68 82  1  0  0  0
 71 73  2  0  0  0
 71 75  1  0  0  0
 71146  1  0  0  0
 72 74  2  0  0  0
 72 76  1  0  0  0
 72147  1  0  0  0
 73 78  1  0  0  0
 73148  1  0  0  0
 74 78  1  0  0  0
 74149  1  0  0  0
 75 76  2  0  0  0
 75150  1  0  0  0
 76 85  1  0  0  0
 77 79  1  0  0  0
 77 80  1  0  0  0
 77 82  2  0  0  0
 78 84  2  0  0  0
 79 81  2  0  0  0
 79 83  1  0  0  0
 80 85  1  0  0  0
 80 86  2  0  0  0
 81151  1  0  0  0
 81152  1  0  0  0
 82153  1  0  0  0
 83 85  1  0  0  0
 83154  1  0  0  0
 83155  1  0  0  0
M  ISO  4   1 100  68 101  82 101  84 100
M  END
> <chiral flag>
0

> <version>
0

> <s_m_source_file>
/data/baiqing/PycharmProjects/Reinvent-master-3.2/result/LINK_invent/BTK/process_docking_weight1_custom_product_contain_oxygen_bond_distance_aromatic_linkinvent_7_9_3/rearranged_h_0082.sdf

> <i_m_source_file_index>
61

> <r_mmod_Potential_Energy-OPLS-2005>
291.206207275391

> <r_mmod_Stretch_Energy-OPLS-2005>
86.4931259155273

> <r_mmod_Bend_Energy-OPLS-2005>
267.719482421875

> <r_mmod_Torsional_Energy-OPLS-2005>
184.328186035156

> <r_mmod_Improper_Torsional_Energy-OPLS-2005>
9.24182987213135

> <r_mmod_Van_der_Waal_Energy-OPLS-2005>
153.992691040039

> <r_mmod_Electrostatic_Energy-OPLS-2005>
-286.3525390625

> <r_mmod_Solvation_Energy-OPLS-2005>
-184.34001159668

> <b_mmod_Minimization_Converged-OPLS-2005>
0

> <r_mmod_RMS_Derivative-OPLS-2005>
1.15409696102142

$$$$
61
                    3D
 Structure written by MMmdl.
154163  0  0  1  0            999 V2000
  -30.7119  -14.4704   20.5737 C   0  0  0  0  0  0
  -30.4162  -12.3078   19.4227 C   0  0  0  0  0  0
  -29.4912  -12.5030   18.2051 C   0  0  0  0  0  0
  -28.0131  -12.3613   18.6182 C   0  0  0  0  0  0
  -27.6569  -13.2076   19.8696 C   0  0  2  0  0  0
  -28.6978  -13.0064   20.9927 C   0  0  0  0  0  0
  -25.2577  -13.8164   20.5678 C   0  0  0  0  0  0
  -24.1832  -13.0441   20.9183 C   0  0  0  0  0  0
  -24.6386  -11.6907   20.8738 C   0  0  0  0  0  0
  -23.9053  -10.4293   21.0406 C   0  0  0  0  0  0
  -24.3608   -9.4209   21.9183 C   0  0  0  0  0  0
  -23.6286   -8.2244   22.0753 C   0  0  0  0  0  0
  -22.4269   -8.0279   21.3544 C   0  0  0  0  0  0
  -21.9902   -9.0251   20.4646 C   0  0  0  0  0  0
  -22.7227  -10.2132   20.3056 C   0  0  0  0  0  0
  -21.6853   -6.0734   22.5278 C   0  0  0  0  0  0
  -21.4015   -6.5638   23.8211 C   0  0  0  0  0  0
  -21.3660   -5.6791   24.9173 C   0  0  0  0  0  0
  -21.6044   -4.3054   24.7225 C   0  0  0  0  0  0
  -21.8820   -3.8146   23.4347 C   0  0  0  0  0  0
  -21.9193   -4.6962   22.3402 C   0  0  0  0  0  0
  -22.7857  -13.5240   21.1847 C   0  0  0  0  0  0
  -22.1661   -4.2147   21.0980 F   0  0  0  0  0  0
  -21.5628   -3.4538   25.7739 F   0  0  0  0  0  0
  -30.0258  -13.3017   20.4341 N   0  0  0  0  0  0
  -26.3001  -12.9332   20.3343 N   0  0  0  0  0  0
  -25.9310  -11.6492   20.5760 N   0  0  0  0  0  0
  -22.0499  -12.8232   22.0404 N   0  0  0  0  0  0
  -25.4308  -15.1880   20.4076 N   0  0  0  0  0  0
  -31.8518  -14.6244   20.1236 O   0  0  0  0  0  0
  -21.6638   -6.8875   21.4239 O   0  0  0  0  0  0
  -22.3546  -14.5548   20.6697 O   0  0  0  0  0  0
  -24.6150  -31.8675   23.2095 C   0  0  0  0  0  0
  -25.9043  -32.4818   23.8390 C   0  0  1  0  0  0
  -27.2346  -27.4260   20.0833 C   0  0  0  0  0  0
  -25.5900  -33.8617   24.2322 N   0  0  0  0  0  0
  -23.4021  -30.4913   21.5508 C   0  0  2  0  0  0
  -24.8456  -28.9540   20.1160 C   0  0  0  0  0  0
  -22.7405  -29.4659   22.4995 C   0  0  0  0  0  0
  -18.0269  -28.1376   22.8496 C   0  0  0  0  0  0
  -24.1487  -36.7313   23.2638 C   0  0  0  0  0  0
  -25.9317  -30.8280   21.3639 C   0  0  0  0  0  0
  -26.0059  -29.4610   20.7119 C   0  0  0  0  0  0
  -27.1983  -28.7013   20.6973 C   0  0  0  0  0  0
  -26.0447  -26.9255   19.5040 C   0  0  0  0  0  0
  -24.8594  -27.6846   19.5141 C   0  0  0  0  0  0
  -23.6094  -29.8232   20.1654 C   0  0  0  0  0  0
  -25.4107  -36.3108   24.0336 C   0  0  1  0  0  0
  -20.5858  -28.3661   23.1322 C   0  0  2  0  0  0
  -20.6760  -26.9399   22.5418 C   0  0  0  0  0  0
  -19.5739  -26.6386   21.5214 C   0  0  0  0  0  0
  -18.1918  -26.7924   22.1624 C   0  0  0  0  0  0
  -19.1518  -28.8836   23.2906 C   0  0  0  0  0  0
  -18.9447  -30.1442   23.8916 C   0  0  0  0  0  0
  -17.6450  -30.6584   24.0566 C   0  0  0  0  0  0
  -25.9036  -34.9474   23.5127 C   0  0  0  0  0  0
  -16.5341  -29.9087   23.6326 C   0  0  0  0  0  0
  -16.7258  -28.6502   23.0351 C   0  0  0  0  0  0
  -26.4468  -31.6599   25.0721 C   0  0  0  0  0  0
  -25.3735  -31.3704   26.1470 C   0  0  0  0  0  0
  -27.0297  -30.3042   24.6100 C   0  0  0  0  0  0
  -27.6048  -32.4316   25.7481 C   0  0  0  0  0  0
  -27.5584  -37.1807   24.8461 C   0  0  0  0  0  0
  -21.4133  -29.3032   22.3733 N   0  0  0  0  0  0
  -26.4292  -37.3794   23.9412 N   0  0  0  0  0  0
  -24.6680  -31.0769   22.0997 N   0  0  0  0  0  0
  -23.4178  -28.8202   23.3036 O   0  0  0  0  0  0
  -28.4271  -26.7244   20.0941 O   0  0  0  0  0  0
  -26.5601  -34.8925   22.4690 O   0  0  0  0  0  0
  -23.5344  -32.1432   23.7489 O   0  0  0  0  0  0
  -29.7254  -20.2635   21.4284 C   0  0  0  0  0  0
  -28.3357  -19.4274   19.6273 C   0  0  0  0  0  0
  -29.4881  -21.5912   21.0021 C   0  0  0  0  0  0
  -28.1013  -20.7540   19.2017 C   0  0  0  0  0  0
  -29.1751  -19.1591   20.7324 C   0  0  0  0  0  0
  -28.6805  -21.8577   19.8668 C   0  0  0  0  0  0
  -29.8621  -17.3981   22.3893 C   0  0  0  0  0  0
  -29.4764  -17.7577   21.1615 C   0  0  0  0  0  0
  -29.6111  -16.5652   20.3197 C   0  0  0  0  0  0
  -28.6375  -24.2353   19.9332 C   0  0  0  0  0  0
  -30.2454  -15.9520   22.4682 C   0  0  0  0  0  0
  -28.6252  -25.5938   19.2247 C   0  0  0  0  0  0
  -28.4908  -23.1338   19.2965 N   0  0  0  0  0  0
  -30.0286  -15.5208   21.0887 N   0  0  0  0  0  0
  -29.3917  -16.5052   19.1040 O   0  0  0  0  0  0
  -31.4616  -12.3982   19.1220 H   0  0  0  0  0  0
  -30.3107  -11.3000   19.8276 H   0  0  0  0  0  0
  -29.7325  -11.7768   17.4277 H   0  0  0  0  0  0
  -29.6585  -13.4885   17.7672 H   0  0  0  0  0  0
  -27.8264  -11.3059   18.8203 H   0  0  0  0  0  0
  -27.3620  -12.6295   17.7854 H   0  0  0  0  0  0
  -27.6948  -14.2521   19.5620 H   0  0  0  0  0  0
  -28.6732  -11.9789   21.3582 H   0  0  0  0  0  0
  -28.4601  -13.6316   21.8542 H   0  0  0  0  0  0
  -25.2756   -9.5686   22.4753 H   0  0  0  0  0  0
  -23.9998   -7.4637   22.7472 H   0  0  0  0  0  0
  -21.0834   -8.8768   19.8953 H   0  0  0  0  0  0
  -22.3686  -10.9669   19.6163 H   0  0  0  0  0  0
  -21.2007   -7.6146   23.9713 H   0  0  0  0  0  0
  -21.1482   -6.0522   25.9075 H   0  0  0  0  0  0
  -22.0599   -2.7609   23.2848 H   0  0  0  0  0  0
  -22.4110  -11.9887   22.4785 H   0  0  0  0  0  0
  -21.1120  -13.1264   22.2617 H   0  0  0  0  0  0
  -24.6637  -15.8437   20.5091 H   0  0  0  0  0  0
  -26.2792  -15.6209   20.0663 H   0  0  0  0  0  0
  -26.7112  -32.5521   23.1150 H   0  0  0  0  0  0
  -25.0054  -33.9778   25.0470 H   0  0  0  0  0  0
  -22.6911  -31.3083   21.4121 H   0  0  0  0  0  0
  -23.3747  -35.9648   23.3302 H   0  0  0  0  0  0
  -24.3585  -36.8926   22.2052 H   0  0  0  0  0  0
  -23.7239  -37.6519   23.6651 H   0  0  0  0  0  0
  -26.0458  -31.5930   20.5946 H   0  0  0  0  0  0
  -26.8193  -30.8804   21.9827 H   0  0  0  0  0  0
  -28.0960  -29.0934   21.1548 H   0  0  0  0  0  0
  -25.9990  -25.9459   19.0529 H   0  0  0  0  0  0
  -23.9622  -27.2829   19.0637 H   0  0  0  0  0  0
  -23.7186  -30.5976   19.4052 H   0  0  0  0  0  0
  -22.7324  -29.2444   19.8703 H   0  0  0  0  0  0
  -25.1284  -36.1972   25.0829 H   0  0  0  0  0  0
  -20.9948  -28.3224   24.1442 H   0  0  0  0  0  0
  -20.5663  -26.2269   23.3604 H   0  0  0  0  0  0
  -21.6632  -26.7446   22.1210 H   0  0  0  0  0  0
  -19.6901  -25.6301   21.1233 H   0  0  0  0  0  0
  -19.6679  -27.3206   20.6753 H   0  0  0  0  0  0
  -17.4188  -26.6675   21.4025 H   0  0  0  0  0  0
  -18.0317  -26.0059   22.9014 H   0  0  0  0  0  0
  -19.7922  -30.7253   24.2296 H   0  0  0  0  0  0
  -17.5004  -31.6268   24.5162 H   0  0  0  0  0  0
  -15.5342  -30.2997   23.7640 H   0  0  0  0  0  0
  -15.8656  -28.0828   22.7060 H   0  0  0  0  0  0
  -24.5914  -30.7042   25.7812 H   0  0  0  0  0  0
  -24.8917  -32.2856   26.4922 H   0  0  0  0  0  0
  -25.8090  -30.8878   27.0228 H   0  0  0  0  0  0
  -26.2840  -29.6807   24.1152 H   0  0  0  0  0  0
  -27.4064  -29.7274   25.4557 H   0  0  0  0  0  0
  -27.8676  -30.4361   23.9249 H   0  0  0  0  0  0
  -27.2674  -33.3608   26.2083 H   0  0  0  0  0  0
  -28.3843  -32.6888   25.0297 H   0  0  0  0  0  0
  -28.0731  -31.8423   26.5374 H   0  0  0  0  0  0
  -28.2596  -38.0111   24.7526 H   0  0  0  0  0  0
  -28.1086  -36.2645   24.6263 H   0  0  0  0  0  0
  -27.2306  -37.1427   25.8865 H   0  0  0  0  0  0
  -20.9291  -29.8761   21.6963 H   0  0  0  0  0  0
  -26.0180  -38.2871   24.1419 H   0  0  0  0  0  0
  -30.3709  -20.1058   22.2804 H   0  0  0  0  0  0
  -27.8773  -18.6179   19.0771 H   0  0  0  0  0  0
  -29.9728  -22.3911   21.5436 H   0  0  0  0  0  0
  -27.4822  -20.9181   18.3304 H   0  0  0  0  0  0
  -29.9355  -18.0529   23.2457 H   0  0  0  0  0  0
  -28.8140  -24.2844   21.0110 H   0  0  0  0  0  0
  -29.6022  -15.4125   23.1646 H   0  0  0  0  0  0
  -31.2869  -15.8469   22.7793 H   0  0  0  0  0  0
  -27.9580  -25.5711   18.3643 H   0  0  0  0  0  0
  -29.6154  -25.7265   18.7888 H   0  0  0  0  0  0
  1 25  1  0  0  0
  1 30  2  0  0  0
  1 84  1  0  0  0
  2  3  1  0  0  0
  2 25  1  0  0  0
  2 86  1  0  0  0
  2 87  1  0  0  0
  3  4  1  0  0  0
  3 88  1  0  0  0
  3 89  1  0  0  0
  4  5  1  0  0  0
  4 90  1  0  0  0
  4 91  1  0  0  0
  5  6  1  0  0  0
  5 26  1  0  0  0
  5 92  1  0  0  0
  6 25  1  0  0  0
  6 93  1  0  0  0
  6 94  1  0  0  0
  7  8  2  0  0  0
  7 26  1  0  0  0
  7 29  1  0  0  0
  8  9  1  0  0  0
  8 22  1  0  0  0
  9 10  1  0  0  0
  9 27  2  0  0  0
 10 11  2  0  0  0
 10 15  1  0  0  0
 11 12  1  0  0  0
 11 95  1  0  0  0
 12 13  2  0  0  0
 12 96  1  0  0  0
 13 14  1  0  0  0
 13 31  1  0  0  0
 14 15  2  0  0  0
 14 97  1  0  0  0
 15 98  1  0  0  0
 16 17  2  0  0  0
 16 21  1  0  0  0
 16 31  1  0  0  0
 17 18  1  0  0  0
 17 99  1  0  0  0
 18 19  2  0  0  0
 18100  1  0  0  0
 19 20  1  0  0  0
 19 24  1  0  0  0
 20 21  2  0  0  0
 20101  1  0  0  0
 21 23  1  0  0  0
 22 28  1  0  0  0
 22 32  2  0  0  0
 26 27  1  0  0  0
 28102  1  0  0  0
 28103  1  0  0  0
 29104  1  0  0  0
 29105  1  0  0  0
 33 34  1  0  0  0
 33 66  1  0  0  0
 33 70  2  0  0  0
 34 36  1  0  0  0
 34 59  1  0  0  0
 34106  1  0  0  0
 35 44  2  0  0  0
 35 45  1  0  0  0
 35 68  1  0  0  0
 36 56  1  0  0  0
 36107  1  0  0  0
 37 39  1  0  0  0
 37 47  1  0  0  0
 37 66  1  0  0  0
 37108  1  0  0  0
 38 43  2  0  0  0
 38 46  1  0  0  0
 38 47  1  0  0  0
 39 64  1  0  0  0
 39 67  2  0  0  0
 40 52  1  0  0  0
 40 53  2  0  0  0
 40 58  1  0  0  0
 41109  1  0  0  0
 41110  1  0  0  0
 41111  1  0  0  0
 41 48  1  0  0  0
 42 43  1  0  0  0
 42 66  1  0  0  0
 42112  1  0  0  0
 42113  1  0  0  0
 43 44  1  0  0  0
 44114  1  0  0  0
 45 46  2  0  0  0
 45115  1  0  0  0
 46116  1  0  0  0
 47117  1  0  0  0
 47118  1  0  0  0
 48 56  1  0  0  0
 48 65  1  0  0  0
 48119  1  0  0  0
 49 50  1  0  0  0
 49 53  1  0  0  0
 49 64  1  0  0  0
 49120  1  0  0  0
 50 51  1  0  0  0
 50121  1  0  0  0
 50122  1  0  0  0
 51 52  1  0  0  0
 51123  1  0  0  0
 51124  1  0  0  0
 52125  1  0  0  0
 52126  1  0  0  0
 53 54  1  0  0  0
 54 55  2  0  0  0
 54127  1  0  0  0
 55 57  1  0  0  0
 55128  1  0  0  0
 56 69  2  0  0  0
 57 58  2  0  0  0
 57129  1  0  0  0
 58130  1  0  0  0
 59 60  1  0  0  0
 59 61  1  0  0  0
 59 62  1  0  0  0
 60131  1  0  0  0
 60132  1  0  0  0
 60133  1  0  0  0
 61134  1  0  0  0
 61135  1  0  0  0
 61136  1  0  0  0
 62137  1  0  0  0
 62138  1  0  0  0
 62139  1  0  0  0
 63 65  1  0  0  0
 63140  1  0  0  0
 63141  1  0  0  0
 63142  1  0  0  0
 64143  1  0  0  0
 65144  1  0  0  0
 68 82  1  0  0  0
 71 73  2  0  0  0
 71 75  1  0  0  0
 71145  1  0  0  0
 72 74  1  0  0  0
 72 75  2  0  0  0
 72146  1  0  0  0
 73 76  1  0  0  0
 73147  1  0  0  0
 74 76  2  0  0  0
 74148  1  0  0  0
 75 78  1  0  0  0
 76 83  1  0  0  0
 77 78  2  0  0  0
 77 81  1  0  0  0
 77149  1  0  0  0
 78 79  1  0  0  0
 79 84  1  0  0  0
 79 85  2  0  0  0
 80 82  1  0  0  0
 80 83  2  0  0  0
 80150  1  0  0  0
 81 84  1  0  0  0
 81151  1  0  0  0
 81152  1  0  0  0
 82153  1  0  0  0
 82154  1  0  0  0
M  ISO  4   1 100  68 101  82 101  84 100
M  END
> <chiral flag>
0

> <version>
0

> <s_m_source_file>
/data/baiqing/PycharmProjects/Reinvent-master-3.2/result/LINK_invent/BTK/process_docking_weight1_custom_product_contain_oxygen_bond_distance_aromatic_linkinvent_7_9_3/rearranged_h_0082.sdf

> <i_m_source_file_index>
62

> <r_mmod_Potential_Energy-OPLS-2005>
156.349044799805

> <r_mmod_Stretch_Energy-OPLS-2005>
41.8879699707031

> <r_mmod_Bend_Energy-OPLS-2005>
155.514633178711

> <r_mmod_Torsional_Energy-OPLS-2005>
295.066253662109

> <r_mmod_Improper_Torsional_Energy-OPLS-2005>
6.13528490066528

> <r_mmod_Van_der_Waal_Energy-OPLS-2005>
152.987915039062

> <r_mmod_Electrostatic_Energy-OPLS-2005>
-306.669006347656

> <r_mmod_Solvation_Energy-OPLS-2005>
-202.459442138672

> <b_mmod_Minimization_Converged-OPLS-2005>
0

> <r_mmod_RMS_Derivative-OPLS-2005>
0.232114762067795

$$$$
62
                    3D
 Structure written by MMmdl.
153162  0  0  1  0            999 V2000
  -30.7091  -14.5073   20.5643 C   0  0  0  0  0  0
  -30.4131  -12.3309   19.4293 C   0  0  0  0  0  0
  -29.4901  -12.5052   18.2074 C   0  0  0  0  0  0
  -28.0131  -12.3618   18.6216 C   0  0  0  0  0  0
  -27.6531  -13.2164   19.8677 C   0  0  2  0  0  0
  -28.6955  -13.0366   20.9932 C   0  0  0  0  0  0
  -25.2545  -13.8175   20.5695 C   0  0  0  0  0  0
  -24.1815  -13.0435   20.9184 C   0  0  0  0  0  0
  -24.6385  -11.6908   20.8735 C   0  0  0  0  0  0
  -23.9062  -10.4290   21.0400 C   0  0  0  0  0  0
  -24.3617   -9.4209   21.9181 C   0  0  0  0  0  0
  -23.6293   -8.2241   22.0751 C   0  0  0  0  0  0
  -22.4275   -8.0277   21.3540 C   0  0  0  0  0  0
  -21.9906   -9.0252   20.4646 C   0  0  0  0  0  0
  -22.7233  -10.2132   20.3054 C   0  0  0  0  0  0
  -21.6853   -6.0735   22.5277 C   0  0  0  0  0  0
  -21.4019   -6.5641   23.8213 C   0  0  0  0  0  0
  -21.3660   -5.6793   24.9176 C   0  0  0  0  0  0
  -21.6039   -4.3055   24.7226 C   0  0  0  0  0  0
  -21.8819   -3.8148   23.4346 C   0  0  0  0  0  0
  -21.9195   -4.6962   22.3401 C   0  0  0  0  0  0
  -22.7839  -13.5226   21.1850 C   0  0  0  0  0  0
  -22.1660   -4.2149   21.0976 F   0  0  0  0  0  0
  -21.5628   -3.4540   25.7740 F   0  0  0  0  0  0
  -30.0188  -13.3399   20.4287 N   0  0  0  0  0  0
  -26.2978  -12.9364   20.3343 N   0  0  0  0  0  0
  -25.9313  -11.6514   20.5761 N   0  0  0  0  0  0
  -22.0489  -12.8212   22.0405 N   0  0  0  0  0  0
  -25.4247  -15.1897   20.4131 N   0  0  0  0  0  0
  -31.8484  -14.6438   20.1120 O   0  0  0  0  0  0
  -21.6635   -6.8876   21.4237 O   0  0  0  0  0  0
  -22.3519  -14.5534   20.6703 O   0  0  0  0  0  0
  -24.6167  -31.8667   23.2083 C   0  0  0  0  0  0
  -25.9055  -32.4816   23.8389 C   0  0  1  0  0  0
  -27.2259  -27.4140   20.1043 C   0  0  0  0  0  0
  -25.5906  -33.8610   24.2322 N   0  0  0  0  0  0
  -23.4065  -30.4893   21.5488 C   0  0  2  0  0  0
  -24.8556  -28.9582   20.1079 C   0  0  0  0  0  0
  -22.7428  -29.4641   22.4964 C   0  0  0  0  0  0
  -18.0283  -28.1370   22.8489 C   0  0  0  0  0  0
  -24.1490  -36.7310   23.2624 C   0  0  0  0  0  0
  -25.9376  -30.8279   21.3644 C   0  0  0  0  0  0
  -26.0180  -29.4622   20.7080 C   0  0  0  0  0  0
  -27.2111  -28.6974   20.7041 C   0  0  0  0  0  0
  -26.0528  -26.9328   19.4907 C   0  0  0  0  0  0
  -24.8689  -27.6940   19.4936 C   0  0  0  0  0  0
  -23.6160  -29.8237   20.1624 C   0  0  0  0  0  0
  -25.4104  -36.3101   24.0332 C   0  0  1  0  0  0
  -20.5872  -28.3655   23.1307 C   0  0  2  0  0  0
  -20.6770  -26.9390   22.5405 C   0  0  0  0  0  0
  -19.5741  -26.6381   21.5206 C   0  0  0  0  0  0
  -18.1926  -26.7915   22.1627 C   0  0  0  0  0  0
  -19.1531  -28.8830   23.2898 C   0  0  0  0  0  0
  -18.9452  -30.1438   23.8904 C   0  0  0  0  0  0
  -17.6453  -30.6573   24.0559 C   0  0  0  0  0  0
  -25.9037  -34.9472   23.5125 C   0  0  0  0  0  0
  -16.5348  -29.9070   23.6322 C   0  0  0  0  0  0
  -16.7272  -28.6491   23.0341 C   0  0  0  0  0  0
  -26.4470  -31.6586   25.0715 C   0  0  0  0  0  0
  -25.3741  -31.3734   26.1477 C   0  0  0  0  0  0
  -27.0254  -30.3006   24.6097 C   0  0  0  0  0  0
  -27.6069  -32.4276   25.7467 C   0  0  0  0  0  0
  -27.5592  -37.1795   24.8448 C   0  0  0  0  0  0
  -21.4149  -29.3028   22.3714 N   0  0  0  0  0  0
  -26.4284  -37.3795   23.9420 N   0  0  0  0  0  0
  -24.6718  -31.0749   22.0990 N   0  0  0  0  0  0
  -23.4193  -28.8181   23.3010 O   0  0  0  0  0  0
  -28.3192  -26.5754   20.1591 O   0  0  0  0  0  0
  -26.5594  -34.8922   22.4682 O   0  0  0  0  0  0
  -23.5352  -32.1426   23.7460 O   0  0  0  0  0  0
  -29.4764  -18.8410   22.4624 C   0  0  0  0  0  0
  -29.9277  -18.8389   20.0965 C   0  0  0  0  0  0
  -29.0117  -20.1729   22.3622 C   0  0  0  0  0  0
  -29.4604  -20.1776   20.0142 C   0  0  0  0  0  0
  -29.9764  -18.1602   21.3346 C   0  0  0  0  0  0
  -29.0192  -20.9105   21.1488 C   0  0  0  0  0  0
  -28.4649  -24.2875   21.0640 C   0  0  0  0  0  0
  -28.3231  -23.2740   22.0768 C   0  0  0  0  0  0
  -28.2267  -25.6215   21.1562 C   0  0  0  0  0  0
  -28.9108  -23.2440   20.0440 C   0  0  0  0  0  0
  -30.7231  -16.8213   21.5074 C   0  0  0  0  0  0
  -28.5970  -22.2882   21.1270 N   0  0  0  0  0  0
  -30.0602  -15.5555   21.1239 N   0  0  0  0  0  0
  -28.1382  -23.3451   23.2747 O   0  0  0  0  0  0
  -31.4581  -12.4211   19.1281 H   0  0  0  0  0  0
  -30.3112  -11.3280   19.8473 H   0  0  0  0  0  0
  -29.7365  -11.7705   17.4399 H   0  0  0  0  0  0
  -29.6524  -13.4855   17.7564 H   0  0  0  0  0  0
  -27.8308  -11.3074   18.8311 H   0  0  0  0  0  0
  -27.3611  -12.6199   17.7860 H   0  0  0  0  0  0
  -27.6846  -14.2596   19.5526 H   0  0  0  0  0  0
  -28.6807  -12.0123   21.3674 H   0  0  0  0  0  0
  -28.4576  -13.6671   21.8511 H   0  0  0  0  0  0
  -25.2767   -9.5687   22.4750 H   0  0  0  0  0  0
  -24.0014   -7.4630   22.7466 H   0  0  0  0  0  0
  -21.0839   -8.8767   19.8949 H   0  0  0  0  0  0
  -22.3691  -10.9672   19.6161 H   0  0  0  0  0  0
  -21.2013   -7.6148   23.9716 H   0  0  0  0  0  0
  -21.1481   -6.0524   25.9080 H   0  0  0  0  0  0
  -22.0599   -2.7611   23.2847 H   0  0  0  0  0  0
  -22.4109  -11.9878   22.4796 H   0  0  0  0  0  0
  -21.1100  -13.1227   22.2610 H   0  0  0  0  0  0
  -24.6610  -15.8462   20.5321 H   0  0  0  0  0  0
  -26.2810  -15.6323   20.1039 H   0  0  0  0  0  0
  -26.7129  -32.5522   23.1157 H   0  0  0  0  0  0
  -25.0064  -33.9773   25.0477 H   0  0  0  0  0  0
  -22.6952  -31.3062   21.4100 H   0  0  0  0  0  0
  -23.3758  -35.9634   23.3257 H   0  0  0  0  0  0
  -24.3609  -36.8953   22.2047 H   0  0  0  0  0  0
  -23.7228  -37.6501   23.6660 H   0  0  0  0  0  0
  -26.0529  -31.5954   20.5976 H   0  0  0  0  0  0
  -26.8241  -30.8799   21.9852 H   0  0  0  0  0  0
  -28.1052  -29.0710   21.1838 H   0  0  0  0  0  0
  -26.0516  -25.9533   19.0339 H   0  0  0  0  0  0
  -23.9753  -27.2987   19.0309 H   0  0  0  0  0  0
  -23.7224  -30.6007   19.4045 H   0  0  0  0  0  0
  -22.7394  -29.2440   19.8665 H   0  0  0  0  0  0
  -25.1272  -36.1958   25.0819 H   0  0  0  0  0  0
  -20.9963  -28.3219   24.1430 H   0  0  0  0  0  0
  -20.5671  -26.2259   23.3586 H   0  0  0  0  0  0
  -21.6644  -26.7430   22.1199 H   0  0  0  0  0  0
  -19.6901  -25.6298   21.1213 H   0  0  0  0  0  0
  -19.6666  -27.3212   20.6751 H   0  0  0  0  0  0
  -17.4183  -26.6640   21.4045 H   0  0  0  0  0  0
  -18.0345  -26.0063   22.9034 H   0  0  0  0  0  0
  -19.7926  -30.7259   24.2266 H   0  0  0  0  0  0
  -17.5005  -31.6254   24.5154 H   0  0  0  0  0  0
  -15.5349  -30.2969   23.7640 H   0  0  0  0  0  0
  -15.8674  -28.0813   22.7042 H   0  0  0  0  0  0
  -24.5857  -30.7147   25.7821 H   0  0  0  0  0  0
  -24.9019  -32.2918   26.4969 H   0  0  0  0  0  0
  -25.8085  -30.8846   27.0206 H   0  0  0  0  0  0
  -26.2776  -29.6806   24.1133 H   0  0  0  0  0  0
  -27.3975  -29.7208   25.4554 H   0  0  0  0  0  0
  -27.8651  -30.4286   23.9262 H   0  0  0  0  0  0
  -27.2733  -33.3606   26.2016 H   0  0  0  0  0  0
  -28.3900  -32.6762   25.0294 H   0  0  0  0  0  0
  -28.0695  -31.8395   26.5403 H   0  0  0  0  0  0
  -28.2562  -38.0141   24.7579 H   0  0  0  0  0  0
  -28.1138  -36.2683   24.6162 H   0  0  0  0  0  0
  -27.2334  -37.1310   25.8853 H   0  0  0  0  0  0
  -20.9293  -29.8762   21.6957 H   0  0  0  0  0  0
  -26.0165  -38.2861   24.1470 H   0  0  0  0  0  0
  -29.4987  -18.3665   23.4335 H   0  0  0  0  0  0
  -30.3069  -18.3552   19.2068 H   0  0  0  0  0  0
  -28.6722  -20.6504   23.2705 H   0  0  0  0  0  0
  -29.4730  -20.6605   19.0471 H   0  0  0  0  0  0
  -27.8869  -26.0560   22.0878 H   0  0  0  0  0  0
  -29.9690  -23.2295   19.7785 H   0  0  0  0  0  0
  -28.2877  -23.0882   19.1628 H   0  0  0  0  0  0
  -31.0050  -16.7207   22.5565 H   0  0  0  0  0  0
  -31.6710  -16.9362   20.9780 H   0  0  0  0  0  0
  -29.1083  -15.4127   21.4251 H   0  0  0  0  0  0
  1 25  1  0  0  0
  1 30  2  0  0  0
  1 83  1  0  0  0
  2  3  1  0  0  0
  2 25  1  0  0  0
  2 85  1  0  0  0
  2 86  1  0  0  0
  3  4  1  0  0  0
  3 87  1  0  0  0
  3 88  1  0  0  0
  4  5  1  0  0  0
  4 89  1  0  0  0
  4 90  1  0  0  0
  5  6  1  0  0  0
  5 26  1  0  0  0
  5 91  1  0  0  0
  6 25  1  0  0  0
  6 92  1  0  0  0
  6 93  1  0  0  0
  7  8  2  0  0  0
  7 26  1  0  0  0
  7 29  1  0  0  0
  8  9  1  0  0  0
  8 22  1  0  0  0
  9 10  1  0  0  0
  9 27  2  0  0  0
 10 11  2  0  0  0
 10 15  1  0  0  0
 11 12  1  0  0  0
 11 94  1  0  0  0
 12 13  2  0  0  0
 12 95  1  0  0  0
 13 14  1  0  0  0
 13 31  1  0  0  0
 14 15  2  0  0  0
 14 96  1  0  0  0
 15 97  1  0  0  0
 16 17  2  0  0  0
 16 21  1  0  0  0
 16 31  1  0  0  0
 17 18  1  0  0  0
 17 98  1  0  0  0
 18 19  2  0  0  0
 18 99  1  0  0  0
 19 20  1  0  0  0
 19 24  1  0  0  0
 20 21  2  0  0  0
 20100  1  0  0  0
 21 23  1  0  0  0
 22 28  1  0  0  0
 22 32  2  0  0  0
 26 27  1  0  0  0
 28101  1  0  0  0
 28102  1  0  0  0
 29103  1  0  0  0
 29104  1  0  0  0
 33 34  1  0  0  0
 33 66  1  0  0  0
 33 70  2  0  0  0
 34 36  1  0  0  0
 34 59  1  0  0  0
 34105  1  0  0  0
 35 44  2  0  0  0
 35 45  1  0  0  0
 35 68  1  0  0  0
 36 56  1  0  0  0
 36106  1  0  0  0
 37 39  1  0  0  0
 37 47  1  0  0  0
 37 66  1  0  0  0
 37107  1  0  0  0
 38 43  2  0  0  0
 38 46  1  0  0  0
 38 47  1  0  0  0
 39 64  1  0  0  0
 39 67  2  0  0  0
 40 52  1  0  0  0
 40 53  2  0  0  0
 40 58  1  0  0  0
 41108  1  0  0  0
 41109  1  0  0  0
 41110  1  0  0  0
 41 48  1  0  0  0
 42 43  1  0  0  0
 42 66  1  0  0  0
 42111  1  0  0  0
 42112  1  0  0  0
 43 44  1  0  0  0
 44113  1  0  0  0
 45 46  2  0  0  0
 45114  1  0  0  0
 46115  1  0  0  0
 47116  1  0  0  0
 47117  1  0  0  0
 48 56  1  0  0  0
 48 65  1  0  0  0
 48118  1  0  0  0
 49 50  1  0  0  0
 49 53  1  0  0  0
 49 64  1  0  0  0
 49119  1  0  0  0
 50 51  1  0  0  0
 50120  1  0  0  0
 50121  1  0  0  0
 51 52  1  0  0  0
 51122  1  0  0  0
 51123  1  0  0  0
 52124  1  0  0  0
 52125  1  0  0  0
 53 54  1  0  0  0
 54 55  2  0  0  0
 54126  1  0  0  0
 55 57  1  0  0  0
 55127  1  0  0  0
 56 69  2  0  0  0
 57 58  2  0  0  0
 57128  1  0  0  0
 58129  1  0  0  0
 59 60  1  0  0  0
 59 61  1  0  0  0
 59 62  1  0  0  0
 60130  1  0  0  0
 60131  1  0  0  0
 60132  1  0  0  0
 61133  1  0  0  0
 61134  1  0  0  0
 61135  1  0  0  0
 62136  1  0  0  0
 62137  1  0  0  0
 62138  1  0  0  0
 63 65  1  0  0  0
 63139  1  0  0  0
 63140  1  0  0  0
 63141  1  0  0  0
 64142  1  0  0  0
 65143  1  0  0  0
 68 79  1  0  0  0
 71 73  2  0  0  0
 71 75  1  0  0  0
 71144  1  0  0  0
 72 74  1  0  0  0
 72 75  2  0  0  0
 72145  1  0  0  0
 73 76  1  0  0  0
 73146  1  0  0  0
 74 76  2  0  0  0
 74147  1  0  0  0
 75 81  1  0  0  0
 76 82  1  0  0  0
 77 78  1  0  0  0
 77 79  2  0  0  0
 77 80  1  0  0  0
 78 82  1  0  0  0
 78 84  2  0  0  0
 79148  1  0  0  0
 80 82  1  0  0  0
 80149  1  0  0  0
 80150  1  0  0  0
 81 83  1  0  0  0
 81151  1  0  0  0
 81152  1  0  0  0
 83153  1  0  0  0
M  ISO  4   1 100  68 101  79 101  83 100
M  END
> <chiral flag>
0

> <version>
0

> <s_m_source_file>
/data/baiqing/PycharmProjects/Reinvent-master-3.2/result/LINK_invent/BTK/process_docking_weight1_custom_product_contain_oxygen_bond_distance_aromatic_linkinvent_7_9_3/rearranged_h_0082.sdf

> <i_m_source_file_index>
63

> <r_mmod_Potential_Energy-OPLS-2005>
-15.0321817398071

> <r_mmod_Stretch_Energy-OPLS-2005>
42.4268455505371

> <r_mmod_Bend_Energy-OPLS-2005>
179.254760742188

> <r_mmod_Torsional_Energy-OPLS-2005>
228.466720581055

> <r_mmod_Improper_Torsional_Energy-OPLS-2005>
5.75636911392212

> <r_mmod_Van_der_Waal_Energy-OPLS-2005>
143.766647338867

> <r_mmod_Electrostatic_Energy-OPLS-2005>
-419.515258789062

> <r_mmod_Solvation_Energy-OPLS-2005>
-216.596832275391

> <b_mmod_Minimization_Converged-OPLS-2005>
0

> <r_mmod_RMS_Derivative-OPLS-2005>
1.28576648235321

$$$$
63
                    3D
 Structure written by MMmdl.
154163  0  0  1  0            999 V2000
  -30.6462  -14.8033   20.4663 C   0  0  0  0  0  0
  -30.4319  -12.4872   19.5215 C   0  0  0  0  0  0
  -29.5178  -12.4948   18.2759 C   0  0  0  0  0  0
  -28.0456  -12.3291   18.6763 C   0  0  0  0  0  0
  -27.6458  -13.2470   19.8582 C   0  0  2  0  0  0
  -28.6853  -13.2358   21.0002 C   0  0  0  0  0  0
  -25.2556  -13.8271   20.5749 C   0  0  0  0  0  0
  -24.1858  -13.0478   20.9216 C   0  0  0  0  0  0
  -24.6495  -11.6981   20.8802 C   0  0  0  0  0  0
  -23.9196  -10.4328   21.0451 C   0  0  0  0  0  0
  -24.3734   -9.4219   21.9213 C   0  0  0  0  0  0
  -23.6364   -8.2265   22.0761 C   0  0  0  0  0  0
  -22.4344   -8.0352   21.3547 C   0  0  0  0  0  0
  -22.0010   -9.0350   20.4658 C   0  0  0  0  0  0
  -22.7377  -10.2207   20.3091 C   0  0  0  0  0  0
  -21.6869   -6.0816   22.5290 C   0  0  0  0  0  0
  -21.4039   -6.5679   23.8252 C   0  0  0  0  0  0
  -21.3647   -5.6821   24.9184 C   0  0  0  0  0  0
  -21.6018   -4.3071   24.7210 C   0  0  0  0  0  0
  -21.8837   -3.8207   23.4327 C   0  0  0  0  0  0
  -21.9190   -4.7044   22.3405 C   0  0  0  0  0  0
  -22.7871  -13.5242   21.1796 C   0  0  0  0  0  0
  -22.1660   -4.2243   21.0966 F   0  0  0  0  0  0
  -21.5604   -3.4547   25.7706 F   0  0  0  0  0  0
  -29.9937  -13.5804   20.4324 N   0  0  0  0  0  0
  -26.2990  -12.9508   20.3392 N   0  0  0  0  0  0
  -25.9429  -11.6636   20.5877 N   0  0  0  0  0  0
  -22.0547  -12.8234   22.0370 N   0  0  0  0  0  0
  -25.4229  -15.2002   20.4187 N   0  0  0  0  0  0
  -31.8112  -14.8376   20.0623 O   0  0  0  0  0  0
  -21.6640   -6.8980   21.4282 O   0  0  0  0  0  0
  -22.3519  -14.5523   20.6630 O   0  0  0  0  0  0
  -24.6338  -31.8503   23.2034 C   0  0  0  0  0  0
  -25.9179  -32.4725   23.8332 C   0  0  1  0  0  0
  -27.2100  -27.2087   20.1427 C   0  0  0  0  0  0
  -25.5953  -33.8529   24.2247 N   0  0  0  0  0  0
  -23.4308  -30.4751   21.5475 C   0  0  2  0  0  0
  -24.8892  -28.9317   20.0954 C   0  0  0  0  0  0
  -22.7477  -29.4596   22.4925 C   0  0  0  0  0  0
  -18.0251  -28.1395   22.8470 C   0  0  0  0  0  0
  -24.1482  -36.7299   23.2623 C   0  0  0  0  0  0
  -25.9824  -30.7502   21.3938 C   0  0  0  0  0  0
  -26.0617  -29.3729   20.7231 C   0  0  0  0  0  0
  -27.2305  -28.5271   20.7350 C   0  0  0  0  0  0
  -26.0508  -26.9029   19.3947 C   0  0  0  0  0  0
  -24.8998  -27.7114   19.3989 C   0  0  0  0  0  0
  -23.6564  -29.8208   20.1584 C   0  0  0  0  0  0
  -25.4107  -36.3044   24.0287 C   0  0  1  0  0  0
  -20.5866  -28.3721   23.1249 C   0  0  2  0  0  0
  -20.6799  -26.9439   22.5399 C   0  0  0  0  0  0
  -19.5787  -26.6404   21.5187 C   0  0  0  0  0  0
  -18.1947  -26.7945   22.1581 C   0  0  0  0  0  0
  -19.1517  -28.8867   23.2854 C   0  0  0  0  0  0
  -18.9466  -30.1467   23.8871 C   0  0  0  0  0  0
  -17.6486  -30.6616   24.0556 C   0  0  0  0  0  0
  -25.9062  -34.9411   23.5050 C   0  0  0  0  0  0
  -16.5364  -29.9136   23.6342 C   0  0  0  0  0  0
  -16.7249  -28.6536   23.0368 C   0  0  0  0  0  0
  -26.4558  -31.6550   25.0706 C   0  0  0  0  0  0
  -25.3801  -31.3758   26.1433 C   0  0  0  0  0  0
  -27.0425  -30.2946   24.6263 C   0  0  0  0  0  0
  -27.6092  -32.4314   25.7533 C   0  0  0  0  0  0
  -27.5572  -37.1785   24.8443 C   0  0  0  0  0  0
  -21.4179  -29.3055   22.3643 N   0  0  0  0  0  0
  -26.4279  -37.3756   23.9392 N   0  0  0  0  0  0
  -24.7007  -31.0423   22.1059 N   0  0  0  0  0  0
  -23.4159  -28.8123   23.3027 O   0  0  0  0  0  0
  -28.1671  -26.1538   20.2999 O   0  0  0  0  0  0
  -26.5632  -34.8892   22.4622 O   0  0  0  0  0  0
  -23.5495  -32.1356   23.7336 O   0  0  0  0  0  0
  -29.8356  -17.4128   20.0886 C   0  0  0  0  0  0
  -29.1124  -18.2081   22.1221 C   0  0  0  0  0  0
  -29.1911  -18.5493   20.7945 C   0  0  0  0  0  0
  -30.0088  -16.2015   20.7993 C   0  0  0  0  0  0
  -27.8531  -23.4847   20.7401 C   0  0  0  0  0  0
  -27.5993  -24.8708   20.6697 C   0  0  0  0  0  0
  -28.9196  -22.4136   20.5681 C   0  0  0  0  0  0
  -26.8388  -20.3145   18.3824 C   0  0  0  0  0  0
  -27.5638  -19.1544   19.0073 C   0  0  0  0  0  0
  -27.7562  -21.5036   18.6326 C   0  0  0  0  0  0
  -28.2929  -19.7477   20.2259 C   0  0  2  0  0  0
  -28.5233  -21.2562   19.8776 N   0  0  0  0  0  0
  -29.9849  -22.4281   21.1890 O   0  0  0  0  0  0
  -29.5970  -16.5399   22.4664 S   0  0  0  0  0  0
  -31.4693  -12.5921   19.2079 H   0  0  0  0  0  0
  -30.3891  -11.5288   20.0441 H   0  0  0  0  0  0
  -29.8030  -11.6997   17.5872 H   0  0  0  0  0  0
  -29.6470  -13.4339   17.7381 H   0  0  0  0  0  0
  -27.9005  -11.2822   18.9538 H   0  0  0  0  0  0
  -27.3984  -12.5151   17.8191 H   0  0  0  0  0  0
  -27.6359  -14.2587   19.4500 H   0  0  0  0  0  0
  -28.7297  -12.2634   21.4938 H   0  0  0  0  0  0
  -28.3977  -13.9526   21.7686 H   0  0  0  0  0  0
  -25.2894   -9.5666   22.4802 H   0  0  0  0  0  0
  -24.0072   -7.4643   22.7462 H   0  0  0  0  0  0
  -21.0950   -8.8949   19.8935 H   0  0  0  0  0  0
  -22.3888  -10.9810   19.6234 H   0  0  0  0  0  0
  -21.2078   -7.6209   23.9806 H   0  0  0  0  0  0
  -21.1408   -6.0512   25.9091 H   0  0  0  0  0  0
  -22.0615   -2.7683   23.2782 H   0  0  0  0  0  0
  -22.4190  -11.9904   22.4742 H   0  0  0  0  0  0
  -21.1220  -13.1326   22.2667 H   0  0  0  0  0  0
  -24.6672  -15.8630   20.5499 H   0  0  0  0  0  0
  -26.2917  -15.6442   20.1463 H   0  0  0  0  0  0
  -26.7214  -32.5397   23.1050 H   0  0  0  0  0  0
  -25.0057  -33.9676   25.0355 H   0  0  0  0  0  0
  -22.7232  -31.2967   21.4103 H   0  0  0  0  0  0
  -23.3708  -35.9670   23.3266 H   0  0  0  0  0  0
  -24.3581  -36.8975   22.2053 H   0  0  0  0  0  0
  -23.7279  -37.6488   23.6702 H   0  0  0  0  0  0
  -26.1184  -31.5197   20.6334 H   0  0  0  0  0  0
  -26.8554  -30.7973   22.0333 H   0  0  0  0  0  0
  -28.1215  -28.8605   21.2475 H   0  0  0  0  0  0
  -26.0127  -25.9796   18.8293 H   0  0  0  0  0  0
  -24.0278  -27.3900   18.8469 H   0  0  0  0  0  0
  -23.7852  -30.6114   19.4193 H   0  0  0  0  0  0
  -22.7654  -29.2721   19.8442 H   0  0  0  0  0  0
  -25.1301  -36.1865   25.0783 H   0  0  0  0  0  0
  -20.9898  -28.3329   24.1393 H   0  0  0  0  0  0
  -20.5698  -26.2333   23.3603 H   0  0  0  0  0  0
  -21.6688  -26.7517   22.1192 H   0  0  0  0  0  0
  -19.6980  -25.6301   21.1262 H   0  0  0  0  0  0
  -19.6763  -27.3165   20.6681 H   0  0  0  0  0  0
  -17.4232  -26.6607   21.3996 H   0  0  0  0  0  0
  -18.0384  -26.0101   22.8993 H   0  0  0  0  0  0
  -19.7965  -30.7254   24.2246 H   0  0  0  0  0  0
  -17.5081  -31.6294   24.5175 H   0  0  0  0  0  0
  -15.5380  -30.3057   23.7732 H   0  0  0  0  0  0
  -15.8612  -28.0866   22.7140 H   0  0  0  0  0  0
  -24.5946  -30.7117   25.7820 H   0  0  0  0  0  0
  -24.9031  -32.2966   26.4814 H   0  0  0  0  0  0
  -25.8141  -30.8986   27.0230 H   0  0  0  0  0  0
  -26.3044  -29.6636   24.1301 H   0  0  0  0  0  0
  -27.4062  -29.7275   25.4848 H   0  0  0  0  0  0
  -27.8940  -30.4143   23.9555 H   0  0  0  0  0  0
  -27.2614  -33.3576   26.2116 H   0  0  0  0  0  0
  -28.3932  -32.6923   25.0418 H   0  0  0  0  0  0
  -28.0687  -31.8411   26.5460 H   0  0  0  0  0  0
  -28.2554  -38.0121   24.7510 H   0  0  0  0  0  0
  -28.1101  -36.2644   24.6241 H   0  0  0  0  0  0
  -27.2282  -37.1394   25.8844 H   0  0  0  0  0  0
  -20.9342  -29.8766   21.6841 H   0  0  0  0  0  0
  -26.0117  -38.2801   24.1480 H   0  0  0  0  0  0
  -30.0637  -17.4833   19.0355 H   0  0  0  0  0  0
  -28.6459  -18.7904   22.9091 H   0  0  0  0  0  0
  -26.9611  -22.9840   21.0842 H   0  0  0  0  0  0
  -26.5891  -25.0572   21.0049 H   0  0  0  0  0  0
  -25.8930  -20.4582   18.9087 H   0  0  0  0  0  0
  -26.6161  -20.1654   17.3234 H   0  0  0  0  0  0
  -28.2733  -18.7502   18.2781 H   0  0  0  0  0  0
  -26.8904  -18.3369   19.2790 H   0  0  0  0  0  0
  -27.1360  -22.4008   18.6355 H   0  0  0  0  0  0
  -28.4621  -21.6075   17.8077 H   0  0  0  0  0  0
  -27.5139  -19.8729   20.9827 H   0  0  0  0  0  0
  1 25  1  0  0  0
  1 30  2  0  0  0
  1 74  1  0  0  0
  2  3  1  0  0  0
  2 25  1  0  0  0
  2 85  1  0  0  0
  2 86  1  0  0  0
  3  4  1  0  0  0
  3 87  1  0  0  0
  3 88  1  0  0  0
  4  5  1  0  0  0
  4 89  1  0  0  0
  4 90  1  0  0  0
  5  6  1  0  0  0
  5 26  1  0  0  0
  5 91  1  0  0  0
  6 25  1  0  0  0
  6 92  1  0  0  0
  6 93  1  0  0  0
  7  8  2  0  0  0
  7 26  1  0  0  0
  7 29  1  0  0  0
  8  9  1  0  0  0
  8 22  1  0  0  0
  9 10  1  0  0  0
  9 27  2  0  0  0
 10 11  2  0  0  0
 10 15  1  0  0  0
 11 12  1  0  0  0
 11 94  1  0  0  0
 12 13  2  0  0  0
 12 95  1  0  0  0
 13 14  1  0  0  0
 13 31  1  0  0  0
 14 15  2  0  0  0
 14 96  1  0  0  0
 15 97  1  0  0  0
 16 17  2  0  0  0
 16 21  1  0  0  0
 16 31  1  0  0  0
 17 18  1  0  0  0
 17 98  1  0  0  0
 18 19  2  0  0  0
 18 99  1  0  0  0
 19 20  1  0  0  0
 19 24  1  0  0  0
 20 21  2  0  0  0
 20100  1  0  0  0
 21 23  1  0  0  0
 22 28  1  0  0  0
 22 32  2  0  0  0
 26 27  1  0  0  0
 28101  1  0  0  0
 28102  1  0  0  0
 29103  1  0  0  0
 29104  1  0  0  0
 33 34  1  0  0  0
 33 66  1  0  0  0
 33 70  2  0  0  0
 34 36  1  0  0  0
 34 59  1  0  0  0
 34105  1  0  0  0
 35 44  2  0  0  0
 35 45  1  0  0  0
 35 68  1  0  0  0
 36 56  1  0  0  0
 36106  1  0  0  0
 37 39  1  0  0  0
 37 47  1  0  0  0
 37 66  1  0  0  0
 37107  1  0  0  0
 38 43  2  0  0  0
 38 46  1  0  0  0
 38 47  1  0  0  0
 39 64  1  0  0  0
 39 67  2  0  0  0
 40 52  1  0  0  0
 40 53  2  0  0  0
 40 58  1  0  0  0
 41108  1  0  0  0
 41109  1  0  0  0
 41110  1  0  0  0
 41 48  1  0  0  0
 42 43  1  0  0  0
 42 66  1  0  0  0
 42111  1  0  0  0
 42112  1  0  0  0
 43 44  1  0  0  0
 44113  1  0  0  0
 45 46  2  0  0  0
 45114  1  0  0  0
 46115  1  0  0  0
 47116  1  0  0  0
 47117  1  0  0  0
 48 56  1  0  0  0
 48 65  1  0  0  0
 48118  1  0  0  0
 49 50  1  0  0  0
 49 53  1  0  0  0
 49 64  1  0  0  0
 49119  1  0  0  0
 50 51  1  0  0  0
 50120  1  0  0  0
 50121  1  0  0  0
 51 52  1  0  0  0
 51122  1  0  0  0
 51123  1  0  0  0
 52124  1  0  0  0
 52125  1  0  0  0
 53 54  1  0  0  0
 54 55  2  0  0  0
 54126  1  0  0  0
 55 57  1  0  0  0
 55127  1  0  0  0
 56 69  2  0  0  0
 57 58  2  0  0  0
 57128  1  0  0  0
 58129  1  0  0  0
 59 60  1  0  0  0
 59 61  1  0  0  0
 59 62  1  0  0  0
 60130  1  0  0  0
 60131  1  0  0  0
 60132  1  0  0  0
 61133  1  0  0  0
 61134  1  0  0  0
 61135  1  0  0  0
 62136  1  0  0  0
 62137  1  0  0  0
 62138  1  0  0  0
 63 65  1  0  0  0
 63139  1  0  0  0
 63140  1  0  0  0
 63141  1  0  0  0
 64142  1  0  0  0
 65143  1  0  0  0
 68 76  1  0  0  0
 71 73  1  0  0  0
 71 74  2  0  0  0
 71144  1  0  0  0
 72 73  2  0  0  0
 72 84  1  0  0  0
 72145  1  0  0  0
 73 81  1  0  0  0
 74 84  1  0  0  0
 75 76  2  0  0  0
 75 77  1  0  0  0
 75146  1  0  0  0
 76147  1  0  0  0
 77 82  1  0  0  0
 77 83  2  0  0  0
 78 79  1  0  0  0
 78 80  1  0  0  0
 78148  1  0  0  0
 78149  1  0  0  0
 79 81  1  0  0  0
 79150  1  0  0  0
 79151  1  0  0  0
 80 82  1  0  0  0
 80152  1  0  0  0
 80153  1  0  0  0
 81 82  1  0  0  0
 81154  1  0  0  0
M  ISO  4   1 100  68 101  74 100  76 101
M  END
> <chiral flag>
0

> <version>
0

> <s_m_source_file>
/data/baiqing/PycharmProjects/Reinvent-master-3.2/result/LINK_invent/BTK/process_docking_weight1_custom_product_contain_oxygen_bond_distance_aromatic_linkinvent_7_9_3/rearranged_h_0082.sdf

> <i_m_source_file_index>
64

> <r_mmod_Potential_Energy-OPLS-2005>
691.759521484375

> <r_mmod_Stretch_Energy-OPLS-2005>
162.537185668945

> <r_mmod_Bend_Energy-OPLS-2005>
381.527374267578

> <r_mmod_Torsional_Energy-OPLS-2005>
371.404327392578

> <r_mmod_Improper_Torsional_Energy-OPLS-2005>
14.8123769760132

> <r_mmod_Van_der_Waal_Energy-OPLS-2005>
122.785568237305

> <r_mmod_Electrostatic_Energy-OPLS-2005>
-271.882568359375

> <r_mmod_Solvation_Energy-OPLS-2005>
-227.169372558594

> <b_mmod_Minimization_Converged-OPLS-2005>
0

> <r_mmod_RMS_Derivative-OPLS-2005>
7.1576361656189

$$$$
64
                    3D
 Structure written by MMmdl.
153162  0  0  1  0            999 V2000
  -30.6256  -14.6321   20.5166 C   0  0  0  0  0  0
  -30.4331  -12.3862   19.4586 C   0  0  0  0  0  0
  -29.5096  -12.5182   18.2266 C   0  0  0  0  0  0
  -28.0306  -12.3542   18.6316 C   0  0  0  0  0  0
  -27.6548  -13.2175   19.8656 C   0  0  2  0  0  0
  -28.6949  -13.0652   20.9958 C   0  0  0  0  0  0
  -25.2586  -13.8168   20.5713 C   0  0  0  0  0  0
  -24.1845  -13.0446   20.9170 C   0  0  0  0  0  0
  -24.6410  -11.6913   20.8726 C   0  0  0  0  0  0
  -23.9071  -10.4301   21.0395 C   0  0  0  0  0  0
  -24.3619   -9.4215   21.9177 C   0  0  0  0  0  0
  -23.6294   -8.2252   22.0755 C   0  0  0  0  0  0
  -22.4275   -8.0288   21.3547 C   0  0  0  0  0  0
  -21.9909   -9.0260   20.4648 C   0  0  0  0  0  0
  -22.7239  -10.2139   20.3049 C   0  0  0  0  0  0
  -21.6855   -6.0743   22.5282 C   0  0  0  0  0  0
  -21.4018   -6.5649   23.8215 C   0  0  0  0  0  0
  -21.3657   -5.6803   24.9178 C   0  0  0  0  0  0
  -21.6039   -4.3063   24.7230 C   0  0  0  0  0  0
  -21.8817   -3.8152   23.4353 C   0  0  0  0  0  0
  -21.9196   -4.6970   22.3407 C   0  0  0  0  0  0
  -22.7867  -13.5249   21.1836 C   0  0  0  0  0  0
  -22.1665   -4.2158   21.0981 F   0  0  0  0  0  0
  -21.5624   -3.4540   25.7738 F   0  0  0  0  0  0
  -30.0135  -13.4054   20.4411 N   0  0  0  0  0  0
  -26.3005  -12.9354   20.3330 N   0  0  0  0  0  0
  -25.9330  -11.6504   20.5736 N   0  0  0  0  0  0
  -22.0510  -12.8246   22.0387 N   0  0  0  0  0  0
  -25.4355  -15.1892   20.4210 N   0  0  0  0  0  0
  -31.7816  -14.7576   20.1012 O   0  0  0  0  0  0
  -21.6647   -6.8884   21.4241 O   0  0  0  0  0  0
  -22.3556  -14.5564   20.6686 O   0  0  0  0  0  0
  -24.6249  -31.8620   23.2028 C   0  0  0  0  0  0
  -25.9105  -32.4778   23.8356 C   0  0  1  0  0  0
  -27.2275  -27.3387   20.1010 C   0  0  0  0  0  0
  -25.5930  -33.8582   24.2291 N   0  0  0  0  0  0
  -23.4182  -30.4867   21.5436 C   0  0  2  0  0  0
  -24.8644  -28.9432   20.1072 C   0  0  0  0  0  0
  -22.7458  -29.4660   22.4923 C   0  0  0  0  0  0
  -18.0278  -28.1409   22.8508 C   0  0  0  0  0  0
  -24.1487  -36.7288   23.2639 C   0  0  0  0  0  0
  -25.9576  -30.7961   21.3712 C   0  0  0  0  0  0
  -26.0312  -29.4259   20.7119 C   0  0  0  0  0  0
  -27.2139  -28.6331   20.7032 C   0  0  0  0  0  0
  -26.0327  -26.8990   19.4837 C   0  0  0  0  0  0
  -24.8653  -27.6853   19.4852 C   0  0  0  0  0  0
  -23.6320  -29.8210   20.1585 C   0  0  0  0  0  0
  -25.4118  -36.3089   24.0325 C   0  0  1  0  0  0
  -20.5881  -28.3710   23.1265 C   0  0  2  0  0  0
  -20.6767  -26.9439   22.5375 C   0  0  0  0  0  0
  -19.5712  -26.6410   21.5198 C   0  0  0  0  0  0
  -18.1909  -26.7954   22.1648 C   0  0  0  0  0  0
  -19.1528  -28.8868   23.2882 C   0  0  0  0  0  0
  -18.9473  -30.1488   23.8892 C   0  0  0  0  0  0
  -17.6479  -30.6623   24.0575 C   0  0  0  0  0  0
  -25.9053  -34.9458   23.5109 C   0  0  0  0  0  0
  -16.5361  -29.9119   23.6368 C   0  0  0  0  0  0
  -16.7270  -28.6535   23.0383 C   0  0  0  0  0  0
  -26.4501  -31.6584   25.0720 C   0  0  0  0  0  0
  -25.3728  -31.3706   26.1437 C   0  0  0  0  0  0
  -27.0354  -30.3020   24.6154 C   0  0  0  0  0  0
  -27.6066  -32.4307   25.7479 C   0  0  0  0  0  0
  -27.5578  -37.1805   24.8472 C   0  0  0  0  0  0
  -21.4173  -29.3079   22.3671 N   0  0  0  0  0  0
  -26.4303  -37.3775   23.9398 N   0  0  0  0  0  0
  -24.6855  -31.0648   22.0954 N   0  0  0  0  0  0
  -23.4200  -28.8209   23.3000 O   0  0  0  0  0  0
  -28.3432  -26.4955   20.1797 O   0  0  0  0  0  0
  -26.5619  -34.8922   22.4673 O   0  0  0  0  0  0
  -23.5415  -32.1412   23.7370 O   0  0  0  0  0  0
  -29.5692  -19.5208   20.4346 C   0  0  0  0  0  0
  -28.0617  -18.0424   21.6373 C   0  0  0  0  0  0
  -27.6032  -20.4374   21.4693 C   0  0  0  0  0  0
  -29.2436  -18.1865   20.8809 C   0  0  0  0  0  0
  -28.7713  -20.6960   20.7095 C   0  0  0  0  0  0
  -27.2497  -19.1537   21.9272 C   0  0  0  0  0  0
  -28.6342  -24.0232   19.8570 C   0  0  0  0  0  0
  -28.6839  -22.7831   19.1042 C   0  0  0  0  0  0
  -30.0715  -16.9352   20.5778 C   0  0  0  0  0  0
  -28.3983  -25.3099   19.4341 C   0  0  0  0  0  0
  -28.8477  -23.2357   21.1463 C   0  0  0  0  0  0
  -29.7925  -15.7080   20.9266 N   0  0  0  0  0  0
  -29.0573  -22.0589   20.2543 N   0  0  0  0  0  0
  -26.0814  -18.9843   22.6706 N   0  0  0  0  0  0
  -28.3550  -22.5264   17.9638 O   0  0  0  0  0  0
  -31.4771  -12.4932   19.1618 H   0  0  0  0  0  0
  -30.3509  -11.3880   19.8927 H   0  0  0  0  0  0
  -29.7755  -11.7759   17.4729 H   0  0  0  0  0  0
  -29.6565  -13.4926   17.7580 H   0  0  0  0  0  0
  -27.8619  -11.3008   18.8514 H   0  0  0  0  0  0
  -27.3792  -12.5954   17.7904 H   0  0  0  0  0  0
  -27.6800  -14.2568   19.5368 H   0  0  0  0  0  0
  -28.7012  -12.0434   21.3790 H   0  0  0  0  0  0
  -28.4385  -13.6981   21.8467 H   0  0  0  0  0  0
  -25.2764   -9.5703   22.4752 H   0  0  0  0  0  0
  -24.0004   -7.4653   22.7483 H   0  0  0  0  0  0
  -21.0837   -8.8785   19.8958 H   0  0  0  0  0  0
  -22.3696  -10.9681   19.6162 H   0  0  0  0  0  0
  -21.2014   -7.6155   23.9724 H   0  0  0  0  0  0
  -21.1475   -6.0529   25.9083 H   0  0  0  0  0  0
  -22.0595   -2.7613   23.2849 H   0  0  0  0  0  0
  -22.4132  -11.9904   22.4770 H   0  0  0  0  0  0
  -21.1128  -13.1274   22.2597 H   0  0  0  0  0  0
  -24.6789  -15.8527   20.5451 H   0  0  0  0  0  0
  -26.3154  -15.6253   20.1728 H   0  0  0  0  0  0
  -26.7169  -32.5448   23.1104 H   0  0  0  0  0  0
  -25.0078  -33.9726   25.0440 H   0  0  0  0  0  0
  -22.7126  -31.3071   21.4012 H   0  0  0  0  0  0
  -23.3746  -35.9622   23.3317 H   0  0  0  0  0  0
  -24.3570  -36.8895   22.2049 H   0  0  0  0  0  0
  -23.7243  -37.6496   23.6655 H   0  0  0  0  0  0
  -26.0892  -31.5626   20.6054 H   0  0  0  0  0  0
  -26.8371  -30.8433   22.0016 H   0  0  0  0  0  0
  -28.1099  -28.9952   21.1856 H   0  0  0  0  0  0
  -25.9705  -25.9278   19.0147 H   0  0  0  0  0  0
  -23.9683  -27.3091   19.0122 H   0  0  0  0  0  0
  -23.7486  -30.5960   19.3996 H   0  0  0  0  0  0
  -22.7516  -29.2486   19.8586 H   0  0  0  0  0  0
  -25.1298  -36.1940   25.0815 H   0  0  0  0  0  0
  -20.9983  -28.3257   24.1381 H   0  0  0  0  0  0
  -20.5724  -26.2313   23.3575 H   0  0  0  0  0  0
  -21.6623  -26.7481   22.1126 H   0  0  0  0  0  0
  -19.6852  -25.6327   21.1218 H   0  0  0  0  0  0
  -19.6626  -27.3232   20.6727 H   0  0  0  0  0  0
  -17.4158  -26.6705   21.4070 H   0  0  0  0  0  0
  -18.0345  -26.0110   22.9059 H   0  0  0  0  0  0
  -19.7965  -30.7298   24.2224 H   0  0  0  0  0  0
  -17.5040  -31.6310   24.5163 H   0  0  0  0  0  0
  -15.5362  -30.3025   23.7714 H   0  0  0  0  0  0
  -15.8652  -28.0882   22.7089 H   0  0  0  0  0  0
  -24.5901  -30.7069   25.7743 H   0  0  0  0  0  0
  -24.8923  -32.2870   26.4871 H   0  0  0  0  0  0
  -25.8037  -30.8860   27.0207 H   0  0  0  0  0  0
  -26.2940  -29.6749   24.1189 H   0  0  0  0  0  0
  -27.4096  -29.7281   25.4641 H   0  0  0  0  0  0
  -27.8779  -30.4323   23.9353 H   0  0  0  0  0  0
  -27.2697  -33.3609   26.2062 H   0  0  0  0  0  0
  -28.3869  -32.6862   25.0297 H   0  0  0  0  0  0
  -28.0749  -31.8429   26.5386 H   0  0  0  0  0  0
  -28.2618  -38.0083   24.7501 H   0  0  0  0  0  0
  -28.1056  -36.2614   24.6329 H   0  0  0  0  0  0
  -27.2288  -37.1485   25.8876 H   0  0  0  0  0  0
  -20.9352  -29.8773   21.6859 H   0  0  0  0  0  0
  -26.0183  -38.2850   24.1387 H   0  0  0  0  0  0
  -30.4722  -19.6492   19.8536 H   0  0  0  0  0  0
  -27.7727  -17.0635   21.9934 H   0  0  0  0  0  0
  -26.9347  -21.2541   21.6972 H   0  0  0  0  0  0
  -30.9768  -17.1436   19.9990 H   0  0  0  0  0  0
  -28.2551  -25.5187   18.3816 H   0  0  0  0  0  0
  -27.9775  -23.1600   21.7983 H   0  0  0  0  0  0
  -29.7357  -23.4608   21.7376 H   0  0  0  0  0  0
  -25.3999  -19.7365   22.6950 H   0  0  0  0  0  0
  -25.6548  -18.0632   22.7102 H   0  0  0  0  0  0
  1 25  1  0  0  0
  1 30  2  0  0  0
  1 82  1  0  0  0
  2  3  1  0  0  0
  2 25  1  0  0  0
  2 86  1  0  0  0
  2 87  1  0  0  0
  3  4  1  0  0  0
  3 88  1  0  0  0
  3 89  1  0  0  0
  4  5  1  0  0  0
  4 90  1  0  0  0
  4 91  1  0  0  0
  5  6  1  0  0  0
  5 26  1  0  0  0
  5 92  1  0  0  0
  6 25  1  0  0  0
  6 93  1  0  0  0
  6 94  1  0  0  0
  7  8  2  0  0  0
  7 26  1  0  0  0
  7 29  1  0  0  0
  8  9  1  0  0  0
  8 22  1  0  0  0
  9 10  1  0  0  0
  9 27  2  0  0  0
 10 11  2  0  0  0
 10 15  1  0  0  0
 11 12  1  0  0  0
 11 95  1  0  0  0
 12 13  2  0  0  0
 12 96  1  0  0  0
 13 14  1  0  0  0
 13 31  1  0  0  0
 14 15  2  0  0  0
 14 97  1  0  0  0
 15 98  1  0  0  0
 16 17  2  0  0  0
 16 21  1  0  0  0
 16 31  1  0  0  0
 17 18  1  0  0  0
 17 99  1  0  0  0
 18 19  2  0  0  0
 18100  1  0  0  0
 19 20  1  0  0  0
 19 24  1  0  0  0
 20 21  2  0  0  0
 20101  1  0  0  0
 21 23  1  0  0  0
 22 28  1  0  0  0
 22 32  2  0  0  0
 26 27  1  0  0  0
 28102  1  0  0  0
 28103  1  0  0  0
 29104  1  0  0  0
 29105  1  0  0  0
 33 34  1  0  0  0
 33 66  1  0  0  0
 33 70  2  0  0  0
 34 36  1  0  0  0
 34 59  1  0  0  0
 34106  1  0  0  0
 35 44  2  0  0  0
 35 45  1  0  0  0
 35 68  1  0  0  0
 36 56  1  0  0  0
 36107  1  0  0  0
 37 39  1  0  0  0
 37 47  1  0  0  0
 37 66  1  0  0  0
 37108  1  0  0  0
 38 43  2  0  0  0
 38 46  1  0  0  0
 38 47  1  0  0  0
 39 64  1  0  0  0
 39 67  2  0  0  0
 40 52  1  0  0  0
 40 53  2  0  0  0
 40 58  1  0  0  0
 41109  1  0  0  0
 41110  1  0  0  0
 41111  1  0  0  0
 41 48  1  0  0  0
 42 43  1  0  0  0
 42 66  1  0  0  0
 42112  1  0  0  0
 42113  1  0  0  0
 43 44  1  0  0  0
 44114  1  0  0  0
 45 46  2  0  0  0
 45115  1  0  0  0
 46116  1  0  0  0
 47117  1  0  0  0
 47118  1  0  0  0
 48 56  1  0  0  0
 48 65  1  0  0  0
 48119  1  0  0  0
 49 50  1  0  0  0
 49 53  1  0  0  0
 49 64  1  0  0  0
 49120  1  0  0  0
 50 51  1  0  0  0
 50121  1  0  0  0
 50122  1  0  0  0
 51 52  1  0  0  0
 51123  1  0  0  0
 51124  1  0  0  0
 52125  1  0  0  0
 52126  1  0  0  0
 53 54  1  0  0  0
 54 55  2  0  0  0
 54127  1  0  0  0
 55 57  1  0  0  0
 55128  1  0  0  0
 56 69  2  0  0  0
 57 58  2  0  0  0
 57129  1  0  0  0
 58130  1  0  0  0
 59 60  1  0  0  0
 59 61  1  0  0  0
 59 62  1  0  0  0
 60131  1  0  0  0
 60132  1  0  0  0
 60133  1  0  0  0
 61134  1  0  0  0
 61135  1  0  0  0
 61136  1  0  0  0
 62137  1  0  0  0
 62138  1  0  0  0
 62139  1  0  0  0
 63 65  1  0  0  0
 63140  1  0  0  0
 63141  1  0  0  0
 63142  1  0  0  0
 64143  1  0  0  0
 65144  1  0  0  0
 68 80  1  0  0  0
 71 74  2  0  0  0
 71 75  1  0  0  0
 71145  1  0  0  0
 72 74  1  0  0  0
 72 76  2  0  0  0
 72146  1  0  0  0
 73 75  2  0  0  0
 73 76  1  0  0  0
 73147  1  0  0  0
 74 79  1  0  0  0
 75 83  1  0  0  0
 76 84  1  0  0  0
 77 78  1  0  0  0
 77 80  2  0  0  0
 77 81  1  0  0  0
 78 83  1  0  0  0
 78 85  2  0  0  0
 79 82  2  0  0  0
 79148  1  0  0  0
 80149  1  0  0  0
 81 83  1  0  0  0
 81150  1  0  0  0
 81151  1  0  0  0
 84152  1  0  0  0
 84153  1  0  0  0
M  ISO  4   1 100  68 101  80 101  82 100
M  END
> <chiral flag>
0

> <version>
0

> <s_m_source_file>
/data/baiqing/PycharmProjects/Reinvent-master-3.2/result/LINK_invent/BTK/process_docking_weight1_custom_product_contain_oxygen_bond_distance_aromatic_linkinvent_7_9_3/rearranged_h_0082.sdf

> <i_m_source_file_index>
65

> <r_mmod_Potential_Energy-OPLS-2005>
101.743278503418

> <r_mmod_Stretch_Energy-OPLS-2005>
75.8966522216797

> <r_mmod_Bend_Energy-OPLS-2005>
184.677764892578

> <r_mmod_Torsional_Energy-OPLS-2005>
202.738143920898

> <r_mmod_Improper_Torsional_Energy-OPLS-2005>
12.1673517227173

> <r_mmod_Van_der_Waal_Energy-OPLS-2005>
148.489715576172

> <r_mmod_Electrostatic_Energy-OPLS-2005>
-359.750671386719

> <r_mmod_Solvation_Energy-OPLS-2005>
-205.798233032227

> <b_mmod_Minimization_Converged-OPLS-2005>
0

> <r_mmod_RMS_Derivative-OPLS-2005>
3.0253574848175

$$$$
65
                    3D
 Structure written by MMmdl.
157167  0  0  1  0            999 V2000
  -30.7908  -14.5039   20.4932 C   0  0  0  0  0  0
  -30.3785  -12.3037   19.4719 C   0  0  0  0  0  0
  -29.4897  -12.4774   18.2269 C   0  0  0  0  0  0
  -28.0107  -12.3564   18.6303 C   0  0  0  0  0  0
  -27.6479  -13.2351   19.8598 C   0  0  2  0  0  0
  -28.6908  -13.1222   20.9953 C   0  0  0  0  0  0
  -25.2536  -13.8231   20.5705 C   0  0  0  0  0  0
  -24.1818  -13.0464   20.9207 C   0  0  0  0  0  0
  -24.6410  -11.6941   20.8737 C   0  0  0  0  0  0
  -23.9084  -10.4301   21.0396 C   0  0  0  0  0  0
  -24.3629   -9.4216   21.9177 C   0  0  0  0  0  0
  -23.6301   -8.2253   22.0751 C   0  0  0  0  0  0
  -22.4287   -8.0286   21.3541 C   0  0  0  0  0  0
  -21.9920   -9.0264   20.4651 C   0  0  0  0  0  0
  -22.7250  -10.2144   20.3060 C   0  0  0  0  0  0
  -21.6860   -6.0739   22.5273 C   0  0  0  0  0  0
  -21.4020   -6.5645   23.8205 C   0  0  0  0  0  0
  -21.3659   -5.6802   24.9166 C   0  0  0  0  0  0
  -21.6036   -4.3062   24.7225 C   0  0  0  0  0  0
  -21.8823   -3.8152   23.4349 C   0  0  0  0  0  0
  -21.9200   -4.6962   22.3402 C   0  0  0  0  0  0
  -22.7847  -13.5238   21.1861 C   0  0  0  0  0  0
  -22.1668   -4.2148   21.0977 F   0  0  0  0  0  0
  -21.5622   -3.4545   25.7735 F   0  0  0  0  0  0
  -30.0154  -13.3781   20.4231 N   0  0  0  0  0  0
  -26.2972  -12.9451   20.3335 N   0  0  0  0  0  0
  -25.9347  -11.6580   20.5777 N   0  0  0  0  0  0
  -22.0511  -12.8214   22.0416 N   0  0  0  0  0  0
  -25.4227  -15.1946   20.4094 N   0  0  0  0  0  0
  -31.9532  -14.4192   20.1044 O   0  0  0  0  0  0
  -21.6648   -6.8885   21.4239 O   0  0  0  0  0  0
  -22.3527  -14.5540   20.6705 O   0  0  0  0  0  0
  -24.6148  -31.8674   23.2106 C   0  0  0  0  0  0
  -25.9042  -32.4826   23.8399 C   0  0  1  0  0  0
  -27.2193  -27.4238   20.1030 C   0  0  0  0  0  0
  -25.5884  -33.8619   24.2332 N   0  0  0  0  0  0
  -23.4042  -30.4913   21.5510 C   0  0  2  0  0  0
  -24.8512  -28.9608   20.1085 C   0  0  0  0  0  0
  -22.7416  -29.4653   22.4989 C   0  0  0  0  0  0
  -18.0275  -28.1368   22.8504 C   0  0  0  0  0  0
  -24.1484  -36.7319   23.2643 C   0  0  0  0  0  0
  -25.9342  -30.8300   21.3664 C   0  0  0  0  0  0
  -26.0115  -29.4660   20.7097 C   0  0  0  0  0  0
  -27.2039  -28.7031   20.7084 C   0  0  0  0  0  0
  -26.0518  -26.9402   19.4822 C   0  0  0  0  0  0
  -24.8661  -27.6980   19.4894 C   0  0  0  0  0  0
  -23.6134  -29.8282   20.1635 C   0  0  0  0  0  0
  -25.4106  -36.3120   24.0344 C   0  0  1  0  0  0
  -20.5867  -28.3653   23.1323 C   0  0  2  0  0  0
  -20.6759  -26.9388   22.5426 C   0  0  0  0  0  0
  -19.5738  -26.6375   21.5220 C   0  0  0  0  0  0
  -18.1919  -26.7913   22.1636 C   0  0  0  0  0  0
  -19.1524  -28.8827   23.2911 C   0  0  0  0  0  0
  -18.9445  -30.1434   23.8920 C   0  0  0  0  0  0
  -17.6448  -30.6576   24.0561 C   0  0  0  0  0  0
  -25.9030  -34.9478   23.5139 C   0  0  0  0  0  0
  -16.5343  -29.9076   23.6326 C   0  0  0  0  0  0
  -16.7264  -28.6492   23.0353 C   0  0  0  0  0  0
  -26.4462  -31.6611   25.0738 C   0  0  0  0  0  0
  -25.3725  -31.3705   26.1488 C   0  0  0  0  0  0
  -27.0287  -30.3054   24.6111 C   0  0  0  0  0  0
  -27.6045  -32.4325   25.7491 C   0  0  0  0  0  0
  -27.5583  -37.1819   24.8467 C   0  0  0  0  0  0
  -21.4142  -29.3029   22.3736 N   0  0  0  0  0  0
  -26.4299  -37.3799   23.9409 N   0  0  0  0  0  0
  -24.6692  -31.0769   22.1011 N   0  0  0  0  0  0
  -23.4201  -28.8194   23.3015 O   0  0  0  0  0  0
  -28.3074  -26.5855   20.1688 O   0  0  0  0  0  0
  -26.5601  -34.8927   22.4710 O   0  0  0  0  0  0
  -23.5339  -32.1423   23.7508 O   0  0  0  0  0  0
  -26.4519  -19.4143   23.2492 C   0  0  0  0  0  0
  -27.2945  -18.4267   22.7099 C   0  0  0  0  0  0
  -26.5739  -20.7568   22.8398 C   0  0  0  0  0  0
  -28.3191  -20.1446   21.3079 C   0  0  0  0  0  0
  -29.1377  -16.4326   21.2089 C   0  0  0  0  0  0
  -30.5113  -18.1970   20.9944 C   0  0  0  0  0  0
  -30.3634  -15.9301   20.8064 C   0  0  0  0  0  0
  -28.2560  -18.7876   21.7478 C   0  0  0  0  0  0
  -27.5066  -21.1736   21.8602 C   0  0  0  0  0  0
  -31.2197  -17.0840   20.6824 C   0  0  0  0  0  0
  -28.1476  -24.4742   21.4064 C   0  0  0  0  0  0
  -27.9779  -23.3928   20.4634 C   0  0  0  0  0  0
  -28.3205  -25.8178   21.3139 C   0  0  0  0  0  0
  -27.9992  -23.5104   22.5663 C   0  0  0  0  0  0
  -29.2272  -17.8316   21.3215 N   0  0  0  0  0  0
  -27.5774  -22.5657   21.5229 N   0  0  0  0  0  0
  -28.2179  -23.2928   19.2777 O   0  0  0  0  0  0
  -32.5354  -17.1318   20.3161 O   0  0  0  0  0  0
  -31.4298  -12.2962   19.1797 H   0  0  0  0  0  0
  -30.2070  -11.3273   19.9273 H   0  0  0  0  0  0
  -29.7337  -11.7190   17.4819 H   0  0  0  0  0  0
  -29.6787  -13.4457   17.7598 H   0  0  0  0  0  0
  -27.8220  -11.3054   18.8547 H   0  0  0  0  0  0
  -27.3657  -12.6027   17.7862 H   0  0  0  0  0  0
  -27.6634  -14.2682   19.5129 H   0  0  0  0  0  0
  -28.6655  -12.1252   21.4368 H   0  0  0  0  0  0
  -28.4700  -13.8062   21.8128 H   0  0  0  0  0  0
  -25.2777   -9.5691   22.4746 H   0  0  0  0  0  0
  -24.0006   -7.4654   22.7479 H   0  0  0  0  0  0
  -21.0847   -8.8795   19.8964 H   0  0  0  0  0  0
  -22.3706  -10.9687   19.6172 H   0  0  0  0  0  0
  -21.2013   -7.6155   23.9705 H   0  0  0  0  0  0
  -21.1473   -6.0532   25.9070 H   0  0  0  0  0  0
  -22.0601   -2.7613   23.2850 H   0  0  0  0  0  0
  -22.4158  -11.9870   22.4759 H   0  0  0  0  0  0
  -21.1132  -13.1220   22.2644 H   0  0  0  0  0  0
  -24.6487  -15.8423   20.5051 H   0  0  0  0  0  0
  -26.2599  -15.6292   20.0416 H   0  0  0  0  0  0
  -26.7125  -32.5528   23.1168 H   0  0  0  0  0  0
  -25.0014  -33.9779   25.0463 H   0  0  0  0  0  0
  -22.6944  -31.3088   21.4140 H   0  0  0  0  0  0
  -23.3742  -35.9657   23.3318 H   0  0  0  0  0  0
  -24.3581  -36.8915   22.2056 H   0  0  0  0  0  0
  -23.7242  -37.6532   23.6640 H   0  0  0  0  0  0
  -26.0520  -31.5971   20.6007 H   0  0  0  0  0  0
  -26.8208  -30.8799   21.9858 H   0  0  0  0  0  0
  -28.0964  -29.0760   21.1922 H   0  0  0  0  0  0
  -26.0559  -25.9639   19.0181 H   0  0  0  0  0  0
  -23.9728  -27.3031   19.0266 H   0  0  0  0  0  0
  -23.7242  -30.6054   19.4064 H   0  0  0  0  0  0
  -22.7367  -29.2507   19.8661 H   0  0  0  0  0  0
  -25.1285  -36.1992   25.0836 H   0  0  0  0  0  0
  -20.9960  -28.3207   24.1439 H   0  0  0  0  0  0
  -20.5645  -26.2257   23.3613 H   0  0  0  0  0  0
  -21.6627  -26.7413   22.1227 H   0  0  0  0  0  0
  -19.6886  -25.6286   21.1240 H   0  0  0  0  0  0
  -19.6668  -27.3194   20.6757 H   0  0  0  0  0  0
  -17.4186  -26.6668   21.4043 H   0  0  0  0  0  0
  -18.0314  -26.0049   22.9024 H   0  0  0  0  0  0
  -19.7918  -30.7241   24.2304 H   0  0  0  0  0  0
  -17.4999  -31.6257   24.5147 H   0  0  0  0  0  0
  -15.5343  -30.2979   23.7616 H   0  0  0  0  0  0
  -15.8672  -28.0805   22.7061 H   0  0  0  0  0  0
  -24.5904  -30.7049   25.7822 H   0  0  0  0  0  0
  -24.8903  -32.2846   26.4952 H   0  0  0  0  0  0
  -25.8074  -30.8866   27.0241 H   0  0  0  0  0  0
  -26.2831  -29.6840   24.1138 H   0  0  0  0  0  0
  -27.4030  -29.7272   25.4569 H   0  0  0  0  0  0
  -27.8677  -30.4386   23.9281 H   0  0  0  0  0  0
  -27.2680  -33.3613   26.2104 H   0  0  0  0  0  0
  -28.3824  -32.6903   25.0296 H   0  0  0  0  0  0
  -28.0746  -31.8428   26.5371 H   0  0  0  0  0  0
  -28.2619  -38.0100   24.7504 H   0  0  0  0  0  0
  -28.1060  -36.2635   24.6299 H   0  0  0  0  0  0
  -27.2304  -37.1481   25.8871 H   0  0  0  0  0  0
  -20.9298  -29.8777   21.6985 H   0  0  0  0  0  0
  -26.0192  -38.2883   24.1386 H   0  0  0  0  0  0
  -25.7284  -19.1501   24.0080 H   0  0  0  0  0  0
  -27.2272  -17.4096   23.0694 H   0  0  0  0  0  0
  -25.9206  -21.4876   23.2944 H   0  0  0  0  0  0
  -29.0477  -20.4226   20.5617 H   0  0  0  0  0  0
  -28.2036  -15.9374   21.4231 H   0  0  0  0  0  0
  -30.8241  -19.2311   21.0280 H   0  0  0  0  0  0
  -28.4007  -26.4356   22.1976 H   0  0  0  0  0  0
  -27.2131  -23.7053   23.2971 H   0  0  0  0  0  0
  -28.9159  -23.1912   23.0665 H   0  0  0  0  0  0
  -32.8923  -18.0152   20.2971 H   0  0  0  0  0  0
  1 25  1  0  0  0
  1 30  2  0  0  0
  1 77  1  0  0  0
  2  3  1  0  0  0
  2 25  1  0  0  0
  2 89  1  0  0  0
  2 90  1  0  0  0
  3  4  1  0  0  0
  3 91  1  0  0  0
  3 92  1  0  0  0
  4  5  1  0  0  0
  4 93  1  0  0  0
  4 94  1  0  0  0
  5  6  1  0  0  0
  5 26  1  0  0  0
  5 95  1  0  0  0
  6 25  1  0  0  0
  6 96  1  0  0  0
  6 97  1  0  0  0
  7  8  2  0  0  0
  7 26  1  0  0  0
  7 29  1  0  0  0
  8  9  1  0  0  0
  8 22  1  0  0  0
  9 10  1  0  0  0
  9 27  2  0  0  0
 10 11  2  0  0  0
 10 15  1  0  0  0
 11 12  1  0  0  0
 11 98  1  0  0  0
 12 13  2  0  0  0
 12 99  1  0  0  0
 13 14  1  0  0  0
 13 31  1  0  0  0
 14 15  2  0  0  0
 14100  1  0  0  0
 15101  1  0  0  0
 16 17  2  0  0  0
 16 21  1  0  0  0
 16 31  1  0  0  0
 17 18  1  0  0  0
 17102  1  0  0  0
 18 19  2  0  0  0
 18103  1  0  0  0
 19 20  1  0  0  0
 19 24  1  0  0  0
 20 21  2  0  0  0
 20104  1  0  0  0
 21 23  1  0  0  0
 22 28  1  0  0  0
 22 32  2  0  0  0
 26 27  1  0  0  0
 28105  1  0  0  0
 28106  1  0  0  0
 29107  1  0  0  0
 29108  1  0  0  0
 33 34  1  0  0  0
 33 66  1  0  0  0
 33 70  2  0  0  0
 34 36  1  0  0  0
 34 59  1  0  0  0
 34109  1  0  0  0
 35 44  2  0  0  0
 35 45  1  0  0  0
 35 68  1  0  0  0
 36 56  1  0  0  0
 36110  1  0  0  0
 37 39  1  0  0  0
 37 47  1  0  0  0
 37 66  1  0  0  0
 37111  1  0  0  0
 38 43  2  0  0  0
 38 46  1  0  0  0
 38 47  1  0  0  0
 39 64  1  0  0  0
 39 67  2  0  0  0
 40 52  1  0  0  0
 40 53  2  0  0  0
 40 58  1  0  0  0
 41112  1  0  0  0
 41113  1  0  0  0
 41114  1  0  0  0
 41 48  1  0  0  0
 42 43  1  0  0  0
 42 66  1  0  0  0
 42115  1  0  0  0
 42116  1  0  0  0
 43 44  1  0  0  0
 44117  1  0  0  0
 45 46  2  0  0  0
 45118  1  0  0  0
 46119  1  0  0  0
 47120  1  0  0  0
 47121  1  0  0  0
 48 56  1  0  0  0
 48 65  1  0  0  0
 48122  1  0  0  0
 49 50  1  0  0  0
 49 53  1  0  0  0
 49 64  1  0  0  0
 49123  1  0  0  0
 50 51  1  0  0  0
 50124  1  0  0  0
 50125  1  0  0  0
 51 52  1  0  0  0
 51126  1  0  0  0
 51127  1  0  0  0
 52128  1  0  0  0
 52129  1  0  0  0
 53 54  1  0  0  0
 54 55  2  0  0  0
 54130  1  0  0  0
 55 57  1  0  0  0
 55131  1  0  0  0
 56 69  2  0  0  0
 57 58  2  0  0  0
 57132  1  0  0  0
 58133  1  0  0  0
 59 60  1  0  0  0
 59 61  1  0  0  0
 59 62  1  0  0  0
 60134  1  0  0  0
 60135  1  0  0  0
 60136  1  0  0  0
 61137  1  0  0  0
 61138  1  0  0  0
 61139  1  0  0  0
 62140  1  0  0  0
 62141  1  0  0  0
 62142  1  0  0  0
 63 65  1  0  0  0
 63143  1  0  0  0
 63144  1  0  0  0
 63145  1  0  0  0
 64146  1  0  0  0
 65147  1  0  0  0
 68 83  1  0  0  0
 71 72  2  0  0  0
 71 73  1  0  0  0
 71148  1  0  0  0
 72 78  1  0  0  0
 72149  1  0  0  0
 73 79  2  0  0  0
 73150  1  0  0  0
 74 78  2  0  0  0
 74 79  1  0  0  0
 74151  1  0  0  0
 75 77  2  0  0  0
 75 85  1  0  0  0
 75152  1  0  0  0
 76 80  2  0  0  0
 76 85  1  0  0  0
 76153  1  0  0  0
 77 80  1  0  0  0
 78 85  1  0  0  0
 79 86  1  0  0  0
 80 88  1  0  0  0
 81 82  1  0  0  0
 81 83  2  0  0  0
 81 84  1  0  0  0
 82 86  1  0  0  0
 82 87  2  0  0  0
 83154  1  0  0  0
 84 86  1  0  0  0
 84155  1  0  0  0
 84156  1  0  0  0
 88157  1  0  0  0
M  ISO  4   1 100  68 101  77 100  83 101
M  END
> <chiral flag>
0

> <version>
0

> <s_m_source_file>
/data/baiqing/PycharmProjects/Reinvent-master-3.2/result/LINK_invent/BTK/process_docking_weight1_custom_product_contain_oxygen_bond_distance_aromatic_linkinvent_7_9_3/rearranged_h_0082.sdf

> <i_m_source_file_index>
66

> <r_mmod_Potential_Energy-OPLS-2005>
178.784149169922

> <r_mmod_Stretch_Energy-OPLS-2005>
45.8003425598145

> <r_mmod_Bend_Energy-OPLS-2005>
207.80305480957

> <r_mmod_Torsional_Energy-OPLS-2005>
235.602249145508

> <r_mmod_Improper_Torsional_Energy-OPLS-2005>
8.62642383575439

> <r_mmod_Van_der_Waal_Energy-OPLS-2005>
138.909744262695

> <r_mmod_Electrostatic_Energy-OPLS-2005>
-248.333770751953

> <r_mmod_Solvation_Energy-OPLS-2005>
-245.346664428711

> <b_mmod_Minimization_Converged-OPLS-2005>
0

> <r_mmod_RMS_Derivative-OPLS-2005>
2.16073441505432

$$$$
66
                    3D
 Structure written by MMmdl.
155164  0  0  1  0            999 V2000
  -30.5234  -15.0278   20.3854 C   0  0  0  0  0  0
  -30.4717  -12.6247   19.5345 C   0  0  0  0  0  0
  -29.5589  -12.5107   18.2886 C   0  0  0  0  0  0
  -28.0893  -12.2888   18.6967 C   0  0  0  0  0  0
  -27.6425  -13.2401   19.8383 C   0  0  2  0  0  0
  -28.6849  -13.2681   20.9764 C   0  0  0  0  0  0
  -25.2484  -13.8168   20.5607 C   0  0  0  0  0  0
  -24.1787  -13.0423   20.9062 C   0  0  0  0  0  0
  -24.6359  -11.6889   20.8665 C   0  0  0  0  0  0
  -23.9037  -10.4261   21.0377 C   0  0  0  0  0  0
  -24.3596   -9.4162   21.9162 C   0  0  0  0  0  0
  -23.6217   -8.2243   22.0791 C   0  0  0  0  0  0
  -22.4191   -8.0283   21.3586 C   0  0  0  0  0  0
  -21.9849   -9.0258   20.4674 C   0  0  0  0  0  0
  -22.7198  -10.2122   20.3044 C   0  0  0  0  0  0
  -21.6831   -6.0713   22.5240 C   0  0  0  0  0  0
  -21.4029   -6.5633   23.8166 C   0  0  0  0  0  0
  -21.3669   -5.6795   24.9127 C   0  0  0  0  0  0
  -21.6064   -4.3061   24.7182 C   0  0  0  0  0  0
  -21.8796   -3.8121   23.4298 C   0  0  0  0  0  0
  -21.9170   -4.6943   22.3363 C   0  0  0  0  0  0
  -22.7807  -13.5238   21.1712 C   0  0  0  0  0  0
  -22.1643   -4.2144   21.0930 F   0  0  0  0  0  0
  -21.5638   -3.4535   25.7696 F   0  0  0  0  0  0
  -29.9601  -13.7329   20.3976 N   0  0  0  0  0  0
  -26.2956  -12.9407   20.3220 N   0  0  0  0  0  0
  -25.9312  -11.6516   20.5665 N   0  0  0  0  0  0
  -22.0453  -12.8356   22.0326 N   0  0  0  0  0  0
  -25.4038  -15.1921   20.4047 N   0  0  0  0  0  0
  -31.7059  -15.1039   20.0261 O   0  0  0  0  0  0
  -21.6586   -6.8867   21.4212 O   0  0  0  0  0  0
  -22.3482  -14.5530   20.6500 O   0  0  0  0  0  0
  -24.6463  -31.8454   23.2026 C   0  0  0  0  0  0
  -25.9192  -32.4712   23.8433 C   0  0  1  0  0  0
  -27.2233  -27.1713   20.0748 C   0  0  0  0  0  0
  -25.5895  -33.8533   24.2310 N   0  0  0  0  0  0
  -23.4562  -30.4713   21.5487 C   0  0  2  0  0  0
  -24.9072  -28.9236   20.0930 C   0  0  0  0  0  0
  -22.7650  -29.4522   22.4906 C   0  0  0  0  0  0
  -18.0307  -28.1432   22.8432 C   0  0  0  0  0  0
  -24.1511  -36.7321   23.2652 C   0  0  0  0  0  0
  -26.0200  -30.7171   21.4083 C   0  0  0  0  0  0
  -26.0891  -29.3424   20.7216 C   0  0  0  0  0  0
  -27.2503  -28.4797   20.7056 C   0  0  0  0  0  0
  -26.0317  -26.8891   19.3681 C   0  0  0  0  0  0
  -24.8919  -27.7110   19.3988 C   0  0  0  0  0  0
  -23.6803  -29.8172   20.1620 C   0  0  0  0  0  0
  -25.4130  -36.3104   24.0355 C   0  0  1  0  0  0
  -20.5940  -28.3748   23.1219 C   0  0  2  0  0  0
  -20.6784  -26.9433   22.5413 C   0  0  0  0  0  0
  -19.5753  -26.6395   21.5227 C   0  0  0  0  0  0
  -18.1935  -26.7963   22.1623 C   0  0  0  0  0  0
  -19.1566  -28.8915   23.2825 C   0  0  0  0  0  0
  -18.9456  -30.1505   23.8862 C   0  0  0  0  0  0
  -17.6442  -30.6598   24.0570 C   0  0  0  0  0  0
  -25.9071  -34.9426   23.5175 C   0  0  0  0  0  0
  -16.5344  -29.9095   23.6322 C   0  0  0  0  0  0
  -16.7286  -28.6544   23.0294 C   0  0  0  0  0  0
  -26.4500  -31.6567   25.0876 C   0  0  0  0  0  0
  -25.3665  -31.3696   26.1565 C   0  0  0  0  0  0
  -27.0351  -30.2963   24.6440 C   0  0  0  0  0  0
  -27.6097  -32.4335   25.7544 C   0  0  0  0  0  0
  -27.5615  -37.1843   24.8473 C   0  0  0  0  0  0
  -21.4345  -29.3069   22.3624 N   0  0  0  0  0  0
  -26.4327  -37.3794   23.9401 N   0  0  0  0  0  0
  -24.7298  -31.0313   22.1063 N   0  0  0  0  0  0
  -23.4284  -28.8023   23.3018 O   0  0  0  0  0  0
  -28.2117  -26.1126   20.1276 O   0  0  0  0  0  0
  -26.5698  -34.8869   22.4779 O   0  0  0  0  0  0
  -23.5567  -32.1317   23.7209 O   0  0  0  0  0  0
  -30.7217  -18.9018   21.0985 C   0  0  0  0  0  0
  -30.5900  -20.3498   21.1102 C   0  0  0  0  0  0
  -28.9471  -18.7927   19.5808 C   0  0  0  0  0  0
  -29.8689  -18.0029   20.3773 C   0  0  0  0  0  0
  -29.5671  -21.1290   20.4464 C   0  0  0  0  0  0
  -28.8009  -20.2489   19.5968 C   0  0  0  0  0  0
  -29.2747  -22.5955   22.1982 C   0  0  0  0  0  0
  -28.0203  -22.5271   22.6556 C   0  0  0  0  0  0
  -27.1796  -22.7988   21.5290 C   0  0  0  0  0  0
  -28.1097  -23.4088   20.5949 C   0  0  0  0  0  0
  -25.8521  -22.6130   21.4241 C   0  0  0  0  0  0
  -27.7108  -24.7591   20.3458 C   0  0  0  0  0  0
  -29.6392  -16.4291   20.7432 C   0  0  0  0  0  0
  -28.5971  -16.3203   21.4526 N   0  0  0  0  0  0
  -29.3069  -22.5720   20.8034 N   0  0  0  0  0  0
  -27.6399  -22.4405   23.9368 O   0  0  0  0  0  0
  -27.8407  -20.7872   18.8056 F   0  0  0  0  0  0
  -31.5072  -12.7870   19.2336 H   0  0  0  0  0  0
  -30.4815  -11.6825   20.0897 H   0  0  0  0  0  0
  -29.9066  -11.6870   17.6613 H   0  0  0  0  0  0
  -29.6374  -13.4152   17.6844 H   0  0  0  0  0  0
  -28.0006  -11.2562   19.0378 H   0  0  0  0  0  0
  -27.4334  -12.3739   17.8314 H   0  0  0  0  0  0
  -27.6031  -14.2339   19.3936 H   0  0  0  0  0  0
  -28.7959  -12.2801   21.4228 H   0  0  0  0  0  0
  -28.3516  -13.9039   21.7931 H   0  0  0  0  0  0
  -25.2799   -9.5610   22.4660 H   0  0  0  0  0  0
  -23.9918   -7.4661   22.7541 H   0  0  0  0  0  0
  -21.0753   -8.8719   19.8994 H   0  0  0  0  0  0
  -22.3657  -10.9622   19.6120 H   0  0  0  0  0  0
  -21.2028   -7.6150   23.9669 H   0  0  0  0  0  0
  -21.1551   -6.0541   25.9050 H   0  0  0  0  0  0
  -22.0571   -2.7578   23.2754 H   0  0  0  0  0  0
  -22.4088  -12.0141   22.4964 H   0  0  0  0  0  0
  -21.1084  -13.1519   22.2429 H   0  0  0  0  0  0
  -24.6086  -15.8180   20.4149 H   0  0  0  0  0  0
  -26.2878  -15.6636   20.2499 H   0  0  0  0  0  0
  -26.7301  -32.5289   23.1217 H   0  0  0  0  0  0
  -24.9807  -33.9662   25.0295 H   0  0  0  0  0  0
  -22.7606  -31.3039   21.4010 H   0  0  0  0  0  0
  -23.3751  -35.9676   23.3311 H   0  0  0  0  0  0
  -24.3656  -36.8952   22.2082 H   0  0  0  0  0  0
  -23.7248  -37.6517   23.6654 H   0  0  0  0  0  0
  -26.2009  -31.4845   20.6535 H   0  0  0  0  0  0
  -26.8872  -30.7564   22.0563 H   0  0  0  0  0  0
  -28.1485  -28.7914   21.2173 H   0  0  0  0  0  0
  -25.9442  -25.9706   18.8021 H   0  0  0  0  0  0
  -24.0010  -27.4153   18.8638 H   0  0  0  0  0  0
  -23.8138  -30.6045   19.4228 H   0  0  0  0  0  0
  -22.7962  -29.2670   19.8371 H   0  0  0  0  0  0
  -25.1307  -36.2033   25.0847 H   0  0  0  0  0  0
  -20.9988  -28.3309   24.1367 H   0  0  0  0  0  0
  -20.5658  -26.2360   23.3630 H   0  0  0  0  0  0
  -21.6646  -26.7409   22.1230 H   0  0  0  0  0  0
  -19.6914  -25.6312   21.1249 H   0  0  0  0  0  0
  -19.6692  -27.3222   20.6758 H   0  0  0  0  0  0
  -17.4196  -26.6652   21.4040 H   0  0  0  0  0  0
  -18.0336  -26.0156   22.9064 H   0  0  0  0  0  0
  -19.7916  -30.7347   24.2212 H   0  0  0  0  0  0
  -17.4964  -31.6232   24.5230 H   0  0  0  0  0  0
  -15.5338  -30.2959   23.7691 H   0  0  0  0  0  0
  -15.8684  -28.0887   22.6970 H   0  0  0  0  0  0
  -24.5914  -30.7001   25.7864 H   0  0  0  0  0  0
  -24.8727  -32.2775   26.4991 H   0  0  0  0  0  0
  -25.7913  -30.8883   27.0391 H   0  0  0  0  0  0
  -26.3017  -29.6762   24.1281 H   0  0  0  0  0  0
  -27.3767  -29.7208   25.5064 H   0  0  0  0  0  0
  -27.9022  -30.4263   23.9972 H   0  0  0  0  0  0
  -27.2806  -33.3696   26.2074 H   0  0  0  0  0  0
  -28.3794  -32.6788   25.0225 H   0  0  0  0  0  0
  -28.0877  -31.8488   26.5423 H   0  0  0  0  0  0
  -28.2651  -38.0122   24.7458 H   0  0  0  0  0  0
  -28.1082  -36.2635   24.6358 H   0  0  0  0  0  0
  -27.2331  -37.1611   25.8879 H   0  0  0  0  0  0
  -20.9612  -29.8795   21.6775 H   0  0  0  0  0  0
  -26.0229  -38.2914   24.1243 H   0  0  0  0  0  0
  -31.4505  -18.4635   21.7681 H   0  0  0  0  0  0
  -31.2778  -20.8813   21.7533 H   0  0  0  0  0  0
  -28.2161  -18.2608   18.9910 H   0  0  0  0  0  0
  -30.2051  -22.5689   22.7468 H   0  0  0  0  0  0
  -25.2850  -22.1697   22.2285 H   0  0  0  0  0  0
  -25.3068  -22.8921   20.5333 H   0  0  0  0  0  0
  -26.6621  -24.8842   20.5808 H   0  0  0  0  0  0
  -28.2128  -17.2419   21.6425 H   0  0  0  0  0  0
  -28.4214  -22.3310   24.4650 H   0  0  0  0  0  0
  1 25  1  0  0  0
  1 30  2  0  0  0
  1 83  1  0  0  0
  2  3  1  0  0  0
  2 25  1  0  0  0
  2 88  1  0  0  0
  2 89  1  0  0  0
  3  4  1  0  0  0
  3 90  1  0  0  0
  3 91  1  0  0  0
  4  5  1  0  0  0
  4 92  1  0  0  0
  4 93  1  0  0  0
  5  6  1  0  0  0
  5 26  1  0  0  0
  5 94  1  0  0  0
  6 25  1  0  0  0
  6 95  1  0  0  0
  6 96  1  0  0  0
  7  8  2  0  0  0
  7 26  1  0  0  0
  7 29  1  0  0  0
  8  9  1  0  0  0
  8 22  1  0  0  0
  9 10  1  0  0  0
  9 27  2  0  0  0
 10 11  2  0  0  0
 10 15  1  0  0  0
 11 12  1  0  0  0
 11 97  1  0  0  0
 12 13  2  0  0  0
 12 98  1  0  0  0
 13 14  1  0  0  0
 13 31  1  0  0  0
 14 15  2  0  0  0
 14 99  1  0  0  0
 15100  1  0  0  0
 16 17  2  0  0  0
 16 21  1  0  0  0
 16 31  1  0  0  0
 17 18  1  0  0  0
 17101  1  0  0  0
 18 19  2  0  0  0
 18102  1  0  0  0
 19 20  1  0  0  0
 19 24  1  0  0  0
 20 21  2  0  0  0
 20103  1  0  0  0
 21 23  1  0  0  0
 22 28  1  0  0  0
 22 32  2  0  0  0
 26 27  1  0  0  0
 28104  1  0  0  0
 28105  1  0  0  0
 29106  1  0  0  0
 29107  1  0  0  0
 33 34  1  0  0  0
 33 66  1  0  0  0
 33 70  2  0  0  0
 34 36  1  0  0  0
 34 59  1  0  0  0
 34108  1  0  0  0
 35 44  2  0  0  0
 35 45  1  0  0  0
 35 68  1  0  0  0
 36 56  1  0  0  0
 36109  1  0  0  0
 37 39  1  0  0  0
 37 47  1  0  0  0
 37 66  1  0  0  0
 37110  1  0  0  0
 38 43  2  0  0  0
 38 46  1  0  0  0
 38 47  1  0  0  0
 39 64  1  0  0  0
 39 67  2  0  0  0
 40 52  1  0  0  0
 40 53  2  0  0  0
 40 58  1  0  0  0
 41111  1  0  0  0
 41112  1  0  0  0
 41113  1  0  0  0
 41 48  1  0  0  0
 42 43  1  0  0  0
 42 66  1  0  0  0
 42114  1  0  0  0
 42115  1  0  0  0
 43 44  1  0  0  0
 44116  1  0  0  0
 45 46  2  0  0  0
 45117  1  0  0  0
 46118  1  0  0  0
 47119  1  0  0  0
 47120  1  0  0  0
 48 56  1  0  0  0
 48 65  1  0  0  0
 48121  1  0  0  0
 49 50  1  0  0  0
 49 53  1  0  0  0
 49 64  1  0  0  0
 49122  1  0  0  0
 50 51  1  0  0  0
 50123  1  0  0  0
 50124  1  0  0  0
 51 52  1  0  0  0
 51125  1  0  0  0
 51126  1  0  0  0
 52127  1  0  0  0
 52128  1  0  0  0
 53 54  1  0  0  0
 54 55  2  0  0  0
 54129  1  0  0  0
 55 57  1  0  0  0
 55130  1  0  0  0
 56 69  2  0  0  0
 57 58  2  0  0  0
 57131  1  0  0  0
 58132  1  0  0  0
 59 60  1  0  0  0
 59 61  1  0  0  0
 59 62  1  0  0  0
 60133  1  0  0  0
 60134  1  0  0  0
 60135  1  0  0  0
 61136  1  0  0  0
 61137  1  0  0  0
 61138  1  0  0  0
 62139  1  0  0  0
 62140  1  0  0  0
 62141  1  0  0  0
 63 65  1  0  0  0
 63142  1  0  0  0
 63143  1  0  0  0
 63144  1  0  0  0
 64145  1  0  0  0
 65146  1  0  0  0
 68 82  1  0  0  0
 71 72  2  0  0  0
 71 74  1  0  0  0
 71147  1  0  0  0
 72 75  1  0  0  0
 72148  1  0  0  0
 73 74  2  0  0  0
 73 76  1  0  0  0
 73149  1  0  0  0
 74 83  1  0  0  0
 75 76  2  0  0  0
 75 85  1  0  0  0
 76 87  1  0  0  0
 77 78  2  0  0  0
 77 85  1  0  0  0
 77150  1  0  0  0
 78 79  1  0  0  0
 78 86  1  0  0  0
 79 80  1  0  0  0
 79 81  2  0  0  0
 80 82  2  0  0  0
 80 85  1  0  0  0
 81151  1  0  0  0
 81152  1  0  0  0
 82153  1  0  0  0
 83 84  2  0  0  0
 84154  1  0  0  0
 86155  1  0  0  0
M  ISO  4   1 100  68 101  82 101  83 100
M  END
> <chiral flag>
0

> <version>
0

> <s_m_source_file>
/data/baiqing/PycharmProjects/Reinvent-master-3.2/result/LINK_invent/BTK/process_docking_weight1_custom_product_contain_oxygen_bond_distance_aromatic_linkinvent_7_9_3/rearranged_h_0082.sdf

> <i_m_source_file_index>
67

> <r_mmod_Potential_Energy-OPLS-2005>
1125.69873046875

> <r_mmod_Stretch_Energy-OPLS-2005>
266.597991943359

> <r_mmod_Bend_Energy-OPLS-2005>
557.466552734375

> <r_mmod_Torsional_Energy-OPLS-2005>
376.23876953125

> <r_mmod_Improper_Torsional_Energy-OPLS-2005>
16.2402305603027

> <r_mmod_Van_der_Waal_Energy-OPLS-2005>
158.195861816406

> <r_mmod_Electrostatic_Energy-OPLS-2005>
-263.924652099609

> <r_mmod_Solvation_Energy-OPLS-2005>
-208.528274536133

> <b_mmod_Minimization_Converged-OPLS-2005>
0

> <r_mmod_RMS_Derivative-OPLS-2005>
8.34052562713623

$$$$
67
                    3D
 Structure written by MMmdl.
154163  0  0  1  0            999 V2000
  -30.5764  -14.7517   20.4648 C   0  0  0  0  0  0
  -30.4445  -12.4563   19.4738 C   0  0  0  0  0  0
  -29.5169  -12.5162   18.2382 C   0  0  0  0  0  0
  -28.0410  -12.3388   18.6480 C   0  0  0  0  0  0
  -27.6486  -13.2261   19.8589 C   0  0  2  0  0  0
  -28.6931  -13.1294   20.9933 C   0  0  0  0  0  0
  -25.2542  -13.8187   20.5693 C   0  0  0  0  0  0
  -24.1818  -13.0443   20.9197 C   0  0  0  0  0  0
  -24.6399  -11.6916   20.8744 C   0  0  0  0  0  0
  -23.9069  -10.4296   21.0406 C   0  0  0  0  0  0
  -24.3619   -9.4211   21.9182 C   0  0  0  0  0  0
  -23.6292   -8.2248   22.0756 C   0  0  0  0  0  0
  -22.4273   -8.0285   21.3547 C   0  0  0  0  0  0
  -21.9907   -9.0260   20.4651 C   0  0  0  0  0  0
  -22.7239  -10.2137   20.3058 C   0  0  0  0  0  0
  -21.6854   -6.0734   22.5277 C   0  0  0  0  0  0
  -21.4017   -6.5638   23.8210 C   0  0  0  0  0  0
  -21.3660   -5.6792   24.9172 C   0  0  0  0  0  0
  -21.6043   -4.3054   24.7224 C   0  0  0  0  0  0
  -21.8819   -3.8144   23.4345 C   0  0  0  0  0  0
  -21.9193   -4.6961   22.3401 C   0  0  0  0  0  0
  -22.7839  -13.5231   21.1854 C   0  0  0  0  0  0
  -22.1661   -4.2146   21.0979 F   0  0  0  0  0  0
  -21.5628   -3.4537   25.7737 F   0  0  0  0  0  0
  -29.9978  -13.5006   20.4246 N   0  0  0  0  0  0
  -26.2969  -12.9380   20.3303 N   0  0  0  0  0  0
  -25.9328  -11.6528   20.5751 N   0  0  0  0  0  0
  -22.0479  -12.8228   22.0413 N   0  0  0  0  0  0
  -25.4257  -15.1912   20.4113 N   0  0  0  0  0  0
  -31.7438  -14.9045   20.0912 O   0  0  0  0  0  0
  -21.6641   -6.8878   21.4239 O   0  0  0  0  0  0
  -22.3526  -14.5536   20.6699 O   0  0  0  0  0  0
  -24.6325  -31.8539   23.1981 C   0  0  0  0  0  0
  -25.9144  -32.4750   23.8332 C   0  0  1  0  0  0
  -27.2270  -27.2606   20.1144 C   0  0  0  0  0  0
  -25.5930  -33.8552   24.2250 N   0  0  0  0  0  0
  -23.4304  -30.4766   21.5410 C   0  0  2  0  0  0
  -24.8800  -28.9260   20.1053 C   0  0  0  0  0  0
  -22.7515  -29.4592   22.4902 C   0  0  0  0  0  0
  -18.0293  -28.1391   22.8485 C   0  0  0  0  0  0
  -24.1486  -36.7281   23.2639 C   0  0  0  0  0  0
  -25.9779  -30.7645   21.3809 C   0  0  0  0  0  0
  -26.0522  -29.3886   20.7176 C   0  0  0  0  0  0
  -27.2265  -28.5661   20.7170 C   0  0  0  0  0  0
  -26.0252  -26.8630   19.4854 C   0  0  0  0  0  0
  -24.8714  -27.6704   19.4798 C   0  0  0  0  0  0
  -23.6500  -29.8127   20.1562 C   0  0  0  0  0  0
  -25.4114  -36.3066   24.0324 C   0  0  1  0  0  0
  -20.5899  -28.3703   23.1267 C   0  0  2  0  0  0
  -20.6780  -26.9418   22.5410 C   0  0  0  0  0  0
  -19.5754  -26.6383   21.5216 C   0  0  0  0  0  0
  -18.1935  -26.7931   22.1629 C   0  0  0  0  0  0
  -19.1548  -28.8865   23.2870 C   0  0  0  0  0  0
  -18.9467  -30.1465   23.8889 C   0  0  0  0  0  0
  -17.6466  -30.6590   24.0563 C   0  0  0  0  0  0
  -25.9057  -34.9436   23.5092 C   0  0  0  0  0  0
  -16.5357  -29.9088   23.6330 C   0  0  0  0  0  0
  -16.7279  -28.6505   23.0353 C   0  0  0  0  0  0
  -26.4501  -31.6583   25.0731 C   0  0  0  0  0  0
  -25.3720  -31.3752   26.1453 C   0  0  0  0  0  0
  -27.0350  -30.2993   24.6243 C   0  0  0  0  0  0
  -27.6049  -32.4334   25.7505 C   0  0  0  0  0  0
  -27.5578  -37.1794   24.8460 C   0  0  0  0  0  0
  -21.4219  -29.3043   22.3650 N   0  0  0  0  0  0
  -26.4287  -37.3768   23.9409 N   0  0  0  0  0  0
  -24.6992  -31.0497   22.0961 N   0  0  0  0  0  0
  -23.4207  -28.8134   23.3009 O   0  0  0  0  0  0
  -28.2882  -26.3252   20.2118 O   0  0  0  0  0  0
  -26.5635  -34.8913   22.4665 O   0  0  0  0  0  0
  -23.5471  -32.1366   23.7268 O   0  0  0  0  0  0
  -28.5934  -19.5218   20.8663 C   0  0  0  0  0  0
  -28.7172  -18.1085   21.1082 C   0  0  0  0  0  0
  -30.7127  -18.0274   19.8085 C   0  0  0  0  0  0
  -29.5065  -20.2452   20.0470 C   0  0  0  0  0  0
  -29.7643  -17.2926   20.5745 C   0  0  0  0  0  0
  -30.5872  -19.4386   19.5528 C   0  0  0  0  0  0
  -28.7213  -23.9479   19.1831 C   0  0  0  0  0  0
  -28.8845  -23.2636   17.9186 C   0  0  0  0  0  0
  -28.9291  -22.8517   20.2002 C   0  0  0  0  0  0
  -28.5809  -23.7405   16.6949 C   0  0  0  0  0  0
  -28.4491  -25.3239   19.2244 C   0  0  0  0  0  0
  -29.3840  -21.8678   18.1262 C   0  0  0  0  0  0
  -29.2787  -21.6486   19.5679 N   0  0  0  0  0  0
  -29.7507  -15.8162   20.8006 N   0  0  0  0  0  0
  -28.8128  -22.9706   21.4240 O   0  0  0  0  0  0
  -31.5439  -20.0159   18.7872 F   0  0  0  0  0  0
  -31.4837  -12.5946   19.1715 H   0  0  0  0  0  0
  -30.3990  -11.4721   19.9429 H   0  0  0  0  0  0
  -29.7990  -11.7489   17.5161 H   0  0  0  0  0  0
  -29.6432  -13.4740   17.7309 H   0  0  0  0  0  0
  -27.8924  -11.2878   18.8982 H   0  0  0  0  0  0
  -27.3861  -12.5454   17.8008 H   0  0  0  0  0  0
  -27.6513  -14.2531   19.4933 H   0  0  0  0  0  0
  -28.7292  -12.1174   21.3996 H   0  0  0  0  0  0
  -28.4221  -13.7772   21.8282 H   0  0  0  0  0  0
  -25.2764   -9.5684   22.4755 H   0  0  0  0  0  0
  -24.0001   -7.4639   22.7474 H   0  0  0  0  0  0
  -21.0837   -8.8782   19.8957 H   0  0  0  0  0  0
  -22.3698  -10.9677   19.6168 H   0  0  0  0  0  0
  -21.2013   -7.6147   23.9713 H   0  0  0  0  0  0
  -21.1481   -6.0521   25.9075 H   0  0  0  0  0  0
  -22.0597   -2.7605   23.2849 H   0  0  0  0  0  0
  -22.4090  -11.9894   22.4811 H   0  0  0  0  0  0
  -21.1100  -13.1264   22.2616 H   0  0  0  0  0  0
  -24.6575  -15.8449   20.5163 H   0  0  0  0  0  0
  -26.2682  -15.6274   20.0589 H   0  0  0  0  0  0
  -26.7212  -32.5395   23.1074 H   0  0  0  0  0  0
  -25.0055  -33.9684   25.0381 H   0  0  0  0  0  0
  -22.7271  -31.2993   21.3956 H   0  0  0  0  0  0
  -23.3749  -35.9613   23.3298 H   0  0  0  0  0  0
  -24.3571  -36.8907   22.2054 H   0  0  0  0  0  0
  -23.7241  -37.6479   23.6670 H   0  0  0  0  0  0
  -26.1211  -31.5272   20.6143 H   0  0  0  0  0  0
  -26.8530  -30.8097   22.0177 H   0  0  0  0  0  0
  -28.1198  -28.9083   21.2206 H   0  0  0  0  0  0
  -25.9471  -25.8870   19.0286 H   0  0  0  0  0  0
  -23.9704  -27.3053   19.0059 H   0  0  0  0  0  0
  -23.7749  -30.5906   19.4021 H   0  0  0  0  0  0
  -22.7681  -29.2476   19.8490 H   0  0  0  0  0  0
  -25.1295  -36.1910   25.0817 H   0  0  0  0  0  0
  -20.9988  -28.3285   24.1390 H   0  0  0  0  0  0
  -20.5682  -26.2312   23.3617 H   0  0  0  0  0  0
  -21.6649  -26.7441   22.1204 H   0  0  0  0  0  0
  -19.6913  -25.6292   21.1250 H   0  0  0  0  0  0
  -19.6688  -27.3190   20.6743 H   0  0  0  0  0  0
  -17.4203  -26.6676   21.4034 H   0  0  0  0  0  0
  -18.0334  -26.0076   22.9030 H   0  0  0  0  0  0
  -19.7942  -30.7285   24.2254 H   0  0  0  0  0  0
  -17.5018  -31.6269   24.5167 H   0  0  0  0  0  0
  -15.5358  -30.2988   23.7656 H   0  0  0  0  0  0
  -15.8677  -28.0822   22.7073 H   0  0  0  0  0  0
  -24.5871  -30.7129   25.7783 H   0  0  0  0  0  0
  -24.8947  -32.2934   26.4886 H   0  0  0  0  0  0
  -25.8026  -30.8914   27.0229 H   0  0  0  0  0  0
  -26.2946  -29.6742   24.1239 H   0  0  0  0  0  0
  -27.3979  -29.7257   25.4783 H   0  0  0  0  0  0
  -27.8846  -30.4251   23.9529 H   0  0  0  0  0  0
  -27.2645  -33.3631   26.2076 H   0  0  0  0  0  0
  -28.3860  -32.6901   25.0337 H   0  0  0  0  0  0
  -28.0719  -31.8470   26.5429 H   0  0  0  0  0  0
  -28.2590  -38.0098   24.7513 H   0  0  0  0  0  0
  -28.1078  -36.2627   24.6275 H   0  0  0  0  0  0
  -27.2296  -37.1429   25.8864 H   0  0  0  0  0  0
  -20.9409  -29.8769   21.6853 H   0  0  0  0  0  0
  -26.0161  -38.2839   24.1417 H   0  0  0  0  0  0
  -27.7353  -20.0395   21.2715 H   0  0  0  0  0  0
  -27.9491  -17.6379   21.7065 H   0  0  0  0  0  0
  -31.5500  -17.5066   19.3677 H   0  0  0  0  0  0
  -28.1833  -24.7281   16.5192 H   0  0  0  0  0  0
  -28.7220  -23.1220   15.8195 H   0  0  0  0  0  0
  -28.3712  -25.8365   18.2786 H   0  0  0  0  0  0
  -30.4147  -21.8062   17.7789 H   0  0  0  0  0  0
  -28.7759  -21.1482   17.5762 H   0  0  0  0  0  0
  -28.8836  -15.4820   21.1935 H   0  0  0  0  0  0
  1 25  1  0  0  0
  1 30  2  0  0  0
  1 84  1  0  0  0
  2  3  1  0  0  0
  2 25  1  0  0  0
  2 87  1  0  0  0
  2 88  1  0  0  0
  3  4  1  0  0  0
  3 89  1  0  0  0
  3 90  1  0  0  0
  4  5  1  0  0  0
  4 91  1  0  0  0
  4 92  1  0  0  0
  5  6  1  0  0  0
  5 26  1  0  0  0
  5 93  1  0  0  0
  6 25  1  0  0  0
  6 94  1  0  0  0
  6 95  1  0  0  0
  7  8  2  0  0  0
  7 26  1  0  0  0
  7 29  1  0  0  0
  8  9  1  0  0  0
  8 22  1  0  0  0
  9 10  1  0  0  0
  9 27  2  0  0  0
 10 11  2  0  0  0
 10 15  1  0  0  0
 11 12  1  0  0  0
 11 96  1  0  0  0
 12 13  2  0  0  0
 12 97  1  0  0  0
 13 14  1  0  0  0
 13 31  1  0  0  0
 14 15  2  0  0  0
 14 98  1  0  0  0
 15 99  1  0  0  0
 16 17  2  0  0  0
 16 21  1  0  0  0
 16 31  1  0  0  0
 17 18  1  0  0  0
 17100  1  0  0  0
 18 19  2  0  0  0
 18101  1  0  0  0
 19 20  1  0  0  0
 19 24  1  0  0  0
 20 21  2  0  0  0
 20102  1  0  0  0
 21 23  1  0  0  0
 22 28  1  0  0  0
 22 32  2  0  0  0
 26 27  1  0  0  0
 28103  1  0  0  0
 28104  1  0  0  0
 29105  1  0  0  0
 29106  1  0  0  0
 33 34  1  0  0  0
 33 66  1  0  0  0
 33 70  2  0  0  0
 34 36  1  0  0  0
 34 59  1  0  0  0
 34107  1  0  0  0
 35 44  2  0  0  0
 35 45  1  0  0  0
 35 68  1  0  0  0
 36 56  1  0  0  0
 36108  1  0  0  0
 37 39  1  0  0  0
 37 47  1  0  0  0
 37 66  1  0  0  0
 37109  1  0  0  0
 38 43  2  0  0  0
 38 46  1  0  0  0
 38 47  1  0  0  0
 39 64  1  0  0  0
 39 67  2  0  0  0
 40 52  1  0  0  0
 40 53  2  0  0  0
 40 58  1  0  0  0
 41110  1  0  0  0
 41111  1  0  0  0
 41112  1  0  0  0
 41 48  1  0  0  0
 42 43  1  0  0  0
 42 66  1  0  0  0
 42113  1  0  0  0
 42114  1  0  0  0
 43 44  1  0  0  0
 44115  1  0  0  0
 45 46  2  0  0  0
 45116  1  0  0  0
 46117  1  0  0  0
 47118  1  0  0  0
 47119  1  0  0  0
 48 56  1  0  0  0
 48 65  1  0  0  0
 48120  1  0  0  0
 49 50  1  0  0  0
 49 53  1  0  0  0
 49 64  1  0  0  0
 49121  1  0  0  0
 50 51  1  0  0  0
 50122  1  0  0  0
 50123  1  0  0  0
 51 52  1  0  0  0
 51124  1  0  0  0
 51125  1  0  0  0
 52126  1  0  0  0
 52127  1  0  0  0
 53 54  1  0  0  0
 54 55  2  0  0  0
 54128  1  0  0  0
 55 57  1  0  0  0
 55129  1  0  0  0
 56 69  2  0  0  0
 57 58  2  0  0  0
 57130  1  0  0  0
 58131  1  0  0  0
 59 60  1  0  0  0
 59 61  1  0  0  0
 59 62  1  0  0  0
 60132  1  0  0  0
 60133  1  0  0  0
 60134  1  0  0  0
 61135  1  0  0  0
 61136  1  0  0  0
 61137  1  0  0  0
 62138  1  0  0  0
 62139  1  0  0  0
 62140  1  0  0  0
 63 65  1  0  0  0
 63141  1  0  0  0
 63142  1  0  0  0
 63143  1  0  0  0
 64144  1  0  0  0
 65145  1  0  0  0
 68 81  1  0  0  0
 71 72  2  0  0  0
 71 74  1  0  0  0
 71146  1  0  0  0
 72 75  1  0  0  0
 72147  1  0  0  0
 73 75  2  0  0  0
 73 76  1  0  0  0
 73148  1  0  0  0
 74 76  2  0  0  0
 74 83  1  0  0  0
 75 84  1  0  0  0
 76 86  1  0  0  0
 77 78  1  0  0  0
 77 79  1  0  0  0
 77 81  2  0  0  0
 78 80  2  0  0  0
 78 82  1  0  0  0
 79 83  1  0  0  0
 79 85  2  0  0  0
 80149  1  0  0  0
 80150  1  0  0  0
 81151  1  0  0  0
 82 83  1  0  0  0
 82152  1  0  0  0
 82153  1  0  0  0
 84154  1  0  0  0
M  ISO  4   1 100  68 101  81 101  84 100
M  END
> <chiral flag>
0

> <version>
0

> <s_m_source_file>
/data/baiqing/PycharmProjects/Reinvent-master-3.2/result/LINK_invent/BTK/process_docking_weight1_custom_product_contain_oxygen_bond_distance_aromatic_linkinvent_7_9_3/rearranged_h_0082.sdf

> <i_m_source_file_index>
68

> <r_mmod_Potential_Energy-OPLS-2005>
356.977386474609

> <r_mmod_Stretch_Energy-OPLS-2005>
121.785774230957

> <r_mmod_Bend_Energy-OPLS-2005>
257.013977050781

> <r_mmod_Torsional_Energy-OPLS-2005>
279.374694824219

> <r_mmod_Improper_Torsional_Energy-OPLS-2005>
5.00183486938477

> <r_mmod_Van_der_Waal_Energy-OPLS-2005>
140.075134277344

> <r_mmod_Electrostatic_Energy-OPLS-2005>
-318.465362548828

> <r_mmod_Solvation_Energy-OPLS-2005>
-219.5673828125

> <b_mmod_Minimization_Converged-OPLS-2005>
0

> <r_mmod_RMS_Derivative-OPLS-2005>
0.574022471904755

$$$$
68
                    3D
 Structure written by MMmdl.
154163  0  0  1  0            999 V2000
  -30.5798  -14.7520   20.4666 C   0  0  0  0  0  0
  -30.4427  -12.4565   19.4771 C   0  0  0  0  0  0
  -29.5170  -12.5182   18.2403 C   0  0  0  0  0  0
  -28.0408  -12.3416   18.6488 C   0  0  0  0  0  0
  -27.6482  -13.2282   19.8602 C   0  0  2  0  0  0
  -28.6922  -13.1322   20.9954 C   0  0  0  0  0  0
  -25.2533  -13.8188   20.5696 C   0  0  0  0  0  0
  -24.1810  -13.0441   20.9188 C   0  0  0  0  0  0
  -24.6396  -11.6916   20.8738 C   0  0  0  0  0  0
  -23.9069  -10.4295   21.0402 C   0  0  0  0  0  0
  -24.3619   -9.4211   21.9179 C   0  0  0  0  0  0
  -23.6292   -8.2248   22.0754 C   0  0  0  0  0  0
  -22.4273   -8.0284   21.3545 C   0  0  0  0  0  0
  -21.9906   -9.0258   20.4649 C   0  0  0  0  0  0
  -22.7239  -10.2136   20.3055 C   0  0  0  0  0  0
  -21.6855   -6.0732   22.5277 C   0  0  0  0  0  0
  -21.4017   -6.5637   23.8209 C   0  0  0  0  0  0
  -21.3662   -5.6791   24.9172 C   0  0  0  0  0  0
  -21.6044   -4.3053   24.7223 C   0  0  0  0  0  0
  -21.8820   -3.8143   23.4345 C   0  0  0  0  0  0
  -21.9194   -4.6959   22.3401 C   0  0  0  0  0  0
  -22.7832  -13.5227   21.1850 C   0  0  0  0  0  0
  -22.1661   -4.2145   21.0979 F   0  0  0  0  0  0
  -21.5628   -3.4537   25.7736 F   0  0  0  0  0  0
  -29.9977  -13.5021   20.4279 N   0  0  0  0  0  0
  -26.2967  -12.9389   20.3313 N   0  0  0  0  0  0
  -25.9328  -11.6533   20.5753 N   0  0  0  0  0  0
  -22.0476  -12.8225   22.0414 N   0  0  0  0  0  0
  -25.4238  -15.1912   20.4133 N   0  0  0  0  0  0
  -31.7433  -14.9014   20.0797 O   0  0  0  0  0  0
  -21.6641   -6.8878   21.4240 O   0  0  0  0  0  0
  -22.3516  -14.5531   20.6697 O   0  0  0  0  0  0
  -24.6321  -31.8538   23.1977 C   0  0  0  0  0  0
  -25.9139  -32.4748   23.8329 C   0  0  1  0  0  0
  -27.2260  -27.2596   20.1160 C   0  0  0  0  0  0
  -25.5928  -33.8551   24.2246 N   0  0  0  0  0  0
  -23.4301  -30.4759   21.5408 C   0  0  2  0  0  0
  -24.8801  -28.9254   20.1042 C   0  0  0  0  0  0
  -22.7512  -29.4588   22.4903 C   0  0  0  0  0  0
  -18.0292  -28.1390   22.8486 C   0  0  0  0  0  0
  -24.1486  -36.7278   23.2640 C   0  0  0  0  0  0
  -25.9773  -30.7642   21.3808 C   0  0  0  0  0  0
  -26.0517  -29.3882   20.7173 C   0  0  0  0  0  0
  -27.2253  -28.5648   20.7185 C   0  0  0  0  0  0
  -26.0267  -26.8622   19.4831 C   0  0  0  0  0  0
  -24.8727  -27.6700   19.4773 C   0  0  0  0  0  0
  -23.6495  -29.8115   20.1559 C   0  0  0  0  0  0
  -25.4114  -36.3065   24.0322 C   0  0  1  0  0  0
  -20.5897  -28.3702   23.1269 C   0  0  2  0  0  0
  -20.6780  -26.9417   22.5412 C   0  0  0  0  0  0
  -19.5754  -26.6382   21.5217 C   0  0  0  0  0  0
  -18.1934  -26.7931   22.1629 C   0  0  0  0  0  0
  -19.1547  -28.8864   23.2870 C   0  0  0  0  0  0
  -18.9467  -30.1465   23.8889 C   0  0  0  0  0  0
  -17.6465  -30.6591   24.0563 C   0  0  0  0  0  0
  -25.9057  -34.9435   23.5092 C   0  0  0  0  0  0
  -16.5357  -29.9088   23.6330 C   0  0  0  0  0  0
  -16.7278  -28.6505   23.0354 C   0  0  0  0  0  0
  -26.4500  -31.6583   25.0729 C   0  0  0  0  0  0
  -25.3719  -31.3752   26.1450 C   0  0  0  0  0  0
  -27.0350  -30.2992   24.6241 C   0  0  0  0  0  0
  -27.6049  -32.4334   25.7502 C   0  0  0  0  0  0
  -27.5578  -37.1792   24.8460 C   0  0  0  0  0  0
  -21.4217  -29.3040   22.3649 N   0  0  0  0  0  0
  -26.4286  -37.3767   23.9408 N   0  0  0  0  0  0
  -24.6986  -31.0495   22.0958 N   0  0  0  0  0  0
  -23.4205  -28.8133   23.3011 O   0  0  0  0  0  0
  -28.2836  -26.3221   20.2235 O   0  0  0  0  0  0
  -26.5636  -34.8913   22.4665 O   0  0  0  0  0  0
  -23.5466  -32.1368   23.7263 O   0  0  0  0  0  0
  -30.4635  -19.3841   19.3843 C   0  0  0  0  0  0
  -30.6122  -17.9788   19.6475 C   0  0  0  0  0  0
  -28.7265  -19.5484   21.0090 C   0  0  0  0  0  0
  -29.5060  -20.2345   20.0322 C   0  0  0  0  0  0
  -29.7898  -17.2898   20.5804 C   0  0  0  0  0  0
  -28.8538  -18.1346   21.2573 C   0  0  0  0  0  0
  -28.7450  -23.9542   19.1881 C   0  0  0  0  0  0
  -28.9760  -23.2868   17.9258 C   0  0  0  0  0  0
  -28.9032  -22.8450   20.2012 C   0  0  0  0  0  0
  -28.7317  -23.7769   16.6942 C   0  0  0  0  0  0
  -28.4717  -25.3305   19.2320 C   0  0  0  0  0  0
  -29.4751  -21.8921   18.1427 C   0  0  0  0  0  0
  -29.2857  -21.6478   19.5708 N   0  0  0  0  0  0
  -29.7736  -15.8197   20.8278 N   0  0  0  0  0  0
  -28.7233  -22.9487   21.4185 O   0  0  0  0  0  0
  -28.0208  -17.5620   22.1594 F   0  0  0  0  0  0
  -31.4827  -12.5923   19.1760 H   0  0  0  0  0  0
  -30.3954  -11.4725   19.9461 H   0  0  0  0  0  0
  -29.7993  -11.7512   17.5178 H   0  0  0  0  0  0
  -29.6450  -13.4765   17.7343 H   0  0  0  0  0  0
  -27.8912  -11.2906   18.8979 H   0  0  0  0  0  0
  -27.3868  -12.5491   17.8011 H   0  0  0  0  0  0
  -27.6507  -14.2555   19.4958 H   0  0  0  0  0  0
  -28.7276  -12.1210   21.4028 H   0  0  0  0  0  0
  -28.4210  -13.7815   21.8292 H   0  0  0  0  0  0
  -25.2764   -9.5686   22.4751 H   0  0  0  0  0  0
  -24.0002   -7.4641   22.7474 H   0  0  0  0  0  0
  -21.0834   -8.8780   19.8957 H   0  0  0  0  0  0
  -22.3696  -10.9675   19.6165 H   0  0  0  0  0  0
  -21.2012   -7.6145   23.9714 H   0  0  0  0  0  0
  -21.1482   -6.0518   25.9074 H   0  0  0  0  0  0
  -22.0597   -2.7604   23.2848 H   0  0  0  0  0  0
  -22.4090  -11.9889   22.4809 H   0  0  0  0  0  0
  -21.1100  -13.1262   22.2624 H   0  0  0  0  0  0
  -24.6626  -15.8489   20.5405 H   0  0  0  0  0  0
  -26.2808  -15.6355   20.1099 H   0  0  0  0  0  0
  -26.7209  -32.5394   23.1072 H   0  0  0  0  0  0
  -25.0052  -33.9685   25.0376 H   0  0  0  0  0  0
  -22.7264  -31.2982   21.3950 H   0  0  0  0  0  0
  -23.3750  -35.9609   23.3298 H   0  0  0  0  0  0
  -24.3573  -36.8906   22.2055 H   0  0  0  0  0  0
  -23.7239  -37.6476   23.6671 H   0  0  0  0  0  0
  -26.1209  -31.5272   20.6146 H   0  0  0  0  0  0
  -26.8525  -30.8094   22.0175 H   0  0  0  0  0  0
  -28.1173  -28.9057   21.2255 H   0  0  0  0  0  0
  -25.9517  -25.8860   19.0267 H   0  0  0  0  0  0
  -23.9722  -27.3052   19.0024 H   0  0  0  0  0  0
  -23.7729  -30.5894   19.4017 H   0  0  0  0  0  0
  -22.7681  -29.2452   19.8498 H   0  0  0  0  0  0
  -25.1296  -36.1909   25.0815 H   0  0  0  0  0  0
  -20.9987  -28.3285   24.1392 H   0  0  0  0  0  0
  -20.5683  -26.2310   23.3619 H   0  0  0  0  0  0
  -21.6648  -26.7439   22.1204 H   0  0  0  0  0  0
  -19.6912  -25.6292   21.1250 H   0  0  0  0  0  0
  -19.6688  -27.3191   20.6746 H   0  0  0  0  0  0
  -17.4202  -26.6677   21.4035 H   0  0  0  0  0  0
  -18.0332  -26.0076   22.9030 H   0  0  0  0  0  0
  -19.7942  -30.7284   24.2253 H   0  0  0  0  0  0
  -17.5018  -31.6269   24.5167 H   0  0  0  0  0  0
  -15.5357  -30.2988   23.7656 H   0  0  0  0  0  0
  -15.8677  -28.0820   22.7074 H   0  0  0  0  0  0
  -24.5867  -30.7134   25.7777 H   0  0  0  0  0  0
  -24.8949  -32.2935   26.4884 H   0  0  0  0  0  0
  -25.8023  -30.8910   27.0224 H   0  0  0  0  0  0
  -26.2948  -29.6740   24.1237 H   0  0  0  0  0  0
  -27.3982  -29.7257   25.4780 H   0  0  0  0  0  0
  -27.8845  -30.4250   23.9526 H   0  0  0  0  0  0
  -27.2644  -33.3630   26.2074 H   0  0  0  0  0  0
  -28.3858  -32.6904   25.0333 H   0  0  0  0  0  0
  -28.0720  -31.8471   26.5424 H   0  0  0  0  0  0
  -28.2587  -38.0097   24.7516 H   0  0  0  0  0  0
  -28.1081  -36.2627   24.6271 H   0  0  0  0  0  0
  -27.2297  -37.1422   25.8864 H   0  0  0  0  0  0
  -20.9405  -29.8762   21.6852 H   0  0  0  0  0  0
  -26.0161  -38.2836   24.1422 H   0  0  0  0  0  0
  -31.1100  -19.8035   18.6271 H   0  0  0  0  0  0
  -31.3492  -17.4248   19.0836 H   0  0  0  0  0  0
  -27.9629  -20.0930   21.5444 H   0  0  0  0  0  0
  -28.3369  -24.7644   16.5108 H   0  0  0  0  0  0
  -28.9218  -23.1701   15.8200 H   0  0  0  0  0  0
  -28.4347  -25.8544   18.2900 H   0  0  0  0  0  0
  -30.5282  -21.8364   17.8652 H   0  0  0  0  0  0
  -28.9059  -21.1780   17.5451 H   0  0  0  0  0  0
  -28.9243  -15.5176   21.2818 H   0  0  0  0  0  0
  1 25  1  0  0  0
  1 30  2  0  0  0
  1 84  1  0  0  0
  2  3  1  0  0  0
  2 25  1  0  0  0
  2 87  1  0  0  0
  2 88  1  0  0  0
  3  4  1  0  0  0
  3 89  1  0  0  0
  3 90  1  0  0  0
  4  5  1  0  0  0
  4 91  1  0  0  0
  4 92  1  0  0  0
  5  6  1  0  0  0
  5 26  1  0  0  0
  5 93  1  0  0  0
  6 25  1  0  0  0
  6 94  1  0  0  0
  6 95  1  0  0  0
  7  8  2  0  0  0
  7 26  1  0  0  0
  7 29  1  0  0  0
  8  9  1  0  0  0
  8 22  1  0  0  0
  9 10  1  0  0  0
  9 27  2  0  0  0
 10 11  2  0  0  0
 10 15  1  0  0  0
 11 12  1  0  0  0
 11 96  1  0  0  0
 12 13  2  0  0  0
 12 97  1  0  0  0
 13 14  1  0  0  0
 13 31  1  0  0  0
 14 15  2  0  0  0
 14 98  1  0  0  0
 15 99  1  0  0  0
 16 17  2  0  0  0
 16 21  1  0  0  0
 16 31  1  0  0  0
 17 18  1  0  0  0
 17100  1  0  0  0
 18 19  2  0  0  0
 18101  1  0  0  0
 19 20  1  0  0  0
 19 24  1  0  0  0
 20 21  2  0  0  0
 20102  1  0  0  0
 21 23  1  0  0  0
 22 28  1  0  0  0
 22 32  2  0  0  0
 26 27  1  0  0  0
 28103  1  0  0  0
 28104  1  0  0  0
 29105  1  0  0  0
 29106  1  0  0  0
 33 34  1  0  0  0
 33 66  1  0  0  0
 33 70  2  0  0  0
 34 36  1  0  0  0
 34 59  1  0  0  0
 34107  1  0  0  0
 35 44  2  0  0  0
 35 45  1  0  0  0
 35 68  1  0  0  0
 36 56  1  0  0  0
 36108  1  0  0  0
 37 39  1  0  0  0
 37 47  1  0  0  0
 37 66  1  0  0  0
 37109  1  0  0  0
 38 43  2  0  0  0
 38 46  1  0  0  0
 38 47  1  0  0  0
 39 64  1  0  0  0
 39 67  2  0  0  0
 40 52  1  0  0  0
 40 53  2  0  0  0
 40 58  1  0  0  0
 41110  1  0  0  0
 41111  1  0  0  0
 41112  1  0  0  0
 41 48  1  0  0  0
 42 43  1  0  0  0
 42 66  1  0  0  0
 42113  1  0  0  0
 42114  1  0  0  0
 43 44  1  0  0  0
 44115  1  0  0  0
 45 46  2  0  0  0
 45116  1  0  0  0
 46117  1  0  0  0
 47118  1  0  0  0
 47119  1  0  0  0
 48 56  1  0  0  0
 48 65  1  0  0  0
 48120  1  0  0  0
 49 50  1  0  0  0
 49 53  1  0  0  0
 49 64  1  0  0  0
 49121  1  0  0  0
 50 51  1  0  0  0
 50122  1  0  0  0
 50123  1  0  0  0
 51 52  1  0  0  0
 51124  1  0  0  0
 51125  1  0  0  0
 52126  1  0  0  0
 52127  1  0  0  0
 53 54  1  0  0  0
 54 55  2  0  0  0
 54128  1  0  0  0
 55 57  1  0  0  0
 55129  1  0  0  0
 56 69  2  0  0  0
 57 58  2  0  0  0
 57130  1  0  0  0
 58131  1  0  0  0
 59 60  1  0  0  0
 59 61  1  0  0  0
 59 62  1  0  0  0
 60132  1  0  0  0
 60133  1  0  0  0
 60134  1  0  0  0
 61135  1  0  0  0
 61136  1  0  0  0
 61137  1  0  0  0
 62138  1  0  0  0
 62139  1  0  0  0
 62140  1  0  0  0
 63 65  1  0  0  0
 63141  1  0  0  0
 63142  1  0  0  0
 63143  1  0  0  0
 64144  1  0  0  0
 65145  1  0  0  0
 68 81  1  0  0  0
 71 72  2  0  0  0
 71 74  1  0  0  0
 71146  1  0  0  0
 72 75  1  0  0  0
 72147  1  0  0  0
 73 74  2  0  0  0
 73 76  1  0  0  0
 73148  1  0  0  0
 74 83  1  0  0  0
 75 76  2  0  0  0
 75 84  1  0  0  0
 76 86  1  0  0  0
 77 78  1  0  0  0
 77 79  1  0  0  0
 77 81  2  0  0  0
 78 80  2  0  0  0
 78 82  1  0  0  0
 79 83  1  0  0  0
 79 85  2  0  0  0
 80149  1  0  0  0
 80150  1  0  0  0
 81151  1  0  0  0
 82 83  1  0  0  0
 82152  1  0  0  0
 82153  1  0  0  0
 84154  1  0  0  0
M  ISO  4   1 100  68 101  81 101  84 100
M  END
> <chiral flag>
0

> <version>
0

> <s_m_source_file>
/data/baiqing/PycharmProjects/Reinvent-master-3.2/result/LINK_invent/BTK/process_docking_weight1_custom_product_contain_oxygen_bond_distance_aromatic_linkinvent_7_9_3/rearranged_h_0082.sdf

> <i_m_source_file_index>
69

> <r_mmod_Potential_Energy-OPLS-2005>
332.247436523438

> <r_mmod_Stretch_Energy-OPLS-2005>
121.933479309082

> <r_mmod_Bend_Energy-OPLS-2005>
258.603393554688

> <r_mmod_Torsional_Energy-OPLS-2005>
271.793365478516

> <r_mmod_Improper_Torsional_Energy-OPLS-2005>
4.40998697280884

> <r_mmod_Van_der_Waal_Energy-OPLS-2005>
139.522430419922

> <r_mmod_Electrostatic_Energy-OPLS-2005>
-341.861236572266

> <r_mmod_Solvation_Energy-OPLS-2005>
-214.696212768555

> <b_mmod_Minimization_Converged-OPLS-2005>
0

> <r_mmod_RMS_Derivative-OPLS-2005>
0.67221474647522

$$$$
69
                    3D
 Structure written by MMmdl.
153162  0  0  1  0            999 V2000
  -30.6247  -14.6392   20.4996 C   0  0  0  0  0  0
  -30.4429  -12.3934   19.4467 C   0  0  0  0  0  0
  -29.5087  -12.5099   18.2214 C   0  0  0  0  0  0
  -28.0319  -12.3461   18.6342 C   0  0  0  0  0  0
  -27.6558  -13.2143   19.8637 C   0  0  2  0  0  0
  -28.7028  -13.0650   20.9913 C   0  0  0  0  0  0
  -25.2576  -13.8168   20.5682 C   0  0  0  0  0  0
  -24.1836  -13.0443   20.9194 C   0  0  0  0  0  0
  -24.6396  -11.6911   20.8737 C   0  0  0  0  0  0
  -23.9062  -10.4297   21.0404 C   0  0  0  0  0  0
  -24.3612   -9.4211   21.9177 C   0  0  0  0  0  0
  -23.6287   -8.2248   22.0754 C   0  0  0  0  0  0
  -22.4269   -8.0283   21.3548 C   0  0  0  0  0  0
  -21.9901   -9.0260   20.4654 C   0  0  0  0  0  0
  -22.7233  -10.2137   20.3058 C   0  0  0  0  0  0
  -21.6855   -6.0730   22.5277 C   0  0  0  0  0  0
  -21.4015   -6.5634   23.8208 C   0  0  0  0  0  0
  -21.3663   -5.6789   24.9172 C   0  0  0  0  0  0
  -21.6044   -4.3051   24.7225 C   0  0  0  0  0  0
  -21.8821   -3.8143   23.4346 C   0  0  0  0  0  0
  -21.9193   -4.6958   22.3401 C   0  0  0  0  0  0
  -22.7857  -13.5243   21.1848 C   0  0  0  0  0  0
  -22.1663   -4.2143   21.0979 F   0  0  0  0  0  0
  -21.5628   -3.4538   25.7739 F   0  0  0  0  0  0
  -30.0199  -13.4104   20.4293 N   0  0  0  0  0  0
  -26.3002  -12.9341   20.3319 N   0  0  0  0  0  0
  -25.9324  -11.6500   20.5749 N   0  0  0  0  0  0
  -22.0488  -12.8249   22.0409 N   0  0  0  0  0  0
  -25.4289  -15.1887   20.4072 N   0  0  0  0  0  0
  -31.7837  -14.8090   20.1099 O   0  0  0  0  0  0
  -21.6641   -6.8874   21.4239 O   0  0  0  0  0  0
  -22.3550  -14.5547   20.6687 O   0  0  0  0  0  0
  -24.6282  -31.8610   23.2044 C   0  0  0  0  0  0
  -25.9122  -32.4788   23.8371 C   0  0  1  0  0  0
  -27.2188  -27.3109   20.1056 C   0  0  0  0  0  0
  -25.5932  -33.8587   24.2293 N   0  0  0  0  0  0
  -23.4217  -30.4886   21.5484 C   0  0  2  0  0  0
  -24.8667  -28.9520   20.1096 C   0  0  0  0  0  0
  -22.7486  -29.4637   22.4931 C   0  0  0  0  0  0
  -18.0293  -28.1395   22.8491 C   0  0  0  0  0  0
  -24.1490  -36.7302   23.2635 C   0  0  0  0  0  0
  -25.9663  -30.7882   21.3791 C   0  0  0  0  0  0
  -26.0392  -29.4169   20.7185 C   0  0  0  0  0  0
  -27.2177  -28.6076   20.7115 C   0  0  0  0  0  0
  -26.0190  -26.9173   19.4593 C   0  0  0  0  0  0
  -24.8590  -27.7069   19.4722 C   0  0  0  0  0  0
  -23.6360  -29.8322   20.1615 C   0  0  0  0  0  0
  -25.4109  -36.3088   24.0331 C   0  0  1  0  0  0
  -20.5896  -28.3700   23.1281 C   0  0  2  0  0  0
  -20.6783  -26.9420   22.5412 C   0  0  0  0  0  0
  -19.5754  -26.6390   21.5218 C   0  0  0  0  0  0
  -18.1935  -26.7937   22.1630 C   0  0  0  0  0  0
  -19.1547  -28.8863   23.2885 C   0  0  0  0  0  0
  -18.9465  -30.1466   23.8901 C   0  0  0  0  0  0
  -17.6463  -30.6592   24.0568 C   0  0  0  0  0  0
  -25.9048  -34.9456   23.5110 C   0  0  0  0  0  0
  -16.5356  -29.9091   23.6332 C   0  0  0  0  0  0
  -16.7279  -28.6512   23.0346 C   0  0  0  0  0  0
  -26.4488  -31.6590   25.0741 C   0  0  0  0  0  0
  -25.3714  -31.3745   26.1467 C   0  0  0  0  0  0
  -27.0316  -30.3007   24.6196 C   0  0  0  0  0  0
  -27.6058  -32.4311   25.7506 C   0  0  0  0  0  0
  -27.5581  -37.1803   24.8460 C   0  0  0  0  0  0
  -21.4198  -29.3059   22.3678 N   0  0  0  0  0  0
  -26.4287  -37.3784   23.9413 N   0  0  0  0  0  0
  -24.6914  -31.0615   22.1008 N   0  0  0  0  0  0
  -23.4208  -28.8158   23.2998 O   0  0  0  0  0  0
  -28.3146  -26.4221   20.1644 O   0  0  0  0  0  0
  -26.5620  -34.8919   22.4676 O   0  0  0  0  0  0
  -23.5440  -32.1419   23.7359 O   0  0  0  0  0  0
  -30.9438  -19.3262   20.2627 C   0  0  0  0  0  0
  -30.9967  -17.8983   20.3415 C   0  0  0  0  0  0
  -28.7005  -17.8835   21.0317 C   0  0  0  0  0  0
  -29.7700  -20.0857   20.5679 C   0  0  0  0  0  0
  -29.8685  -17.1316   20.7383 C   0  0  0  0  0  0
  -28.6421  -19.3049   20.9453 C   0  0  0  0  0  0
  -30.2768  -23.8130   20.5060 C   0  0  0  0  0  0
  -28.9677  -23.8197   20.2560 C   0  0  0  0  0  0
  -30.7497  -22.4378   20.6813 C   0  0  0  0  0  0
  -28.4858  -22.3691   20.2680 C   0  0  0  0  0  0
  -27.9879  -24.9932   19.9260 C   0  0  0  0  0  0
  -29.7156  -21.5658   20.4955 N   0  0  0  0  0  0
  -29.8055  -15.6724   20.8707 N   0  0  0  0  0  0
  -31.9083  -22.1222   20.9664 O   0  0  0  0  0  0
  -27.4703  -19.9066   21.2586 F   0  0  0  0  0  0
  -31.4826  -12.5222   19.1410 H   0  0  0  0  0  0
  -30.3822  -11.3961   19.8847 H   0  0  0  0  0  0
  -29.7724  -11.7609   17.4737 H   0  0  0  0  0  0
  -29.6493  -13.4806   17.7423 H   0  0  0  0  0  0
  -27.8683  -11.2921   18.8629 H   0  0  0  0  0  0
  -27.3778  -12.5790   17.7931 H   0  0  0  0  0  0
  -27.6758  -14.2500   19.5242 H   0  0  0  0  0  0
  -28.7138  -12.0416   21.3699 H   0  0  0  0  0  0
  -28.4470  -13.6918   21.8468 H   0  0  0  0  0  0
  -25.2755   -9.5689   22.4750 H   0  0  0  0  0  0
  -24.0002   -7.4639   22.7471 H   0  0  0  0  0  0
  -21.0831   -8.8781   19.8960 H   0  0  0  0  0  0
  -22.3688  -10.9677   19.6172 H   0  0  0  0  0  0
  -21.2009   -7.6142   23.9710 H   0  0  0  0  0  0
  -21.1481   -6.0518   25.9074 H   0  0  0  0  0  0
  -22.0596   -2.7604   23.2849 H   0  0  0  0  0  0
  -22.4094  -11.9922   22.4824 H   0  0  0  0  0  0
  -21.1105  -13.1285   22.2598 H   0  0  0  0  0  0
  -24.6560  -15.8386   20.5025 H   0  0  0  0  0  0
  -26.2630  -15.6209   20.0322 H   0  0  0  0  0  0
  -26.7193  -32.5457   23.1122 H   0  0  0  0  0  0
  -25.0065  -33.9730   25.0427 H   0  0  0  0  0  0
  -22.7163  -31.3106   21.4090 H   0  0  0  0  0  0
  -23.3748  -35.9639   23.3290 H   0  0  0  0  0  0
  -24.3590  -36.8928   22.2052 H   0  0  0  0  0  0
  -23.7242  -37.6501   23.6660 H   0  0  0  0  0  0
  -26.0980  -31.5509   20.6105 H   0  0  0  0  0  0
  -26.8476  -30.8373   22.0071 H   0  0  0  0  0  0
  -28.1123  -28.9569   21.2076 H   0  0  0  0  0  0
  -25.9259  -25.9769   18.9393 H   0  0  0  0  0  0
  -23.9631  -27.3468   18.9853 H   0  0  0  0  0  0
  -23.7567  -30.6130   19.4098 H   0  0  0  0  0  0
  -22.7555  -29.2649   19.8558 H   0  0  0  0  0  0
  -25.1280  -36.1944   25.0823 H   0  0  0  0  0  0
  -20.9992  -28.3276   24.1400 H   0  0  0  0  0  0
  -20.5690  -26.2307   23.3612 H   0  0  0  0  0  0
  -21.6650  -26.7454   22.1199 H   0  0  0  0  0  0
  -19.6911  -25.6300   21.1250 H   0  0  0  0  0  0
  -19.6684  -27.3198   20.6745 H   0  0  0  0  0  0
  -17.4201  -26.6689   21.4035 H   0  0  0  0  0  0
  -18.0330  -26.0081   22.9027 H   0  0  0  0  0  0
  -19.7940  -30.7290   24.2260 H   0  0  0  0  0  0
  -17.5015  -31.6269   24.5176 H   0  0  0  0  0  0
  -15.5355  -30.2990   23.7654 H   0  0  0  0  0  0
  -15.8682  -28.0833   22.7048 H   0  0  0  0  0  0
  -24.5891  -30.7084   25.7807 H   0  0  0  0  0  0
  -24.8897  -32.2916   26.4871 H   0  0  0  0  0  0
  -25.8031  -30.8944   27.0258 H   0  0  0  0  0  0
  -26.2891  -29.6779   24.1196 H   0  0  0  0  0  0
  -27.3978  -29.7246   25.4703 H   0  0  0  0  0  0
  -27.8780  -30.4284   23.9443 H   0  0  0  0  0  0
  -27.2682  -33.3611   26.2093 H   0  0  0  0  0  0
  -28.3865  -32.6867   25.0329 H   0  0  0  0  0  0
  -28.0729  -31.8425   26.5413 H   0  0  0  0  0  0
  -28.2589  -38.0109   24.7517 H   0  0  0  0  0  0
  -28.1084  -36.2641   24.6260 H   0  0  0  0  0  0
  -27.2312  -37.1434   25.8866 H   0  0  0  0  0  0
  -20.9369  -29.8803   21.6911 H   0  0  0  0  0  0
  -26.0166  -38.2858   24.1419 H   0  0  0  0  0  0
  -31.8419  -19.8359   19.9451 H   0  0  0  0  0  0
  -31.9250  -17.4026   20.0934 H   0  0  0  0  0  0
  -27.8030  -17.3662   21.3386 H   0  0  0  0  0  0
  -30.9081  -24.6879   20.5426 H   0  0  0  0  0  0
  -28.0182  -22.1037   19.3194 H   0  0  0  0  0  0
  -27.7638  -22.2407   21.0740 H   0  0  0  0  0  0
  -27.0884  -24.7534   20.4959 H   0  0  0  0  0  0
  -27.7469  -24.8652   18.8700 H   0  0  0  0  0  0
  -28.9121  -15.3295   21.1888 H   0  0  0  0  0  0
  1 25  1  0  0  0
  1 30  2  0  0  0
  1 83  1  0  0  0
  2  3  1  0  0  0
  2 25  1  0  0  0
  2 86  1  0  0  0
  2 87  1  0  0  0
  3  4  1  0  0  0
  3 88  1  0  0  0
  3 89  1  0  0  0
  4  5  1  0  0  0
  4 90  1  0  0  0
  4 91  1  0  0  0
  5  6  1  0  0  0
  5 26  1  0  0  0
  5 92  1  0  0  0
  6 25  1  0  0  0
  6 93  1  0  0  0
  6 94  1  0  0  0
  7  8  2  0  0  0
  7 26  1  0  0  0
  7 29  1  0  0  0
  8  9  1  0  0  0
  8 22  1  0  0  0
  9 10  1  0  0  0
  9 27  2  0  0  0
 10 11  2  0  0  0
 10 15  1  0  0  0
 11 12  1  0  0  0
 11 95  1  0  0  0
 12 13  2  0  0  0
 12 96  1  0  0  0
 13 14  1  0  0  0
 13 31  1  0  0  0
 14 15  2  0  0  0
 14 97  1  0  0  0
 15 98  1  0  0  0
 16 17  2  0  0  0
 16 21  1  0  0  0
 16 31  1  0  0  0
 17 18  1  0  0  0
 17 99  1  0  0  0
 18 19  2  0  0  0
 18100  1  0  0  0
 19 20  1  0  0  0
 19 24  1  0  0  0
 20 21  2  0  0  0
 20101  1  0  0  0
 21 23  1  0  0  0
 22 28  1  0  0  0
 22 32  2  0  0  0
 26 27  1  0  0  0
 28102  1  0  0  0
 28103  1  0  0  0
 29104  1  0  0  0
 29105  1  0  0  0
 33 34  1  0  0  0
 33 66  1  0  0  0
 33 70  2  0  0  0
 34 36  1  0  0  0
 34 59  1  0  0  0
 34106  1  0  0  0
 35 44  2  0  0  0
 35 45  1  0  0  0
 35 68  1  0  0  0
 36 56  1  0  0  0
 36107  1  0  0  0
 37 39  1  0  0  0
 37 47  1  0  0  0
 37 66  1  0  0  0
 37108  1  0  0  0
 38 43  2  0  0  0
 38 46  1  0  0  0
 38 47  1  0  0  0
 39 64  1  0  0  0
 39 67  2  0  0  0
 40 52  1  0  0  0
 40 53  2  0  0  0
 40 58  1  0  0  0
 41109  1  0  0  0
 41110  1  0  0  0
 41111  1  0  0  0
 41 48  1  0  0  0
 42 43  1  0  0  0
 42 66  1  0  0  0
 42112  1  0  0  0
 42113  1  0  0  0
 43 44  1  0  0  0
 44114  1  0  0  0
 45 46  2  0  0  0
 45115  1  0  0  0
 46116  1  0  0  0
 47117  1  0  0  0
 47118  1  0  0  0
 48 56  1  0  0  0
 48 65  1  0  0  0
 48119  1  0  0  0
 49 50  1  0  0  0
 49 53  1  0  0  0
 49 64  1  0  0  0
 49120  1  0  0  0
 50 51  1  0  0  0
 50121  1  0  0  0
 50122  1  0  0  0
 51 52  1  0  0  0
 51123  1  0  0  0
 51124  1  0  0  0
 52125  1  0  0  0
 52126  1  0  0  0
 53 54  1  0  0  0
 54 55  2  0  0  0
 54127  1  0  0  0
 55 57  1  0  0  0
 55128  1  0  0  0
 56 69  2  0  0  0
 57 58  2  0  0  0
 57129  1  0  0  0
 58130  1  0  0  0
 59 60  1  0  0  0
 59 61  1  0  0  0
 59 62  1  0  0  0
 60131  1  0  0  0
 60132  1  0  0  0
 60133  1  0  0  0
 61134  1  0  0  0
 61135  1  0  0  0
 61136  1  0  0  0
 62137  1  0  0  0
 62138  1  0  0  0
 62139  1  0  0  0
 63 65  1  0  0  0
 63140  1  0  0  0
 63141  1  0  0  0
 63142  1  0  0  0
 64143  1  0  0  0
 65144  1  0  0  0
 68 81  1  0  0  0
 71 72  2  0  0  0
 71 74  1  0  0  0
 71145  1  0  0  0
 72 75  1  0  0  0
 72146  1  0  0  0
 73 75  2  0  0  0
 73 76  1  0  0  0
 73147  1  0  0  0
 74 76  2  0  0  0
 74 82  1  0  0  0
 75 83  1  0  0  0
 76 85  1  0  0  0
 77 78  2  0  0  0
 77 79  1  0  0  0
 77148  1  0  0  0
 78 80  1  0  0  0
 78 81  1  0  0  0
 79 82  1  0  0  0
 79 84  2  0  0  0
 80 82  1  0  0  0
 80149  1  0  0  0
 80150  1  0  0  0
 81151  1  0  0  0
 81152  1  0  0  0
 83153  1  0  0  0
M  ISO  4   1 100  68 101  81 101  83 100
M  END
> <chiral flag>
0

> <version>
0

> <s_m_source_file>
/data/baiqing/PycharmProjects/Reinvent-master-3.2/result/LINK_invent/BTK/process_docking_weight1_custom_product_contain_oxygen_bond_distance_aromatic_linkinvent_7_9_3/rearranged_h_0082.sdf

> <i_m_source_file_index>
70

> <r_mmod_Potential_Energy-OPLS-2005>
137.481094360352

> <r_mmod_Stretch_Energy-OPLS-2005>
81.5870132446289

> <r_mmod_Bend_Energy-OPLS-2005>
194.492385864258

> <r_mmod_Torsional_Energy-OPLS-2005>
244.041320800781

> <r_mmod_Improper_Torsional_Energy-OPLS-2005>
4.25522470474243

> <r_mmod_Van_der_Waal_Energy-OPLS-2005>
152.11247253418

> <r_mmod_Electrostatic_Energy-OPLS-2005>
-374.177917480469

> <r_mmod_Solvation_Energy-OPLS-2005>
-217.570755004883

> <b_mmod_Minimization_Converged-OPLS-2005>
0

> <r_mmod_RMS_Derivative-OPLS-2005>
0.797964751720428

$$$$
70
                    3D
 Structure written by MMmdl.
159168  0  0  1  0            999 V2000
  -30.7504  -14.4275   20.6643 C   0  0  0  0  0  0
  -30.4134  -12.3160   19.4105 C   0  0  0  0  0  0
  -29.4866  -12.5330   18.1994 C   0  0  0  0  0  0
  -28.0115  -12.3784   18.6118 C   0  0  0  0  0  0
  -27.6613  -13.2092   19.8736 C   0  0  2  0  0  0
  -28.6975  -12.9821   20.9934 C   0  0  0  0  0  0
  -25.2591  -13.8172   20.5673 C   0  0  0  0  0  0
  -24.1844  -13.0447   20.9158 C   0  0  0  0  0  0
  -24.6399  -11.6912   20.8721 C   0  0  0  0  0  0
  -23.9063  -10.4298   21.0398 C   0  0  0  0  0  0
  -24.3613   -9.4211   21.9179 C   0  0  0  0  0  0
  -23.6285   -8.2251   22.0755 C   0  0  0  0  0  0
  -22.4269   -8.0285   21.3545 C   0  0  0  0  0  0
  -21.9907   -9.0255   20.4641 C   0  0  0  0  0  0
  -22.7234  -10.2137   20.3047 C   0  0  0  0  0  0
  -21.6854   -6.0730   22.5274 C   0  0  0  0  0  0
  -21.4014   -6.5641   23.8204 C   0  0  0  0  0  0
  -21.3664   -5.6796   24.9171 C   0  0  0  0  0  0
  -21.6053   -4.3057   24.7225 C   0  0  0  0  0  0
  -21.8824   -3.8141   23.4345 C   0  0  0  0  0  0
  -21.9191   -4.6954   22.3401 C   0  0  0  0  0  0
  -22.7862  -13.5234   21.1835 C   0  0  0  0  0  0
  -22.1658   -4.2136   21.0977 F   0  0  0  0  0  0
  -21.5630   -3.4547   25.7739 F   0  0  0  0  0  0
  -30.0380  -13.2819   20.4565 N   0  0  0  0  0  0
  -26.3021  -12.9342   20.3343 N   0  0  0  0  0  0
  -25.9323  -11.6499   20.5743 N   0  0  0  0  0  0
  -22.0521  -12.8210   22.0389 N   0  0  0  0  0  0
  -25.4357  -15.1887   20.4113 N   0  0  0  0  0  0
  -31.7876  -14.6831   20.0430 O   0  0  0  0  0  0
  -21.6641   -6.8874   21.4239 O   0  0  0  0  0  0
  -22.3542  -14.5544   20.6693 O   0  0  0  0  0  0
  -24.6157  -31.8689   23.2064 C   0  0  0  0  0  0
  -25.9047  -32.4823   23.8377 C   0  0  1  0  0  0
  -27.2383  -27.4400   20.0906 C   0  0  0  0  0  0
  -25.5916  -33.8615   24.2327 N   0  0  0  0  0  0
  -23.4038  -30.4910   21.5466 C   0  0  2  0  0  0
  -24.8512  -28.9512   20.1148 C   0  0  0  0  0  0
  -22.7415  -29.4682   22.4977 C   0  0  0  0  0  0
  -18.0283  -28.1396   22.8505 C   0  0  0  0  0  0
  -24.1495  -36.7313   23.2630 C   0  0  0  0  0  0
  -25.9316  -30.8363   21.3563 C   0  0  0  0  0  0
  -26.0110  -29.4684   20.7072 C   0  0  0  0  0  0
  -27.2112  -28.7205   20.6887 C   0  0  0  0  0  0
  -26.0635  -26.9303   19.5019 C   0  0  0  0  0  0
  -24.8722  -27.6813   19.5093 C   0  0  0  0  0  0
  -23.6113  -29.8168   20.1634 C   0  0  0  0  0  0
  -25.4109  -36.3107   24.0337 C   0  0  1  0  0  0
  -20.5876  -28.3699   23.1324 C   0  0  2  0  0  0
  -20.6779  -26.9438   22.5419 C   0  0  0  0  0  0
  -19.5753  -26.6409   21.5224 C   0  0  0  0  0  0
  -18.1933  -26.7951   22.1633 C   0  0  0  0  0  0
  -19.1530  -28.8861   23.2916 C   0  0  0  0  0  0
  -18.9446  -30.1466   23.8934 C   0  0  0  0  0  0
  -17.6449  -30.6608   24.0580 C   0  0  0  0  0  0
  -25.9042  -34.9477   23.5133 C   0  0  0  0  0  0
  -16.5345  -29.9113   23.6323 C   0  0  0  0  0  0
  -16.7271  -28.6520   23.0360 C   0  0  0  0  0  0
  -26.4455  -31.6586   25.0702 C   0  0  0  0  0  0
  -25.3701  -31.3673   26.1431 C   0  0  0  0  0  0
  -27.0270  -30.3031   24.6060 C   0  0  0  0  0  0
  -27.6047  -32.4278   25.7476 C   0  0  0  0  0  0
  -27.5586  -37.1804   24.8456 C   0  0  0  0  0  0
  -21.4143  -29.3060   22.3711 N   0  0  0  0  0  0
  -26.4288  -37.3793   23.9419 N   0  0  0  0  0  0
  -24.6689  -31.0792   22.0958 N   0  0  0  0  0  0
  -23.4184  -28.8238   23.3031 O   0  0  0  0  0  0
  -28.3933  -26.6928   20.0559 O   0  0  0  0  0  0
  -26.5596  -34.8933   22.4688 O   0  0  0  0  0  0
  -23.5350  -32.1432   23.7466 O   0  0  0  0  0  0
  -28.4388  -18.5055   22.0810 C   0  0  0  0  0  0
  -28.7857  -17.1403   22.1438 C   0  0  0  0  0  0
  -30.5474  -17.5163   20.5268 C   0  0  0  0  0  0
  -29.1603  -19.4154   21.2692 C   0  0  0  0  0  0
  -29.8647  -16.6249   21.3925 C   0  0  0  0  0  0
  -30.2168  -18.8931   20.4768 C   0  0  0  0  0  0
  -28.6553  -23.0584   20.9906 C   0  0  0  0  0  0
  -28.8854  -21.7567   20.3752 C   0  0  0  0  0  0
  -28.6314  -24.2311   20.3123 C   0  0  0  0  0  0
  -28.4600  -22.9097   22.4706 C   0  0  0  0  0  0
  -28.4708  -21.3966   22.6590 C   0  0  0  0  0  0
  -30.4955  -14.8752   23.0246 C   0  0  0  0  0  0
  -28.4207  -25.5924   20.9748 C   0  0  0  0  0  0
  -28.8692  -20.8264   21.3664 N   0  0  0  0  0  0
  -30.2829  -15.2660   21.6244 N   0  0  0  0  0  0
  -29.0245  -21.5304   19.1687 O   0  0  0  0  0  0
  -30.9899  -19.7121   19.7248 F   0  0  0  0  0  0
  -31.4579  -12.4093   19.1079 H   0  0  0  0  0  0
  -30.3058  -11.3003   19.7939 H   0  0  0  0  0  0
  -29.7308  -11.8280   17.4035 H   0  0  0  0  0  0
  -29.6495  -13.5308   17.7869 H   0  0  0  0  0  0
  -27.8263  -11.3196   18.8003 H   0  0  0  0  0  0
  -27.3579  -12.6592   17.7852 H   0  0  0  0  0  0
  -27.7105  -14.2611   19.5905 H   0  0  0  0  0  0
  -28.6681  -11.9483   21.3403 H   0  0  0  0  0  0
  -28.4285  -13.5853   21.8585 H   0  0  0  0  0  0
  -25.2762   -9.5689   22.4751 H   0  0  0  0  0  0
  -23.9989   -7.4655   22.7488 H   0  0  0  0  0  0
  -21.0836   -8.8779   19.8940 H   0  0  0  0  0  0
  -22.3693  -10.9678   19.6154 H   0  0  0  0  0  0
  -21.2009   -7.6152   23.9697 H   0  0  0  0  0  0
  -21.1482   -6.0532   25.9075 H   0  0  0  0  0  0
  -22.0597   -2.7600   23.2853 H   0  0  0  0  0  0
  -22.4149  -11.9842   22.4721 H   0  0  0  0  0  0
  -21.1146  -13.1228   22.2637 H   0  0  0  0  0  0
  -24.6808  -15.8545   20.5308 H   0  0  0  0  0  0
  -26.3032  -15.6218   20.1193 H   0  0  0  0  0  0
  -26.7127  -32.5540   23.1154 H   0  0  0  0  0  0
  -25.0088  -33.9765   25.0484 H   0  0  0  0  0  0
  -22.6934  -31.3079   21.4030 H   0  0  0  0  0  0
  -23.3762  -35.9633   23.3268 H   0  0  0  0  0  0
  -24.3602  -36.8953   22.2048 H   0  0  0  0  0  0
  -23.7235  -37.6507   23.6660 H   0  0  0  0  0  0
  -26.0372  -31.6004   20.5849 H   0  0  0  0  0  0
  -26.8229  -30.8965   21.9691 H   0  0  0  0  0  0
  -28.1117  -29.1192   21.1343 H   0  0  0  0  0  0
  -26.0744  -25.9552   19.0352 H   0  0  0  0  0  0
  -23.9808  -27.2797   19.0489 H   0  0  0  0  0  0
  -23.7137  -30.5882   19.3985 H   0  0  0  0  0  0
  -22.7356  -29.2322   19.8746 H   0  0  0  0  0  0
  -25.1274  -36.1966   25.0824 H   0  0  0  0  0  0
  -20.9979  -28.3274   24.1445 H   0  0  0  0  0  0
  -20.5715  -26.2304   23.3604 H   0  0  0  0  0  0
  -21.6645  -26.7507   22.1196 H   0  0  0  0  0  0
  -19.6922  -25.6324   21.1247 H   0  0  0  0  0  0
  -19.6684  -27.3218   20.6755 H   0  0  0  0  0  0
  -17.4206  -26.6734   21.4030 H   0  0  0  0  0  0
  -18.0311  -26.0086   22.9017 H   0  0  0  0  0  0
  -19.7914  -30.7280   24.2328 H   0  0  0  0  0  0
  -17.5000  -31.6290   24.5175 H   0  0  0  0  0  0
  -15.5346  -30.3029   23.7615 H   0  0  0  0  0  0
  -15.8674  -28.0841   22.7073 H   0  0  0  0  0  0
  -24.5944  -30.6940   25.7766 H   0  0  0  0  0  0
  -24.8784  -32.2796   26.4815 H   0  0  0  0  0  0
  -25.8045  -30.8909   27.0227 H   0  0  0  0  0  0
  -26.2814  -29.6826   24.1073 H   0  0  0  0  0  0
  -27.4003  -29.7231   25.4513 H   0  0  0  0  0  0
  -27.8668  -30.4351   23.9230 H   0  0  0  0  0  0
  -27.2705  -33.3585   26.2066 H   0  0  0  0  0  0
  -28.3857  -32.6811   25.0297 H   0  0  0  0  0  0
  -28.0706  -31.8371   26.5369 H   0  0  0  0  0  0
  -28.2577  -38.0131   24.7557 H   0  0  0  0  0  0
  -28.1119  -36.2671   24.6218 H   0  0  0  0  0  0
  -27.2320  -37.1372   25.8860 H   0  0  0  0  0  0
  -20.9309  -29.8750   21.6903 H   0  0  0  0  0  0
  -26.0184  -38.2869   24.1436 H   0  0  0  0  0  0
  -27.6216  -18.8445   22.7006 H   0  0  0  0  0  0
  -28.2245  -16.4948   22.8040 H   0  0  0  0  0  0
  -31.3914  -17.1811   19.9434 H   0  0  0  0  0  0
  -28.7955  -24.2362   19.2431 H   0  0  0  0  0  0
  -27.5230  -23.3572   22.8028 H   0  0  0  0  0  0
  -29.2843  -23.3840   23.0043 H   0  0  0  0  0  0
  -27.4711  -21.0531   22.9246 H   0  0  0  0  0  0
  -29.1565  -21.0969   23.4523 H   0  0  0  0  0  0
  -29.5480  -14.7801   23.5556 H   0  0  0  0  0  0
  -31.0945  -15.6303   23.5364 H   0  0  0  0  0  0
  -31.0210  -13.9234   23.1269 H   0  0  0  0  0  0
  -29.2529  -25.7683   21.6567 H   0  0  0  0  0  0
  -27.5226  -25.5512   21.5951 H   0  0  0  0  0  0
  1 25  1  0  0  0
  1 30  2  0  0  0
  1 85  1  0  0  0
  2  3  1  0  0  0
  2 25  1  0  0  0
  2 88  1  0  0  0
  2 89  1  0  0  0
  3  4  1  0  0  0
  3 90  1  0  0  0
  3 91  1  0  0  0
  4  5  1  0  0  0
  4 92  1  0  0  0
  4 93  1  0  0  0
  5  6  1  0  0  0
  5 26  1  0  0  0
  5 94  1  0  0  0
  6 25  1  0  0  0
  6 95  1  0  0  0
  6 96  1  0  0  0
  7  8  2  0  0  0
  7 26  1  0  0  0
  7 29  1  0  0  0
  8  9  1  0  0  0
  8 22  1  0  0  0
  9 10  1  0  0  0
  9 27  2  0  0  0
 10 11  2  0  0  0
 10 15  1  0  0  0
 11 12  1  0  0  0
 11 97  1  0  0  0
 12 13  2  0  0  0
 12 98  1  0  0  0
 13 14  1  0  0  0
 13 31  1  0  0  0
 14 15  2  0  0  0
 14 99  1  0  0  0
 15100  1  0  0  0
 16 17  2  0  0  0
 16 21  1  0  0  0
 16 31  1  0  0  0
 17 18  1  0  0  0
 17101  1  0  0  0
 18 19  2  0  0  0
 18102  1  0  0  0
 19 20  1  0  0  0
 19 24  1  0  0  0
 20 21  2  0  0  0
 20103  1  0  0  0
 21 23  1  0  0  0
 22 28  1  0  0  0
 22 32  2  0  0  0
 26 27  1  0  0  0
 28104  1  0  0  0
 28105  1  0  0  0
 29106  1  0  0  0
 29107  1  0  0  0
 33 34  1  0  0  0
 33 66  1  0  0  0
 33 70  2  0  0  0
 34 36  1  0  0  0
 34 59  1  0  0  0
 34108  1  0  0  0
 35 44  2  0  0  0
 35 45  1  0  0  0
 35 68  1  0  0  0
 36 56  1  0  0  0
 36109  1  0  0  0
 37 39  1  0  0  0
 37 47  1  0  0  0
 37 66  1  0  0  0
 37110  1  0  0  0
 38 43  2  0  0  0
 38 46  1  0  0  0
 38 47  1  0  0  0
 39 64  1  0  0  0
 39 67  2  0  0  0
 40 52  1  0  0  0
 40 53  2  0  0  0
 40 58  1  0  0  0
 41111  1  0  0  0
 41112  1  0  0  0
 41113  1  0  0  0
 41 48  1  0  0  0
 42 43  1  0  0  0
 42 66  1  0  0  0
 42114  1  0  0  0
 42115  1  0  0  0
 43 44  1  0  0  0
 44116  1  0  0  0
 45 46  2  0  0  0
 45117  1  0  0  0
 46118  1  0  0  0
 47119  1  0  0  0
 47120  1  0  0  0
 48 56  1  0  0  0
 48 65  1  0  0  0
 48121  1  0  0  0
 49 50  1  0  0  0
 49 53  1  0  0  0
 49 64  1  0  0  0
 49122  1  0  0  0
 50 51  1  0  0  0
 50123  1  0  0  0
 50124  1  0  0  0
 51 52  1  0  0  0
 51125  1  0  0  0
 51126  1  0  0  0
 52127  1  0  0  0
 52128  1  0  0  0
 53 54  1  0  0  0
 54 55  2  0  0  0
 54129  1  0  0  0
 55 57  1  0  0  0
 55130  1  0  0  0
 56 69  2  0  0  0
 57 58  2  0  0  0
 57131  1  0  0  0
 58132  1  0  0  0
 59 60  1  0  0  0
 59 61  1  0  0  0
 59 62  1  0  0  0
 60133  1  0  0  0
 60134  1  0  0  0
 60135  1  0  0  0
 61136  1  0  0  0
 61137  1  0  0  0
 61138  1  0  0  0
 62139  1  0  0  0
 62140  1  0  0  0
 62141  1  0  0  0
 63 65  1  0  0  0
 63142  1  0  0  0
 63143  1  0  0  0
 63144  1  0  0  0
 64145  1  0  0  0
 65146  1  0  0  0
 68 83  1  0  0  0
 71 72  2  0  0  0
 71 74  1  0  0  0
 71147  1  0  0  0
 72 75  1  0  0  0
 72148  1  0  0  0
 73 75  2  0  0  0
 73 76  1  0  0  0
 73149  1  0  0  0
 74 76  2  0  0  0
 74 84  1  0  0  0
 75 85  1  0  0  0
 76 87  1  0  0  0
 77 78  1  0  0  0
 77 79  2  0  0  0
 77 80  1  0  0  0
 78 84  1  0  0  0
 78 86  2  0  0  0
 79 83  1  0  0  0
 79150  1  0  0  0
 80 81  1  0  0  0
 80151  1  0  0  0
 80152  1  0  0  0
 81 84  1  0  0  0
 81153  1  0  0  0
 81154  1  0  0  0
 82 85  1  0  0  0
 82155  1  0  0  0
 82156  1  0  0  0
 82157  1  0  0  0
 83158  1  0  0  0
 83159  1  0  0  0
M  ISO  4   1 100  68 101  83 101  85 100
M  END
> <chiral flag>
0

> <version>
0

> <s_m_source_file>
/data/baiqing/PycharmProjects/Reinvent-master-3.2/result/LINK_invent/BTK/process_docking_weight1_custom_product_contain_oxygen_bond_distance_aromatic_linkinvent_7_9_3/rearranged_h_0082.sdf

> <i_m_source_file_index>
71

> <r_mmod_Potential_Energy-OPLS-2005>
221.961013793945

> <r_mmod_Stretch_Energy-OPLS-2005>
43.1500968933105

> <r_mmod_Bend_Energy-OPLS-2005>
123.497764587402

> <r_mmod_Torsional_Energy-OPLS-2005>
380.124298095703

> <r_mmod_Improper_Torsional_Energy-OPLS-2005>
3.20592427253723

> <r_mmod_Van_der_Waal_Energy-OPLS-2005>
152.490173339844

> <r_mmod_Electrostatic_Energy-OPLS-2005>
-288.472717285156

> <r_mmod_Solvation_Energy-OPLS-2005>
-201.038787841797

> <b_mmod_Minimization_Converged-OPLS-2005>
0

> <r_mmod_RMS_Derivative-OPLS-2005>
1.56310188770294

$$$$
71
                    3D
 Structure written by MMmdl.
147155  0  0  1  0            999 V2000
  -30.2069  -15.8872   20.2921 C   0  0  0  0  0  0
  -30.4091  -13.2601   19.5718 C   0  0  0  0  0  0
  -29.5667  -12.7292   18.3685 C   0  0  0  0  0  0
  -28.1582  -12.3177   18.8134 C   0  0  0  0  0  0
  -27.5926  -13.3382   19.8230 C   0  0  2  0  0  0
  -28.5871  -13.7650   20.9378 C   0  0  0  0  0  0
  -25.2284  -13.8348   20.5839 C   0  0  0  0  0  0
  -24.1692  -13.0461   20.9297 C   0  0  0  0  0  0
  -24.6434  -11.6984   20.8768 C   0  0  0  0  0  0
  -23.9151  -10.4312   21.0396 C   0  0  0  0  0  0
  -24.3682   -9.4214   21.9180 C   0  0  0  0  0  0
  -23.6332   -8.2258   22.0755 C   0  0  0  0  0  0
  -22.4312   -8.0301   21.3545 C   0  0  0  0  0  0
  -21.9963   -9.0278   20.4644 C   0  0  0  0  0  0
  -22.7314  -10.2148   20.3045 C   0  0  0  0  0  0
  -21.6862   -6.0748   22.5280 C   0  0  0  0  0  0
  -21.4014   -6.5648   23.8216 C   0  0  0  0  0  0
  -21.3653   -5.6795   24.9172 C   0  0  0  0  0  0
  -21.6048   -4.3061   24.7220 C   0  0  0  0  0  0
  -21.8816   -3.8154   23.4340 C   0  0  0  0  0  0
  -21.9187   -4.6974   22.3400 C   0  0  0  0  0  0
  -22.7693  -13.5167   21.1925 C   0  0  0  0  0  0
  -22.1657   -4.2161   21.0977 F   0  0  0  0  0  0
  -21.5628   -3.4538   25.7725 F   0  0  0  0  0  0
  -29.7344  -14.4645   20.2881 N   0  0  0  0  0  0
  -26.2774  -12.9735   20.3305 N   0  0  0  0  0  0
  -25.9398  -11.6771   20.5724 N   0  0  0  0  0  0
  -22.0357  -12.8130   22.0471 N   0  0  0  0  0  0
  -25.3841  -15.2097   20.4312 N   0  0  0  0  0  0
  -31.4306  -15.7987   20.0424 O   0  0  0  0  0  0
  -21.6661   -6.8907   21.4248 O   0  0  0  0  0  0
  -22.3352  -14.5463   20.6769 O   0  0  0  0  0  0
  -24.6986  -31.7806   23.1366 C   0  0  0  0  0  0
  -25.9495  -32.4361   23.7977 C   0  0  1  0  0  0
  -27.2398  -26.5325   20.2237 C   0  0  0  0  0  0
  -25.6017  -33.8199   24.1855 N   0  0  0  0  0  0
  -23.5340  -30.3722   21.4929 C   0  0  2  0  0  0
  -24.9989  -28.6818   20.1098 C   0  0  0  0  0  0
  -22.7838  -29.4193   22.4645 C   0  0  0  0  0  0
  -18.0359  -28.1437   22.8455 C   0  0  0  0  0  0
  -24.1488  -36.7085   23.2658 C   0  0  0  0  0  0
  -26.1203  -30.4523   21.4319 C   0  0  0  0  0  0
  -26.1845  -29.0002   20.7809 C   0  0  0  0  0  0
  -27.2736  -27.9539   20.8130 C   0  0  0  0  0  0
  -26.0300  -26.4751   19.4717 C   0  0  0  0  0  0
  -24.9721  -27.4482   19.4309 C   0  0  0  0  0  0
  -23.7981  -29.6535   20.1335 C   0  0  0  0  0  0
  -25.4143  -36.2835   24.0271 C   0  0  1  0  0  0
  -20.5999  -28.3802   23.1115 C   0  0  2  0  0  0
  -20.6804  -26.9440   22.5418 C   0  0  0  0  0  0
  -19.5781  -26.6367   21.5230 C   0  0  0  0  0  0
  -18.1961  -26.7962   22.1618 C   0  0  0  0  0  0
  -19.1633  -28.8947   23.2762 C   0  0  0  0  0  0
  -18.9526  -30.1523   23.8811 C   0  0  0  0  0  0
  -17.6515  -30.6616   24.0546 C   0  0  0  0  0  0
  -25.9147  -34.9235   23.4916 C   0  0  0  0  0  0
  -16.5404  -29.9091   23.6355 C   0  0  0  0  0  0
  -16.7336  -28.6511   23.0383 C   0  0  0  0  0  0
  -26.4623  -31.6480   25.0678 C   0  0  0  0  0  0
  -25.3642  -31.3843   26.1254 C   0  0  0  0  0  0
  -27.0580  -30.2796   24.6713 C   0  0  0  0  0  0
  -27.6050  -32.4380   25.7495 C   0  0  0  0  0  0
  -27.5548  -37.1695   24.8475 C   0  0  0  0  0  0
  -21.4475  -29.3010   22.3408 N   0  0  0  0  0  0
  -26.4255  -37.3613   23.9415 N   0  0  0  0  0  0
  -24.8092  -30.9068   22.0725 N   0  0  0  0  0  0
  -23.4192  -28.7830   23.3082 O   0  0  0  0  0  0
  -28.1173  -25.2044   20.4310 O   0  0  0  0  0  0
  -26.5803  -34.8847   22.4547 O   0  0  0  0  0  0
  -23.5965  -32.0979   23.6203 O   0  0  0  0  0  0
  -29.4007  -22.3003   16.0078 C   0  0  0  0  0  0
  -29.4286  -22.5647   17.3854 C   0  0  0  0  0  0
  -28.6001  -21.2490   15.5409 C   0  0  0  0  0  0
  -27.8793  -20.7453   17.6836 C   0  0  0  0  0  0
  -28.6287  -21.7955   18.2665 C   0  0  0  0  0  0
  -28.2625  -23.6750   19.7883 C   0  0  0  0  0  0
  -28.9662  -20.4391   20.4401 C   0  0  0  0  0  0
  -28.5895  -22.0876   19.7335 C   0  0  0  0  0  0
  -27.8574  -20.4767   16.3595 N   0  0  0  0  0  0
  -29.3977  -19.0645   20.0162 N   0  0  0  0  0  0
  -29.4546  -17.3111   20.4760 N   0  0  0  0  0  0
  -31.3879  -13.5445   19.1846 H   0  0  0  0  0  0
  -30.6216  -12.4535   20.2755 H   0  0  0  0  0  0
  -30.0724  -11.8871   17.8934 H   0  0  0  0  0  0
  -29.4946  -13.5110   17.6103 H   0  0  0  0  0  0
  -28.2306  -11.3392   19.2895 H   0  0  0  0  0  0
  -27.4946  -12.2016   17.9546 H   0  0  0  0  0  0
  -27.4279  -14.2311   19.2189 H   0  0  0  0  0  0
  -28.8939  -12.9192   21.5543 H   0  0  0  0  0  0
  -28.1014  -14.4664   21.6179 H   0  0  0  0  0  0
  -25.2820   -9.5672   22.4772 H   0  0  0  0  0  0
  -24.0009   -7.4647   22.7488 H   0  0  0  0  0  0
  -21.0883   -8.8821   19.8963 H   0  0  0  0  0  0
  -22.3778  -10.9690   19.6156 H   0  0  0  0  0  0
  -21.2014   -7.6156   23.9724 H   0  0  0  0  0  0
  -21.1477   -6.0526   25.9079 H   0  0  0  0  0  0
  -22.0600   -2.7616   23.2843 H   0  0  0  0  0  0
  -22.3998  -11.9807   22.4871 H   0  0  0  0  0  0
  -21.0962  -13.1122   22.2682 H   0  0  0  0  0  0
  -24.6127  -15.8577   20.5521 H   0  0  0  0  0  0
  -26.2236  -15.6539   20.0827 H   0  0  0  0  0  0
  -26.7590  -32.4790   23.0688 H   0  0  0  0  0  0
  -25.0065  -33.9210   24.9943 H   0  0  0  0  0  0
  -22.8697  -31.2145   21.2875 H   0  0  0  0  0  0
  -23.3782  -35.9389   23.3279 H   0  0  0  0  0  0
  -24.3538  -36.8797   22.2083 H   0  0  0  0  0  0
  -23.7216  -37.6228   23.6775 H   0  0  0  0  0  0
  -26.3490  -31.1670   20.6399 H   0  0  0  0  0  0
  -26.9613  -30.5219   22.1084 H   0  0  0  0  0  0
  -28.1439  -28.1977   21.4073 H   0  0  0  0  0  0
  -25.8328  -25.5453   18.9581 H   0  0  0  0  0  0
  -24.0823  -27.1944   18.8721 H   0  0  0  0  0  0
  -23.9781  -30.4072   19.3661 H   0  0  0  0  0  0
  -22.9016  -29.1234   19.8079 H   0  0  0  0  0  0
  -25.1362  -36.1567   25.0756 H   0  0  0  0  0  0
  -21.0091  -28.3441   24.1238 H   0  0  0  0  0  0
  -20.5650  -26.2422   23.3696 H   0  0  0  0  0  0
  -21.6655  -26.7352   22.1239 H   0  0  0  0  0  0
  -19.6928  -25.6260   21.1300 H   0  0  0  0  0  0
  -19.6721  -27.3141   20.6733 H   0  0  0  0  0  0
  -17.4229  -26.6733   21.4015 H   0  0  0  0  0  0
  -18.0331  -26.0123   22.9027 H   0  0  0  0  0  0
  -19.8001  -30.7367   24.2134 H   0  0  0  0  0  0
  -17.5062  -31.6285   24.5170 H   0  0  0  0  0  0
  -15.5396  -30.2962   23.7739 H   0  0  0  0  0  0
  -15.8731  -28.0790   22.7169 H   0  0  0  0  0  0
  -24.5875  -30.7155   25.7533 H   0  0  0  0  0  0
  -24.8777  -32.3080   26.4412 H   0  0  0  0  0  0
  -25.7771  -30.9169   27.0210 H   0  0  0  0  0  0
  -26.3340  -29.6352   24.1712 H   0  0  0  0  0  0
  -27.3948  -29.7311   25.5529 H   0  0  0  0  0  0
  -27.9350  -30.3872   24.0319 H   0  0  0  0  0  0
  -27.2594  -33.3798   26.1765 H   0  0  0  0  0  0
  -28.4003  -32.6740   25.0413 H   0  0  0  0  0  0
  -28.0559  -31.8704   26.5647 H   0  0  0  0  0  0
  -28.2538  -38.0017   24.7512 H   0  0  0  0  0  0
  -28.1066  -36.2529   24.6317 H   0  0  0  0  0  0
  -27.2260  -37.1354   25.8879 H   0  0  0  0  0  0
  -20.9830  -29.8606   21.6389 H   0  0  0  0  0  0
  -26.0063  -38.2652   24.1443 H   0  0  0  0  0  0
  -29.9803  -22.8984   15.3178 H   0  0  0  0  0  0
  -30.0431  -23.3725   17.7568 H   0  0  0  0  0  0
  -28.5565  -21.0195   14.4857 H   0  0  0  0  0  0
  -27.2448  -20.1128   18.2863 H   0  0  0  0  0  0
  -28.0189  -23.9854   18.7827 H   0  0  0  0  0  0
  -28.8029  -20.5349   21.5142 H   0  0  0  0  0  0
  -28.5985  -17.1050   20.9749 H   0  0  0  0  0  0
  1 25  1  0  0  0
  1 30  2  0  0  0
  1 81  1  0  0  0
  2  3  1  0  0  0
  2 25  1  0  0  0
  2 82  1  0  0  0
  2 83  1  0  0  0
  3  4  1  0  0  0
  3 84  1  0  0  0
  3 85  1  0  0  0
  4  5  1  0  0  0
  4 86  1  0  0  0
  4 87  1  0  0  0
  5  6  1  0  0  0
  5 26  1  0  0  0
  5 88  1  0  0  0
  6 25  1  0  0  0
  6 89  1  0  0  0
  6 90  1  0  0  0
  7  8  2  0  0  0
  7 26  1  0  0  0
  7 29  1  0  0  0
  8  9  1  0  0  0
  8 22  1  0  0  0
  9 10  1  0  0  0
  9 27  2  0  0  0
 10 11  2  0  0  0
 10 15  1  0  0  0
 11 12  1  0  0  0
 11 91  1  0  0  0
 12 13  2  0  0  0
 12 92  1  0  0  0
 13 14  1  0  0  0
 13 31  1  0  0  0
 14 15  2  0  0  0
 14 93  1  0  0  0
 15 94  1  0  0  0
 16 17  2  0  0  0
 16 21  1  0  0  0
 16 31  1  0  0  0
 17 18  1  0  0  0
 17 95  1  0  0  0
 18 19  2  0  0  0
 18 96  1  0  0  0
 19 20  1  0  0  0
 19 24  1  0  0  0
 20 21  2  0  0  0
 20 97  1  0  0  0
 21 23  1  0  0  0
 22 28  1  0  0  0
 22 32  2  0  0  0
 26 27  1  0  0  0
 28 98  1  0  0  0
 28 99  1  0  0  0
 29100  1  0  0  0
 29101  1  0  0  0
 33 34  1  0  0  0
 33 66  1  0  0  0
 33 70  2  0  0  0
 34 36  1  0  0  0
 34 59  1  0  0  0
 34102  1  0  0  0
 35 44  2  0  0  0
 35 45  1  0  0  0
 35 68  1  0  0  0
 36 56  1  0  0  0
 36103  1  0  0  0
 37 39  1  0  0  0
 37 47  1  0  0  0
 37 66  1  0  0  0
 37104  1  0  0  0
 38 43  2  0  0  0
 38 46  1  0  0  0
 38 47  1  0  0  0
 39 64  1  0  0  0
 39 67  2  0  0  0
 40 52  1  0  0  0
 40 53  2  0  0  0
 40 58  1  0  0  0
 41105  1  0  0  0
 41106  1  0  0  0
 41107  1  0  0  0
 41 48  1  0  0  0
 42 43  1  0  0  0
 42 66  1  0  0  0
 42108  1  0  0  0
 42109  1  0  0  0
 43 44  1  0  0  0
 44110  1  0  0  0
 45 46  2  0  0  0
 45111  1  0  0  0
 46112  1  0  0  0
 47113  1  0  0  0
 47114  1  0  0  0
 48 56  1  0  0  0
 48 65  1  0  0  0
 48115  1  0  0  0
 49 50  1  0  0  0
 49 53  1  0  0  0
 49 64  1  0  0  0
 49116  1  0  0  0
 50 51  1  0  0  0
 50117  1  0  0  0
 50118  1  0  0  0
 51 52  1  0  0  0
 51119  1  0  0  0
 51120  1  0  0  0
 52121  1  0  0  0
 52122  1  0  0  0
 53 54  1  0  0  0
 54 55  2  0  0  0
 54123  1  0  0  0
 55 57  1  0  0  0
 55124  1  0  0  0
 56 69  2  0  0  0
 57 58  2  0  0  0
 57125  1  0  0  0
 58126  1  0  0  0
 59 60  1  0  0  0
 59 61  1  0  0  0
 59 62  1  0  0  0
 60127  1  0  0  0
 60128  1  0  0  0
 60129  1  0  0  0
 61130  1  0  0  0
 61131  1  0  0  0
 61132  1  0  0  0
 62133  1  0  0  0
 62134  1  0  0  0
 62135  1  0  0  0
 63 65  1  0  0  0
 63136  1  0  0  0
 63137  1  0  0  0
 63138  1  0  0  0
 64139  1  0  0  0
 65140  1  0  0  0
 68 76  1  0  0  0
 71 72  2  0  0  0
 71 73  1  0  0  0
 71141  1  0  0  0
 72 75  1  0  0  0
 72142  1  0  0  0
 73 79  2  0  0  0
 73143  1  0  0  0
 74 75  2  0  0  0
 74 79  1  0  0  0
 74144  1  0  0  0
 75 78  1  0  0  0
 76 78  2  0  0  0
 76145  1  0  0  0
 77 78  1  0  0  0
 77 80  2  0  0  0
 77146  1  0  0  0
 80 81  1  0  0  0
 81147  1  0  0  0
M  ISO  4   1 100  68 101  76 101  81 100
M  END
> <chiral flag>
0

> <version>
0

> <s_m_source_file>
/data/baiqing/PycharmProjects/Reinvent-master-3.2/result/LINK_invent/BTK/process_docking_weight1_custom_product_contain_oxygen_bond_distance_aromatic_linkinvent_7_9_3/rearranged_h_0082.sdf

> <i_m_source_file_index>
72

> <r_mmod_Potential_Energy-OPLS-2005>
3453.6337890625

> <r_mmod_Stretch_Energy-OPLS-2005>
1479.27294921875

> <r_mmod_Bend_Energy-OPLS-2005>
917.170593261719

> <r_mmod_Torsional_Energy-OPLS-2005>
275.386322021484

> <r_mmod_Improper_Torsional_Energy-OPLS-2005>
3.40366697311401

> <r_mmod_Van_der_Waal_Energy-OPLS-2005>
150.999542236328

> <r_mmod_Electrostatic_Energy-OPLS-2005>
-455.468322753906

> <r_mmod_Solvation_Energy-OPLS-2005>
-246.211196899414

> <b_mmod_Minimization_Converged-OPLS-2005>
0

> <r_mmod_RMS_Derivative-OPLS-2005>
2.08015275001526

$$$$
72
                    3D
 Structure written by MMmdl.
152161  0  0  1  0            999 V2000
  -30.5709  -14.7596   20.4619 C   0  0  0  0  0  0
  -30.4511  -12.4601   19.4690 C   0  0  0  0  0  0
  -29.5215  -12.5082   18.2343 C   0  0  0  0  0  0
  -28.0443  -12.3307   18.6434 C   0  0  0  0  0  0
  -27.6465  -13.2228   19.8492 C   0  0  2  0  0  0
  -28.6930  -13.1378   20.9837 C   0  0  0  0  0  0
  -25.2535  -13.8172   20.5654 C   0  0  0  0  0  0
  -24.1823  -13.0434   20.9200 C   0  0  0  0  0  0
  -24.6406  -11.6911   20.8752 C   0  0  0  0  0  0
  -23.9078  -10.4298   21.0421 C   0  0  0  0  0  0
  -24.3630   -9.4212   21.9199 C   0  0  0  0  0  0
  -23.6301   -8.2248   22.0764 C   0  0  0  0  0  0
  -22.4282   -8.0287   21.3550 C   0  0  0  0  0  0
  -21.9923   -9.0270   20.4659 C   0  0  0  0  0  0
  -22.7252  -10.2148   20.3068 C   0  0  0  0  0  0
  -21.6853   -6.0744   22.5285 C   0  0  0  0  0  0
  -21.4014   -6.5646   23.8220 C   0  0  0  0  0  0
  -21.3655   -5.6795   24.9179 C   0  0  0  0  0  0
  -21.6038   -4.3058   24.7224 C   0  0  0  0  0  0
  -21.8816   -3.8153   23.4346 C   0  0  0  0  0  0
  -21.9192   -4.6973   22.3404 C   0  0  0  0  0  0
  -22.7846  -13.5233   21.1849 C   0  0  0  0  0  0
  -22.1659   -4.2160   21.0984 F   0  0  0  0  0  0
  -21.5631   -3.4537   25.7734 F   0  0  0  0  0  0
  -29.9956  -13.5084   20.4090 N   0  0  0  0  0  0
  -26.2960  -12.9362   20.3241 N   0  0  0  0  0  0
  -25.9329  -11.6519   20.5726 N   0  0  0  0  0  0
  -22.0469  -12.8247   22.0406 N   0  0  0  0  0  0
  -25.4203  -15.1897   20.4027 N   0  0  0  0  0  0
  -31.7617  -14.9122   20.1700 O   0  0  0  0  0  0
  -21.6638   -6.8891   21.4245 O   0  0  0  0  0  0
  -22.3543  -14.5539   20.6692 O   0  0  0  0  0  0
  -24.6314  -31.8550   23.1985 C   0  0  0  0  0  0
  -25.9140  -32.4751   23.8336 C   0  0  1  0  0  0
  -27.2282  -27.2632   20.1383 C   0  0  0  0  0  0
  -25.5942  -33.8555   24.2255 N   0  0  0  0  0  0
  -23.4296  -30.4753   21.5423 C   0  0  2  0  0  0
  -24.8820  -28.9172   20.1184 C   0  0  0  0  0  0
  -22.7504  -29.4597   22.4923 C   0  0  0  0  0  0
  -18.0288  -28.1383   22.8485 C   0  0  0  0  0  0
  -24.1497  -36.7275   23.2640 C   0  0  0  0  0  0
  -25.9767  -30.7655   21.3828 C   0  0  0  0  0  0
  -26.0533  -29.3852   20.7315 C   0  0  0  0  0  0
  -27.2322  -28.5692   20.7352 C   0  0  0  0  0  0
  -26.0380  -26.8582   19.5028 C   0  0  0  0  0  0
  -24.8783  -27.6592   19.4948 C   0  0  0  0  0  0
  -23.6510  -29.8043   20.1612 C   0  0  0  0  0  0
  -25.4124  -36.3061   24.0325 C   0  0  1  0  0  0
  -20.5893  -28.3695   23.1274 C   0  0  2  0  0  0
  -20.6773  -26.9411   22.5418 C   0  0  0  0  0  0
  -19.5757  -26.6374   21.5219 C   0  0  0  0  0  0
  -18.1930  -26.7927   22.1620 C   0  0  0  0  0  0
  -19.1543  -28.8856   23.2869 C   0  0  0  0  0  0
  -18.9464  -30.1460   23.8882 C   0  0  0  0  0  0
  -17.6462  -30.6586   24.0556 C   0  0  0  0  0  0
  -25.9061  -34.9433   23.5087 C   0  0  0  0  0  0
  -16.5352  -29.9077   23.6335 C   0  0  0  0  0  0
  -16.7275  -28.6493   23.0358 C   0  0  0  0  0  0
  -26.4497  -31.6578   25.0727 C   0  0  0  0  0  0
  -25.3709  -31.3744   26.1441 C   0  0  0  0  0  0
  -27.0343  -30.2987   24.6233 C   0  0  0  0  0  0
  -27.6048  -32.4321   25.7499 C   0  0  0  0  0  0
  -27.5583  -37.1793   24.8459 C   0  0  0  0  0  0
  -21.4211  -29.3036   22.3655 N   0  0  0  0  0  0
  -26.4294  -37.3766   23.9403 N   0  0  0  0  0  0
  -24.6977  -31.0503   22.0970 N   0  0  0  0  0  0
  -23.4202  -28.8148   23.3031 O   0  0  0  0  0  0
  -28.2959  -26.3418   20.0900 O   0  0  0  0  0  0
  -26.5631  -34.8907   22.4653 O   0  0  0  0  0  0
  -23.5460  -32.1378   23.7267 O   0  0  0  0  0  0
  -28.5000  -19.4728   20.1595 C   0  0  0  0  0  0
  -30.6741  -19.5660   21.1390 C   0  0  0  0  0  0
  -28.6114  -18.0411   20.1011 C   0  0  0  0  0  0
  -30.7987  -18.1332   21.0509 C   0  0  0  0  0  0
  -29.5165  -20.2977   20.7148 C   0  0  0  0  0  0
  -29.7497  -17.3064   20.5584 C   0  0  0  0  0  0
  -28.7712  -24.0488   21.2523 C   0  0  0  0  0  0
  -29.0173  -23.5134   22.5844 C   0  0  0  0  0  0
  -28.9599  -22.8778   20.3309 C   0  0  0  0  0  0
  -28.4608  -25.4127   21.1421 C   0  0  0  0  0  0
  -29.4765  -22.0752   22.4806 C   0  0  0  0  0  0
  -29.3158  -21.7376   21.0660 N   0  0  0  0  0  0
  -29.6894  -15.8197   20.6181 N   0  0  0  0  0  0
  -28.9153  -24.1045   23.6660 O   0  0  0  0  0  0
  -28.8244  -22.8885   19.1018 O   0  0  0  0  0  0
  -31.4890  -12.6083   19.1665 H   0  0  0  0  0  0
  -30.4135  -11.4790   19.9451 H   0  0  0  0  0  0
  -29.8066  -11.7352   17.5193 H   0  0  0  0  0  0
  -29.6466  -13.4612   17.7177 H   0  0  0  0  0  0
  -27.8962  -11.2802   18.8976 H   0  0  0  0  0  0
  -27.3917  -12.5314   17.7928 H   0  0  0  0  0  0
  -27.6434  -14.2450   19.4717 H   0  0  0  0  0  0
  -28.7330  -12.1295   21.3988 H   0  0  0  0  0  0
  -28.4228  -13.7951   21.8118 H   0  0  0  0  0  0
  -25.2780   -9.5683   22.4769 H   0  0  0  0  0  0
  -24.0008   -7.4637   22.7485 H   0  0  0  0  0  0
  -21.0851   -8.8802   19.8972 H   0  0  0  0  0  0
  -22.3721  -10.9693   19.6179 H   0  0  0  0  0  0
  -21.2007   -7.6156   23.9731 H   0  0  0  0  0  0
  -21.1474   -6.0524   25.9086 H   0  0  0  0  0  0
  -22.0597   -2.7617   23.2842 H   0  0  0  0  0  0
  -22.4056  -11.9915   22.4828 H   0  0  0  0  0  0
  -21.1098  -13.1319   22.2594 H   0  0  0  0  0  0
  -24.6434  -15.8341   20.5007 H   0  0  0  0  0  0
  -26.2473  -15.6262   20.0203 H   0  0  0  0  0  0
  -26.7205  -32.5402   23.1076 H   0  0  0  0  0  0
  -25.0088  -33.9698   25.0399 H   0  0  0  0  0  0
  -22.7264  -31.2975   21.3938 H   0  0  0  0  0  0
  -23.3763  -35.9603   23.3291 H   0  0  0  0  0  0
  -24.3588  -36.8906   22.2056 H   0  0  0  0  0  0
  -23.7246  -37.6470   23.6673 H   0  0  0  0  0  0
  -26.1183  -31.5252   20.6127 H   0  0  0  0  0  0
  -26.8518  -30.8145   22.0194 H   0  0  0  0  0  0
  -28.1322  -28.9260   21.2162 H   0  0  0  0  0  0
  -26.0033  -25.8894   19.0240 H   0  0  0  0  0  0
  -23.9827  -27.2946   19.0104 H   0  0  0  0  0  0
  -23.7720  -30.5779   19.4020 H   0  0  0  0  0  0
  -22.7698  -29.2351   19.8594 H   0  0  0  0  0  0
  -25.1309  -36.1900   25.0820 H   0  0  0  0  0  0
  -20.9985  -28.3271   24.1396 H   0  0  0  0  0  0
  -20.5669  -26.2308   23.3624 H   0  0  0  0  0  0
  -21.6644  -26.7426   22.1216 H   0  0  0  0  0  0
  -19.6913  -25.6278   21.1264 H   0  0  0  0  0  0
  -19.6702  -27.3172   20.6743 H   0  0  0  0  0  0
  -17.4210  -26.6684   21.4012 H   0  0  0  0  0  0
  -18.0316  -26.0069   22.9013 H   0  0  0  0  0  0
  -19.7940  -30.7280   24.2243 H   0  0  0  0  0  0
  -17.5014  -31.6271   24.5147 H   0  0  0  0  0  0
  -15.5348  -30.2967   23.7674 H   0  0  0  0  0  0
  -15.8676  -28.0806   22.7081 H   0  0  0  0  0  0
  -24.5878  -30.7104   25.7764 H   0  0  0  0  0  0
  -24.8908  -32.2923   26.4845 H   0  0  0  0  0  0
  -25.8009  -30.8927   27.0231 H   0  0  0  0  0  0
  -26.2937  -29.6737   24.1229 H   0  0  0  0  0  0
  -27.3976  -29.7250   25.4769 H   0  0  0  0  0  0
  -27.8838  -30.4245   23.9517 H   0  0  0  0  0  0
  -27.2656  -33.3630   26.2056 H   0  0  0  0  0  0
  -28.3866  -32.6867   25.0332 H   0  0  0  0  0  0
  -28.0708  -31.8460   26.5430 H   0  0  0  0  0  0
  -28.2594  -38.0097   24.7505 H   0  0  0  0  0  0
  -28.1084  -36.2623   24.6283 H   0  0  0  0  0  0
  -27.2300  -37.1435   25.8863 H   0  0  0  0  0  0
  -20.9401  -29.8748   21.6850 H   0  0  0  0  0  0
  -26.0165  -38.2839   24.1402 H   0  0  0  0  0  0
  -27.5716  -19.9288   19.8453 H   0  0  0  0  0  0
  -31.4914  -20.1086   21.5926 H   0  0  0  0  0  0
  -27.7599  -17.4941   19.7225 H   0  0  0  0  0  0
  -31.6971  -17.6701   21.4344 H   0  0  0  0  0  0
  -28.3897  -25.9754   22.0640 H   0  0  0  0  0  0
  -28.8622  -21.4325   23.1113 H   0  0  0  0  0  0
  -30.5175  -21.9901   22.7912 H   0  0  0  0  0  0
  -28.7484  -15.4707   20.7085 H   0  0  0  0  0  0
  1 25  1  0  0  0
  1 30  2  0  0  0
  1 83  1  0  0  0
  2  3  1  0  0  0
  2 25  1  0  0  0
  2 86  1  0  0  0
  2 87  1  0  0  0
  3  4  1  0  0  0
  3 88  1  0  0  0
  3 89  1  0  0  0
  4  5  1  0  0  0
  4 90  1  0  0  0
  4 91  1  0  0  0
  5  6  1  0  0  0
  5 26  1  0  0  0
  5 92  1  0  0  0
  6 25  1  0  0  0
  6 93  1  0  0  0
  6 94  1  0  0  0
  7  8  2  0  0  0
  7 26  1  0  0  0
  7 29  1  0  0  0
  8  9  1  0  0  0
  8 22  1  0  0  0
  9 10  1  0  0  0
  9 27  2  0  0  0
 10 11  2  0  0  0
 10 15  1  0  0  0
 11 12  1  0  0  0
 11 95  1  0  0  0
 12 13  2  0  0  0
 12 96  1  0  0  0
 13 14  1  0  0  0
 13 31  1  0  0  0
 14 15  2  0  0  0
 14 97  1  0  0  0
 15 98  1  0  0  0
 16 17  2  0  0  0
 16 21  1  0  0  0
 16 31  1  0  0  0
 17 18  1  0  0  0
 17 99  1  0  0  0
 18 19  2  0  0  0
 18100  1  0  0  0
 19 20  1  0  0  0
 19 24  1  0  0  0
 20 21  2  0  0  0
 20101  1  0  0  0
 21 23  1  0  0  0
 22 28  1  0  0  0
 22 32  2  0  0  0
 26 27  1  0  0  0
 28102  1  0  0  0
 28103  1  0  0  0
 29104  1  0  0  0
 29105  1  0  0  0
 33 34  1  0  0  0
 33 66  1  0  0  0
 33 70  2  0  0  0
 34 36  1  0  0  0
 34 59  1  0  0  0
 34106  1  0  0  0
 35 44  2  0  0  0
 35 45  1  0  0  0
 35 68  1  0  0  0
 36 56  1  0  0  0
 36107  1  0  0  0
 37 39  1  0  0  0
 37 47  1  0  0  0
 37 66  1  0  0  0
 37108  1  0  0  0
 38 43  2  0  0  0
 38 46  1  0  0  0
 38 47  1  0  0  0
 39 64  1  0  0  0
 39 67  2  0  0  0
 40 52  1  0  0  0
 40 53  2  0  0  0
 40 58  1  0  0  0
 41109  1  0  0  0
 41110  1  0  0  0
 41111  1  0  0  0
 41 48  1  0  0  0
 42 43  1  0  0  0
 42 66  1  0  0  0
 42112  1  0  0  0
 42113  1  0  0  0
 43 44  1  0  0  0
 44114  1  0  0  0
 45 46  2  0  0  0
 45115  1  0  0  0
 46116  1  0  0  0
 47117  1  0  0  0
 47118  1  0  0  0
 48 56  1  0  0  0
 48 65  1  0  0  0
 48119  1  0  0  0
 49 50  1  0  0  0
 49 53  1  0  0  0
 49 64  1  0  0  0
 49120  1  0  0  0
 50 51  1  0  0  0
 50121  1  0  0  0
 50122  1  0  0  0
 51 52  1  0  0  0
 51123  1  0  0  0
 51124  1  0  0  0
 52125  1  0  0  0
 52126  1  0  0  0
 53 54  1  0  0  0
 54 55  2  0  0  0
 54127  1  0  0  0
 55 57  1  0  0  0
 55128  1  0  0  0
 56 69  2  0  0  0
 57 58  2  0  0  0
 57129  1  0  0  0
 58130  1  0  0  0
 59 60  1  0  0  0
 59 61  1  0  0  0
 59 62  1  0  0  0
 60131  1  0  0  0
 60132  1  0  0  0
 60133  1  0  0  0
 61134  1  0  0  0
 61135  1  0  0  0
 61136  1  0  0  0
 62137  1  0  0  0
 62138  1  0  0  0
 62139  1  0  0  0
 63 65  1  0  0  0
 63140  1  0  0  0
 63141  1  0  0  0
 63142  1  0  0  0
 64143  1  0  0  0
 65144  1  0  0  0
 68 80  1  0  0  0
 71 73  2  0  0  0
 71 75  1  0  0  0
 71145  1  0  0  0
 72 74  1  0  0  0
 72 75  2  0  0  0
 72146  1  0  0  0
 73 76  1  0  0  0
 73147  1  0  0  0
 74 76  2  0  0  0
 74148  1  0  0  0
 75 82  1  0  0  0
 76 83  1  0  0  0
 77 78  1  0  0  0
 77 79  1  0  0  0
 77 80  2  0  0  0
 78 81  1  0  0  0
 78 84  2  0  0  0
 79 82  1  0  0  0
 79 85  2  0  0  0
 80149  1  0  0  0
 81 82  1  0  0  0
 81150  1  0  0  0
 81151  1  0  0  0
 83152  1  0  0  0
M  ISO  4   1 100  68 101  80 101  83 100
M  END
> <chiral flag>
0

> <version>
0

> <s_m_source_file>
/data/baiqing/PycharmProjects/Reinvent-master-3.2/result/LINK_invent/BTK/process_docking_weight1_custom_product_contain_oxygen_bond_distance_aromatic_linkinvent_7_9_3/rearranged_h_0082.sdf

> <i_m_source_file_index>
73

> <r_mmod_Potential_Energy-OPLS-2005>
288.390350341797

> <r_mmod_Stretch_Energy-OPLS-2005>
113.899597167969

> <r_mmod_Bend_Energy-OPLS-2005>
252.969711303711

> <r_mmod_Torsional_Energy-OPLS-2005>
300.813354492188

> <r_mmod_Improper_Torsional_Energy-OPLS-2005>
7.98848342895508

> <r_mmod_Van_der_Waal_Energy-OPLS-2005>
125.28759765625

> <r_mmod_Electrostatic_Energy-OPLS-2005>
-362.604187011719

> <r_mmod_Solvation_Energy-OPLS-2005>
-240.025238037109

> <b_mmod_Minimization_Converged-OPLS-2005>
0

> <r_mmod_RMS_Derivative-OPLS-2005>
1.27533888816833

$$$$
73
                    3D
 Structure written by MMmdl.
154163  0  0  1  0            999 V2000
  -30.6592  -14.6479   20.5678 C   0  0  0  0  0  0
  -30.4271  -12.4177   19.4721 C   0  0  0  0  0  0
  -29.5081  -12.5383   18.2364 C   0  0  0  0  0  0
  -28.0314  -12.3560   18.6386 C   0  0  0  0  0  0
  -27.6508  -13.2193   19.8685 C   0  0  2  0  0  0
  -28.6867  -13.0665   21.0035 C   0  0  0  0  0  0
  -25.2553  -13.8171   20.5693 C   0  0  0  0  0  0
  -24.1819  -13.0455   20.9193 C   0  0  0  0  0  0
  -24.6367  -11.6911   20.8722 C   0  0  0  0  0  0
  -23.9037  -10.4307   21.0401 C   0  0  0  0  0  0
  -24.3600   -9.4230   21.9177 C   0  0  0  0  0  0
  -23.6291   -8.2264   22.0745 C   0  0  0  0  0  0
  -22.4272   -8.0294   21.3541 C   0  0  0  0  0  0
  -21.9913   -9.0250   20.4634 C   0  0  0  0  0  0
  -22.7223  -10.2139   20.3043 C   0  0  0  0  0  0
  -21.6851   -6.0742   22.5281 C   0  0  0  0  0  0
  -21.4009   -6.5631   23.8216 C   0  0  0  0  0  0
  -21.3665   -5.6783   24.9182 C   0  0  0  0  0  0
  -21.6051   -4.3054   24.7232 C   0  0  0  0  0  0
  -21.8820   -3.8143   23.4346 C   0  0  0  0  0  0
  -21.9197   -4.6966   22.3406 C   0  0  0  0  0  0
  -22.7846  -13.5227   21.1888 C   0  0  0  0  0  0
  -22.1660   -4.2148   21.0989 F   0  0  0  0  0  0
  -21.5646   -3.4550   25.7746 F   0  0  0  0  0  0
  -30.0094  -13.4339   20.4654 N   0  0  0  0  0  0
  -26.2957  -12.9340   20.3298 N   0  0  0  0  0  0
  -25.9295  -11.6500   20.5729 N   0  0  0  0  0  0
  -22.0499  -12.8199   22.0426 N   0  0  0  0  0  0
  -25.4324  -15.1902   20.4128 N   0  0  0  0  0  0
  -31.7480  -14.8257   20.0101 O   0  0  0  0  0  0
  -21.6647   -6.8886   21.4238 O   0  0  0  0  0  0
  -22.3537  -14.5562   20.6776 O   0  0  0  0  0  0
  -24.6285  -31.8570   23.2032 C   0  0  0  0  0  0
  -25.9121  -32.4764   23.8374 C   0  0  1  0  0  0
  -27.2269  -27.3209   20.1166 C   0  0  0  0  0  0
  -25.5910  -33.8556   24.2274 N   0  0  0  0  0  0
  -23.4211  -30.4822   21.5476 C   0  0  2  0  0  0
  -24.8670  -28.9294   20.1188 C   0  0  0  0  0  0
  -22.7470  -29.4654   22.4987 C   0  0  0  0  0  0
  -18.0290  -28.1390   22.8502 C   0  0  0  0  0  0
  -24.1480  -36.7305   23.2662 C   0  0  0  0  0  0
  -25.9602  -30.7933   21.3646 C   0  0  0  0  0  0
  -26.0382  -29.4168   20.7146 C   0  0  0  0  0  0
  -27.2260  -28.6260   20.7000 C   0  0  0  0  0  0
  -26.0337  -26.8774   19.5080 C   0  0  0  0  0  0
  -24.8653  -27.6630   19.5104 C   0  0  0  0  0  0
  -23.6328  -29.8088   20.1663 C   0  0  0  0  0  0
  -25.4111  -36.3068   24.0321 C   0  0  1  0  0  0
  -20.5894  -28.3716   23.1297 C   0  0  2  0  0  0
  -20.6782  -26.9439   22.5421 C   0  0  0  0  0  0
  -19.5730  -26.6403   21.5240 C   0  0  0  0  0  0
  -18.1911  -26.7932   22.1641 C   0  0  0  0  0  0
  -19.1547  -28.8874   23.2871 C   0  0  0  0  0  0
  -18.9466  -30.1492   23.8880 C   0  0  0  0  0  0
  -17.6464  -30.6595   24.0603 C   0  0  0  0  0  0
  -25.9057  -34.9439   23.5108 C   0  0  0  0  0  0
  -16.5352  -29.9105   23.6361 C   0  0  0  0  0  0
  -16.7274  -28.6523   23.0373 C   0  0  0  0  0  0
  -26.4489  -31.6579   25.0753 C   0  0  0  0  0  0
  -25.3732  -31.3638   26.1477 C   0  0  0  0  0  0
  -27.0382  -30.3024   24.6196 C   0  0  0  0  0  0
  -27.6018  -32.4353   25.7513 C   0  0  0  0  0  0
  -27.5547  -37.1797   24.8466 C   0  0  0  0  0  0
  -21.4187  -29.3066   22.3691 N   0  0  0  0  0  0
  -26.4268  -37.3766   23.9418 N   0  0  0  0  0  0
  -24.6921  -31.0592   22.0977 N   0  0  0  0  0  0
  -23.4185  -28.8236   23.3110 O   0  0  0  0  0  0
  -28.3321  -26.4624   20.1081 O   0  0  0  0  0  0
  -26.5658  -34.8917   22.4698 O   0  0  0  0  0  0
  -23.5450  -32.1377   23.7365 O   0  0  0  0  0  0
  -30.6222  -17.9386   19.9841 C   0  0  0  0  0  0
  -30.4228  -19.3247   19.6756 C   0  0  0  0  0  0
  -28.7748  -18.0419   21.5020 C   0  0  0  0  0  0
  -29.0383  -23.5229   18.8365 C   0  0  0  0  0  0
  -28.7978  -22.5889   20.8331 C   0  0  0  0  0  0
  -29.8134  -17.2437   20.9274 C   0  0  0  0  0  0
  -28.6639  -23.8171   20.1829 C   0  0  0  0  0  0
  -29.4002  -20.1184   20.2796 C   0  0  0  0  0  0
  -28.5706  -19.4202   21.2008 C   0  0  0  0  0  0
  -29.3395  -22.1836   18.7380 C   0  0  0  0  0  0
  -30.0417  -15.8020   21.4481 C   0  0  0  0  0  0
  -28.1516  -25.1697   20.8041 C   0  0  0  0  0  0
  -29.7615  -15.5676   22.6653 N   0  0  0  0  0  0
  -29.2022  -21.5459   19.9690 N   0  0  0  0  0  0
  -29.7001  -21.4904   17.6244 O   0  0  0  0  0  0
  -27.5490  -20.0660   21.8194 F   0  0  0  0  0  0
  -31.4730  -12.5266   19.1804 H   0  0  0  0  0  0
  -30.3525  -11.4188   19.9066 H   0  0  0  0  0  0
  -29.7857  -11.7965   17.4853 H   0  0  0  0  0  0
  -29.6426  -13.5148   17.7709 H   0  0  0  0  0  0
  -27.8787  -11.2993   18.8635 H   0  0  0  0  0  0
  -27.3776  -12.5842   17.7967 H   0  0  0  0  0  0
  -27.6743  -14.2577   19.5383 H   0  0  0  0  0  0
  -28.7045  -12.0393   21.3735 H   0  0  0  0  0  0
  -28.3740  -13.6634   21.8550 H   0  0  0  0  0  0
  -25.2742   -9.5740   22.4759 H   0  0  0  0  0  0
  -24.0020   -7.4667   22.7475 H   0  0  0  0  0  0
  -21.0860   -8.8756   19.8931 H   0  0  0  0  0  0
  -22.3670  -10.9678   19.6166 H   0  0  0  0  0  0
  -21.1975   -7.6142   23.9718 H   0  0  0  0  0  0
  -21.1490   -6.0521   25.9089 H   0  0  0  0  0  0
  -22.0593   -2.7598   23.2856 H   0  0  0  0  0  0
  -22.4121  -11.9829   22.4748 H   0  0  0  0  0  0
  -21.1101  -13.1182   22.2633 H   0  0  0  0  0  0
  -24.6740  -15.8551   20.5142 H   0  0  0  0  0  0
  -26.2965  -15.6188   20.1064 H   0  0  0  0  0  0
  -26.7192  -32.5415   23.1137 H   0  0  0  0  0  0
  -25.0016  -33.9692   25.0388 H   0  0  0  0  0  0
  -22.7181  -31.3038   21.4004 H   0  0  0  0  0  0
  -23.3726  -35.9638   23.3301 H   0  0  0  0  0  0
  -24.3562  -36.9005   22.2076 H   0  0  0  0  0  0
  -23.7244  -37.6495   23.6738 H   0  0  0  0  0  0
  -26.0767  -31.5500   20.5874 H   0  0  0  0  0  0
  -26.8468  -30.8564   21.9835 H   0  0  0  0  0  0
  -28.1301  -28.9968   21.1637 H   0  0  0  0  0  0
  -26.0036  -25.9029   19.0382 H   0  0  0  0  0  0
  -23.9646  -27.2778   19.0524 H   0  0  0  0  0  0
  -23.7424  -30.5794   19.4020 H   0  0  0  0  0  0
  -22.7496  -29.2336   19.8806 H   0  0  0  0  0  0
  -25.1272  -36.1924   25.0806 H   0  0  0  0  0  0
  -20.9971  -28.3315   24.1424 H   0  0  0  0  0  0
  -20.5769  -26.2316   23.3630 H   0  0  0  0  0  0
  -21.6637  -26.7503   22.1173 H   0  0  0  0  0  0
  -19.6924  -25.6340   21.1248 H   0  0  0  0  0  0
  -19.6666  -27.3237   20.6791 H   0  0  0  0  0  0
  -17.4206  -26.6760   21.4029 H   0  0  0  0  0  0
  -18.0234  -26.0047   22.8986 H   0  0  0  0  0  0
  -19.7944  -30.7316   24.2224 H   0  0  0  0  0  0
  -17.5023  -31.6267   24.5218 H   0  0  0  0  0  0
  -15.5358  -30.3018   23.7685 H   0  0  0  0  0  0
  -15.8663  -28.0859   22.7092 H   0  0  0  0  0  0
  -24.5953  -30.6940   25.7823 H   0  0  0  0  0  0
  -24.8846  -32.2735   26.4943 H   0  0  0  0  0  0
  -25.8068  -30.8816   27.0243 H   0  0  0  0  0  0
  -26.2960  -29.6690   24.1333 H   0  0  0  0  0  0
  -27.4243  -29.7365   25.4688 H   0  0  0  0  0  0
  -27.8727  -30.4379   23.9326 H   0  0  0  0  0  0
  -27.2659  -33.3753   26.1906 H   0  0  0  0  0  0
  -28.3885  -32.6760   25.0355 H   0  0  0  0  0  0
  -28.0588  -31.8594   26.5567 H   0  0  0  0  0  0
  -28.2548  -38.0118   24.7527 H   0  0  0  0  0  0
  -28.1059  -36.2627   24.6269 H   0  0  0  0  0  0
  -27.2240  -37.1442   25.8871 H   0  0  0  0  0  0
  -20.9408  -29.8717   21.6815 H   0  0  0  0  0  0
  -26.0136  -38.2831   24.1438 H   0  0  0  0  0  0
  -31.4414  -17.4204   19.5039 H   0  0  0  0  0  0
  -31.0896  -19.7847   18.9616 H   0  0  0  0  0  0
  -28.1004  -17.5984   22.2240 H   0  0  0  0  0  0
  -29.0556  -24.2201   18.0115 H   0  0  0  0  0  0
  -28.6106  -22.3553   21.8712 H   0  0  0  0  0  0
  -28.6542  -25.2695   21.7656 H   0  0  0  0  0  0
  -27.1037  -25.0094   21.0580 H   0  0  0  0  0  0
  -29.4190  -16.4002   23.1278 H   0  0  0  0  0  0
  -29.7059  -22.0962   16.8887 H   0  0  0  0  0  0
  1 25  1  0  0  0
  1 30  2  0  0  0
  1 81  1  0  0  0
  2  3  1  0  0  0
  2 25  1  0  0  0
  2 87  1  0  0  0
  2 88  1  0  0  0
  3  4  1  0  0  0
  3 89  1  0  0  0
  3 90  1  0  0  0
  4  5  1  0  0  0
  4 91  1  0  0  0
  4 92  1  0  0  0
  5  6  1  0  0  0
  5 26  1  0  0  0
  5 93  1  0  0  0
  6 25  1  0  0  0
  6 94  1  0  0  0
  6 95  1  0  0  0
  7  8  2  0  0  0
  7 26  1  0  0  0
  7 29  1  0  0  0
  8  9  1  0  0  0
  8 22  1  0  0  0
  9 10  1  0  0  0
  9 27  2  0  0  0
 10 11  2  0  0  0
 10 15  1  0  0  0
 11 12  1  0  0  0
 11 96  1  0  0  0
 12 13  2  0  0  0
 12 97  1  0  0  0
 13 14  1  0  0  0
 13 31  1  0  0  0
 14 15  2  0  0  0
 14 98  1  0  0  0
 15 99  1  0  0  0
 16 17  2  0  0  0
 16 21  1  0  0  0
 16 31  1  0  0  0
 17 18  1  0  0  0
 17100  1  0  0  0
 18 19  2  0  0  0
 18101  1  0  0  0
 19 20  1  0  0  0
 19 24  1  0  0  0
 20 21  2  0  0  0
 20102  1  0  0  0
 21 23  1  0  0  0
 22 28  1  0  0  0
 22 32  2  0  0  0
 26 27  1  0  0  0
 28103  1  0  0  0
 28104  1  0  0  0
 29105  1  0  0  0
 29106  1  0  0  0
 33 34  1  0  0  0
 33 66  1  0  0  0
 33 70  2  0  0  0
 34 36  1  0  0  0
 34 59  1  0  0  0
 34107  1  0  0  0
 35 44  2  0  0  0
 35 45  1  0  0  0
 35 68  1  0  0  0
 36 56  1  0  0  0
 36108  1  0  0  0
 37 39  1  0  0  0
 37 47  1  0  0  0
 37 66  1  0  0  0
 37109  1  0  0  0
 38 43  2  0  0  0
 38 46  1  0  0  0
 38 47  1  0  0  0
 39 64  1  0  0  0
 39 67  2  0  0  0
 40 52  1  0  0  0
 40 53  2  0  0  0
 40 58  1  0  0  0
 41110  1  0  0  0
 41111  1  0  0  0
 41112  1  0  0  0
 41 48  1  0  0  0
 42 43  1  0  0  0
 42 66  1  0  0  0
 42113  1  0  0  0
 42114  1  0  0  0
 43 44  1  0  0  0
 44115  1  0  0  0
 45 46  2  0  0  0
 45116  1  0  0  0
 46117  1  0  0  0
 47118  1  0  0  0
 47119  1  0  0  0
 48 56  1  0  0  0
 48 65  1  0  0  0
 48120  1  0  0  0
 49 50  1  0  0  0
 49 53  1  0  0  0
 49 64  1  0  0  0
 49121  1  0  0  0
 50 51  1  0  0  0
 50122  1  0  0  0
 50123  1  0  0  0
 51 52  1  0  0  0
 51124  1  0  0  0
 51125  1  0  0  0
 52126  1  0  0  0
 52127  1  0  0  0
 53 54  1  0  0  0
 54 55  2  0  0  0
 54128  1  0  0  0
 55 57  1  0  0  0
 55129  1  0  0  0
 56 69  2  0  0  0
 57 58  2  0  0  0
 57130  1  0  0  0
 58131  1  0  0  0
 59 60  1  0  0  0
 59 61  1  0  0  0
 59 62  1  0  0  0
 60132  1  0  0  0
 60133  1  0  0  0
 60134  1  0  0  0
 61135  1  0  0  0
 61136  1  0  0  0
 61137  1  0  0  0
 62138  1  0  0  0
 62139  1  0  0  0
 62140  1  0  0  0
 63 65  1  0  0  0
 63141  1  0  0  0
 63142  1  0  0  0
 63143  1  0  0  0
 64144  1  0  0  0
 65145  1  0  0  0
 68 82  1  0  0  0
 71 72  2  0  0  0
 71 76  1  0  0  0
 71146  1  0  0  0
 72 78  1  0  0  0
 72147  1  0  0  0
 73 76  2  0  0  0
 73 79  1  0  0  0
 73148  1  0  0  0
 74 77  1  0  0  0
 74 80  2  0  0  0
 74149  1  0  0  0
 75 77  2  0  0  0
 75 84  1  0  0  0
 75150  1  0  0  0
 76 81  1  0  0  0
 77 82  1  0  0  0
 78 79  2  0  0  0
 78 84  1  0  0  0
 79 86  1  0  0  0
 80 84  1  0  0  0
 80 85  1  0  0  0
 81 83  2  0  0  0
 82151  1  0  0  0
 82152  1  0  0  0
 83153  1  0  0  0
 85154  1  0  0  0
M  ISO  4   1 100  68 101  81 100  82 101
M  END
> <chiral flag>
0

> <version>
0

> <s_m_source_file>
/data/baiqing/PycharmProjects/Reinvent-master-3.2/result/LINK_invent/BTK/process_docking_weight1_custom_product_contain_oxygen_bond_distance_aromatic_linkinvent_7_9_3/rearranged_h_0082.sdf

> <i_m_source_file_index>
74

> <r_mmod_Potential_Energy-OPLS-2005>
216.340072631836

> <r_mmod_Stretch_Energy-OPLS-2005>
91.9359283447266

> <r_mmod_Bend_Energy-OPLS-2005>
147.067413330078

> <r_mmod_Torsional_Energy-OPLS-2005>
237.164611816406

> <r_mmod_Improper_Torsional_Energy-OPLS-2005>
2.8049430847168

> <r_mmod_Van_der_Waal_Energy-OPLS-2005>
143.686599731445

> <r_mmod_Electrostatic_Energy-OPLS-2005>
-247.51628112793

> <r_mmod_Solvation_Energy-OPLS-2005>
-206.657775878906

> <b_mmod_Minimization_Converged-OPLS-2005>
0

> <r_mmod_RMS_Derivative-OPLS-2005>
4.10959053039551

$$$$
74
                    3D
 Structure written by MMmdl.
150159  0  0  1  0            999 V2000
  -30.5745  -14.7407   20.4839 C   0  0  0  0  0  0
  -30.4502  -12.4545   19.4672 C   0  0  0  0  0  0
  -29.5164  -12.5204   18.2358 C   0  0  0  0  0  0
  -28.0410  -12.3408   18.6473 C   0  0  0  0  0  0
  -27.6515  -13.2228   19.8629 C   0  0  2  0  0  0
  -28.6976  -13.1093   20.9949 C   0  0  0  0  0  0
  -25.2546  -13.8173   20.5680 C   0  0  0  0  0  0
  -24.1817  -13.0431   20.9175 C   0  0  0  0  0  0
  -24.6399  -11.6907   20.8734 C   0  0  0  0  0  0
  -23.9068  -10.4291   21.0406 C   0  0  0  0  0  0
  -24.3618   -9.4206   21.9185 C   0  0  0  0  0  0
  -23.6292   -8.2243   22.0756 C   0  0  0  0  0  0
  -22.4275   -8.0282   21.3547 C   0  0  0  0  0  0
  -21.9909   -9.0256   20.4648 C   0  0  0  0  0  0
  -22.7239  -10.2133   20.3057 C   0  0  0  0  0  0
  -21.6854   -6.0733   22.5276 C   0  0  0  0  0  0
  -21.4015   -6.5638   23.8209 C   0  0  0  0  0  0
  -21.3659   -5.6790   24.9172 C   0  0  0  0  0  0
  -21.6045   -4.3052   24.7224 C   0  0  0  0  0  0
  -21.8820   -3.8145   23.4345 C   0  0  0  0  0  0
  -21.9193   -4.6961   22.3401 C   0  0  0  0  0  0
  -22.7840  -13.5223   21.1845 C   0  0  0  0  0  0
  -22.1663   -4.2148   21.0979 F   0  0  0  0  0  0
  -21.5627   -3.4537   25.7737 F   0  0  0  0  0  0
  -30.0039  -13.4868   20.4302 N   0  0  0  0  0  0
  -26.2986  -12.9366   20.3325 N   0  0  0  0  0  0
  -25.9332  -11.6514   20.5756 N   0  0  0  0  0  0
  -22.0484  -12.8223   22.0409 N   0  0  0  0  0  0
  -25.4243  -15.1893   20.4109 N   0  0  0  0  0  0
  -31.7324  -14.9193   20.0929 O   0  0  0  0  0  0
  -21.6640   -6.8879   21.4239 O   0  0  0  0  0  0
  -22.3522  -14.5530   20.6697 O   0  0  0  0  0  0
  -24.6313  -31.8549   23.1988 C   0  0  0  0  0  0
  -25.9134  -32.4755   23.8337 C   0  0  1  0  0  0
  -27.2245  -27.2669   20.1301 C   0  0  0  0  0  0
  -25.5926  -33.8556   24.2253 N   0  0  0  0  0  0
  -23.4298  -30.4769   21.5416 C   0  0  2  0  0  0
  -24.8817  -28.9274   20.1081 C   0  0  0  0  0  0
  -22.7509  -29.4593   22.4905 C   0  0  0  0  0  0
  -18.0292  -28.1389   22.8483 C   0  0  0  0  0  0
  -24.1489  -36.7287   23.2641 C   0  0  0  0  0  0
  -25.9763  -30.7687   21.3810 C   0  0  0  0  0  0
  -26.0531  -29.3920   20.7224 C   0  0  0  0  0  0
  -27.2300  -28.5730   20.7262 C   0  0  0  0  0  0
  -26.0356  -26.8757   19.4769 C   0  0  0  0  0  0
  -24.8775  -27.6762   19.4736 C   0  0  0  0  0  0
  -23.6502  -29.8122   20.1573 C   0  0  0  0  0  0
  -25.4115  -36.3069   24.0326 C   0  0  1  0  0  0
  -20.5898  -28.3699   23.1265 C   0  0  2  0  0  0
  -20.6780  -26.9414   22.5407 C   0  0  0  0  0  0
  -19.5754  -26.6380   21.5212 C   0  0  0  0  0  0
  -18.1935  -26.7929   22.1625 C   0  0  0  0  0  0
  -19.1546  -28.8862   23.2869 C   0  0  0  0  0  0
  -18.9467  -30.1463   23.8889 C   0  0  0  0  0  0
  -17.6465  -30.6589   24.0561 C   0  0  0  0  0  0
  -25.9054  -34.9439   23.5093 C   0  0  0  0  0  0
  -16.5356  -29.9086   23.6332 C   0  0  0  0  0  0
  -16.7277  -28.6503   23.0353 C   0  0  0  0  0  0
  -26.4499  -31.6583   25.0730 C   0  0  0  0  0  0
  -25.3718  -31.3742   26.1448 C   0  0  0  0  0  0
  -27.0351  -30.2996   24.6232 C   0  0  0  0  0  0
  -27.6046  -32.4333   25.7507 C   0  0  0  0  0  0
  -27.5575  -37.1801   24.8465 C   0  0  0  0  0  0
  -21.4214  -29.3045   22.3653 N   0  0  0  0  0  0
  -26.4290  -37.3766   23.9403 N   0  0  0  0  0  0
  -24.6981  -31.0510   22.0970 N   0  0  0  0  0  0
  -23.4204  -28.8127   23.3002 O   0  0  0  0  0  0
  -28.2722  -26.3168   20.1862 O   0  0  0  0  0  0
  -26.5630  -34.8915   22.4665 O   0  0  0  0  0  0
  -23.5460  -32.1370   23.7276 O   0  0  0  0  0  0
  -28.3663  -19.3119   21.2839 C   0  0  0  0  0  0
  -30.5718  -18.1533   20.0801 C   0  0  0  0  0  0
  -29.2173  -20.2521   20.6266 C   0  0  0  0  0  0
  -29.6864  -17.2540   20.7467 C   0  0  0  0  0  0
  -28.5756  -17.8999   21.3427 C   0  0  0  0  0  0
  -30.3400  -19.5824   20.0244 C   0  0  0  0  0  0
  -28.4270  -23.7356   20.5932 C   0  0  0  0  0  0
  -27.8868  -22.5307   21.2145 C   0  0  0  0  0  0
  -27.9250  -25.0330   20.7059 C   0  0  0  0  0  0
  -29.5367  -22.8558   19.9408 C   0  0  0  0  0  0
  -28.8791  -21.7111   20.6431 N   0  0  0  0  0  0
  -29.7373  -15.7720   20.8656 N   0  0  0  0  0  0
  -26.9227  -22.3732   21.9346 O   0  0  0  0  0  0
  -27.6669  -17.1332   21.9927 F   0  0  0  0  0  0
  -31.2447  -20.3411   19.3602 F   0  0  0  0  0  0
  -31.4873  -12.6037   19.1613 H   0  0  0  0  0  0
  -30.4138  -11.4658   19.9271 H   0  0  0  0  0  0
  -29.7962  -11.7575   17.5081 H   0  0  0  0  0  0
  -29.6406  -13.4810   17.7333 H   0  0  0  0  0  0
  -27.8927  -11.2887   18.8929 H   0  0  0  0  0  0
  -27.3846  -12.5509   17.8022 H   0  0  0  0  0  0
  -27.6577  -14.2528   19.5056 H   0  0  0  0  0  0
  -28.7329  -12.0907   21.3834 H   0  0  0  0  0  0
  -28.4257  -13.7400   21.8426 H   0  0  0  0  0  0
  -25.2763   -9.5682   22.4758 H   0  0  0  0  0  0
  -23.9999   -7.4635   22.7475 H   0  0  0  0  0  0
  -21.0839   -8.8778   19.8954 H   0  0  0  0  0  0
  -22.3701  -10.9673   19.6167 H   0  0  0  0  0  0
  -21.2009   -7.6147   23.9715 H   0  0  0  0  0  0
  -21.1480   -6.0520   25.9075 H   0  0  0  0  0  0
  -22.0600   -2.7606   23.2848 H   0  0  0  0  0  0
  -22.4094  -11.9883   22.4798 H   0  0  0  0  0  0
  -21.1107  -13.1264   22.2619 H   0  0  0  0  0  0
  -24.6649  -15.8468   20.5492 H   0  0  0  0  0  0
  -26.2906  -15.6386   20.1455 H   0  0  0  0  0  0
  -26.7202  -32.5407   23.1081 H   0  0  0  0  0  0
  -25.0056  -33.9693   25.0387 H   0  0  0  0  0  0
  -22.7263  -31.2992   21.3952 H   0  0  0  0  0  0
  -23.3745  -35.9628   23.3313 H   0  0  0  0  0  0
  -24.3575  -36.8901   22.2052 H   0  0  0  0  0  0
  -23.7252  -37.6495   23.6663 H   0  0  0  0  0  0
  -26.1159  -31.5303   20.6125 H   0  0  0  0  0  0
  -26.8529  -30.8173   22.0151 H   0  0  0  0  0  0
  -28.1229  -28.9165   21.2292 H   0  0  0  0  0  0
  -25.9893  -25.9105   18.9925 H   0  0  0  0  0  0
  -23.9824  -27.3152   18.9853 H   0  0  0  0  0  0
  -23.7730  -30.5896   19.4024 H   0  0  0  0  0  0
  -22.7695  -29.2448   19.8511 H   0  0  0  0  0  0
  -25.1299  -36.1919   25.0819 H   0  0  0  0  0  0
  -20.9988  -28.3278   24.1385 H   0  0  0  0  0  0
  -20.5676  -26.2310   23.3613 H   0  0  0  0  0  0
  -21.6649  -26.7435   22.1205 H   0  0  0  0  0  0
  -19.6916  -25.6289   21.1248 H   0  0  0  0  0  0
  -19.6689  -27.3187   20.6740 H   0  0  0  0  0  0
  -17.4202  -26.6671   21.4032 H   0  0  0  0  0  0
  -18.0337  -26.0077   22.9027 H   0  0  0  0  0  0
  -19.7942  -30.7281   24.2253 H   0  0  0  0  0  0
  -17.5019  -31.6269   24.5163 H   0  0  0  0  0  0
  -15.5358  -30.2986   23.7663 H   0  0  0  0  0  0
  -15.8676  -28.0820   22.7074 H   0  0  0  0  0  0
  -24.5887  -30.7101   25.7772 H   0  0  0  0  0  0
  -24.8920  -32.2920   26.4860 H   0  0  0  0  0  0
  -25.8026  -30.8921   27.0231 H   0  0  0  0  0  0
  -26.2945  -29.6741   24.1235 H   0  0  0  0  0  0
  -27.3999  -29.7263   25.4764 H   0  0  0  0  0  0
  -27.8837  -30.4264   23.9506 H   0  0  0  0  0  0
  -27.2640  -33.3632   26.2074 H   0  0  0  0  0  0
  -28.3861  -32.6896   25.0342 H   0  0  0  0  0  0
  -28.0712  -31.8470   26.5432 H   0  0  0  0  0  0
  -28.2602  -38.0088   24.7494 H   0  0  0  0  0  0
  -28.1062  -36.2618   24.6317 H   0  0  0  0  0  0
  -27.2291  -37.1482   25.8868 H   0  0  0  0  0  0
  -20.9400  -29.8774   21.6860 H   0  0  0  0  0  0
  -26.0170  -38.2842   24.1391 H   0  0  0  0  0  0
  -27.4819  -19.6826   21.7789 H   0  0  0  0  0  0
  -31.4460  -17.7562   19.5871 H   0  0  0  0  0  0
  -27.0536  -25.1399   21.3399 H   0  0  0  0  0  0
  -30.5622  -23.0040   20.2828 H   0  0  0  0  0  0
  -29.5116  -22.7347   18.8568 H   0  0  0  0  0  0
  -28.8826  -15.4094   21.2614 H   0  0  0  0  0  0
  1 25  1  0  0  0
  1 30  2  0  0  0
  1 82  1  0  0  0
  2  3  1  0  0  0
  2 25  1  0  0  0
  2 86  1  0  0  0
  2 87  1  0  0  0
  3  4  1  0  0  0
  3 88  1  0  0  0
  3 89  1  0  0  0
  4  5  1  0  0  0
  4 90  1  0  0  0
  4 91  1  0  0  0
  5  6  1  0  0  0
  5 26  1  0  0  0
  5 92  1  0  0  0
  6 25  1  0  0  0
  6 93  1  0  0  0
  6 94  1  0  0  0
  7  8  2  0  0  0
  7 26  1  0  0  0
  7 29  1  0  0  0
  8  9  1  0  0  0
  8 22  1  0  0  0
  9 10  1  0  0  0
  9 27  2  0  0  0
 10 11  2  0  0  0
 10 15  1  0  0  0
 11 12  1  0  0  0
 11 95  1  0  0  0
 12 13  2  0  0  0
 12 96  1  0  0  0
 13 14  1  0  0  0
 13 31  1  0  0  0
 14 15  2  0  0  0
 14 97  1  0  0  0
 15 98  1  0  0  0
 16 17  2  0  0  0
 16 21  1  0  0  0
 16 31  1  0  0  0
 17 18  1  0  0  0
 17 99  1  0  0  0
 18 19  2  0  0  0
 18100  1  0  0  0
 19 20  1  0  0  0
 19 24  1  0  0  0
 20 21  2  0  0  0
 20101  1  0  0  0
 21 23  1  0  0  0
 22 28  1  0  0  0
 22 32  2  0  0  0
 26 27  1  0  0  0
 28102  1  0  0  0
 28103  1  0  0  0
 29104  1  0  0  0
 29105  1  0  0  0
 33 34  1  0  0  0
 33 66  1  0  0  0
 33 70  2  0  0  0
 34 36  1  0  0  0
 34 59  1  0  0  0
 34106  1  0  0  0
 35 44  2  0  0  0
 35 45  1  0  0  0
 35 68  1  0  0  0
 36 56  1  0  0  0
 36107  1  0  0  0
 37 39  1  0  0  0
 37 47  1  0  0  0
 37 66  1  0  0  0
 37108  1  0  0  0
 38 43  2  0  0  0
 38 46  1  0  0  0
 38 47  1  0  0  0
 39 64  1  0  0  0
 39 67  2  0  0  0
 40 52  1  0  0  0
 40 53  2  0  0  0
 40 58  1  0  0  0
 41109  1  0  0  0
 41110  1  0  0  0
 41111  1  0  0  0
 41 48  1  0  0  0
 42 43  1  0  0  0
 42 66  1  0  0  0
 42112  1  0  0  0
 42113  1  0  0  0
 43 44  1  0  0  0
 44114  1  0  0  0
 45 46  2  0  0  0
 45115  1  0  0  0
 46116  1  0  0  0
 47117  1  0  0  0
 47118  1  0  0  0
 48 56  1  0  0  0
 48 65  1  0  0  0
 48119  1  0  0  0
 49 50  1  0  0  0
 49 53  1  0  0  0
 49 64  1  0  0  0
 49120  1  0  0  0
 50 51  1  0  0  0
 50121  1  0  0  0
 50122  1  0  0  0
 51 52  1  0  0  0
 51123  1  0  0  0
 51124  1  0  0  0
 52125  1  0  0  0
 52126  1  0  0  0
 53 54  1  0  0  0
 54 55  2  0  0  0
 54127  1  0  0  0
 55 57  1  0  0  0
 55128  1  0  0  0
 56 69  2  0  0  0
 57 58  2  0  0  0
 57129  1  0  0  0
 58130  1  0  0  0
 59 60  1  0  0  0
 59 61  1  0  0  0
 59 62  1  0  0  0
 60131  1  0  0  0
 60132  1  0  0  0
 60133  1  0  0  0
 61134  1  0  0  0
 61135  1  0  0  0
 61136  1  0  0  0
 62137  1  0  0  0
 62138  1  0  0  0
 62139  1  0  0  0
 63 65  1  0  0  0
 63140  1  0  0  0
 63141  1  0  0  0
 63142  1  0  0  0
 64143  1  0  0  0
 65144  1  0  0  0
 68 79  1  0  0  0
 71 73  2  0  0  0
 71 75  1  0  0  0
 71145  1  0  0  0
 72 74  1  0  0  0
 72 76  2  0  0  0
 72146  1  0  0  0
 73 76  1  0  0  0
 73 81  1  0  0  0
 74 75  2  0  0  0
 74 82  1  0  0  0
 75 84  1  0  0  0
 76 85  1  0  0  0
 77 78  1  0  0  0
 77 79  2  0  0  0
 77 80  1  0  0  0
 78 81  1  0  0  0
 78 83  2  0  0  0
 79147  1  0  0  0
 80 81  1  0  0  0
 80148  1  0  0  0
 80149  1  0  0  0
 82150  1  0  0  0
M  ISO  4   1 100  68 101  79 101  82 100
M  END
> <chiral flag>
0

> <version>
0

> <s_m_source_file>
/data/baiqing/PycharmProjects/Reinvent-master-3.2/result/LINK_invent/BTK/process_docking_weight1_custom_product_contain_oxygen_bond_distance_aromatic_linkinvent_7_9_3/rearranged_h_0082.sdf

> <i_m_source_file_index>
75

> <r_mmod_Potential_Energy-OPLS-2005>
188.832778930664

> <r_mmod_Stretch_Energy-OPLS-2005>
106.730606079102

> <r_mmod_Bend_Energy-OPLS-2005>
272.752838134766

> <r_mmod_Torsional_Energy-OPLS-2005>
218.568298339844

> <r_mmod_Improper_Torsional_Energy-OPLS-2005>
3.29915285110474

> <r_mmod_Van_der_Waal_Energy-OPLS-2005>
134.452575683594

> <r_mmod_Electrostatic_Energy-OPLS-2005>
-428.145324707031

> <r_mmod_Solvation_Energy-OPLS-2005>
-206.978637695312

> <b_mmod_Minimization_Converged-OPLS-2005>
0

> <r_mmod_RMS_Derivative-OPLS-2005>
0.603770196437836

$$$$
75
                    3D
 Structure written by MMmdl.
152161  0  0  1  0            999 V2000
  -30.6606  -14.6100   20.4888 C   0  0  0  0  0  0
  -30.4239  -12.3669   19.4602 C   0  0  0  0  0  0
  -29.5028  -12.4941   18.2273 C   0  0  0  0  0  0
  -28.0251  -12.3417   18.6377 C   0  0  0  0  0  0
  -27.6502  -13.2188   19.8628 C   0  0  2  0  0  0
  -28.6939  -13.0865   20.9947 C   0  0  0  0  0  0
  -25.2551  -13.8181   20.5715 C   0  0  0  0  0  0
  -24.1817  -13.0440   20.9193 C   0  0  0  0  0  0
  -24.6389  -11.6910   20.8744 C   0  0  0  0  0  0
  -23.9057  -10.4298   21.0405 C   0  0  0  0  0  0
  -24.3613   -9.4211   21.9182 C   0  0  0  0  0  0
  -23.6291   -8.2247   22.0752 C   0  0  0  0  0  0
  -22.4277   -8.0281   21.3541 C   0  0  0  0  0  0
  -21.9906   -9.0254   20.4644 C   0  0  0  0  0  0
  -22.7230  -10.2133   20.3054 C   0  0  0  0  0  0
  -21.6850   -6.0733   22.5282 C   0  0  0  0  0  0
  -21.4014   -6.5640   23.8213 C   0  0  0  0  0  0
  -21.3660   -5.6791   24.9179 C   0  0  0  0  0  0
  -21.6045   -4.3055   24.7225 C   0  0  0  0  0  0
  -21.8822   -3.8144   23.4348 C   0  0  0  0  0  0
  -21.9196   -4.6962   22.3404 C   0  0  0  0  0  0
  -22.7848  -13.5232   21.1866 C   0  0  0  0  0  0
  -22.1665   -4.2149   21.0978 F   0  0  0  0  0  0
  -21.5628   -3.4540   25.7737 F   0  0  0  0  0  0
  -30.0126  -13.4037   20.4287 N   0  0  0  0  0  0
  -26.2973  -12.9365   20.3330 N   0  0  0  0  0  0
  -25.9313  -11.6516   20.5760 N   0  0  0  0  0  0
  -22.0484  -12.8209   22.0407 N   0  0  0  0  0  0
  -25.4260  -15.1901   20.4148 N   0  0  0  0  0  0
  -31.8353  -14.6981   20.1180 O   0  0  0  0  0  0
  -21.6639   -6.8877   21.4243 O   0  0  0  0  0  0
  -22.3526  -14.5539   20.6715 O   0  0  0  0  0  0
  -24.6416  -31.8683   23.2099 C   0  0  0  0  0  0
  -25.9220  -32.4844   23.8441 C   0  0  1  0  0  0
  -27.2178  -27.3459   20.1141 C   0  0  0  0  0  0
  -25.5995  -33.8631   24.2348 N   0  0  0  0  0  0
  -23.4503  -30.4936   21.5652 C   0  0  2  0  0  0
  -24.8731  -28.9534   20.1113 C   0  0  0  0  0  0
  -22.7809  -29.4811   22.5196 C   0  0  0  0  0  0
  -17.9946  -28.1202   22.8707 C   0  0  0  0  0  0
  -24.1487  -36.7301   23.2634 C   0  0  0  0  0  0
  -25.9770  -30.8040   21.3757 C   0  0  0  0  0  0
  -26.0451  -29.4358   20.7115 C   0  0  0  0  0  0
  -27.2264  -28.6410   20.7068 C   0  0  0  0  0  0
  -26.0334  -26.9117   19.4841 C   0  0  0  0  0  0
  -24.8667  -27.6958   19.4854 C   0  0  0  0  0  0
  -23.6407  -29.8271   20.1765 C   0  0  0  0  0  0
  -25.4114  -36.3112   24.0333 C   0  0  1  0  0  0
  -20.4810  -28.4583   22.7795 C   0  0  2  0  0  0
  -20.6916  -26.9609   22.5318 C   0  0  0  0  0  0
  -19.5550  -26.4571   21.6179 C   0  0  0  0  0  0
  -18.1574  -26.7514   22.2047 C   0  0  0  0  0  0
  -19.1160  -28.8976   23.2505 C   0  0  0  0  0  0
  -18.9354  -30.1484   23.8755 C   0  0  0  0  0  0
  -17.6372  -30.6503   24.0793 C   0  0  0  0  0  0
  -25.9066  -34.9484   23.5129 C   0  0  0  0  0  0
  -16.5205  -29.8957   23.6743 C   0  0  0  0  0  0
  -16.6989  -28.6294   23.0880 C   0  0  0  0  0  0
  -26.4526  -31.6611   25.0797 C   0  0  0  0  0  0
  -25.3725  -31.3743   26.1488 C   0  0  0  0  0  0
  -27.0355  -30.3036   24.6237 C   0  0  0  0  0  0
  -27.6078  -32.4330   25.7588 C   0  0  0  0  0  0
  -27.5584  -37.1819   24.8469 C   0  0  0  0  0  0
  -21.4593  -29.4429   22.3932 N   0  0  0  0  0  0
  -26.4299  -37.3800   23.9409 N   0  0  0  0  0  0
  -24.7112  -31.0704   22.1076 N   0  0  0  0  0  0
  -23.4258  -28.7608   23.2834 O   0  0  0  0  0  0
  -28.2577  -26.4227   20.2189 O   0  0  0  0  0  0
  -26.5607  -34.8939   22.4677 O   0  0  0  0  0  0
  -23.5555  -32.1448   23.7395 O   0  0  0  0  0  0
  -27.1645  -18.6413   22.3625 C   0  0  0  0  0  0
  -28.0871  -17.6911   21.9088 C   0  0  0  0  0  0
  -27.3207  -20.0021   22.0481 C   0  0  0  0  0  0
  -29.2950  -19.5006   20.7888 C   0  0  0  0  0  0
  -29.1759  -18.0917   21.1085 C   0  0  0  0  0  0
  -28.3856  -20.5192   21.2610 C   0  0  0  0  0  0
  -28.1978  -23.9990   21.0372 C   0  0  0  0  0  0
  -28.9054  -23.0147   20.2186 C   0  0  0  0  0  0
  -27.9401  -25.3500   21.0653 C   0  0  0  0  0  0
  -30.2137  -17.0425   20.6810 C   0  0  0  0  0  0
  -27.6919  -22.8897   21.9448 C   0  0  0  0  0  0
  -28.4295  -21.9746   21.0585 N   0  0  0  0  0  0
  -29.8995  -15.7089   20.7958 N   0  0  0  0  0  0
  -29.5861  -23.1204   19.2186 O   0  0  0  0  0  0
  -31.2867  -17.4558   20.2276 O   0  0  0  0  0  0
  -31.4694  -12.4590   19.1595 H   0  0  0  0  0  0
  -30.3316  -11.3757   19.9073 H   0  0  0  0  0  0
  -29.7621  -11.7408   17.4819 H   0  0  0  0  0  0
  -29.6563  -13.4625   17.7487 H   0  0  0  0  0  0
  -27.8600  -11.2894   18.8724 H   0  0  0  0  0  0
  -27.3716  -12.5693   17.7951 H   0  0  0  0  0  0
  -27.6685  -14.2527   19.5173 H   0  0  0  0  0  0
  -28.6931  -12.0719   21.3950 H   0  0  0  0  0  0
  -28.4464  -13.7397   21.8316 H   0  0  0  0  0  0
  -25.2762   -9.5689   22.4751 H   0  0  0  0  0  0
  -24.0008   -7.4636   22.7463 H   0  0  0  0  0  0
  -21.0843   -8.8762   19.8945 H   0  0  0  0  0  0
  -22.3689  -10.9671   19.6159 H   0  0  0  0  0  0
  -21.2007   -7.6149   23.9717 H   0  0  0  0  0  0
  -21.1478   -6.0522   25.9077 H   0  0  0  0  0  0
  -22.0600   -2.7610   23.2844 H   0  0  0  0  0  0
  -22.4113  -11.9873   22.4801 H   0  0  0  0  0  0
  -21.1102  -13.1226   22.2625 H   0  0  0  0  0  0
  -24.6550  -15.8388   20.5257 H   0  0  0  0  0  0
  -26.2608  -15.6321   20.0541 H   0  0  0  0  0  0
  -26.7320  -32.5507   23.1228 H   0  0  0  0  0  0
  -25.0155  -33.9777   25.0503 H   0  0  0  0  0  0
  -22.7528  -31.3226   21.4196 H   0  0  0  0  0  0
  -23.3762  -35.9624   23.3309 H   0  0  0  0  0  0
  -24.3576  -36.8905   22.2048 H   0  0  0  0  0  0
  -23.7229  -37.6507   23.6638 H   0  0  0  0  0  0
  -26.1056  -31.5723   20.6122 H   0  0  0  0  0  0
  -26.8601  -30.8490   22.0022 H   0  0  0  0  0  0
  -28.1216  -28.9895   21.2012 H   0  0  0  0  0  0
  -25.9994  -25.9292   19.0350 H   0  0  0  0  0  0
  -23.9658  -27.3162   19.0212 H   0  0  0  0  0  0
  -23.7390  -30.6007   19.4148 H   0  0  0  0  0  0
  -22.7588  -29.2500   19.8914 H   0  0  0  0  0  0
  -25.1289  -36.1984   25.0829 H   0  0  0  0  0  0
  -20.1626  -28.6786   21.7597 H   0  0  0  0  0  0
  -20.6751  -26.4256   23.4818 H   0  0  0  0  0  0
  -21.6618  -26.7646   22.0745 H   0  0  0  0  0  0
  -19.6604  -25.3863   21.4420 H   0  0  0  0  0  0
  -19.6393  -26.9182   20.6323 H   0  0  0  0  0  0
  -17.4026  -26.6301   21.4256 H   0  0  0  0  0  0
  -17.9299  -26.0007   22.9630 H   0  0  0  0  0  0
  -19.7912  -30.7515   24.1486 H   0  0  0  0  0  0
  -17.4977  -31.6210   24.5361 H   0  0  0  0  0  0
  -15.5236  -30.2834   23.8282 H   0  0  0  0  0  0
  -15.8325  -28.0520   22.7943 H   0  0  0  0  0  0
  -24.5908  -30.7092   25.7792 H   0  0  0  0  0  0
  -24.8898  -32.2907   26.4901 H   0  0  0  0  0  0
  -25.8014  -30.8921   27.0282 H   0  0  0  0  0  0
  -26.2941  -29.6823   24.1202 H   0  0  0  0  0  0
  -27.3987  -29.7256   25.4747 H   0  0  0  0  0  0
  -27.8839  -30.4324   23.9514 H   0  0  0  0  0  0
  -27.2688  -33.3636   26.2161 H   0  0  0  0  0  0
  -28.3902  -32.6892   25.0425 H   0  0  0  0  0  0
  -28.0731  -31.8454   26.5514 H   0  0  0  0  0  0
  -28.2612  -38.0106   24.7517 H   0  0  0  0  0  0
  -28.1073  -36.2643   24.6299 H   0  0  0  0  0  0
  -27.2302  -37.1475   25.8872 H   0  0  0  0  0  0
  -21.0814  -30.1532   21.7808 H   0  0  0  0  0  0
  -26.0190  -38.2885   24.1398 H   0  0  0  0  0  0
  -26.3311  -18.3290   22.9776 H   0  0  0  0  0  0
  -27.9464  -16.6607   22.2021 H   0  0  0  0  0  0
  -26.5646  -20.6555   22.4529 H   0  0  0  0  0  0
  -30.1400  -19.8136   20.1906 H   0  0  0  0  0  0
  -27.3173  -25.7072   21.8762 H   0  0  0  0  0  0
  -26.6124  -22.7313   21.9230 H   0  0  0  0  0  0
  -28.0625  -22.8687   22.9708 H   0  0  0  0  0  0
  -28.9686  -15.5149   21.1189 H   0  0  0  0  0  0
  1 25  1  0  0  0
  1 30  2  0  0  0
  1 83  1  0  0  0
  2  3  1  0  0  0
  2 25  1  0  0  0
  2 86  1  0  0  0
  2 87  1  0  0  0
  3  4  1  0  0  0
  3 88  1  0  0  0
  3 89  1  0  0  0
  4  5  1  0  0  0
  4 90  1  0  0  0
  4 91  1  0  0  0
  5  6  1  0  0  0
  5 26  1  0  0  0
  5 92  1  0  0  0
  6 25  1  0  0  0
  6 93  1  0  0  0
  6 94  1  0  0  0
  7  8  2  0  0  0
  7 26  1  0  0  0
  7 29  1  0  0  0
  8  9  1  0  0  0
  8 22  1  0  0  0
  9 10  1  0  0  0
  9 27  2  0  0  0
 10 11  2  0  0  0
 10 15  1  0  0  0
 11 12  1  0  0  0
 11 95  1  0  0  0
 12 13  2  0  0  0
 12 96  1  0  0  0
 13 14  1  0  0  0
 13 31  1  0  0  0
 14 15  2  0  0  0
 14 97  1  0  0  0
 15 98  1  0  0  0
 16 17  2  0  0  0
 16 21  1  0  0  0
 16 31  1  0  0  0
 17 18  1  0  0  0
 17 99  1  0  0  0
 18 19  2  0  0  0
 18100  1  0  0  0
 19 20  1  0  0  0
 19 24  1  0  0  0
 20 21  2  0  0  0
 20101  1  0  0  0
 21 23  1  0  0  0
 22 28  1  0  0  0
 22 32  2  0  0  0
 26 27  1  0  0  0
 28102  1  0  0  0
 28103  1  0  0  0
 29104  1  0  0  0
 29105  1  0  0  0
 33 34  1  0  0  0
 33 66  1  0  0  0
 33 70  2  0  0  0
 34 36  1  0  0  0
 34 59  1  0  0  0
 34106  1  0  0  0
 35 44  2  0  0  0
 35 45  1  0  0  0
 35 68  1  0  0  0
 36 56  1  0  0  0
 36107  1  0  0  0
 37 39  1  0  0  0
 37 47  1  0  0  0
 37 66  1  0  0  0
 37108  1  0  0  0
 38 43  2  0  0  0
 38 46  1  0  0  0
 38 47  1  0  0  0
 39 64  1  0  0  0
 39 67  2  0  0  0
 40 52  1  0  0  0
 40 53  2  0  0  0
 40 58  1  0  0  0
 41109  1  0  0  0
 41110  1  0  0  0
 41111  1  0  0  0
 41 48  1  0  0  0
 42 43  1  0  0  0
 42 66  1  0  0  0
 42112  1  0  0  0
 42113  1  0  0  0
 43 44  1  0  0  0
 44114  1  0  0  0
 45 46  2  0  0  0
 45115  1  0  0  0
 46116  1  0  0  0
 47117  1  0  0  0
 47118  1  0  0  0
 48 56  1  0  0  0
 48 65  1  0  0  0
 48119  1  0  0  0
 49 50  1  0  0  0
 49 53  1  0  0  0
 49 64  1  0  0  0
 49120  1  0  0  0
 50 51  1  0  0  0
 50121  1  0  0  0
 50122  1  0  0  0
 51 52  1  0  0  0
 51123  1  0  0  0
 51124  1  0  0  0
 52125  1  0  0  0
 52126  1  0  0  0
 53 54  1  0  0  0
 54 55  2  0  0  0
 54127  1  0  0  0
 55 57  1  0  0  0
 55128  1  0  0  0
 56 69  2  0  0  0
 57 58  2  0  0  0
 57129  1  0  0  0
 58130  1  0  0  0
 59 60  1  0  0  0
 59 61  1  0  0  0
 59 62  1  0  0  0
 60131  1  0  0  0
 60132  1  0  0  0
 60133  1  0  0  0
 61134  1  0  0  0
 61135  1  0  0  0
 61136  1  0  0  0
 62137  1  0  0  0
 62138  1  0  0  0
 62139  1  0  0  0
 63 65  1  0  0  0
 63140  1  0  0  0
 63141  1  0  0  0
 63142  1  0  0  0
 64143  1  0  0  0
 65144  1  0  0  0
 68 79  1  0  0  0
 71 72  2  0  0  0
 71 73  1  0  0  0
 71145  1  0  0  0
 72 75  1  0  0  0
 72146  1  0  0  0
 73 76  2  0  0  0
 73147  1  0  0  0
 74 75  2  0  0  0
 74 76  1  0  0  0
 74148  1  0  0  0
 75 80  1  0  0  0
 76 82  1  0  0  0
 77 78  1  0  0  0
 77 79  2  0  0  0
 77 81  1  0  0  0
 78 82  1  0  0  0
 78 84  2  0  0  0
 79149  1  0  0  0
 80 83  1  0  0  0
 80 85  2  0  0  0
 81 82  1  0  0  0
 81150  1  0  0  0
 81151  1  0  0  0
 83152  1  0  0  0
M  ISO  4   1 100  68 101  79 101  83 100
M  END
> <chiral flag>
0

> <version>
0

> <s_m_source_file>
/data/baiqing/PycharmProjects/Reinvent-master-3.2/result/LINK_invent/BTK/process_docking_weight1_custom_product_contain_oxygen_bond_distance_aromatic_linkinvent_7_9_3/rearranged_h_0082.sdf

> <i_m_source_file_index>
76

> <r_mmod_Potential_Energy-OPLS-2005>
189.944732666016

> <r_mmod_Stretch_Energy-OPLS-2005>
67.1467590332031

> <r_mmod_Bend_Energy-OPLS-2005>
329.0849609375

> <r_mmod_Torsional_Energy-OPLS-2005>
239.714813232422

> <r_mmod_Improper_Torsional_Energy-OPLS-2005>
6.25810098648071

> <r_mmod_Van_der_Waal_Energy-OPLS-2005>
156.312866210938

> <r_mmod_Electrostatic_Energy-OPLS-2005>
-426.518463134766

> <r_mmod_Solvation_Energy-OPLS-2005>
-251.006057739258

> <b_mmod_Minimization_Converged-OPLS-2005>
0

> <r_mmod_RMS_Derivative-OPLS-2005>
2.41813516616821

$$$$
76
                    3D
 Structure written by MMmdl.
153162  0  0  1  0            999 V2000
  -30.5640  -14.7456   20.4900 C   0  0  0  0  0  0
  -30.4527  -12.4593   19.4656 C   0  0  0  0  0  0
  -29.5170  -12.5209   18.2349 C   0  0  0  0  0  0
  -28.0422  -12.3369   18.6474 C   0  0  0  0  0  0
  -27.6516  -13.2197   19.8616 C   0  0  2  0  0  0
  -28.6970  -13.1016   20.9934 C   0  0  0  0  0  0
  -25.2563  -13.8169   20.5686 C   0  0  0  0  0  0
  -24.1834  -13.0436   20.9205 C   0  0  0  0  0  0
  -24.6402  -11.6906   20.8746 C   0  0  0  0  0  0
  -23.9069  -10.4290   21.0406 C   0  0  0  0  0  0
  -24.3617   -9.4204   21.9185 C   0  0  0  0  0  0
  -23.6291   -8.2241   22.0754 C   0  0  0  0  0  0
  -22.4274   -8.0281   21.3543 C   0  0  0  0  0  0
  -21.9909   -9.0255   20.4647 C   0  0  0  0  0  0
  -22.7239  -10.2134   20.3057 C   0  0  0  0  0  0
  -21.6852   -6.0736   22.5277 C   0  0  0  0  0  0
  -21.4014   -6.5639   23.8212 C   0  0  0  0  0  0
  -21.3660   -5.6792   24.9174 C   0  0  0  0  0  0
  -21.6044   -4.3055   24.7225 C   0  0  0  0  0  0
  -21.8820   -3.8146   23.4346 C   0  0  0  0  0  0
  -21.9193   -4.6964   22.3401 C   0  0  0  0  0  0
  -22.7855  -13.5230   21.1864 C   0  0  0  0  0  0
  -22.1662   -4.2149   21.0980 F   0  0  0  0  0  0
  -21.5628   -3.4539   25.7738 F   0  0  0  0  0  0
  -30.0022  -13.4876   20.4309 N   0  0  0  0  0  0
  -26.2985  -12.9350   20.3307 N   0  0  0  0  0  0
  -25.9332  -11.6506   20.5755 N   0  0  0  0  0  0
  -22.0493  -12.8221   22.0415 N   0  0  0  0  0  0
  -25.4278  -15.1888   20.4071 N   0  0  0  0  0  0
  -31.7185  -14.9352   20.0932 O   0  0  0  0  0  0
  -21.6638   -6.8877   21.4239 O   0  0  0  0  0  0
  -22.3541  -14.5533   20.6707 O   0  0  0  0  0  0
  -24.6322  -31.8546   23.1977 C   0  0  0  0  0  0
  -25.9142  -32.4754   23.8332 C   0  0  1  0  0  0
  -27.2265  -27.2653   20.1319 C   0  0  0  0  0  0
  -25.5936  -33.8558   24.2256 N   0  0  0  0  0  0
  -23.4304  -30.4764   21.5404 C   0  0  2  0  0  0
  -24.8819  -28.9229   20.1103 C   0  0  0  0  0  0
  -22.7509  -29.4603   22.4904 C   0  0  0  0  0  0
  -18.0293  -28.1391   22.8484 C   0  0  0  0  0  0
  -24.1488  -36.7282   23.2636 C   0  0  0  0  0  0
  -25.9765  -30.7687   21.3781 C   0  0  0  0  0  0
  -26.0533  -29.3906   20.7220 C   0  0  0  0  0  0
  -27.2318  -28.5739   20.7230 C   0  0  0  0  0  0
  -26.0354  -26.8654   19.4908 C   0  0  0  0  0  0
  -24.8775  -27.6676   19.4829 C   0  0  0  0  0  0
  -23.6507  -29.8079   20.1577 C   0  0  0  0  0  0
  -25.4115  -36.3068   24.0325 C   0  0  1  0  0  0
  -20.5898  -28.3709   23.1260 C   0  0  2  0  0  0
  -20.6782  -26.9425   22.5403 C   0  0  0  0  0  0
  -19.5757  -26.6388   21.5206 C   0  0  0  0  0  0
  -18.1938  -26.7933   22.1624 C   0  0  0  0  0  0
  -19.1546  -28.8867   23.2867 C   0  0  0  0  0  0
  -18.9468  -30.1464   23.8894 C   0  0  0  0  0  0
  -17.6468  -30.6592   24.0564 C   0  0  0  0  0  0
  -25.9059  -34.9441   23.5092 C   0  0  0  0  0  0
  -16.5359  -29.9090   23.6329 C   0  0  0  0  0  0
  -16.7279  -28.6503   23.0358 C   0  0  0  0  0  0
  -26.4507  -31.6580   25.0723 C   0  0  0  0  0  0
  -25.3725  -31.3731   26.1440 C   0  0  0  0  0  0
  -27.0351  -30.2994   24.6211 C   0  0  0  0  0  0
  -27.6063  -32.4315   25.7496 C   0  0  0  0  0  0
  -27.5581  -37.1791   24.8461 C   0  0  0  0  0  0
  -21.4215  -29.3053   22.3646 N   0  0  0  0  0  0
  -26.4285  -37.3772   23.9413 N   0  0  0  0  0  0
  -24.6986  -31.0510   22.0952 N   0  0  0  0  0  0
  -23.4197  -28.8143   23.3011 O   0  0  0  0  0  0
  -28.2825  -26.3255   20.1687 O   0  0  0  0  0  0
  -26.5636  -34.8917   22.4663 O   0  0  0  0  0  0
  -23.5471  -32.1367   23.7270 O   0  0  0  0  0  0
  -30.1231  -19.5338   19.8623 C   0  0  0  0  0  0
  -30.3357  -18.1049   19.9292 C   0  0  0  0  0  0
  -28.5835  -19.3933   21.6237 C   0  0  0  0  0  0
  -28.7614  -17.9689   21.7253 C   0  0  0  0  0  0
  -29.2210  -20.2711   20.6983 C   0  0  0  0  0  0
  -29.6532  -17.2559   20.8531 C   0  0  0  0  0  0
  -28.4559  -23.7630   20.6502 C   0  0  0  0  0  0
  -28.0371  -22.5956   21.4199 C   0  0  0  0  0  0
  -27.9834  -17.2484   22.7759 C   0  0  0  0  0  0
  -27.9999  -25.0758   20.7940 C   0  0  0  0  0  0
  -29.4126  -22.8351   19.8385 C   0  0  0  0  0  0
  -27.2545  -17.7818   23.6651 N   0  0  0  0  0  0
  -28.8986  -21.7329   20.7084 N   0  0  0  0  0  0
  -29.7173  -15.7614   20.9011 N   0  0  0  0  0  0
  -27.2302  -22.4871   22.3196 O   0  0  0  0  0  0
  -31.4885  -12.6148   19.1595 H   0  0  0  0  0  0
  -30.4226  -11.4696   19.9242 H   0  0  0  0  0  0
  -29.7988  -11.7578   17.5083 H   0  0  0  0  0  0
  -29.6375  -13.4814   17.7314 H   0  0  0  0  0  0
  -27.8981  -11.2847   18.8967 H   0  0  0  0  0  0
  -27.3834  -12.5414   17.8025 H   0  0  0  0  0  0
  -27.6596  -14.2494   19.5044 H   0  0  0  0  0  0
  -28.7363  -12.0798   21.3735 H   0  0  0  0  0  0
  -28.4221  -13.7210   21.8480 H   0  0  0  0  0  0
  -25.2761   -9.5680   22.4760 H   0  0  0  0  0  0
  -24.0000   -7.4631   22.7471 H   0  0  0  0  0  0
  -21.0842   -8.8775   19.8951 H   0  0  0  0  0  0
  -22.3698  -10.9675   19.6169 H   0  0  0  0  0  0
  -21.2006   -7.6147   23.9715 H   0  0  0  0  0  0
  -21.1481   -6.0523   25.9077 H   0  0  0  0  0  0
  -22.0600   -2.7609   23.2847 H   0  0  0  0  0  0
  -22.4104  -11.9881   22.4803 H   0  0  0  0  0  0
  -21.1112  -13.1249   22.2620 H   0  0  0  0  0  0
  -24.6522  -15.8358   20.5000 H   0  0  0  0  0  0
  -26.2546  -15.6191   20.0138 H   0  0  0  0  0  0
  -26.7211  -32.5408   23.1080 H   0  0  0  0  0  0
  -25.0074  -33.9691   25.0396 H   0  0  0  0  0  0
  -22.7271  -31.2985   21.3920 H   0  0  0  0  0  0
  -23.3755  -35.9608   23.3288 H   0  0  0  0  0  0
  -24.3576  -36.8917   22.2051 H   0  0  0  0  0  0
  -23.7236  -37.6477   23.6670 H   0  0  0  0  0  0
  -26.1131  -31.5280   20.6069 H   0  0  0  0  0  0
  -26.8542  -30.8207   22.0108 H   0  0  0  0  0  0
  -28.1278  -28.9229   21.2169 H   0  0  0  0  0  0
  -25.9905  -25.8950   19.0167 H   0  0  0  0  0  0
  -23.9817  -27.3033   18.9988 H   0  0  0  0  0  0
  -23.7740  -30.5826   19.4002 H   0  0  0  0  0  0
  -22.7698  -29.2399   19.8531 H   0  0  0  0  0  0
  -25.1292  -36.1910   25.0817 H   0  0  0  0  0  0
  -20.9993  -28.3292   24.1380 H   0  0  0  0  0  0
  -20.5674  -26.2324   23.3611 H   0  0  0  0  0  0
  -21.6649  -26.7443   22.1204 H   0  0  0  0  0  0
  -19.6922  -25.6294   21.1246 H   0  0  0  0  0  0
  -19.6692  -27.3189   20.6726 H   0  0  0  0  0  0
  -17.4203  -26.6671   21.4032 H   0  0  0  0  0  0
  -18.0352  -26.0073   22.9022 H   0  0  0  0  0  0
  -19.7945  -30.7278   24.2267 H   0  0  0  0  0  0
  -17.5023  -31.6270   24.5167 H   0  0  0  0  0  0
  -15.5360  -30.2996   23.7653 H   0  0  0  0  0  0
  -15.8677  -28.0817   22.7090 H   0  0  0  0  0  0
  -24.5907  -30.7076   25.7764 H   0  0  0  0  0  0
  -24.8914  -32.2903   26.4846 H   0  0  0  0  0  0
  -25.8037  -30.8919   27.0226 H   0  0  0  0  0  0
  -26.2938  -29.6737   24.1228 H   0  0  0  0  0  0
  -27.4022  -29.7257   25.4731 H   0  0  0  0  0  0
  -27.8820  -30.4260   23.9463 H   0  0  0  0  0  0
  -27.2680  -33.3622   26.2056 H   0  0  0  0  0  0
  -28.3885  -32.6855   25.0332 H   0  0  0  0  0  0
  -28.0718  -31.8449   26.5424 H   0  0  0  0  0  0
  -28.2582  -38.0104   24.7534 H   0  0  0  0  0  0
  -28.1095  -36.2637   24.6254 H   0  0  0  0  0  0
  -27.2303  -37.1398   25.8864 H   0  0  0  0  0  0
  -20.9407  -29.8766   21.6839 H   0  0  0  0  0  0
  -26.0162  -38.2840   24.1434 H   0  0  0  0  0  0
  -30.6778  -20.0822   19.1147 H   0  0  0  0  0  0
  -31.0233  -17.6578   19.2253 H   0  0  0  0  0  0
  -27.8870  -19.8575   22.3052 H   0  0  0  0  0  0
  -28.0593  -16.1585   22.7735 H   0  0  0  0  0  0
  -27.2607  -25.2394   21.5677 H   0  0  0  0  0  0
  -30.4859  -22.9821   19.9655 H   0  0  0  0  0  0
  -29.1735  -22.6633   18.7878 H   0  0  0  0  0  0
  -27.2472  -18.7928   23.5968 H   0  0  0  0  0  0
  -28.8856  -15.3488   21.2930 H   0  0  0  0  0  0
  1 25  1  0  0  0
  1 30  2  0  0  0
  1 84  1  0  0  0
  2  3  1  0  0  0
  2 25  1  0  0  0
  2 86  1  0  0  0
  2 87  1  0  0  0
  3  4  1  0  0  0
  3 88  1  0  0  0
  3 89  1  0  0  0
  4  5  1  0  0  0
  4 90  1  0  0  0
  4 91  1  0  0  0
  5  6  1  0  0  0
  5 26  1  0  0  0
  5 92  1  0  0  0
  6 25  1  0  0  0
  6 93  1  0  0  0
  6 94  1  0  0  0
  7  8  2  0  0  0
  7 26  1  0  0  0
  7 29  1  0  0  0
  8  9  1  0  0  0
  8 22  1  0  0  0
  9 10  1  0  0  0
  9 27  2  0  0  0
 10 11  2  0  0  0
 10 15  1  0  0  0
 11 12  1  0  0  0
 11 95  1  0  0  0
 12 13  2  0  0  0
 12 96  1  0  0  0
 13 14  1  0  0  0
 13 31  1  0  0  0
 14 15  2  0  0  0
 14 97  1  0  0  0
 15 98  1  0  0  0
 16 17  2  0  0  0
 16 21  1  0  0  0
 16 31  1  0  0  0
 17 18  1  0  0  0
 17 99  1  0  0  0
 18 19  2  0  0  0
 18100  1  0  0  0
 19 20  1  0  0  0
 19 24  1  0  0  0
 20 21  2  0  0  0
 20101  1  0  0  0
 21 23  1  0  0  0
 22 28  1  0  0  0
 22 32  2  0  0  0
 26 27  1  0  0  0
 28102  1  0  0  0
 28103  1  0  0  0
 29104  1  0  0  0
 29105  1  0  0  0
 33 34  1  0  0  0
 33 66  1  0  0  0
 33 70  2  0  0  0
 34 36  1  0  0  0
 34 59  1  0  0  0
 34106  1  0  0  0
 35 44  2  0  0  0
 35 45  1  0  0  0
 35 68  1  0  0  0
 36 56  1  0  0  0
 36107  1  0  0  0
 37 39  1  0  0  0
 37 47  1  0  0  0
 37 66  1  0  0  0
 37108  1  0  0  0
 38 43  2  0  0  0
 38 46  1  0  0  0
 38 47  1  0  0  0
 39 64  1  0  0  0
 39 67  2  0  0  0
 40 52  1  0  0  0
 40 53  2  0  0  0
 40 58  1  0  0  0
 41109  1  0  0  0
 41110  1  0  0  0
 41111  1  0  0  0
 41 48  1  0  0  0
 42 43  1  0  0  0
 42 66  1  0  0  0
 42112  1  0  0  0
 42113  1  0  0  0
 43 44  1  0  0  0
 44114  1  0  0  0
 45 46  2  0  0  0
 45115  1  0  0  0
 46116  1  0  0  0
 47117  1  0  0  0
 47118  1  0  0  0
 48 56  1  0  0  0
 48 65  1  0  0  0
 48119  1  0  0  0
 49 50  1  0  0  0
 49 53  1  0  0  0
 49 64  1  0  0  0
 49120  1  0  0  0
 50 51  1  0  0  0
 50121  1  0  0  0
 50122  1  0  0  0
 51 52  1  0  0  0
 51123  1  0  0  0
 51124  1  0  0  0
 52125  1  0  0  0
 52126  1  0  0  0
 53 54  1  0  0  0
 54 55  2  0  0  0
 54127  1  0  0  0
 55 57  1  0  0  0
 55128  1  0  0  0
 56 69  2  0  0  0
 57 58  2  0  0  0
 57129  1  0  0  0
 58130  1  0  0  0
 59 60  1  0  0  0
 59 61  1  0  0  0
 59 62  1  0  0  0
 60131  1  0  0  0
 60132  1  0  0  0
 60133  1  0  0  0
 61134  1  0  0  0
 61135  1  0  0  0
 61136  1  0  0  0
 62137  1  0  0  0
 62138  1  0  0  0
 62139  1  0  0  0
 63 65  1  0  0  0
 63140  1  0  0  0
 63141  1  0  0  0
 63142  1  0  0  0
 64143  1  0  0  0
 65144  1  0  0  0
 68 80  1  0  0  0
 71 72  2  0  0  0
 71 75  1  0  0  0
 71145  1  0  0  0
 72 76  1  0  0  0
 72146  1  0  0  0
 73 74  1  0  0  0
 73 75  2  0  0  0
 73147  1  0  0  0
 74 76  2  0  0  0
 74 79  1  0  0  0
 75 83  1  0  0  0
 76 84  1  0  0  0
 77 78  1  0  0  0
 77 80  2  0  0  0
 77 81  1  0  0  0
 78 83  1  0  0  0
 78 85  2  0  0  0
 79 82  2  0  0  0
 79148  1  0  0  0
 80149  1  0  0  0
 81 83  1  0  0  0
 81150  1  0  0  0
 81151  1  0  0  0
 82152  1  0  0  0
 84153  1  0  0  0
M  ISO  4   1 100  68 101  80 101  84 100
M  END
> <chiral flag>
0

> <version>
0

> <s_m_source_file>
/data/baiqing/PycharmProjects/Reinvent-master-3.2/result/LINK_invent/BTK/process_docking_weight1_custom_product_contain_oxygen_bond_distance_aromatic_linkinvent_7_9_3/rearranged_h_0082.sdf

> <i_m_source_file_index>
77

> <r_mmod_Potential_Energy-OPLS-2005>
243.920562744141

> <r_mmod_Stretch_Energy-OPLS-2005>
112.764831542969

> <r_mmod_Bend_Energy-OPLS-2005>
269.933563232422

> <r_mmod_Torsional_Energy-OPLS-2005>
226.509323120117

> <r_mmod_Improper_Torsional_Energy-OPLS-2005>
3.60786747932434

> <r_mmod_Van_der_Waal_Energy-OPLS-2005>
138.093963623047

> <r_mmod_Electrostatic_Energy-OPLS-2005>
-362.936279296875

> <r_mmod_Solvation_Energy-OPLS-2005>
-232.457305908203

> <b_mmod_Minimization_Converged-OPLS-2005>
0

> <r_mmod_RMS_Derivative-OPLS-2005>
0.67650306224823

$$$$
77
                    3D
 Structure written by MMmdl.
157166  0  0  1  0            999 V2000
  -30.5926  -14.9351   20.4295 C   0  0  0  0  0  0
  -30.4466  -12.5921   19.4787 C   0  0  0  0  0  0
  -29.5197  -12.5154   18.2440 C   0  0  0  0  0  0
  -28.0531  -12.3020   18.6744 C   0  0  0  0  0  0
  -27.6303  -13.2488   19.8291 C   0  0  2  0  0  0
  -28.6828  -13.3067   20.9579 C   0  0  0  0  0  0
  -25.2507  -13.8215   20.5710 C   0  0  0  0  0  0
  -24.1821  -13.0423   20.9201 C   0  0  0  0  0  0
  -24.6442  -11.6919   20.8757 C   0  0  0  0  0  0
  -23.9103  -10.4292   21.0404 C   0  0  0  0  0  0
  -24.3650   -9.4208   21.9191 C   0  0  0  0  0  0
  -23.6326   -8.2231   22.0746 C   0  0  0  0  0  0
  -22.4282   -8.0285   21.3554 C   0  0  0  0  0  0
  -21.9925   -9.0262   20.4649 C   0  0  0  0  0  0
  -22.7260  -10.2144   20.3066 C   0  0  0  0  0  0
  -21.6853   -6.0751   22.5272 C   0  0  0  0  0  0
  -21.4029   -6.5658   23.8222 C   0  0  0  0  0  0
  -21.3658   -5.6787   24.9180 C   0  0  0  0  0  0
  -21.6040   -4.3047   24.7230 C   0  0  0  0  0  0
  -21.8806   -3.8148   23.4342 C   0  0  0  0  0  0
  -21.9199   -4.6977   22.3395 C   0  0  0  0  0  0
  -22.7849  -13.5194   21.1881 C   0  0  0  0  0  0
  -22.1643   -4.2184   21.0983 F   0  0  0  0  0  0
  -21.5636   -3.4525   25.7732 F   0  0  0  0  0  0
  -29.9509  -13.7027   20.3352 N   0  0  0  0  0  0
  -26.2953  -12.9466   20.3272 N   0  0  0  0  0  0
  -25.9390  -11.6590   20.5739 N   0  0  0  0  0  0
  -22.0493  -12.8203   22.0449 N   0  0  0  0  0  0
  -25.4098  -15.1959   20.4107 N   0  0  0  0  0  0
  -31.8146  -14.9472   20.2518 O   0  0  0  0  0  0
  -21.6630   -6.8887   21.4232 O   0  0  0  0  0  0
  -22.3500  -14.5488   20.6725 O   0  0  0  0  0  0
  -24.6347  -31.8446   23.1942 C   0  0  0  0  0  0
  -25.9159  -32.4711   23.8271 C   0  0  1  0  0  0
  -27.2284  -27.1749   20.1668 C   0  0  0  0  0  0
  -25.5947  -33.8509   24.2187 N   0  0  0  0  0  0
  -23.4391  -30.4597   21.5371 C   0  0  2  0  0  0
  -24.8921  -28.8961   20.1126 C   0  0  0  0  0  0
  -22.7533  -29.4503   22.4884 C   0  0  0  0  0  0
  -18.0302  -28.1390   22.8490 C   0  0  0  0  0  0
  -24.1512  -36.7253   23.2636 C   0  0  0  0  0  0
  -25.9886  -30.7324   21.3896 C   0  0  0  0  0  0
  -26.0609  -29.3450   20.7352 C   0  0  0  0  0  0
  -27.2238  -28.4949   20.7618 C   0  0  0  0  0  0
  -26.0328  -26.8187   19.4986 C   0  0  0  0  0  0
  -24.8848  -27.6407   19.4860 C   0  0  0  0  0  0
  -23.6681  -29.7927   20.1545 C   0  0  0  0  0  0
  -25.4147  -36.3019   24.0300 C   0  0  1  0  0  0
  -20.5896  -28.3695   23.1296 C   0  0  2  0  0  0
  -20.6794  -26.9407   22.5437 C   0  0  0  0  0  0
  -19.5784  -26.6374   21.5233 C   0  0  0  0  0  0
  -18.1951  -26.7925   22.1624 C   0  0  0  0  0  0
  -19.1553  -28.8871   23.2865 C   0  0  0  0  0  0
  -18.9459  -30.1466   23.8884 C   0  0  0  0  0  0
  -17.6456  -30.6585   24.0559 C   0  0  0  0  0  0
  -25.9080  -34.9406   23.5050 C   0  0  0  0  0  0
  -16.5351  -29.9073   23.6345 C   0  0  0  0  0  0
  -16.7279  -28.6499   23.0353 C   0  0  0  0  0  0
  -26.4532  -31.6549   25.0687 C   0  0  0  0  0  0
  -25.3741  -31.3746   26.1395 C   0  0  0  0  0  0
  -27.0390  -30.2955   24.6234 C   0  0  0  0  0  0
  -27.6064  -32.4302   25.7474 C   0  0  0  0  0  0
  -27.5581  -37.1782   24.8452 C   0  0  0  0  0  0
  -21.4234  -29.3015   22.3661 N   0  0  0  0  0  0
  -26.4299  -37.3738   23.9396 N   0  0  0  0  0  0
  -24.7064  -31.0324   22.0968 N   0  0  0  0  0  0
  -23.4188  -28.8059   23.3023 O   0  0  0  0  0  0
  -28.2603  -26.1868   20.3264 O   0  0  0  0  0  0
  -26.5636  -34.8886   22.4626 O   0  0  0  0  0  0
  -23.5476  -32.1325   23.7178 O   0  0  0  0  0  0
  -30.7832  -18.8341   18.9747 C   0  0  0  0  0  0
  -32.1262  -19.0015   18.9881 C   0  0  0  0  0  0
  -31.3341  -17.6510   21.6122 C   0  0  0  0  0  0
  -28.7778  -22.8871   18.3497 C   0  0  0  0  0  0
  -29.9380  -18.7158   20.0185 C   0  0  0  0  0  0
  -30.2705  -17.5650   20.7808 C   0  0  0  0  0  0
  -29.0785  -21.5866   18.5464 C   0  0  0  0  0  0
  -32.5258  -18.2831   21.4727 C   0  0  0  0  0  0
  -32.9860  -18.9105   20.1972 C   0  0  0  0  0  0
  -28.6550  -23.6252   19.5901 C   0  0  0  0  0  0
  -29.1979  -21.2616   19.9613 C   0  0  0  0  0  0
  -29.5102  -19.9836   20.5310 C   0  0  0  0  0  0
  -28.3689  -25.0166   19.4926 C   0  0  0  0  0  0
  -34.1674  -19.3659   20.1260 N   0  0  0  0  0  0
  -28.9064  -22.5728   20.5605 N   0  0  0  0  0  0
  -29.8580  -16.1534   20.4820 N   0  0  0  0  0  0
  -29.1840  -20.7313   17.5235 O   0  0  0  0  0  0
  -33.3898  -18.1947   22.4997 F   0  0  0  0  0  0
  -31.4818  -12.7406   19.1682 H   0  0  0  0  0  0
  -30.4364  -11.6554   20.0345 H   0  0  0  0  0  0
  -29.8320  -11.7108   17.5757 H   0  0  0  0  0  0
  -29.6058  -13.4370   17.6695 H   0  0  0  0  0  0
  -27.9450  -11.2654   18.9927 H   0  0  0  0  0  0
  -27.3847  -12.4228   17.8197 H   0  0  0  0  0  0
  -27.5802  -14.2427   19.3835 H   0  0  0  0  0  0
  -28.7889  -12.3529   21.4725 H   0  0  0  0  0  0
  -28.3997  -14.0331   21.7240 H   0  0  0  0  0  0
  -25.2812   -9.5663   22.4753 H   0  0  0  0  0  0
  -24.0030   -7.4605   22.7469 H   0  0  0  0  0  0
  -21.0840   -8.8826   19.8947 H   0  0  0  0  0  0
  -22.3750  -10.9713   19.6176 H   0  0  0  0  0  0
  -21.2017   -7.6151   23.9740 H   0  0  0  0  0  0
  -21.1488   -6.0517   25.9101 H   0  0  0  0  0  0
  -22.0590   -2.7601   23.2828 H   0  0  0  0  0  0
  -22.4075  -11.9884   22.4876 H   0  0  0  0  0  0
  -21.1110  -13.1255   22.2640 H   0  0  0  0  0  0
  -24.6325  -15.8390   20.5181 H   0  0  0  0  0  0
  -26.2474  -15.6475   20.0710 H   0  0  0  0  0  0
  -26.7202  -32.5327   23.0953 H   0  0  0  0  0  0
  -25.0131  -33.9638   25.0364 H   0  0  0  0  0  0
  -22.7377  -31.2828   21.3839 H   0  0  0  0  0  0
  -23.3768  -35.9580   23.3273 H   0  0  0  0  0  0
  -24.3606  -36.8918   22.2052 H   0  0  0  0  0  0
  -23.7262  -37.6449   23.6698 H   0  0  0  0  0  0
  -26.1321  -31.4916   20.6182 H   0  0  0  0  0  0
  -26.8635  -30.7872   22.0282 H   0  0  0  0  0  0
  -28.0985  -28.8183   21.3085 H   0  0  0  0  0  0
  -25.9470  -25.8483   19.0309 H   0  0  0  0  0  0
  -23.9815  -27.2835   19.0062 H   0  0  0  0  0  0
  -23.8117  -30.5702   19.4016 H   0  0  0  0  0  0
  -22.7877  -29.2279   19.8428 H   0  0  0  0  0  0
  -25.1331  -36.1847   25.0784 H   0  0  0  0  0  0
  -20.9959  -28.3274   24.1420 H   0  0  0  0  0  0
  -20.5751  -26.2278   23.3623 H   0  0  0  0  0  0
  -21.6652  -26.7468   22.1199 H   0  0  0  0  0  0
  -19.6950  -25.6292   21.1264 H   0  0  0  0  0  0
  -19.6734  -27.3192   20.6774 H   0  0  0  0  0  0
  -17.4225  -26.6682   21.4001 H   0  0  0  0  0  0
  -18.0325  -26.0059   22.9023 H   0  0  0  0  0  0
  -19.7935  -30.7288   24.2223 H   0  0  0  0  0  0
  -17.5017  -31.6269   24.5157 H   0  0  0  0  0  0
  -15.5355  -30.2966   23.7694 H   0  0  0  0  0  0
  -15.8674  -28.0821   22.7061 H   0  0  0  0  0  0
  -24.5881  -30.7140   25.7713 H   0  0  0  0  0  0
  -24.8996  -32.2950   26.4806 H   0  0  0  0  0  0
  -25.8029  -30.8900   27.0174 H   0  0  0  0  0  0
  -26.2998  -29.6667   24.1260 H   0  0  0  0  0  0
  -27.4051  -29.7246   25.4773 H   0  0  0  0  0  0
  -27.8883  -30.4194   23.9515 H   0  0  0  0  0  0
  -27.2658  -33.3598   26.2036 H   0  0  0  0  0  0
  -28.3909  -32.6852   25.0340 H   0  0  0  0  0  0
  -28.0700  -31.8440   26.5414 H   0  0  0  0  0  0
  -28.2571  -38.0104   24.7508 H   0  0  0  0  0  0
  -28.1102  -36.2626   24.6265 H   0  0  0  0  0  0
  -27.2284  -37.1410   25.8852 H   0  0  0  0  0  0
  -20.9423  -29.8698   21.6828 H   0  0  0  0  0  0
  -26.0149  -38.2796   24.1438 H   0  0  0  0  0  0
  -30.3610  -18.5989   18.0081 H   0  0  0  0  0  0
  -32.6026  -19.1810   18.0360 H   0  0  0  0  0  0
  -31.2430  -17.0873   22.5276 H   0  0  0  0  0  0
  -28.6309  -23.3326   17.3752 H   0  0  0  0  0  0
  -29.4681  -20.0021   21.6090 H   0  0  0  0  0  0
  -28.2663  -25.3933   18.4839 H   0  0  0  0  0  0
  -34.3897  -19.7621   19.2163 H   0  0  0  0  0  0
  -28.8804  -22.7423   21.5607 H   0  0  0  0  0  0
  -28.8714  -16.0334   20.3227 H   0  0  0  0  0  0
  -29.1440  -21.2327   16.7181 H   0  0  0  0  0  0
  1 25  1  0  0  0
  1 30  2  0  0  0
  1 86  1  0  0  0
  2  3  1  0  0  0
  2 25  1  0  0  0
  2 89  1  0  0  0
  2 90  1  0  0  0
  3  4  1  0  0  0
  3 91  1  0  0  0
  3 92  1  0  0  0
  4  5  1  0  0  0
  4 93  1  0  0  0
  4 94  1  0  0  0
  5  6  1  0  0  0
  5 26  1  0  0  0
  5 95  1  0  0  0
  6 25  1  0  0  0
  6 96  1  0  0  0
  6 97  1  0  0  0
  7  8  2  0  0  0
  7 26  1  0  0  0
  7 29  1  0  0  0
  8  9  1  0  0  0
  8 22  1  0  0  0
  9 10  1  0  0  0
  9 27  2  0  0  0
 10 11  2  0  0  0
 10 15  1  0  0  0
 11 12  1  0  0  0
 11 98  1  0  0  0
 12 13  2  0  0  0
 12 99  1  0  0  0
 13 14  1  0  0  0
 13 31  1  0  0  0
 14 15  2  0  0  0
 14100  1  0  0  0
 15101  1  0  0  0
 16 17  2  0  0  0
 16 21  1  0  0  0
 16 31  1  0  0  0
 17 18  1  0  0  0
 17102  1  0  0  0
 18 19  2  0  0  0
 18103  1  0  0  0
 19 20  1  0  0  0
 19 24  1  0  0  0
 20 21  2  0  0  0
 20104  1  0  0  0
 21 23  1  0  0  0
 22 28  1  0  0  0
 22 32  2  0  0  0
 26 27  1  0  0  0
 28105  1  0  0  0
 28106  1  0  0  0
 29107  1  0  0  0
 29108  1  0  0  0
 33 34  1  0  0  0
 33 66  1  0  0  0
 33 70  2  0  0  0
 34 36  1  0  0  0
 34 59  1  0  0  0
 34109  1  0  0  0
 35 44  2  0  0  0
 35 45  1  0  0  0
 35 68  1  0  0  0
 36 56  1  0  0  0
 36110  1  0  0  0
 37 39  1  0  0  0
 37 47  1  0  0  0
 37 66  1  0  0  0
 37111  1  0  0  0
 38 43  2  0  0  0
 38 46  1  0  0  0
 38 47  1  0  0  0
 39 64  1  0  0  0
 39 67  2  0  0  0
 40 52  1  0  0  0
 40 53  2  0  0  0
 40 58  1  0  0  0
 41112  1  0  0  0
 41113  1  0  0  0
 41114  1  0  0  0
 41 48  1  0  0  0
 42 43  1  0  0  0
 42 66  1  0  0  0
 42115  1  0  0  0
 42116  1  0  0  0
 43 44  1  0  0  0
 44117  1  0  0  0
 45 46  2  0  0  0
 45118  1  0  0  0
 46119  1  0  0  0
 47120  1  0  0  0
 47121  1  0  0  0
 48 56  1  0  0  0
 48 65  1  0  0  0
 48122  1  0  0  0
 49 50  1  0  0  0
 49 53  1  0  0  0
 49 64  1  0  0  0
 49123  1  0  0  0
 50 51  1  0  0  0
 50124  1  0  0  0
 50125  1  0  0  0
 51 52  1  0  0  0
 51126  1  0  0  0
 51127  1  0  0  0
 52128  1  0  0  0
 52129  1  0  0  0
 53 54  1  0  0  0
 54 55  2  0  0  0
 54130  1  0  0  0
 55 57  1  0  0  0
 55131  1  0  0  0
 56 69  2  0  0  0
 57 58  2  0  0  0
 57132  1  0  0  0
 58133  1  0  0  0
 59 60  1  0  0  0
 59 61  1  0  0  0
 59 62  1  0  0  0
 60134  1  0  0  0
 60135  1  0  0  0
 60136  1  0  0  0
 61137  1  0  0  0
 61138  1  0  0  0
 61139  1  0  0  0
 62140  1  0  0  0
 62141  1  0  0  0
 62142  1  0  0  0
 63 65  1  0  0  0
 63143  1  0  0  0
 63144  1  0  0  0
 63145  1  0  0  0
 64146  1  0  0  0
 65147  1  0  0  0
 68 83  1  0  0  0
 71 72  2  0  0  0
 71 75  1  0  0  0
 71148  1  0  0  0
 72 79  1  0  0  0
 72149  1  0  0  0
 73 76  1  0  0  0
 73 78  2  0  0  0
 73150  1  0  0  0
 74 77  2  0  0  0
 74 80  1  0  0  0
 74151  1  0  0  0
 75 76  2  0  0  0
 75 82  1  0  0  0
 76 86  1  0  0  0
 77 81  1  0  0  0
 77 87  1  0  0  0
 78 79  1  0  0  0
 78 88  1  0  0  0
 79 84  2  0  0  0
 80 83  2  0  0  0
 80 85  1  0  0  0
 81 82  2  0  0  0
 81 85  1  0  0  0
 82152  1  0  0  0
 83153  1  0  0  0
 84154  1  0  0  0
 85155  1  0  0  0
 86156  1  0  0  0
 87157  1  0  0  0
M  ISO  4   1 100  68 101  83 101  86 100
M  END
> <chiral flag>
0

> <version>
0

> <s_m_source_file>
/data/baiqing/PycharmProjects/Reinvent-master-3.2/result/LINK_invent/BTK/process_docking_weight1_custom_product_contain_oxygen_bond_distance_aromatic_linkinvent_7_9_3/rearranged_h_0082.sdf

> <i_m_source_file_index>
78

> <r_mmod_Potential_Energy-OPLS-2005>
584.618286132812

> <r_mmod_Stretch_Energy-OPLS-2005>
208.040985107422

> <r_mmod_Bend_Energy-OPLS-2005>
424.222717285156

> <r_mmod_Torsional_Energy-OPLS-2005>
260.474578857422

> <r_mmod_Improper_Torsional_Energy-OPLS-2005>
10.9541320800781

> <r_mmod_Van_der_Waal_Energy-OPLS-2005>
144.492538452148

> <r_mmod_Electrostatic_Energy-OPLS-2005>
-407.101531982422

> <r_mmod_Solvation_Energy-OPLS-2005>
-242.774322509766

> <b_mmod_Minimization_Converged-OPLS-2005>
0

> <r_mmod_RMS_Derivative-OPLS-2005>
7.05238580703735

$$$$
78
                    3D
 Structure written by MMmdl.
150159  0  0  1  0            999 V2000
  -30.5681  -14.8785   20.3985 C   0  0  0  0  0  0
  -30.4287  -12.5361   19.4919 C   0  0  0  0  0  0
  -29.5139  -12.5226   18.2462 C   0  0  0  0  0  0
  -28.0436  -12.3271   18.6574 C   0  0  0  0  0  0
  -27.6300  -13.2459   19.8376 C   0  0  2  0  0  0
  -28.6708  -13.2520   20.9771 C   0  0  0  0  0  0
  -25.2489  -13.8231   20.5725 C   0  0  0  0  0  0
  -24.1791  -13.0459   20.9224 C   0  0  0  0  0  0
  -24.6401  -11.6938   20.8770 C   0  0  0  0  0  0
  -23.9086  -10.4313   21.0428 C   0  0  0  0  0  0
  -24.3649   -9.4216   21.9188 C   0  0  0  0  0  0
  -23.6316   -8.2250   22.0743 C   0  0  0  0  0  0
  -22.4291   -8.0300   21.3540 C   0  0  0  0  0  0
  -21.9943   -9.0275   20.4638 C   0  0  0  0  0  0
  -22.7274  -10.2149   20.3063 C   0  0  0  0  0  0
  -21.6859   -6.0753   22.5284 C   0  0  0  0  0  0
  -21.4017   -6.5651   23.8219 C   0  0  0  0  0  0
  -21.3654   -5.6798   24.9176 C   0  0  0  0  0  0
  -21.6045   -4.3061   24.7219 C   0  0  0  0  0  0
  -21.8820   -3.8155   23.4339 C   0  0  0  0  0  0
  -21.9197   -4.6980   22.3402 C   0  0  0  0  0  0
  -22.7818  -13.5228   21.1889 C   0  0  0  0  0  0
  -22.1665   -4.2171   21.0973 F   0  0  0  0  0  0
  -21.5618   -3.4537   25.7723 F   0  0  0  0  0  0
  -29.9574  -13.6315   20.3833 N   0  0  0  0  0  0
  -26.2890  -12.9448   20.3238 N   0  0  0  0  0  0
  -25.9327  -11.6577   20.5741 N   0  0  0  0  0  0
  -22.0463  -12.8204   22.0432 N   0  0  0  0  0  0
  -25.4202  -15.1957   20.4199 N   0  0  0  0  0  0
  -31.7745  -14.9153   20.1365 O   0  0  0  0  0  0
  -21.6643   -6.8904   21.4242 O   0  0  0  0  0  0
  -22.3496  -14.5534   20.6735 O   0  0  0  0  0  0
  -24.6385  -31.8492   23.1906 C   0  0  0  0  0  0
  -25.9174  -32.4714   23.8295 C   0  0  1  0  0  0
  -27.2111  -27.1860   20.1493 C   0  0  0  0  0  0
  -25.5943  -33.8521   24.2224 N   0  0  0  0  0  0
  -23.4395  -30.4726   21.5338 C   0  0  2  0  0  0
  -24.8923  -28.9099   20.1062 C   0  0  0  0  0  0
  -22.7546  -29.4582   22.4839 C   0  0  0  0  0  0
  -18.0304  -28.1392   22.8483 C   0  0  0  0  0  0
  -24.1496  -36.7283   23.2637 C   0  0  0  0  0  0
  -25.9935  -30.7393   21.3854 C   0  0  0  0  0  0
  -26.0665  -29.3539   20.7300 C   0  0  0  0  0  0
  -27.2318  -28.5060   20.7397 C   0  0  0  0  0  0
  -26.0197  -26.8340   19.4816 C   0  0  0  0  0  0
  -24.8796  -27.6620   19.4641 C   0  0  0  0  0  0
  -23.6653  -29.8050   20.1511 C   0  0  0  0  0  0
  -25.4116  -36.3054   24.0329 C   0  0  1  0  0  0
  -20.5913  -28.3719   23.1234 C   0  0  2  0  0  0
  -20.6794  -26.9423   22.5400 C   0  0  0  0  0  0
  -19.5762  -26.6375   21.5209 C   0  0  0  0  0  0
  -18.1943  -26.7928   22.1631 C   0  0  0  0  0  0
  -19.1563  -28.8865   23.2855 C   0  0  0  0  0  0
  -18.9476  -30.1457   23.8891 C   0  0  0  0  0  0
  -17.6472  -30.6583   24.0566 C   0  0  0  0  0  0
  -25.9055  -34.9423   23.5080 C   0  0  0  0  0  0
  -16.5365  -29.9092   23.6328 C   0  0  0  0  0  0
  -16.7287  -28.6512   23.0351 C   0  0  0  0  0  0
  -26.4518  -31.6544   25.0702 C   0  0  0  0  0  0
  -25.3714  -31.3735   26.1401 C   0  0  0  0  0  0
  -27.0361  -30.2935   24.6243 C   0  0  0  0  0  0
  -27.6069  -32.4283   25.7487 C   0  0  0  0  0  0
  -27.5585  -37.1795   24.8460 C   0  0  0  0  0  0
  -21.4238  -29.3064   22.3602 N   0  0  0  0  0  0
  -26.4288  -37.3759   23.9397 N   0  0  0  0  0  0
  -24.7102  -31.0396   22.0926 N   0  0  0  0  0  0
  -23.4214  -28.8118   23.2961 O   0  0  0  0  0  0
  -28.2435  -26.1967   20.1771 O   0  0  0  0  0  0
  -26.5644  -34.8916   22.4656 O   0  0  0  0  0  0
  -23.5513  -32.1356   23.7135 O   0  0  0  0  0  0
  -31.3814  -18.9816   18.6294 C   0  0  0  0  0  0
  -30.6771  -20.1288   19.0307 C   0  0  0  0  0  0
  -31.0793  -17.7074   19.1299 C   0  0  0  0  0  0
  -29.3345  -18.7531   20.4579 C   0  0  0  0  0  0
  -29.6074  -20.1341   19.9618 C   0  0  0  0  0  0
  -30.0594  -17.5054   20.0838 C   0  0  0  0  0  0
  -28.4307  -23.5553   20.3951 C   0  0  0  0  0  0
  -28.0335  -22.2399   20.9595 C   0  0  0  0  0  0
  -27.9214  -24.8539   20.6280 C   0  0  0  0  0  0
  -29.5073  -22.7999   19.5743 C   0  0  0  0  0  0
  -29.0171  -21.5247   20.2108 N   0  0  0  0  0  0
  -29.8036  -16.0682   20.5323 N   0  0  0  0  0  0
  -27.1784  -21.9578   21.7724 O   0  0  0  0  0  0
  -31.4654  -12.6732   19.1795 H   0  0  0  0  0  0
  -30.3973  -11.5783   20.0144 H   0  0  0  0  0  0
  -29.8190  -11.7321   17.5591 H   0  0  0  0  0  0
  -29.6206  -13.4635   17.7027 H   0  0  0  0  0  0
  -27.9186  -11.2814   18.9401 H   0  0  0  0  0  0
  -27.3869  -12.4886   17.8022 H   0  0  0  0  0  0
  -27.6003  -14.2553   19.4258 H   0  0  0  0  0  0
  -28.7329  -12.2750   21.4580 H   0  0  0  0  0  0
  -28.3820  -13.9621   21.7538 H   0  0  0  0  0  0
  -25.2800   -9.5676   22.4760 H   0  0  0  0  0  0
  -24.0017   -7.4635   22.7465 H   0  0  0  0  0  0
  -21.0875   -8.8818   19.8952 H   0  0  0  0  0  0
  -22.3754  -10.9696   19.6177 H   0  0  0  0  0  0
  -21.2012   -7.6162   23.9739 H   0  0  0  0  0  0
  -21.1470   -6.0518   25.9081 H   0  0  0  0  0  0
  -22.0606   -2.7618   23.2835 H   0  0  0  0  0  0
  -22.4083  -11.9849   22.4806 H   0  0  0  0  0  0
  -21.1086  -13.1230   22.2667 H   0  0  0  0  0  0
  -24.6637  -15.8587   20.5497 H   0  0  0  0  0  0
  -26.2722  -15.6312   20.0923 H   0  0  0  0  0  0
  -26.7241  -32.5362   23.1030 H   0  0  0  0  0  0
  -25.0081  -33.9635   25.0362 H   0  0  0  0  0  0
  -22.7404  -31.2979   21.3810 H   0  0  0  0  0  0
  -23.3763  -35.9612   23.3285 H   0  0  0  0  0  0
  -24.3593  -36.8912   22.2055 H   0  0  0  0  0  0
  -23.7241  -37.6477   23.6676 H   0  0  0  0  0  0
  -26.1410  -31.4964   20.6135 H   0  0  0  0  0  0
  -26.8676  -30.7932   22.0239 H   0  0  0  0  0  0
  -28.1267  -28.8388   21.2466 H   0  0  0  0  0  0
  -25.9586  -25.8748   18.9870 H   0  0  0  0  0  0
  -23.9877  -27.3251   18.9542 H   0  0  0  0  0  0
  -23.7964  -30.5826   19.3978 H   0  0  0  0  0  0
  -22.7837  -29.2420   19.8392 H   0  0  0  0  0  0
  -25.1287  -36.1912   25.0827 H   0  0  0  0  0  0
  -21.0020  -28.3329   24.1349 H   0  0  0  0  0  0
  -20.5675  -26.2345   23.3626 H   0  0  0  0  0  0
  -21.6661  -26.7426   22.1199 H   0  0  0  0  0  0
  -19.6937  -25.6278   21.1251 H   0  0  0  0  0  0
  -19.6694  -27.3184   20.6734 H   0  0  0  0  0  0
  -17.4206  -26.6661   21.4044 H   0  0  0  0  0  0
  -18.0363  -26.0060   22.9025 H   0  0  0  0  0  0
  -19.7942  -30.7268   24.2281 H   0  0  0  0  0  0
  -17.5022  -31.6260   24.5165 H   0  0  0  0  0  0
  -15.5362  -30.3000   23.7619 H   0  0  0  0  0  0
  -15.8695  -28.0813   22.7079 H   0  0  0  0  0  0
  -24.5894  -30.7082   25.7721 H   0  0  0  0  0  0
  -24.8919  -32.2934   26.4774 H   0  0  0  0  0  0
  -25.8006  -30.8938   27.0206 H   0  0  0  0  0  0
  -26.2966  -29.6670   24.1253 H   0  0  0  0  0  0
  -27.3986  -29.7207   25.4787 H   0  0  0  0  0  0
  -27.8874  -30.4152   23.9537 H   0  0  0  0  0  0
  -27.2672  -33.3586   26.2049 H   0  0  0  0  0  0
  -28.3908  -32.6818   25.0337 H   0  0  0  0  0  0
  -28.0718  -31.8412   26.5415 H   0  0  0  0  0  0
  -28.2579  -38.0111   24.7499 H   0  0  0  0  0  0
  -28.1096  -36.2638   24.6284 H   0  0  0  0  0  0
  -27.2301  -37.1426   25.8860 H   0  0  0  0  0  0
  -20.9432  -29.8812   21.6821 H   0  0  0  0  0  0
  -26.0176  -38.2837   24.1382 H   0  0  0  0  0  0
  -32.1729  -19.0848   17.9006 H   0  0  0  0  0  0
  -31.0014  -21.0461   18.5646 H   0  0  0  0  0  0
  -31.6543  -16.8849   18.7370 H   0  0  0  0  0  0
  -28.5254  -18.6497   21.1657 H   0  0  0  0  0  0
  -27.1059  -24.9220   21.3349 H   0  0  0  0  0  0
  -30.5481  -23.0094   19.8262 H   0  0  0  0  0  0
  -29.3760  -22.7846   18.4907 H   0  0  0  0  0  0
  -28.8732  -15.9045   20.8888 H   0  0  0  0  0  0
  1 25  1  0  0  0
  1 30  2  0  0  0
  1 82  1  0  0  0
  2  3  1  0  0  0
  2 25  1  0  0  0
  2 84  1  0  0  0
  2 85  1  0  0  0
  3  4  1  0  0  0
  3 86  1  0  0  0
  3 87  1  0  0  0
  4  5  1  0  0  0
  4 88  1  0  0  0
  4 89  1  0  0  0
  5  6  1  0  0  0
  5 26  1  0  0  0
  5 90  1  0  0  0
  6 25  1  0  0  0
  6 91  1  0  0  0
  6 92  1  0  0  0
  7  8  2  0  0  0
  7 26  1  0  0  0
  7 29  1  0  0  0
  8  9  1  0  0  0
  8 22  1  0  0  0
  9 10  1  0  0  0
  9 27  2  0  0  0
 10 11  2  0  0  0
 10 15  1  0  0  0
 11 12  1  0  0  0
 11 93  1  0  0  0
 12 13  2  0  0  0
 12 94  1  0  0  0
 13 14  1  0  0  0
 13 31  1  0  0  0
 14 15  2  0  0  0
 14 95  1  0  0  0
 15 96  1  0  0  0
 16 17  2  0  0  0
 16 21  1  0  0  0
 16 31  1  0  0  0
 17 18  1  0  0  0
 17 97  1  0  0  0
 18 19  2  0  0  0
 18 98  1  0  0  0
 19 20  1  0  0  0
 19 24  1  0  0  0
 20 21  2  0  0  0
 20 99  1  0  0  0
 21 23  1  0  0  0
 22 28  1  0  0  0
 22 32  2  0  0  0
 26 27  1  0  0  0
 28100  1  0  0  0
 28101  1  0  0  0
 29102  1  0  0  0
 29103  1  0  0  0
 33 34  1  0  0  0
 33 66  1  0  0  0
 33 70  2  0  0  0
 34 36  1  0  0  0
 34 59  1  0  0  0
 34104  1  0  0  0
 35 44  2  0  0  0
 35 45  1  0  0  0
 35 68  1  0  0  0
 36 56  1  0  0  0
 36105  1  0  0  0
 37 39  1  0  0  0
 37 47  1  0  0  0
 37 66  1  0  0  0
 37106  1  0  0  0
 38 43  2  0  0  0
 38 46  1  0  0  0
 38 47  1  0  0  0
 39 64  1  0  0  0
 39 67  2  0  0  0
 40 52  1  0  0  0
 40 53  2  0  0  0
 40 58  1  0  0  0
 41107  1  0  0  0
 41108  1  0  0  0
 41109  1  0  0  0
 41 48  1  0  0  0
 42 43  1  0  0  0
 42 66  1  0  0  0
 42110  1  0  0  0
 42111  1  0  0  0
 43 44  1  0  0  0
 44112  1  0  0  0
 45 46  2  0  0  0
 45113  1  0  0  0
 46114  1  0  0  0
 47115  1  0  0  0
 47116  1  0  0  0
 48 56  1  0  0  0
 48 65  1  0  0  0
 48117  1  0  0  0
 49 50  1  0  0  0
 49 53  1  0  0  0
 49 64  1  0  0  0
 49118  1  0  0  0
 50 51  1  0  0  0
 50119  1  0  0  0
 50120  1  0  0  0
 51 52  1  0  0  0
 51121  1  0  0  0
 51122  1  0  0  0
 52123  1  0  0  0
 52124  1  0  0  0
 53 54  1  0  0  0
 54 55  2  0  0  0
 54125  1  0  0  0
 55 57  1  0  0  0
 55126  1  0  0  0
 56 69  2  0  0  0
 57 58  2  0  0  0
 57127  1  0  0  0
 58128  1  0  0  0
 59 60  1  0  0  0
 59 61  1  0  0  0
 59 62  1  0  0  0
 60129  1  0  0  0
 60130  1  0  0  0
 60131  1  0  0  0
 61132  1  0  0  0
 61133  1  0  0  0
 61134  1  0  0  0
 62135  1  0  0  0
 62136  1  0  0  0
 62137  1  0  0  0
 63 65  1  0  0  0
 63138  1  0  0  0
 63139  1  0  0  0
 63140  1  0  0  0
 64141  1  0  0  0
 65142  1  0  0  0
 68 79  1  0  0  0
 71 72  2  0  0  0
 71 73  1  0  0  0
 71143  1  0  0  0
 72 75  1  0  0  0
 72144  1  0  0  0
 73 76  2  0  0  0
 73145  1  0  0  0
 74 75  2  0  0  0
 74 76  1  0  0  0
 74146  1  0  0  0
 75 81  1  0  0  0
 76 82  1  0  0  0
 77 78  1  0  0  0
 77 79  2  0  0  0
 77 80  1  0  0  0
 78 81  1  0  0  0
 78 83  2  0  0  0
 79147  1  0  0  0
 80 81  1  0  0  0
 80148  1  0  0  0
 80149  1  0  0  0
 82150  1  0  0  0
M  ISO  4   1 100  68 101  79 101  82 100
M  END
> <chiral flag>
0

> <version>
0

> <s_m_source_file>
/data/baiqing/PycharmProjects/Reinvent-master-3.2/result/LINK_invent/BTK/process_docking_weight1_custom_product_contain_oxygen_bond_distance_aromatic_linkinvent_7_9_3/rearranged_h_0082.sdf

> <i_m_source_file_index>
79

> <r_mmod_Potential_Energy-OPLS-2005>
425.725402832031

> <r_mmod_Stretch_Energy-OPLS-2005>
189.669448852539

> <r_mmod_Bend_Energy-OPLS-2005>
286.754455566406

> <r_mmod_Torsional_Energy-OPLS-2005>
228.405700683594

> <r_mmod_Improper_Torsional_Energy-OPLS-2005>
3.88542342185974

> <r_mmod_Van_der_Waal_Energy-OPLS-2005>
138.61311340332

> <r_mmod_Electrostatic_Energy-OPLS-2005>
-353.397705078125

> <r_mmod_Solvation_Energy-OPLS-2005>
-220.498596191406

> <b_mmod_Minimization_Converged-OPLS-2005>
0

> <r_mmod_RMS_Derivative-OPLS-2005>
2.75652432441711

$$$$
79
                    3D
 Structure written by MMmdl.
145154  0  0  1  0            999 V2000
  -30.2947  -15.4925   20.3530 C   0  0  0  0  0  0
  -30.4600  -12.9727   19.5514 C   0  0  0  0  0  0
  -29.5600  -12.6489   18.3192 C   0  0  0  0  0  0
  -28.1110  -12.3270   18.7320 C   0  0  0  0  0  0
  -27.6153  -13.2873   19.8381 C   0  0  2  0  0  0
  -28.6556  -13.4439   20.9699 C   0  0  0  0  0  0
  -25.2301  -13.8170   20.5637 C   0  0  0  0  0  0
  -24.1709  -13.0362   20.9241 C   0  0  0  0  0  0
  -24.6424  -11.6886   20.8767 C   0  0  0  0  0  0
  -23.9117  -10.4256   21.0405 C   0  0  0  0  0  0
  -24.3647   -9.4175   21.9191 C   0  0  0  0  0  0
  -23.6303   -8.2222   22.0761 C   0  0  0  0  0  0
  -22.4285   -8.0271   21.3547 C   0  0  0  0  0  0
  -21.9935   -9.0247   20.4645 C   0  0  0  0  0  0
  -22.7284  -10.2112   20.3054 C   0  0  0  0  0  0
  -21.6850   -6.0733   22.5280 C   0  0  0  0  0  0
  -21.4013   -6.5637   23.8213 C   0  0  0  0  0  0
  -21.3660   -5.6789   24.9176 C   0  0  0  0  0  0
  -21.6045   -4.3053   24.7225 C   0  0  0  0  0  0
  -21.8819   -3.8145   23.4345 C   0  0  0  0  0  0
  -21.9193   -4.6962   22.3402 C   0  0  0  0  0  0
  -22.7727  -13.5120   21.1899 C   0  0  0  0  0  0
  -22.1661   -4.2149   21.0979 F   0  0  0  0  0  0
  -21.5629   -3.4536   25.7737 F   0  0  0  0  0  0
  -29.8476  -14.1028   20.3759 N   0  0  0  0  0  0
  -26.2829  -12.9521   20.3252 N   0  0  0  0  0  0
  -25.9385  -11.6614   20.5757 N   0  0  0  0  0  0
  -22.0400  -12.8116   22.0475 N   0  0  0  0  0  0
  -25.3700  -15.1870   20.3875 N   0  0  0  0  0  0
  -31.5075  -15.5382   20.0644 O   0  0  0  0  0  0
  -21.6636   -6.8878   21.4243 O   0  0  0  0  0  0
  -22.3391  -14.5421   20.6747 O   0  0  0  0  0  0
  -24.6743  -31.8102   23.1597 C   0  0  0  0  0  0
  -25.9364  -32.4521   23.8111 C   0  0  1  0  0  0
  -27.2352  -26.7999   20.2077 C   0  0  0  0  0  0
  -25.5980  -33.8342   24.2007 N   0  0  0  0  0  0
  -23.4971  -30.4140   21.5115 C   0  0  2  0  0  0
  -24.9556  -28.7717   20.1207 C   0  0  0  0  0  0
  -22.7727  -29.4363   22.4748 C   0  0  0  0  0  0
  -18.0332  -28.1416   22.8460 C   0  0  0  0  0  0
  -24.1496  -36.7183   23.2655 C   0  0  0  0  0  0
  -26.0725  -30.5737   21.4115 C   0  0  0  0  0  0
  -26.1407  -29.1467   20.7653 C   0  0  0  0  0  0
  -27.2677  -28.1852   20.7816 C   0  0  0  0  0  0
  -26.0186  -26.6110   19.5073 C   0  0  0  0  0  0
  -24.9267  -27.5261   19.4704 C   0  0  0  0  0  0
  -23.7471  -29.7157   20.1444 C   0  0  0  0  0  0
  -25.4144  -36.2933   24.0291 C   0  0  1  0  0  0
  -20.5963  -28.3769   23.1165 C   0  0  2  0  0  0
  -20.6803  -26.9437   22.5406 C   0  0  0  0  0  0
  -19.5777  -26.6373   21.5218 C   0  0  0  0  0  0
  -18.1961  -26.7946   22.1622 C   0  0  0  0  0  0
  -19.1595  -28.8915   23.2795 C   0  0  0  0  0  0
  -18.9502  -30.1501   23.8837 C   0  0  0  0  0  0
  -17.6493  -30.6600   24.0552 C   0  0  0  0  0  0
  -25.9110  -34.9315   23.4981 C   0  0  0  0  0  0
  -16.5383  -29.9085   23.6345 C   0  0  0  0  0  0
  -16.7312  -28.6507   23.0362 C   0  0  0  0  0  0
  -26.4575  -31.6516   25.0692 C   0  0  0  0  0  0
  -25.3666  -31.3802   26.1323 C   0  0  0  0  0  0
  -27.0493  -30.2868   24.6518 C   0  0  0  0  0  0
  -27.6042  -32.4354   25.7504 C   0  0  0  0  0  0
  -27.5558  -37.1767   24.8478 C   0  0  0  0  0  0
  -21.4383  -29.3034   22.3500 N   0  0  0  0  0  0
  -26.4289  -37.3670   23.9385 N   0  0  0  0  0  0
  -24.7704  -30.9634   22.0806 N   0  0  0  0  0  0
  -23.4212  -28.7953   23.3053 O   0  0  0  0  0  0
  -28.2402  -25.6475   20.2283 O   0  0  0  0  0  0
  -26.5739  -34.8871   22.4590 O   0  0  0  0  0  0
  -23.5781  -32.1132   23.6604 O   0  0  0  0  0  0
  -29.8717  -19.9389   20.1200 C   0  0  0  0  0  0
  -28.1024  -16.8199   21.0585 C   0  0  0  0  0  0
  -29.3272  -18.5963   20.4456 C   0  0  0  0  0  0
  -28.1364  -19.0618   20.8346 C   0  0  0  0  0  0
  -27.3438  -17.9722   21.2410 C   0  0  0  0  0  0
  -28.9676  -21.1354   20.3399 C   0  0  0  0  0  0
  -28.8932  -22.8233   20.2329 C   0  0  0  0  0  0
  -28.0513  -24.0799   20.3248 C   0  0  0  0  0  0
  -29.4187  -16.9936   20.5509 N   0  0  0  0  0  0
  -27.8483  -20.4337   20.8039 O   0  0  0  0  0  0
  -26.0727  -18.0466   21.7255 O   0  0  0  0  0  0
  -31.4530  -13.2477   19.1938 H   0  0  0  0  0  0
  -30.6251  -12.0798   20.1569 H   0  0  0  0  0  0
  -29.9816  -11.8219   17.7463 H   0  0  0  0  0  0
  -29.5560  -13.5106   17.6501 H   0  0  0  0  0  0
  -28.0890  -11.3016   19.1029 H   0  0  0  0  0  0
  -27.4477  -12.3558   17.8667 H   0  0  0  0  0  0
  -27.5238  -14.2576   19.3489 H   0  0  0  0  0  0
  -28.8949  -12.4665   21.3920 H   0  0  0  0  0  0
  -28.2764  -13.9914   21.8283 H   0  0  0  0  0  0
  -25.2786   -9.5643   22.4778 H   0  0  0  0  0  0
  -23.9996   -7.4611   22.7487 H   0  0  0  0  0  0
  -21.0864   -8.8776   19.8951 H   0  0  0  0  0  0
  -22.3751  -10.9653   19.6162 H   0  0  0  0  0  0
  -21.2004   -7.6145   23.9716 H   0  0  0  0  0  0
  -21.1484   -6.0520   25.9079 H   0  0  0  0  0  0
  -22.0600   -2.7608   23.2843 H   0  0  0  0  0  0
  -22.4033  -11.9789   22.4869 H   0  0  0  0  0  0
  -21.1018  -13.1132   22.2691 H   0  0  0  0  0  0
  -24.6123  -15.8328   20.5805 H   0  0  0  0  0  0
  -26.2053  -15.6637   20.0777 H   0  0  0  0  0  0
  -26.7442  -32.5026   23.0826 H   0  0  0  0  0  0
  -25.0053  -33.9399   25.0110 H   0  0  0  0  0  0
  -22.8176  -31.2488   21.3274 H   0  0  0  0  0  0
  -23.3754  -35.9521   23.3327 H   0  0  0  0  0  0
  -24.3552  -36.8823   22.2066 H   0  0  0  0  0  0
  -23.7272  -37.6379   23.6713 H   0  0  0  0  0  0
  -26.2634  -31.3023   20.6225 H   0  0  0  0  0  0
  -26.9284  -30.6417   22.0706 H   0  0  0  0  0  0
  -28.1654  -28.4782   21.3073 H   0  0  0  0  0  0
  -25.8826  -25.6672   18.9988 H   0  0  0  0  0  0
  -24.0318  -27.2328   18.9387 H   0  0  0  0  0  0
  -23.9153  -30.4779   19.3827 H   0  0  0  0  0  0
  -22.8547  -29.1762   19.8225 H   0  0  0  0  0  0
  -25.1357  -36.1725   25.0785 H   0  0  0  0  0  0
  -21.0043  -28.3383   24.1292 H   0  0  0  0  0  0
  -20.5675  -26.2388   23.3657 H   0  0  0  0  0  0
  -21.6665  -26.7394   22.1218 H   0  0  0  0  0  0
  -19.6935  -25.6268   21.1288 H   0  0  0  0  0  0
  -19.6720  -27.3150   20.6721 H   0  0  0  0  0  0
  -17.4229  -26.6686   21.4026 H   0  0  0  0  0  0
  -18.0351  -26.0105   22.9034 H   0  0  0  0  0  0
  -19.7976  -30.7334   24.2180 H   0  0  0  0  0  0
  -17.5042  -31.6273   24.5168 H   0  0  0  0  0  0
  -15.5380  -30.2967   23.7703 H   0  0  0  0  0  0
  -15.8714  -28.0805   22.7110 H   0  0  0  0  0  0
  -24.5874  -30.7126   25.7623 H   0  0  0  0  0  0
  -24.8827  -32.3013   26.4580 H   0  0  0  0  0  0
  -25.7866  -30.9076   27.0211 H   0  0  0  0  0  0
  -26.3188  -29.6508   24.1508 H   0  0  0  0  0  0
  -27.3959  -29.7278   25.5220 H   0  0  0  0  0  0
  -27.9154  -30.4019   24.0000 H   0  0  0  0  0  0
  -27.2596  -33.3714   26.1912 H   0  0  0  0  0  0
  -28.3941  -32.6821   25.0397 H   0  0  0  0  0  0
  -28.0614  -31.8595   26.5560 H   0  0  0  0  0  0
  -28.2605  -38.0028   24.7439 H   0  0  0  0  0  0
  -28.1023  -36.2549   24.6427 H   0  0  0  0  0  0
  -27.2255  -37.1553   25.8878 H   0  0  0  0  0  0
  -20.9668  -29.8704   21.6591 H   0  0  0  0  0  0
  -26.0133  -38.2739   24.1335 H   0  0  0  0  0  0
  -30.8774  -20.0606   19.7431 H   0  0  0  0  0  0
  -27.7658  -15.8330   21.2878 H   0  0  0  0  0  0
  -29.9030  -23.1423   20.0182 H   0  0  0  0  0  0
  -27.0050  -23.9074   20.5353 H   0  0  0  0  0  0
  -25.7651  -18.9476   21.7700 H   0  0  0  0  0  0
  1 25  1  0  0  0
  1 30  2  0  0  0
  1 79  1  0  0  0
  2  3  1  0  0  0
  2 25  1  0  0  0
  2 82  1  0  0  0
  2 83  1  0  0  0
  3  4  1  0  0  0
  3 84  1  0  0  0
  3 85  1  0  0  0
  4  5  1  0  0  0
  4 86  1  0  0  0
  4 87  1  0  0  0
  5  6  1  0  0  0
  5 26  1  0  0  0
  5 88  1  0  0  0
  6 25  1  0  0  0
  6 89  1  0  0  0
  6 90  1  0  0  0
  7  8  2  0  0  0
  7 26  1  0  0  0
  7 29  1  0  0  0
  8  9  1  0  0  0
  8 22  1  0  0  0
  9 10  1  0  0  0
  9 27  2  0  0  0
 10 11  2  0  0  0
 10 15  1  0  0  0
 11 12  1  0  0  0
 11 91  1  0  0  0
 12 13  2  0  0  0
 12 92  1  0  0  0
 13 14  1  0  0  0
 13 31  1  0  0  0
 14 15  2  0  0  0
 14 93  1  0  0  0
 15 94  1  0  0  0
 16 17  2  0  0  0
 16 21  1  0  0  0
 16 31  1  0  0  0
 17 18  1  0  0  0
 17 95  1  0  0  0
 18 19  2  0  0  0
 18 96  1  0  0  0
 19 20  1  0  0  0
 19 24  1  0  0  0
 20 21  2  0  0  0
 20 97  1  0  0  0
 21 23  1  0  0  0
 22 28  1  0  0  0
 22 32  2  0  0  0
 26 27  1  0  0  0
 28 98  1  0  0  0
 28 99  1  0  0  0
 29100  1  0  0  0
 29101  1  0  0  0
 33 34  1  0  0  0
 33 66  1  0  0  0
 33 70  2  0  0  0
 34 36  1  0  0  0
 34 59  1  0  0  0
 34102  1  0  0  0
 35 44  2  0  0  0
 35 45  1  0  0  0
 35 68  1  0  0  0
 36 56  1  0  0  0
 36103  1  0  0  0
 37 39  1  0  0  0
 37 47  1  0  0  0
 37 66  1  0  0  0
 37104  1  0  0  0
 38 43  2  0  0  0
 38 46  1  0  0  0
 38 47  1  0  0  0
 39 64  1  0  0  0
 39 67  2  0  0  0
 40 52  1  0  0  0
 40 53  2  0  0  0
 40 58  1  0  0  0
 41105  1  0  0  0
 41106  1  0  0  0
 41107  1  0  0  0
 41 48  1  0  0  0
 42 43  1  0  0  0
 42 66  1  0  0  0
 42108  1  0  0  0
 42109  1  0  0  0
 43 44  1  0  0  0
 44110  1  0  0  0
 45 46  2  0  0  0
 45111  1  0  0  0
 46112  1  0  0  0
 47113  1  0  0  0
 47114  1  0  0  0
 48 56  1  0  0  0
 48 65  1  0  0  0
 48115  1  0  0  0
 49 50  1  0  0  0
 49 53  1  0  0  0
 49 64  1  0  0  0
 49116  1  0  0  0
 50 51  1  0  0  0
 50117  1  0  0  0
 50118  1  0  0  0
 51 52  1  0  0  0
 51119  1  0  0  0
 51120  1  0  0  0
 52121  1  0  0  0
 52122  1  0  0  0
 53 54  1  0  0  0
 54 55  2  0  0  0
 54123  1  0  0  0
 55 57  1  0  0  0
 55124  1  0  0  0
 56 69  2  0  0  0
 57 58  2  0  0  0
 57125  1  0  0  0
 58126  1  0  0  0
 59 60  1  0  0  0
 59 61  1  0  0  0
 59 62  1  0  0  0
 60127  1  0  0  0
 60128  1  0  0  0
 60129  1  0  0  0
 61130  1  0  0  0
 61131  1  0  0  0
 61132  1  0  0  0
 62133  1  0  0  0
 62134  1  0  0  0
 62135  1  0  0  0
 63 65  1  0  0  0
 63136  1  0  0  0
 63137  1  0  0  0
 63138  1  0  0  0
 64139  1  0  0  0
 65140  1  0  0  0
 68 78  1  0  0  0
 71 73  1  0  0  0
 71 76  2  0  0  0
 71141  1  0  0  0
 72 75  2  0  0  0
 72 79  1  0  0  0
 72142  1  0  0  0
 73 74  2  0  0  0
 73 79  1  0  0  0
 74 75  1  0  0  0
 74 80  1  0  0  0
 75 81  1  0  0  0
 76 77  1  0  0  0
 76 80  1  0  0  0
 77 78  2  0  0  0
 77143  1  0  0  0
 78144  1  0  0  0
 81145  1  0  0  0
M  ISO  4   1 100  68 101  78 101  79 100
M  END
> <chiral flag>
0

> <version>
0

> <s_m_source_file>
/data/baiqing/PycharmProjects/Reinvent-master-3.2/result/LINK_invent/BTK/process_docking_weight1_custom_product_contain_oxygen_bond_distance_aromatic_linkinvent_7_9_3/rearranged_h_0082.sdf

> <i_m_source_file_index>
80

> <r_mmod_Potential_Energy-OPLS-2005>
1918.96899414062

> <r_mmod_Stretch_Energy-OPLS-2005>
775.9658203125

> <r_mmod_Bend_Energy-OPLS-2005>
689.815734863281

> <r_mmod_Torsional_Energy-OPLS-2005>
170.551177978516

> <r_mmod_Improper_Torsional_Energy-OPLS-2005>
2.20473313331604

> <r_mmod_Van_der_Waal_Energy-OPLS-2005>
109.91625213623

> <r_mmod_Electrostatic_Energy-OPLS-2005>
-308.232940673828

> <r_mmod_Solvation_Energy-OPLS-2005>
-214.760787963867

> <b_mmod_Minimization_Converged-OPLS-2005>
0

> <r_mmod_RMS_Derivative-OPLS-2005>
0.34550815820694

$$$$
80
                    3D
 Structure written by MMmdl.
151160  0  0  1  0            999 V2000
  -30.5072  -14.8830   20.4492 C   0  0  0  0  0  0
  -30.4571  -12.5430   19.4836 C   0  0  0  0  0  0
  -29.5258  -12.5368   18.2463 C   0  0  0  0  0  0
  -28.0543  -12.3266   18.6585 C   0  0  0  0  0  0
  -27.6417  -13.2309   19.8492 C   0  0  2  0  0  0
  -28.6869  -13.1803   20.9858 C   0  0  0  0  0  0
  -25.2530  -13.8192   20.5703 C   0  0  0  0  0  0
  -24.1817  -13.0444   20.9219 C   0  0  0  0  0  0
  -24.6399  -11.6915   20.8746 C   0  0  0  0  0  0
  -23.9070  -10.4295   21.0416 C   0  0  0  0  0  0
  -24.3624   -9.4205   21.9187 C   0  0  0  0  0  0
  -23.6292   -8.2244   22.0758 C   0  0  0  0  0  0
  -22.4276   -8.0281   21.3547 C   0  0  0  0  0  0
  -21.9909   -9.0261   20.4657 C   0  0  0  0  0  0
  -22.7240  -10.2141   20.3065 C   0  0  0  0  0  0
  -21.6850   -6.0733   22.5276 C   0  0  0  0  0  0
  -21.4015   -6.5639   23.8212 C   0  0  0  0  0  0
  -21.3665   -5.6788   24.9173 C   0  0  0  0  0  0
  -21.6044   -4.3050   24.7223 C   0  0  0  0  0  0
  -21.8818   -3.8141   23.4345 C   0  0  0  0  0  0
  -21.9194   -4.6958   22.3401 C   0  0  0  0  0  0
  -22.7840  -13.5231   21.1878 C   0  0  0  0  0  0
  -22.1658   -4.2142   21.0981 F   0  0  0  0  0  0
  -21.5633   -3.4536   25.7737 F   0  0  0  0  0  0
  -29.9767  -13.5986   20.4118 N   0  0  0  0  0  0
  -26.2938  -12.9381   20.3247 N   0  0  0  0  0  0
  -25.9325  -11.6529   20.5723 N   0  0  0  0  0  0
  -22.0481  -12.8232   22.0441 N   0  0  0  0  0  0
  -25.4225  -15.1923   20.4146 N   0  0  0  0  0  0
  -31.6828  -15.0546   20.1080 O   0  0  0  0  0  0
  -21.6640   -6.8876   21.4238 O   0  0  0  0  0  0
  -22.3531  -14.5537   20.6725 O   0  0  0  0  0  0
  -24.6385  -31.8469   23.1909 C   0  0  0  0  0  0
  -25.9170  -32.4711   23.8294 C   0  0  1  0  0  0
  -27.2294  -27.1792   20.1487 C   0  0  0  0  0  0
  -25.5927  -33.8520   24.2203 N   0  0  0  0  0  0
  -23.4420  -30.4664   21.5348 C   0  0  2  0  0  0
  -24.8962  -28.8981   20.1111 C   0  0  0  0  0  0
  -22.7545  -29.4566   22.4861 C   0  0  0  0  0  0
  -18.0303  -28.1391   22.8483 C   0  0  0  0  0  0
  -24.1497  -36.7283   23.2643 C   0  0  0  0  0  0
  -25.9950  -30.7315   21.3887 C   0  0  0  0  0  0
  -26.0694  -29.3455   20.7330 C   0  0  0  0  0  0
  -27.2366  -28.4996   20.7418 C   0  0  0  0  0  0
  -26.0354  -26.8258   19.4828 C   0  0  0  0  0  0
  -24.8891  -27.6484   19.4721 C   0  0  0  0  0  0
  -23.6687  -29.7940   20.1547 C   0  0  0  0  0  0
  -25.4127  -36.3050   24.0314 C   0  0  1  0  0  0
  -20.5914  -28.3722   23.1236 C   0  0  2  0  0  0
  -20.6788  -26.9423   22.5410 C   0  0  0  0  0  0
  -19.5764  -26.6375   21.5217 C   0  0  0  0  0  0
  -18.1946  -26.7927   22.1630 C   0  0  0  0  0  0
  -19.1557  -28.8873   23.2855 C   0  0  0  0  0  0
  -18.9472  -30.1467   23.8883 C   0  0  0  0  0  0
  -17.6471  -30.6587   24.0567 C   0  0  0  0  0  0
  -25.9060  -34.9416   23.5064 C   0  0  0  0  0  0
  -16.5362  -29.9087   23.6331 C   0  0  0  0  0  0
  -16.7289  -28.6501   23.0356 C   0  0  0  0  0  0
  -26.4498  -31.6571   25.0724 C   0  0  0  0  0  0
  -25.3691  -31.3795   26.1432 C   0  0  0  0  0  0
  -27.0332  -30.2951   24.6304 C   0  0  0  0  0  0
  -27.6043  -32.4324   25.7493 C   0  0  0  0  0  0
  -27.5578  -37.1801   24.8462 C   0  0  0  0  0  0
  -21.4242  -29.3049   22.3604 N   0  0  0  0  0  0
  -26.4306  -37.3744   23.9382 N   0  0  0  0  0  0
  -24.7109  -31.0354   22.0936 N   0  0  0  0  0  0
  -23.4197  -28.8117   23.3007 O   0  0  0  0  0  0
  -28.2888  -26.2121   20.1781 O   0  0  0  0  0  0
  -26.5653  -34.8903   22.4646 O   0  0  0  0  0  0
  -23.5508  -32.1333   23.7143 O   0  0  0  0  0  0
  -29.9992  -18.6835   20.2451 C   0  0  0  0  0  0
  -28.2434  -17.8983   21.3508 C   0  0  0  0  0  0
  -29.3868  -17.4294   20.7513 C   0  0  0  0  0  0
  -29.1597  -19.7892   20.5784 C   0  0  0  0  0  0
  -28.7505  -23.6076   20.2787 C   0  0  0  0  0  0
  -30.0807  -23.3749   19.7702 C   0  0  0  0  0  0
  -28.2897  -22.2079   20.6316 C   0  0  0  0  0  0
  -30.9348  -24.3405   19.3907 C   0  0  0  0  0  0
  -28.0099  -24.8058   20.4354 C   0  0  0  0  0  0
  -30.4107  -21.8758   19.7567 C   0  0  0  0  0  0
  -29.2375  -21.2064   20.3451 N   0  0  0  0  0  0
  -29.6005  -15.9183   20.7426 N   0  0  0  0  0  0
  -27.1835  -21.9625   21.1223 O   0  0  0  0  0  0
  -28.0973  -19.2655   21.2605 O   0  0  0  0  0  0
  -31.4896  -12.7200   19.1768 H   0  0  0  0  0  0
  -30.4517  -11.5690   19.9754 H   0  0  0  0  0  0
  -29.8324  -11.7594   17.5456 H   0  0  0  0  0  0
  -29.6213  -13.4836   17.7122 H   0  0  0  0  0  0
  -27.9376  -11.2780   18.9341 H   0  0  0  0  0  0
  -27.3916  -12.4913   17.8078 H   0  0  0  0  0  0
  -27.6252  -14.2475   19.4564 H   0  0  0  0  0  0
  -28.7567  -12.1753   21.4042 H   0  0  0  0  0  0
  -28.3918  -13.8283   21.8132 H   0  0  0  0  0  0
  -25.2781   -9.5679   22.4746 H   0  0  0  0  0  0
  -23.9997   -7.4637   22.7482 H   0  0  0  0  0  0
  -21.0834   -8.8790   19.8971 H   0  0  0  0  0  0
  -22.3700  -10.9685   19.6174 H   0  0  0  0  0  0
  -21.2003   -7.6144   23.9716 H   0  0  0  0  0  0
  -21.1489   -6.0518   25.9079 H   0  0  0  0  0  0
  -22.0592   -2.7600   23.2845 H   0  0  0  0  0  0
  -22.4089  -11.9893   22.4836 H   0  0  0  0  0  0
  -21.1110  -13.1280   22.2663 H   0  0  0  0  0  0
  -24.6494  -15.8396   20.5252 H   0  0  0  0  0  0
  -26.2481  -15.6289   20.0254 H   0  0  0  0  0  0
  -26.7244  -32.5331   23.1039 H   0  0  0  0  0  0
  -25.0035  -33.9638   25.0323 H   0  0  0  0  0  0
  -22.7439  -31.2918   21.3808 H   0  0  0  0  0  0
  -23.3733  -35.9644   23.3336 H   0  0  0  0  0  0
  -24.3576  -36.8879   22.2050 H   0  0  0  0  0  0
  -23.7291  -37.6509   23.6655 H   0  0  0  0  0  0
  -26.1466  -31.4872   20.6169 H   0  0  0  0  0  0
  -26.8665  -30.7812   22.0299 H   0  0  0  0  0  0
  -28.1309  -28.8345   21.2482 H   0  0  0  0  0  0
  -25.9741  -25.8692   18.9833 H   0  0  0  0  0  0
  -23.9962  -27.3019   18.9701 H   0  0  0  0  0  0
  -23.8007  -30.5687   19.3985 H   0  0  0  0  0  0
  -22.7863  -29.2310   19.8451 H   0  0  0  0  0  0
  -25.1325  -36.1894   25.0812 H   0  0  0  0  0  0
  -21.0013  -28.3322   24.1352 H   0  0  0  0  0  0
  -20.5680  -26.2338   23.3633 H   0  0  0  0  0  0
  -21.6654  -26.7425   22.1209 H   0  0  0  0  0  0
  -19.6927  -25.6279   21.1260 H   0  0  0  0  0  0
  -19.6704  -27.3177   20.6741 H   0  0  0  0  0  0
  -17.4212  -26.6670   21.4037 H   0  0  0  0  0  0
  -18.0356  -26.0074   22.9036 H   0  0  0  0  0  0
  -19.7948  -30.7289   24.2248 H   0  0  0  0  0  0
  -17.5022  -31.6264   24.5177 H   0  0  0  0  0  0
  -15.5364  -30.2990   23.7647 H   0  0  0  0  0  0
  -15.8693  -28.0816   22.7075 H   0  0  0  0  0  0
  -24.5830  -30.7189   25.7756 H   0  0  0  0  0  0
  -24.8934  -32.3003   26.4821 H   0  0  0  0  0  0
  -25.7961  -30.8975   27.0235 H   0  0  0  0  0  0
  -26.2934  -29.6693   24.1296 H   0  0  0  0  0  0
  -27.3899  -29.7239   25.4885 H   0  0  0  0  0  0
  -27.8875  -30.4152   23.9638 H   0  0  0  0  0  0
  -27.2631  -33.3618   26.2066 H   0  0  0  0  0  0
  -28.3853  -32.6896   25.0325 H   0  0  0  0  0  0
  -28.0718  -31.8461   26.5413 H   0  0  0  0  0  0
  -28.2626  -38.0063   24.7437 H   0  0  0  0  0  0
  -28.1041  -36.2588   24.6382 H   0  0  0  0  0  0
  -27.2282  -37.1563   25.8862 H   0  0  0  0  0  0
  -20.9438  -29.8762   21.6792 H   0  0  0  0  0  0
  -26.0182  -38.2825   24.1341 H   0  0  0  0  0  0
  -30.9223  -18.7667   19.6881 H   0  0  0  0  0  0
  -27.4284  -17.4123   21.8695 H   0  0  0  0  0  0
  -30.6651  -25.3865   19.4357 H   0  0  0  0  0  0
  -31.9260  -24.1000   19.0327 H   0  0  0  0  0  0
  -27.0189  -24.7128   20.8592 H   0  0  0  0  0  0
  -31.3057  -21.6725   20.3454 H   0  0  0  0  0  0
  -30.5768  -21.5308   18.7356 H   0  0  0  0  0  0
  -28.7596  -15.4551   21.0516 H   0  0  0  0  0  0
  1 25  1  0  0  0
  1 30  2  0  0  0
  1 82  1  0  0  0
  2  3  1  0  0  0
  2 25  1  0  0  0
  2 85  1  0  0  0
  2 86  1  0  0  0
  3  4  1  0  0  0
  3 87  1  0  0  0
  3 88  1  0  0  0
  4  5  1  0  0  0
  4 89  1  0  0  0
  4 90  1  0  0  0
  5  6  1  0  0  0
  5 26  1  0  0  0
  5 91  1  0  0  0
  6 25  1  0  0  0
  6 92  1  0  0  0
  6 93  1  0  0  0
  7  8  2  0  0  0
  7 26  1  0  0  0
  7 29  1  0  0  0
  8  9  1  0  0  0
  8 22  1  0  0  0
  9 10  1  0  0  0
  9 27  2  0  0  0
 10 11  2  0  0  0
 10 15  1  0  0  0
 11 12  1  0  0  0
 11 94  1  0  0  0
 12 13  2  0  0  0
 12 95  1  0  0  0
 13 14  1  0  0  0
 13 31  1  0  0  0
 14 15  2  0  0  0
 14 96  1  0  0  0
 15 97  1  0  0  0
 16 17  2  0  0  0
 16 21  1  0  0  0
 16 31  1  0  0  0
 17 18  1  0  0  0
 17 98  1  0  0  0
 18 19  2  0  0  0
 18 99  1  0  0  0
 19 20  1  0  0  0
 19 24  1  0  0  0
 20 21  2  0  0  0
 20100  1  0  0  0
 21 23  1  0  0  0
 22 28  1  0  0  0
 22 32  2  0  0  0
 26 27  1  0  0  0
 28101  1  0  0  0
 28102  1  0  0  0
 29103  1  0  0  0
 29104  1  0  0  0
 33 34  1  0  0  0
 33 66  1  0  0  0
 33 70  2  0  0  0
 34 36  1  0  0  0
 34 59  1  0  0  0
 34105  1  0  0  0
 35 44  2  0  0  0
 35 45  1  0  0  0
 35 68  1  0  0  0
 36 56  1  0  0  0
 36106  1  0  0  0
 37 39  1  0  0  0
 37 47  1  0  0  0
 37 66  1  0  0  0
 37107  1  0  0  0
 38 43  2  0  0  0
 38 46  1  0  0  0
 38 47  1  0  0  0
 39 64  1  0  0  0
 39 67  2  0  0  0
 40 52  1  0  0  0
 40 53  2  0  0  0
 40 58  1  0  0  0
 41108  1  0  0  0
 41109  1  0  0  0
 41110  1  0  0  0
 41 48  1  0  0  0
 42 43  1  0  0  0
 42 66  1  0  0  0
 42111  1  0  0  0
 42112  1  0  0  0
 43 44  1  0  0  0
 44113  1  0  0  0
 45 46  2  0  0  0
 45114  1  0  0  0
 46115  1  0  0  0
 47116  1  0  0  0
 47117  1  0  0  0
 48 56  1  0  0  0
 48 65  1  0  0  0
 48118  1  0  0  0
 49 50  1  0  0  0
 49 53  1  0  0  0
 49 64  1  0  0  0
 49119  1  0  0  0
 50 51  1  0  0  0
 50120  1  0  0  0
 50121  1  0  0  0
 51 52  1  0  0  0
 51122  1  0  0  0
 51123  1  0  0  0
 52124  1  0  0  0
 52125  1  0  0  0
 53 54  1  0  0  0
 54 55  2  0  0  0
 54126  1  0  0  0
 55 57  1  0  0  0
 55127  1  0  0  0
 56 69  2  0  0  0
 57 58  2  0  0  0
 57128  1  0  0  0
 58129  1  0  0  0
 59 60  1  0  0  0
 59 61  1  0  0  0
 59 62  1  0  0  0
 60130  1  0  0  0
 60131  1  0  0  0
 60132  1  0  0  0
 61133  1  0  0  0
 61134  1  0  0  0
 61135  1  0  0  0
 62136  1  0  0  0
 62137  1  0  0  0
 62138  1  0  0  0
 63 65  1  0  0  0
 63139  1  0  0  0
 63140  1  0  0  0
 63141  1  0  0  0
 64142  1  0  0  0
 65143  1  0  0  0
 68 79  1  0  0  0
 71 73  1  0  0  0
 71 74  2  0  0  0
 71144  1  0  0  0
 72 73  2  0  0  0
 72 84  1  0  0  0
 72145  1  0  0  0
 73 82  1  0  0  0
 74 81  1  0  0  0
 74 84  1  0  0  0
 75 76  1  0  0  0
 75 77  1  0  0  0
 75 79  2  0  0  0
 76 78  2  0  0  0
 76 80  1  0  0  0
 77 81  1  0  0  0
 77 83  2  0  0  0
 78146  1  0  0  0
 78147  1  0  0  0
 79148  1  0  0  0
 80 81  1  0  0  0
 80149  1  0  0  0
 80150  1  0  0  0
 82151  1  0  0  0
M  ISO  4   1 100  68 101  79 101  82 100
M  END
> <chiral flag>
0

> <version>
0

> <s_m_source_file>
/data/baiqing/PycharmProjects/Reinvent-master-3.2/result/LINK_invent/BTK/process_docking_weight1_custom_product_contain_oxygen_bond_distance_aromatic_linkinvent_7_9_3/rearranged_h_0082.sdf

> <i_m_source_file_index>
81

> <r_mmod_Potential_Energy-OPLS-2005>
461.037933349609

> <r_mmod_Stretch_Energy-OPLS-2005>
174.592437744141

> <r_mmod_Bend_Energy-OPLS-2005>
317.171447753906

> <r_mmod_Torsional_Energy-OPLS-2005>
239.986541748047

> <r_mmod_Improper_Torsional_Energy-OPLS-2005>
3.7021164894104

> <r_mmod_Van_der_Waal_Energy-OPLS-2005>
110.367141723633

> <r_mmod_Electrostatic_Energy-OPLS-2005>
-318.086181640625

> <r_mmod_Solvation_Energy-OPLS-2005>
-221.177108764648

> <b_mmod_Minimization_Converged-OPLS-2005>
0

> <r_mmod_RMS_Derivative-OPLS-2005>
1.31521058082581

$$$$
81
                    3D
 Structure written by MMmdl.
144153  0  0  1  0            999 V2000
  -30.4904  -15.1112   20.4131 C   0  0  0  0  0  0
  -30.4366  -12.6910   19.5445 C   0  0  0  0  0  0
  -29.5311  -12.5674   18.2916 C   0  0  0  0  0  0
  -28.0679  -12.3232   18.6990 C   0  0  0  0  0  0
  -27.6208  -13.2725   19.8409 C   0  0  2  0  0  0
  -28.6534  -13.3609   20.9842 C   0  0  0  0  0  0
  -25.2403  -13.8267   20.5759 C   0  0  0  0  0  0
  -24.1764  -13.0439   20.9250 C   0  0  0  0  0  0
  -24.6420  -11.6939   20.8768 C   0  0  0  0  0  0
  -23.9118  -10.4295   21.0409 C   0  0  0  0  0  0
  -24.3664   -9.4200   21.9176 C   0  0  0  0  0  0
  -23.6331   -8.2238   22.0748 C   0  0  0  0  0  0
  -22.4305   -8.0296   21.3545 C   0  0  0  0  0  0
  -21.9954   -9.0276   20.4641 C   0  0  0  0  0  0
  -22.7292  -10.2146   20.3050 C   0  0  0  0  0  0
  -21.6856   -6.0754   22.5287 C   0  0  0  0  0  0
  -21.4025   -6.5657   23.8223 C   0  0  0  0  0  0
  -21.3653   -5.6801   24.9174 C   0  0  0  0  0  0
  -21.6036   -4.3068   24.7225 C   0  0  0  0  0  0
  -21.8815   -3.8165   23.4348 C   0  0  0  0  0  0
  -21.9200   -4.6984   22.3403 C   0  0  0  0  0  0
  -22.7765  -13.5170   21.1889 C   0  0  0  0  0  0
  -22.1666   -4.2168   21.0980 F   0  0  0  0  0  0
  -21.5621   -3.4545   25.7733 F   0  0  0  0  0  0
  -29.9204  -13.8178   20.3995 N   0  0  0  0  0  0
  -26.2856  -12.9548   20.3283 N   0  0  0  0  0  0
  -25.9361  -11.6650   20.5763 N   0  0  0  0  0  0
  -22.0475  -12.8149   22.0491 N   0  0  0  0  0  0
  -25.3993  -15.2002   20.4251 N   0  0  0  0  0  0
  -31.6904  -15.1171   20.1090 O   0  0  0  0  0  0
  -21.6651   -6.8899   21.4250 O   0  0  0  0  0  0
  -22.3413  -14.5445   20.6710 O   0  0  0  0  0  0
  -24.6540  -31.8329   23.1789 C   0  0  0  0  0  0
  -25.9250  -32.4642   23.8226 C   0  0  1  0  0  0
  -27.2182  -27.0111   20.1928 C   0  0  0  0  0  0
  -25.5944  -33.8458   24.2129 N   0  0  0  0  0  0
  -23.4682  -30.4463   21.5240 C   0  0  2  0  0  0
  -24.9247  -28.8505   20.1143 C   0  0  0  0  0  0
  -22.7645  -29.4472   22.4790 C   0  0  0  0  0  0
  -18.0322  -28.1410   22.8478 C   0  0  0  0  0  0
  -24.1494  -36.7252   23.2642 C   0  0  0  0  0  0
  -26.0323  -30.6620   21.4064 C   0  0  0  0  0  0
  -26.1025  -29.2606   20.7534 C   0  0  0  0  0  0
  -27.2478  -28.3586   20.7761 C   0  0  0  0  0  0
  -26.0227  -26.7398   19.4938 C   0  0  0  0  0  0
  -24.9046  -27.6065   19.4637 C   0  0  0  0  0  0
  -23.7093  -29.7707   20.1479 C   0  0  0  0  0  0
  -25.4126  -36.3005   24.0304 C   0  0  1  0  0  0
  -20.5933  -28.3748   23.1210 C   0  0  2  0  0  0
  -20.6791  -26.9434   22.5414 C   0  0  0  0  0  0
  -19.5767  -26.6376   21.5225 C   0  0  0  0  0  0
  -18.1953  -26.7940   22.1637 C   0  0  0  0  0  0
  -19.1579  -28.8901   23.2829 C   0  0  0  0  0  0
  -18.9484  -30.1487   23.8861 C   0  0  0  0  0  0
  -17.6475  -30.6594   24.0564 C   0  0  0  0  0  0
  -25.9082  -34.9378   23.5038 C   0  0  0  0  0  0
  -16.5366  -29.9091   23.6340 C   0  0  0  0  0  0
  -16.7303  -28.6519   23.0353 C   0  0  0  0  0  0
  -26.4521  -31.6557   25.0714 C   0  0  0  0  0  0
  -25.3665  -31.3762   26.1375 C   0  0  0  0  0  0
  -27.0430  -30.2941   24.6413 C   0  0  0  0  0  0
  -27.6006  -32.4369   25.7518 C   0  0  0  0  0  0
  -27.5590  -37.1765   24.8455 C   0  0  0  0  0  0
  -21.4317  -29.3053   22.3566 N   0  0  0  0  0  0
  -26.4291  -37.3733   23.9409 N   0  0  0  0  0  0
  -24.7382  -31.0058   22.0894 N   0  0  0  0  0  0
  -23.4227  -28.8024   23.2994 O   0  0  0  0  0  0
  -28.2157  -25.9273   20.2390 O   0  0  0  0  0  0
  -26.5706  -34.8894   22.4642 O   0  0  0  0  0  0
  -23.5614  -32.1273   23.6916 O   0  0  0  0  0  0
  -28.5902  -17.0187   21.2602 C   0  0  0  0  0  0
  -28.2520  -18.4674   21.2666 C   0  0  0  0  0  0
  -29.7464  -16.5864   20.6159 C   0  0  0  0  0  0
  -29.0918  -19.4023   20.6470 C   0  0  0  0  0  0
  -28.3664  -23.1277   20.5033 C   0  0  0  0  0  0
  -29.5165  -22.2411   20.1246 C   0  0  0  0  0  0
  -27.7600  -21.8436   20.9540 C   0  0  0  0  0  0
  -27.8524  -24.4974   20.5446 C   0  0  0  0  0  0
  -28.8641  -20.9814   20.5548 N   0  0  0  0  0  0
  -30.5908  -22.5340   19.6360 O   0  0  0  0  0  0
  -26.6846  -21.6544   21.4859 O   0  0  0  0  0  0
  -30.4197  -18.2386   20.0476 S   0  0  0  0  0  0
  -31.4698  -12.8539   19.2335 H   0  0  0  0  0  0
  -30.4495  -11.7558   20.1077 H   0  0  0  0  0  0
  -29.8800  -11.7643   17.6437 H   0  0  0  0  0  0
  -29.5976  -13.4874   17.7072 H   0  0  0  0  0  0
  -27.9849  -11.2880   19.0315 H   0  0  0  0  0  0
  -27.4046  -12.4172   17.8374 H   0  0  0  0  0  0
  -27.5648  -14.2625   19.3895 H   0  0  0  0  0  0
  -28.7707  -12.3979   21.4832 H   0  0  0  0  0  0
  -28.3224  -14.0564   21.7534 H   0  0  0  0  0  0
  -25.2819   -9.5658   22.4745 H   0  0  0  0  0  0
  -24.0041   -7.4624   22.7455 H   0  0  0  0  0  0
  -21.0881   -8.8791   19.8951 H   0  0  0  0  0  0
  -22.3756  -10.9683   19.6160 H   0  0  0  0  0  0
  -21.2023   -7.6166   23.9729 H   0  0  0  0  0  0
  -21.1471   -6.0530   25.9071 H   0  0  0  0  0  0
  -22.0600   -2.7635   23.2832 H   0  0  0  0  0  0
  -22.4177  -11.9843   22.4870 H   0  0  0  0  0  0
  -21.1078  -13.1108   22.2714 H   0  0  0  0  0  0
  -24.6162  -15.8366   20.5244 H   0  0  0  0  0  0
  -26.2427  -15.6594   20.1109 H   0  0  0  0  0  0
  -26.7305  -32.5201   23.0932 H   0  0  0  0  0  0
  -24.9985  -33.9559   25.0203 H   0  0  0  0  0  0
  -22.7750  -31.2721   21.3576 H   0  0  0  0  0  0
  -23.3759  -35.9588   23.3307 H   0  0  0  0  0  0
  -24.3574  -36.8896   22.2059 H   0  0  0  0  0  0
  -23.7253  -37.6446   23.6693 H   0  0  0  0  0  0
  -26.2100  -31.4052   20.6299 H   0  0  0  0  0  0
  -26.8952  -30.7149   22.0596 H   0  0  0  0  0  0
  -28.1387  -28.6656   21.3051 H   0  0  0  0  0  0
  -25.9286  -25.7892   18.9878 H   0  0  0  0  0  0
  -24.0125  -27.2910   18.9402 H   0  0  0  0  0  0
  -23.8715  -30.5455   19.3971 H   0  0  0  0  0  0
  -22.8222  -29.2249   19.8218 H   0  0  0  0  0  0
  -25.1314  -36.1827   25.0800 H   0  0  0  0  0  0
  -21.0017  -28.3342   24.1332 H   0  0  0  0  0  0
  -20.5684  -26.2361   23.3647 H   0  0  0  0  0  0
  -21.6649  -26.7411   22.1199 H   0  0  0  0  0  0
  -19.6917  -25.6278   21.1285 H   0  0  0  0  0  0
  -19.6698  -27.3167   20.6738 H   0  0  0  0  0  0
  -17.4207  -26.6684   21.4049 H   0  0  0  0  0  0
  -18.0347  -26.0093   22.9051 H   0  0  0  0  0  0
  -19.7951  -30.7326   24.2209 H   0  0  0  0  0  0
  -17.5020  -31.6262   24.5190 H   0  0  0  0  0  0
  -15.5368  -30.2976   23.7681 H   0  0  0  0  0  0
  -15.8703  -28.0831   22.7065 H   0  0  0  0  0  0
  -24.5820  -30.7163   25.7649 H   0  0  0  0  0  0
  -24.8878  -32.2951   26.4777 H   0  0  0  0  0  0
  -25.7883  -30.8897   27.0185 H   0  0  0  0  0  0
  -26.3087  -29.6614   24.1405 H   0  0  0  0  0  0
  -27.3979  -29.7290   25.5053 H   0  0  0  0  0  0
  -27.9025  -30.4169   23.9816 H   0  0  0  0  0  0
  -27.2520  -33.3619   26.2151 H   0  0  0  0  0  0
  -28.3770  -32.7062   25.0333 H   0  0  0  0  0  0
  -28.0768  -31.8508   26.5405 H   0  0  0  0  0  0
  -28.2561  -38.0107   24.7536 H   0  0  0  0  0  0
  -28.1121  -36.2632   24.6218 H   0  0  0  0  0  0
  -27.2312  -37.1325   25.8857 H   0  0  0  0  0  0
  -20.9558  -29.8776   21.6732 H   0  0  0  0  0  0
  -26.0150  -38.2797   24.1446 H   0  0  0  0  0  0
  -27.9325  -16.3257   21.7633 H   0  0  0  0  0  0
  -27.3447  -18.7718   21.7698 H   0  0  0  0  0  0
  -26.8606  -24.5359   20.9738 H   0  0  0  0  0  0
  1 25  1  0  0  0
  1 30  2  0  0  0
  1 73  1  0  0  0
  2  3  1  0  0  0
  2 25  1  0  0  0
  2 83  1  0  0  0
  2 84  1  0  0  0
  3  4  1  0  0  0
  3 85  1  0  0  0
  3 86  1  0  0  0
  4  5  1  0  0  0
  4 87  1  0  0  0
  4 88  1  0  0  0
  5  6  1  0  0  0
  5 26  1  0  0  0
  5 89  1  0  0  0
  6 25  1  0  0  0
  6 90  1  0  0  0
  6 91  1  0  0  0
  7  8  2  0  0  0
  7 26  1  0  0  0
  7 29  1  0  0  0
  8  9  1  0  0  0
  8 22  1  0  0  0
  9 10  1  0  0  0
  9 27  2  0  0  0
 10 11  2  0  0  0
 10 15  1  0  0  0
 11 12  1  0  0  0
 11 92  1  0  0  0
 12 13  2  0  0  0
 12 93  1  0  0  0
 13 14  1  0  0  0
 13 31  1  0  0  0
 14 15  2  0  0  0
 14 94  1  0  0  0
 15 95  1  0  0  0
 16 17  2  0  0  0
 16 21  1  0  0  0
 16 31  1  0  0  0
 17 18  1  0  0  0
 17 96  1  0  0  0
 18 19  2  0  0  0
 18 97  1  0  0  0
 19 20  1  0  0  0
 19 24  1  0  0  0
 20 21  2  0  0  0
 20 98  1  0  0  0
 21 23  1  0  0  0
 22 28  1  0  0  0
 22 32  2  0  0  0
 26 27  1  0  0  0
 28 99  1  0  0  0
 28100  1  0  0  0
 29101  1  0  0  0
 29102  1  0  0  0
 33 34  1  0  0  0
 33 66  1  0  0  0
 33 70  2  0  0  0
 34 36  1  0  0  0
 34 59  1  0  0  0
 34103  1  0  0  0
 35 44  2  0  0  0
 35 45  1  0  0  0
 35 68  1  0  0  0
 36 56  1  0  0  0
 36104  1  0  0  0
 37 39  1  0  0  0
 37 47  1  0  0  0
 37 66  1  0  0  0
 37105  1  0  0  0
 38 43  2  0  0  0
 38 46  1  0  0  0
 38 47  1  0  0  0
 39 64  1  0  0  0
 39 67  2  0  0  0
 40 52  1  0  0  0
 40 53  2  0  0  0
 40 58  1  0  0  0
 41106  1  0  0  0
 41107  1  0  0  0
 41108  1  0  0  0
 41 48  1  0  0  0
 42 43  1  0  0  0
 42 66  1  0  0  0
 42109  1  0  0  0
 42110  1  0  0  0
 43 44  1  0  0  0
 44111  1  0  0  0
 45 46  2  0  0  0
 45112  1  0  0  0
 46113  1  0  0  0
 47114  1  0  0  0
 47115  1  0  0  0
 48 56  1  0  0  0
 48 65  1  0  0  0
 48116  1  0  0  0
 49 50  1  0  0  0
 49 53  1  0  0  0
 49 64  1  0  0  0
 49117  1  0  0  0
 50 51  1  0  0  0
 50118  1  0  0  0
 50119  1  0  0  0
 51 52  1  0  0  0
 51120  1  0  0  0
 51121  1  0  0  0
 52122  1  0  0  0
 52123  1  0  0  0
 53 54  1  0  0  0
 54 55  2  0  0  0
 54124  1  0  0  0
 55 57  1  0  0  0
 55125  1  0  0  0
 56 69  2  0  0  0
 57 58  2  0  0  0
 57126  1  0  0  0
 58127  1  0  0  0
 59 60  1  0  0  0
 59 61  1  0  0  0
 59 62  1  0  0  0
 60128  1  0  0  0
 60129  1  0  0  0
 60130  1  0  0  0
 61131  1  0  0  0
 61132  1  0  0  0
 61133  1  0  0  0
 62134  1  0  0  0
 62135  1  0  0  0
 62136  1  0  0  0
 63 65  1  0  0  0
 63137  1  0  0  0
 63138  1  0  0  0
 63139  1  0  0  0
 64140  1  0  0  0
 65141  1  0  0  0
 68 78  1  0  0  0
 71 72  1  0  0  0
 71 73  2  0  0  0
 71142  1  0  0  0
 72 74  2  0  0  0
 72143  1  0  0  0
 73 82  1  0  0  0
 74 79  1  0  0  0
 74 82  1  0  0  0
 75 76  1  0  0  0
 75 77  1  0  0  0
 75 78  2  0  0  0
 76 79  1  0  0  0
 76 80  2  0  0  0
 77 79  1  0  0  0
 77 81  2  0  0  0
 78144  1  0  0  0
M  ISO  4   1 100  68 101  73 100  78 101
M  END
> <chiral flag>
0

> <version>
0

> <s_m_source_file>
/data/baiqing/PycharmProjects/Reinvent-master-3.2/result/LINK_invent/BTK/process_docking_weight1_custom_product_contain_oxygen_bond_distance_aromatic_linkinvent_7_9_3/rearranged_h_0082.sdf

> <i_m_source_file_index>
82

> <r_mmod_Potential_Energy-OPLS-2005>
808.102966308594

> <r_mmod_Stretch_Energy-OPLS-2005>
348.121368408203

> <r_mmod_Bend_Energy-OPLS-2005>
419.444702148438

> <r_mmod_Torsional_Energy-OPLS-2005>
180.727523803711

> <r_mmod_Improper_Torsional_Energy-OPLS-2005>
3.21738743782043

> <r_mmod_Van_der_Waal_Energy-OPLS-2005>
103.708282470703

> <r_mmod_Electrostatic_Energy-OPLS-2005>
-349.690460205078

> <r_mmod_Solvation_Energy-OPLS-2005>
-221.016250610352

> <b_mmod_Minimization_Converged-OPLS-2005>
0

> <r_mmod_RMS_Derivative-OPLS-2005>
3.95600414276123

$$$$
82
                    3D
 Structure written by MMmdl.
154163  0  0  1  0            999 V2000
  -30.5798  -14.7519   20.4666 C   0  0  0  0  0  0
  -30.4427  -12.4564   19.4772 C   0  0  0  0  0  0
  -29.5171  -12.5182   18.2403 C   0  0  0  0  0  0
  -28.0408  -12.3416   18.6488 C   0  0  0  0  0  0
  -27.6482  -13.2282   19.8603 C   0  0  2  0  0  0
  -28.6922  -13.1322   20.9954 C   0  0  0  0  0  0
  -25.2533  -13.8188   20.5696 C   0  0  0  0  0  0
  -24.1810  -13.0441   20.9188 C   0  0  0  0  0  0
  -24.6395  -11.6916   20.8738 C   0  0  0  0  0  0
  -23.9069  -10.4295   21.0402 C   0  0  0  0  0  0
  -24.3619   -9.4211   21.9179 C   0  0  0  0  0  0
  -23.6292   -8.2248   22.0754 C   0  0  0  0  0  0
  -22.4273   -8.0284   21.3545 C   0  0  0  0  0  0
  -21.9906   -9.0258   20.4649 C   0  0  0  0  0  0
  -22.7239  -10.2136   20.3055 C   0  0  0  0  0  0
  -21.6855   -6.0732   22.5277 C   0  0  0  0  0  0
  -21.4017   -6.5637   23.8209 C   0  0  0  0  0  0
  -21.3662   -5.6791   24.9172 C   0  0  0  0  0  0
  -21.6044   -4.3053   24.7223 C   0  0  0  0  0  0
  -21.8820   -3.8143   23.4345 C   0  0  0  0  0  0
  -21.9194   -4.6959   22.3401 C   0  0  0  0  0  0
  -22.7832  -13.5227   21.1850 C   0  0  0  0  0  0
  -22.1661   -4.2145   21.0979 F   0  0  0  0  0  0
  -21.5628   -3.4537   25.7736 F   0  0  0  0  0  0
  -29.9977  -13.5020   20.4280 N   0  0  0  0  0  0
  -26.2967  -12.9388   20.3313 N   0  0  0  0  0  0
  -25.9328  -11.6533   20.5752 N   0  0  0  0  0  0
  -22.0476  -12.8225   22.0415 N   0  0  0  0  0  0
  -25.4239  -15.1912   20.4133 N   0  0  0  0  0  0
  -31.7433  -14.9013   20.0796 O   0  0  0  0  0  0
  -21.6641   -6.8878   21.4240 O   0  0  0  0  0  0
  -22.3516  -14.5531   20.6697 O   0  0  0  0  0  0
  -24.6321  -31.8538   23.1977 C   0  0  0  0  0  0
  -25.9139  -32.4748   23.8330 C   0  0  1  0  0  0
  -27.2261  -27.2596   20.1161 C   0  0  0  0  0  0
  -25.5928  -33.8551   24.2246 N   0  0  0  0  0  0
  -23.4301  -30.4760   21.5407 C   0  0  2  0  0  0
  -24.8801  -28.9254   20.1042 C   0  0  0  0  0  0
  -22.7512  -29.4588   22.4903 C   0  0  0  0  0  0
  -18.0292  -28.1390   22.8486 C   0  0  0  0  0  0
  -24.1486  -36.7278   23.2640 C   0  0  0  0  0  0
  -25.9774  -30.7642   21.3808 C   0  0  0  0  0  0
  -26.0517  -29.3882   20.7173 C   0  0  0  0  0  0
  -27.2253  -28.5648   20.7186 C   0  0  0  0  0  0
  -26.0268  -26.8623   19.4831 C   0  0  0  0  0  0
  -24.8727  -27.6701   19.4772 C   0  0  0  0  0  0
  -23.6496  -29.8115   20.1559 C   0  0  0  0  0  0
  -25.4114  -36.3065   24.0322 C   0  0  1  0  0  0
  -20.5898  -28.3702   23.1269 C   0  0  2  0  0  0
  -20.6780  -26.9417   22.5412 C   0  0  0  0  0  0
  -19.5754  -26.6383   21.5217 C   0  0  0  0  0  0
  -18.1934  -26.7931   22.1629 C   0  0  0  0  0  0
  -19.1548  -28.8864   23.2870 C   0  0  0  0  0  0
  -18.9467  -30.1465   23.8889 C   0  0  0  0  0  0
  -17.6465  -30.6591   24.0563 C   0  0  0  0  0  0
  -25.9057  -34.9435   23.5092 C   0  0  0  0  0  0
  -16.5357  -29.9088   23.6330 C   0  0  0  0  0  0
  -16.7278  -28.6505   23.0353 C   0  0  0  0  0  0
  -26.4500  -31.6583   25.0730 C   0  0  0  0  0  0
  -25.3719  -31.3752   26.1451 C   0  0  0  0  0  0
  -27.0350  -30.2992   24.6242 C   0  0  0  0  0  0
  -27.6049  -32.4334   25.7502 C   0  0  0  0  0  0
  -27.5578  -37.1792   24.8460 C   0  0  0  0  0  0
  -21.4217  -29.3040   22.3649 N   0  0  0  0  0  0
  -26.4286  -37.3767   23.9408 N   0  0  0  0  0  0
  -24.6986  -31.0495   22.0958 N   0  0  0  0  0  0
  -23.4205  -28.8133   23.3011 O   0  0  0  0  0  0
  -28.2836  -26.3221   20.2236 O   0  0  0  0  0  0
  -26.5636  -34.8913   22.4665 O   0  0  0  0  0  0
  -23.5466  -32.1368   23.7264 O   0  0  0  0  0  0
  -30.4638  -19.3841   19.3845 C   0  0  0  0  0  0
  -30.6125  -17.9788   19.6477 C   0  0  0  0  0  0
  -28.7263  -19.5483   21.0086 C   0  0  0  0  0  0
  -29.5060  -20.2345   20.0321 C   0  0  0  0  0  0
  -29.7897  -17.2897   20.5803 C   0  0  0  0  0  0
  -28.8535  -18.1345   21.2569 C   0  0  0  0  0  0
  -28.7453  -23.9542   19.1882 C   0  0  0  0  0  0
  -28.9765  -23.2870   17.9258 C   0  0  0  0  0  0
  -28.9033  -22.8449   20.2012 C   0  0  0  0  0  0
  -28.7325  -23.7772   16.6943 C   0  0  0  0  0  0
  -28.4720  -25.3306   19.2321 C   0  0  0  0  0  0
  -29.4754  -21.8922   18.1427 C   0  0  0  0  0  0
  -29.2859  -21.6478   19.5708 N   0  0  0  0  0  0
  -29.7736  -15.8197   20.8278 N   0  0  0  0  0  0
  -28.7233  -22.9486   21.4185 O   0  0  0  0  0  0
  -28.0202  -17.5618   22.1587 F   0  0  0  0  0  0
  -31.4827  -12.5920   19.1761 H   0  0  0  0  0  0
  -30.3952  -11.4724   19.9462 H   0  0  0  0  0  0
  -29.7994  -11.7512   17.5179 H   0  0  0  0  0  0
  -29.6451  -13.4764   17.7344 H   0  0  0  0  0  0
  -27.8912  -11.2906   18.8979 H   0  0  0  0  0  0
  -27.3869  -12.5492   17.8011 H   0  0  0  0  0  0
  -27.6507  -14.2555   19.4959 H   0  0  0  0  0  0
  -28.7275  -12.1210   21.4029 H   0  0  0  0  0  0
  -28.4210  -13.7815   21.8292 H   0  0  0  0  0  0
  -25.2764   -9.5686   22.4751 H   0  0  0  0  0  0
  -24.0002   -7.4641   22.7474 H   0  0  0  0  0  0
  -21.0834   -8.8780   19.8957 H   0  0  0  0  0  0
  -22.3696  -10.9675   19.6165 H   0  0  0  0  0  0
  -21.2012   -7.6145   23.9714 H   0  0  0  0  0  0
  -21.1482   -6.0518   25.9075 H   0  0  0  0  0  0
  -22.0597   -2.7604   23.2848 H   0  0  0  0  0  0
  -22.4090  -11.9890   22.4809 H   0  0  0  0  0  0
  -21.1100  -13.1262   22.2624 H   0  0  0  0  0  0
  -24.6626  -15.8490   20.5404 H   0  0  0  0  0  0
  -26.2809  -15.6355   20.1100 H   0  0  0  0  0  0
  -26.7209  -32.5394   23.1072 H   0  0  0  0  0  0
  -25.0052  -33.9685   25.0377 H   0  0  0  0  0  0
  -22.7264  -31.2983   21.3950 H   0  0  0  0  0  0
  -23.3750  -35.9610   23.3298 H   0  0  0  0  0  0
  -24.3573  -36.8906   22.2055 H   0  0  0  0  0  0
  -23.7239  -37.6476   23.6671 H   0  0  0  0  0  0
  -26.1210  -31.5272   20.6146 H   0  0  0  0  0  0
  -26.8525  -30.8093   22.0176 H   0  0  0  0  0  0
  -28.1173  -28.9057   21.2255 H   0  0  0  0  0  0
  -25.9519  -25.8861   19.0266 H   0  0  0  0  0  0
  -23.9723  -27.3052   19.0023 H   0  0  0  0  0  0
  -23.7730  -30.5894   19.4017 H   0  0  0  0  0  0
  -22.7682  -29.2453   19.8497 H   0  0  0  0  0  0
  -25.1296  -36.1909   25.0815 H   0  0  0  0  0  0
  -20.9987  -28.3286   24.1392 H   0  0  0  0  0  0
  -20.5683  -26.2310   23.3619 H   0  0  0  0  0  0
  -21.6648  -26.7440   22.1204 H   0  0  0  0  0  0
  -19.6912  -25.6292   21.1250 H   0  0  0  0  0  0
  -19.6688  -27.3191   20.6745 H   0  0  0  0  0  0
  -17.4202  -26.6677   21.4034 H   0  0  0  0  0  0
  -18.0332  -26.0076   22.9030 H   0  0  0  0  0  0
  -19.7942  -30.7284   24.2253 H   0  0  0  0  0  0
  -17.5019  -31.6269   24.5167 H   0  0  0  0  0  0
  -15.5357  -30.2988   23.7656 H   0  0  0  0  0  0
  -15.8677  -28.0820   22.7074 H   0  0  0  0  0  0
  -24.5867  -30.7134   25.7778 H   0  0  0  0  0  0
  -24.8949  -32.2935   26.4884 H   0  0  0  0  0  0
  -25.8023  -30.8911   27.0225 H   0  0  0  0  0  0
  -26.2948  -29.6740   24.1237 H   0  0  0  0  0  0
  -27.3981  -29.7257   25.4781 H   0  0  0  0  0  0
  -27.8845  -30.4249   23.9527 H   0  0  0  0  0  0
  -27.2644  -33.3630   26.2074 H   0  0  0  0  0  0
  -28.3858  -32.6904   25.0333 H   0  0  0  0  0  0
  -28.0720  -31.8471   26.5425 H   0  0  0  0  0  0
  -28.2587  -38.0097   24.7516 H   0  0  0  0  0  0
  -28.1081  -36.2627   24.6271 H   0  0  0  0  0  0
  -27.2297  -37.1422   25.8864 H   0  0  0  0  0  0
  -20.9406  -29.8762   21.6852 H   0  0  0  0  0  0
  -26.0161  -38.2836   24.1422 H   0  0  0  0  0  0
  -31.1105  -19.8036   18.6275 H   0  0  0  0  0  0
  -31.3497  -17.4249   19.0840 H   0  0  0  0  0  0
  -27.9623  -20.0928   21.5437 H   0  0  0  0  0  0
  -28.3379  -24.7648   16.5109 H   0  0  0  0  0  0
  -28.9228  -23.1706   15.8200 H   0  0  0  0  0  0
  -28.4352  -25.8546   18.2902 H   0  0  0  0  0  0
  -30.5286  -21.8363   17.8654 H   0  0  0  0  0  0
  -28.9062  -21.1782   17.5450 H   0  0  0  0  0  0
  -28.9243  -15.5175   21.2817 H   0  0  0  0  0  0
  1 25  1  0  0  0
  1 30  2  0  0  0
  1 84  1  0  0  0
  2  3  1  0  0  0
  2 25  1  0  0  0
  2 87  1  0  0  0
  2 88  1  0  0  0
  3  4  1  0  0  0
  3 89  1  0  0  0
  3 90  1  0  0  0
  4  5  1  0  0  0
  4 91  1  0  0  0
  4 92  1  0  0  0
  5  6  1  0  0  0
  5 26  1  0  0  0
  5 93  1  0  0  0
  6 25  1  0  0  0
  6 94  1  0  0  0
  6 95  1  0  0  0
  7  8  2  0  0  0
  7 26  1  0  0  0
  7 29  1  0  0  0
  8  9  1  0  0  0
  8 22  1  0  0  0
  9 10  1  0  0  0
  9 27  2  0  0  0
 10 11  2  0  0  0
 10 15  1  0  0  0
 11 12  1  0  0  0
 11 96  1  0  0  0
 12 13  2  0  0  0
 12 97  1  0  0  0
 13 14  1  0  0  0
 13 31  1  0  0  0
 14 15  2  0  0  0
 14 98  1  0  0  0
 15 99  1  0  0  0
 16 17  2  0  0  0
 16 21  1  0  0  0
 16 31  1  0  0  0
 17 18  1  0  0  0
 17100  1  0  0  0
 18 19  2  0  0  0
 18101  1  0  0  0
 19 20  1  0  0  0
 19 24  1  0  0  0
 20 21  2  0  0  0
 20102  1  0  0  0
 21 23  1  0  0  0
 22 28  1  0  0  0
 22 32  2  0  0  0
 26 27  1  0  0  0
 28103  1  0  0  0
 28104  1  0  0  0
 29105  1  0  0  0
 29106  1  0  0  0
 33 34  1  0  0  0
 33 66  1  0  0  0
 33 70  2  0  0  0
 34 36  1  0  0  0
 34 59  1  0  0  0
 34107  1  0  0  0
 35 44  2  0  0  0
 35 45  1  0  0  0
 35 68  1  0  0  0
 36 56  1  0  0  0
 36108  1  0  0  0
 37 39  1  0  0  0
 37 47  1  0  0  0
 37 66  1  0  0  0
 37109  1  0  0  0
 38 43  2  0  0  0
 38 46  1  0  0  0
 38 47  1  0  0  0
 39 64  1  0  0  0
 39 67  2  0  0  0
 40 52  1  0  0  0
 40 53  2  0  0  0
 40 58  1  0  0  0
 41110  1  0  0  0
 41111  1  0  0  0
 41112  1  0  0  0
 41 48  1  0  0  0
 42 43  1  0  0  0
 42 66  1  0  0  0
 42113  1  0  0  0
 42114  1  0  0  0
 43 44  1  0  0  0
 44115  1  0  0  0
 45 46  2  0  0  0
 45116  1  0  0  0
 46117  1  0  0  0
 47118  1  0  0  0
 47119  1  0  0  0
 48 56  1  0  0  0
 48 65  1  0  0  0
 48120  1  0  0  0
 49 50  1  0  0  0
 49 53  1  0  0  0
 49 64  1  0  0  0
 49121  1  0  0  0
 50 51  1  0  0  0
 50122  1  0  0  0
 50123  1  0  0  0
 51 52  1  0  0  0
 51124  1  0  0  0
 51125  1  0  0  0
 52126  1  0  0  0
 52127  1  0  0  0
 53 54  1  0  0  0
 54 55  2  0  0  0
 54128  1  0  0  0
 55 57  1  0  0  0
 55129  1  0  0  0
 56 69  2  0  0  0
 57 58  2  0  0  0
 57130  1  0  0  0
 58131  1  0  0  0
 59 60  1  0  0  0
 59 61  1  0  0  0
 59 62  1  0  0  0
 60132  1  0  0  0
 60133  1  0  0  0
 60134  1  0  0  0
 61135  1  0  0  0
 61136  1  0  0  0
 61137  1  0  0  0
 62138  1  0  0  0
 62139  1  0  0  0
 62140  1  0  0  0
 63 65  1  0  0  0
 63141  1  0  0  0
 63142  1  0  0  0
 63143  1  0  0  0
 64144  1  0  0  0
 65145  1  0  0  0
 68 81  1  0  0  0
 71 72  2  0  0  0
 71 74  1  0  0  0
 71146  1  0  0  0
 72 75  1  0  0  0
 72147  1  0  0  0
 73 74  2  0  0  0
 73 76  1  0  0  0
 73148  1  0  0  0
 74 83  1  0  0  0
 75 76  2  0  0  0
 75 84  1  0  0  0
 76 86  1  0  0  0
 77 78  1  0  0  0
 77 79  1  0  0  0
 77 81  2  0  0  0
 78 80  2  0  0  0
 78 82  1  0  0  0
 79 83  1  0  0  0
 79 85  2  0  0  0
 80149  1  0  0  0
 80150  1  0  0  0
 81151  1  0  0  0
 82 83  1  0  0  0
 82152  1  0  0  0
 82153  1  0  0  0
 84154  1  0  0  0
M  ISO  4   1 100  68 101  81 101  84 100
M  END
> <chiral flag>
0

> <version>
0

> <s_m_source_file>
/data/baiqing/PycharmProjects/Reinvent-master-3.2/result/LINK_invent/BTK/process_docking_weight1_custom_product_contain_oxygen_bond_distance_aromatic_linkinvent_7_9_3/rearranged_h_0082.sdf

> <i_m_source_file_index>
83

> <r_mmod_Potential_Energy-OPLS-2005>
332.248107910156

> <r_mmod_Stretch_Energy-OPLS-2005>
121.943115234375

> <r_mmod_Bend_Energy-OPLS-2005>
258.610717773438

> <r_mmod_Torsional_Energy-OPLS-2005>
271.791656494141

> <r_mmod_Improper_Torsional_Energy-OPLS-2005>
4.41117477416992

> <r_mmod_Van_der_Waal_Energy-OPLS-2005>
139.513473510742

> <r_mmod_Electrostatic_Energy-OPLS-2005>
-341.862670898438

> <r_mmod_Solvation_Energy-OPLS-2005>
-214.694534301758

> <b_mmod_Minimization_Converged-OPLS-2005>
0

> <r_mmod_RMS_Derivative-OPLS-2005>
0.675574421882629

$$$$
83
                    3D
 Structure written by MMmdl.
154162  0  0  1  0            999 V2000
  -30.6643  -14.5296   20.5514 C   0  0  0  0  0  0
  -30.4324  -12.3353   19.4330 C   0  0  0  0  0  0
  -29.5017  -12.5113   18.2136 C   0  0  0  0  0  0
  -28.0228  -12.3628   18.6237 C   0  0  0  0  0  0
  -27.6613  -13.2074   19.8747 C   0  0  2  0  0  0
  -28.7033  -13.0009   20.9979 C   0  0  0  0  0  0
  -25.2588  -13.8155   20.5680 C   0  0  0  0  0  0
  -24.1837  -13.0433   20.9168 C   0  0  0  0  0  0
  -24.6391  -11.6900   20.8726 C   0  0  0  0  0  0
  -23.9058  -10.4289   21.0403 C   0  0  0  0  0  0
  -24.3612   -9.4207   21.9181 C   0  0  0  0  0  0
  -23.6285   -8.2245   22.0754 C   0  0  0  0  0  0
  -22.4268   -8.0281   21.3547 C   0  0  0  0  0  0
  -21.9900   -9.0255   20.4651 C   0  0  0  0  0  0
  -22.7231  -10.2131   20.3055 C   0  0  0  0  0  0
  -21.6852   -6.0732   22.5279 C   0  0  0  0  0  0
  -21.4016   -6.5637   23.8212 C   0  0  0  0  0  0
  -21.3657   -5.6791   24.9175 C   0  0  0  0  0  0
  -21.6044   -4.3054   24.7226 C   0  0  0  0  0  0
  -21.8819   -3.8144   23.4347 C   0  0  0  0  0  0
  -21.9192   -4.6960   22.3403 C   0  0  0  0  0  0
  -22.7863  -13.5239   21.1836 C   0  0  0  0  0  0
  -22.1662   -4.2147   21.0981 F   0  0  0  0  0  0
  -21.5626   -3.4535   25.7738 F   0  0  0  0  0  0
  -30.0326  -13.3237   20.4499 N   0  0  0  0  0  0
  -26.3023  -12.9325   20.3357 N   0  0  0  0  0  0
  -25.9319  -11.6486   20.5754 N   0  0  0  0  0  0
  -22.0498  -12.8241   22.0396 N   0  0  0  0  0  0
  -25.4310  -15.1877   20.4115 N   0  0  0  0  0  0
  -31.7889  -14.7313   20.0823 O   0  0  0  0  0  0
  -21.6637   -6.8876   21.4242 O   0  0  0  0  0  0
  -22.3558  -14.5551   20.6690 O   0  0  0  0  0  0
  -24.6179  -31.8652   23.2077 C   0  0  0  0  0  0
  -25.9056  -32.4811   23.8387 C   0  0  1  0  0  0
  -27.2348  -27.4049   20.1036 C   0  0  0  0  0  0
  -25.5898  -33.8609   24.2317 N   0  0  0  0  0  0
  -23.4093  -30.4871   21.5480 C   0  0  2  0  0  0
  -24.8600  -28.9507   20.1122 C   0  0  0  0  0  0
  -22.7433  -29.4636   22.4969 C   0  0  0  0  0  0
  -18.0272  -28.1375   22.8488 C   0  0  0  0  0  0
  -24.1486  -36.7312   23.2639 C   0  0  0  0  0  0
  -25.9416  -30.8220   21.3669 C   0  0  0  0  0  0
  -26.0219  -29.4543   20.7131 C   0  0  0  0  0  0
  -27.2158  -28.6882   20.7078 C   0  0  0  0  0  0
  -26.0603  -26.9254   19.4926 C   0  0  0  0  0  0
  -24.8754  -27.6864   19.4972 C   0  0  0  0  0  0
  -23.6214  -29.8192   20.1631 C   0  0  0  0  0  0
  -25.4107  -36.3106   24.0336 C   0  0  1  0  0  0
  -20.5865  -28.3668   23.1303 C   0  0  2  0  0  0
  -20.6760  -26.9399   22.5414 C   0  0  0  0  0  0
  -19.5741  -26.6379   21.5208 C   0  0  0  0  0  0
  -18.1919  -26.7920   22.1620 C   0  0  0  0  0  0
  -19.1522  -28.8837   23.2894 C   0  0  0  0  0  0
  -18.9451  -30.1441   23.8909 C   0  0  0  0  0  0
  -17.6454  -30.6584   24.0558 C   0  0  0  0  0  0
  -25.9034  -34.9469   23.5125 C   0  0  0  0  0  0
  -16.5345  -29.9086   23.6326 C   0  0  0  0  0  0
  -16.7261  -28.6500   23.0352 C   0  0  0  0  0  0
  -26.4476  -31.6596   25.0725 C   0  0  0  0  0  0
  -25.3736  -31.3709   26.1471 C   0  0  0  0  0  0
  -27.0311  -30.3032   24.6122 C   0  0  0  0  0  0
  -27.6051  -32.4317   25.7486 C   0  0  0  0  0  0
  -27.5578  -37.1811   24.8465 C   0  0  0  0  0  0
  -21.4153  -29.3032   22.3712 N   0  0  0  0  0  0
  -26.4295  -37.3789   23.9404 N   0  0  0  0  0  0
  -24.6745  -31.0726   22.0991 N   0  0  0  0  0  0
  -23.4187  -28.8172   23.3020 O   0  0  0  0  0  0
  -28.3413  -26.5764   20.1183 O   0  0  0  0  0  0
  -26.5601  -34.8924   22.4689 O   0  0  0  0  0  0
  -23.5361  -32.1411   23.7450 O   0  0  0  0  0  0
  -30.3528  -19.2950   21.1453 C   0  0  0  0  0  0
  -29.0342  -18.6540   19.2167 C   0  0  0  0  0  0
  -30.4872  -17.9227   21.4994 C   0  0  0  0  0  0
  -29.1663  -17.2886   19.5693 C   0  0  0  0  0  0
  -29.6259  -19.6849   19.9916 C   0  0  0  0  0  0
  -29.9062  -16.8986   20.7091 C   0  0  0  0  0  0
  -28.4031  -25.7122   21.1964 C   0  0  0  0  0  0
  -29.5148  -21.1056   19.5353 C   0  0  0  0  0  0
  -28.6992  -24.3797   21.2209 C   0  0  0  0  0  0
  -29.0238  -23.5579   20.0446 C   0  0  0  0  0  0
  -29.9358  -15.5213   21.1129 N   0  0  0  0  0  0
  -29.2129  -22.1449   20.3633 N   0  0  0  0  0  0
  -29.7192  -21.3192   18.2302 N   0  3  0  0  0  0
  -29.1320  -23.9668   18.8823 O   0  0  0  0  0  0
  -28.6886  -23.7534   22.4108 O   0  0  0  0  0  0
  -31.4758  -12.4463   19.1323 H   0  0  0  0  0  0
  -30.3470  -11.3257   19.8375 H   0  0  0  0  0  0
  -29.7493  -11.7813   17.4418 H   0  0  0  0  0  0
  -29.6619  -13.4939   17.7666 H   0  0  0  0  0  0
  -27.8407  -11.3065   18.8264 H   0  0  0  0  0  0
  -27.3721  -12.6279   17.7897 H   0  0  0  0  0  0
  -27.6995  -14.2526   19.5692 H   0  0  0  0  0  0
  -28.6904  -11.9647   21.3395 H   0  0  0  0  0  0
  -28.4543  -13.5965   21.8772 H   0  0  0  0  0  0
  -25.2756   -9.5682   22.4756 H   0  0  0  0  0  0
  -23.9994   -7.4636   22.7471 H   0  0  0  0  0  0
  -21.0830   -8.8774   19.8958 H   0  0  0  0  0  0
  -22.3689  -10.9669   19.6163 H   0  0  0  0  0  0
  -21.2012   -7.6146   23.9716 H   0  0  0  0  0  0
  -21.1478   -6.0520   25.9078 H   0  0  0  0  0  0
  -22.0601   -2.7606   23.2850 H   0  0  0  0  0  0
  -22.4095  -11.9893   22.4785 H   0  0  0  0  0  0
  -21.1124  -13.1289   22.2604 H   0  0  0  0  0  0
  -24.6643  -15.8419   20.5245 H   0  0  0  0  0  0
  -26.2847  -15.6312   20.0994 H   0  0  0  0  0  0
  -26.7128  -32.5520   23.1152 H   0  0  0  0  0  0
  -25.0044  -33.9766   25.0459 H   0  0  0  0  0  0
  -22.6993  -31.3046   21.4066 H   0  0  0  0  0  0
  -23.3741  -35.9654   23.3321 H   0  0  0  0  0  0
  -24.3579  -36.8910   22.2050 H   0  0  0  0  0  0
  -23.7252  -37.6528   23.6644 H   0  0  0  0  0  0
  -26.0584  -31.5880   20.5990 H   0  0  0  0  0  0
  -26.8272  -30.8753   21.9883 H   0  0  0  0  0  0
  -28.1113  -29.0660   21.1810 H   0  0  0  0  0  0
  -26.0621  -25.9489   19.0287 H   0  0  0  0  0  0
  -23.9827  -27.2926   19.0307 H   0  0  0  0  0  0
  -23.7303  -30.5943   19.4039 H   0  0  0  0  0  0
  -22.7456  -29.2395   19.8662 H   0  0  0  0  0  0
  -25.1286  -36.1972   25.0830 H   0  0  0  0  0  0
  -20.9955  -28.3237   24.1423 H   0  0  0  0  0  0
  -20.5650  -26.2275   23.3604 H   0  0  0  0  0  0
  -21.6635  -26.7431   22.1216 H   0  0  0  0  0  0
  -19.6904  -25.6292   21.1232 H   0  0  0  0  0  0
  -19.6682  -27.3193   20.6739 H   0  0  0  0  0  0
  -17.4187  -26.6663   21.4024 H   0  0  0  0  0  0
  -18.0325  -26.0061   22.9016 H   0  0  0  0  0  0
  -19.7929  -30.7248   24.2288 H   0  0  0  0  0  0
  -17.5012  -31.6267   24.5155 H   0  0  0  0  0  0
  -15.5347  -30.2991   23.7644 H   0  0  0  0  0  0
  -15.8658  -28.0818   22.7071 H   0  0  0  0  0  0
  -24.5899  -30.7069   25.7805 H   0  0  0  0  0  0
  -24.8939  -32.2867   26.4933 H   0  0  0  0  0  0
  -25.8080  -30.8862   27.0222 H   0  0  0  0  0  0
  -26.2863  -29.6793   24.1166 H   0  0  0  0  0  0
  -27.4058  -29.7271   25.4594 H   0  0  0  0  0  0
  -27.8708  -30.4344   23.9293 H   0  0  0  0  0  0
  -27.2671  -33.3606   26.2093 H   0  0  0  0  0  0
  -28.3843  -32.6897   25.0301 H   0  0  0  0  0  0
  -28.0741  -31.8427   26.5380 H   0  0  0  0  0  0
  -28.2608  -38.0096   24.7499 H   0  0  0  0  0  0
  -28.1062  -36.2629   24.6306 H   0  0  0  0  0  0
  -27.2296  -37.1484   25.8868 H   0  0  0  0  0  0
  -20.9315  -29.8768   21.6945 H   0  0  0  0  0  0
  -26.0185  -38.2871   24.1395 H   0  0  0  0  0  0
  -30.8318  -20.0440   21.7608 H   0  0  0  0  0  0
  -28.4618  -18.9053   18.3341 H   0  0  0  0  0  0
  -31.0379  -17.6600   22.3919 H   0  0  0  0  0  0
  -28.6822  -16.5419   18.9556 H   0  0  0  0  0  0
  -28.1698  -26.2432   22.1100 H   0  0  0  0  0  0
  -29.0845  -15.1905   21.5397 H   0  0  0  0  0  0
  -29.0941  -21.8611   21.3242 H   0  0  0  0  0  0
  -30.0113  -20.5652   17.6286 H   0  0  0  0  0  0
  -29.6372  -22.2596   17.8652 H   0  0  0  0  0  0
  -28.4659  -24.3964   23.0713 H   0  0  0  0  0  0
  1 25  1  0  0  0
  1 30  2  0  0  0
  1 81  1  0  0  0
  2  3  1  0  0  0
  2 25  1  0  0  0
  2 86  1  0  0  0
  2 87  1  0  0  0
  3  4  1  0  0  0
  3 88  1  0  0  0
  3 89  1  0  0  0
  4  5  1  0  0  0
  4 90  1  0  0  0
  4 91  1  0  0  0
  5  6  1  0  0  0
  5 26  1  0  0  0
  5 92  1  0  0  0
  6 25  1  0  0  0
  6 93  1  0  0  0
  6 94  1  0  0  0
  7  8  2  0  0  0
  7 26  1  0  0  0
  7 29  1  0  0  0
  8  9  1  0  0  0
  8 22  1  0  0  0
  9 10  1  0  0  0
  9 27  2  0  0  0
 10 11  2  0  0  0
 10 15  1  0  0  0
 11 12  1  0  0  0
 11 95  1  0  0  0
 12 13  2  0  0  0
 12 96  1  0  0  0
 13 14  1  0  0  0
 13 31  1  0  0  0
 14 15  2  0  0  0
 14 97  1  0  0  0
 15 98  1  0  0  0
 16 17  2  0  0  0
 16 21  1  0  0  0
 16 31  1  0  0  0
 17 18  1  0  0  0
 17 99  1  0  0  0
 18 19  2  0  0  0
 18100  1  0  0  0
 19 20  1  0  0  0
 19 24  1  0  0  0
 20 21  2  0  0  0
 20101  1  0  0  0
 21 23  1  0  0  0
 22 28  1  0  0  0
 22 32  2  0  0  0
 26 27  1  0  0  0
 28102  1  0  0  0
 28103  1  0  0  0
 29104  1  0  0  0
 29105  1  0  0  0
 33 34  1  0  0  0
 33 66  1  0  0  0
 33 70  2  0  0  0
 34 36  1  0  0  0
 34 59  1  0  0  0
 34106  1  0  0  0
 35 44  2  0  0  0
 35 45  1  0  0  0
 35 68  1  0  0  0
 36 56  1  0  0  0
 36107  1  0  0  0
 37 39  1  0  0  0
 37 47  1  0  0  0
 37 66  1  0  0  0
 37108  1  0  0  0
 38 43  2  0  0  0
 38 46  1  0  0  0
 38 47  1  0  0  0
 39 64  1  0  0  0
 39 67  2  0  0  0
 40 52  1  0  0  0
 40 53  2  0  0  0
 40 58  1  0  0  0
 41109  1  0  0  0
 41110  1  0  0  0
 41111  1  0  0  0
 41 48  1  0  0  0
 42 43  1  0  0  0
 42 66  1  0  0  0
 42112  1  0  0  0
 42113  1  0  0  0
 43 44  1  0  0  0
 44114  1  0  0  0
 45 46  2  0  0  0
 45115  1  0  0  0
 46116  1  0  0  0
 47117  1  0  0  0
 47118  1  0  0  0
 48 56  1  0  0  0
 48 65  1  0  0  0
 48119  1  0  0  0
 49 50  1  0  0  0
 49 53  1  0  0  0
 49 64  1  0  0  0
 49120  1  0  0  0
 50 51  1  0  0  0
 50121  1  0  0  0
 50122  1  0  0  0
 51 52  1  0  0  0
 51123  1  0  0  0
 51124  1  0  0  0
 52125  1  0  0  0
 52126  1  0  0  0
 53 54  1  0  0  0
 54 55  2  0  0  0
 54127  1  0  0  0
 55 57  1  0  0  0
 55128  1  0  0  0
 56 69  2  0  0  0
 57 58  2  0  0  0
 57129  1  0  0  0
 58130  1  0  0  0
 59 60  1  0  0  0
 59 61  1  0  0  0
 59 62  1  0  0  0
 60131  1  0  0  0
 60132  1  0  0  0
 60133  1  0  0  0
 61134  1  0  0  0
 61135  1  0  0  0
 61136  1  0  0  0
 62137  1  0  0  0
 62138  1  0  0  0
 62139  1  0  0  0
 63 65  1  0  0  0
 63140  1  0  0  0
 63141  1  0  0  0
 63142  1  0  0  0
 64143  1  0  0  0
 65144  1  0  0  0
 68 77  1  0  0  0
 71 73  2  0  0  0
 71 75  1  0  0  0
 71145  1  0  0  0
 72 74  1  0  0  0
 72 75  2  0  0  0
 72146  1  0  0  0
 73 76  1  0  0  0
 73147  1  0  0  0
 74 76  2  0  0  0
 74148  1  0  0  0
 75 78  1  0  0  0
 76 81  1  0  0  0
 77 79  2  0  0  0
 77149  1  0  0  0
 78 82  1  0  0  0
 78 83  2  0  0  0
 79 80  1  0  0  0
 79 85  1  0  0  0
 80 82  1  0  0  0
 80 84  2  0  0  0
 81150  1  0  0  0
 82151  1  0  0  0
 83152  1  0  0  0
 83153  1  0  0  0
 85154  1  0  0  0
M  CHG  1  83   1
M  ISO  4   1 100  68 101  77 101  81 100
M  END
> <chiral flag>
0

> <version>
0

> <s_m_source_file>
/data/baiqing/PycharmProjects/Reinvent-master-3.2/result/LINK_invent/BTK/process_docking_weight1_custom_product_contain_oxygen_bond_distance_aromatic_linkinvent_7_9_3/rearranged_h_0082.sdf

> <i_m_source_file_index>
84

> <r_mmod_Potential_Energy-OPLS-2005>
-307.828094482422

> <r_mmod_Stretch_Energy-OPLS-2005>
47.4952850341797

> <r_mmod_Bend_Energy-OPLS-2005>
117.942398071289

> <r_mmod_Torsional_Energy-OPLS-2005>
244.438720703125

> <r_mmod_Improper_Torsional_Energy-OPLS-2005>
5.17879295349121

> <r_mmod_Van_der_Waal_Energy-OPLS-2005>
155.245697021484

> <r_mmod_Electrostatic_Energy-OPLS-2005>
-462.856109619141

> <r_mmod_Solvation_Energy-OPLS-2005>
-436.103363037109

> <b_mmod_Minimization_Converged-OPLS-2005>
0

> <r_mmod_RMS_Derivative-OPLS-2005>
0.504493296146393

$$$$
84
                    3D
 Structure written by MMmdl.
150159  0  0  1  0            999 V2000
  -30.5776  -14.7956   20.4482 C   0  0  0  0  0  0
  -30.4363  -12.4798   19.4923 C   0  0  0  0  0  0
  -29.5194  -12.5220   18.2484 C   0  0  0  0  0  0
  -28.0414  -12.3484   18.6519 C   0  0  0  0  0  0
  -27.6446  -13.2386   19.8599 C   0  0  2  0  0  0
  -28.6859  -13.1719   20.9985 C   0  0  0  0  0  0
  -25.2522  -13.8223   20.5711 C   0  0  0  0  0  0
  -24.1812  -13.0464   20.9190 C   0  0  0  0  0  0
  -24.6399  -11.6939   20.8745 C   0  0  0  0  0  0
  -23.9070  -10.4313   21.0411 C   0  0  0  0  0  0
  -24.3630   -9.4223   21.9188 C   0  0  0  0  0  0
  -23.6294   -8.2256   22.0755 C   0  0  0  0  0  0
  -22.4282   -8.0297   21.3539 C   0  0  0  0  0  0
  -21.9905   -9.0277   20.4649 C   0  0  0  0  0  0
  -22.7233  -10.2160   20.3060 C   0  0  0  0  0  0
  -21.6867   -6.0737   22.5268 C   0  0  0  0  0  0
  -21.4031   -6.5642   23.8205 C   0  0  0  0  0  0
  -21.3652   -5.6793   24.9157 C   0  0  0  0  0  0
  -21.6045   -4.3053   24.7212 C   0  0  0  0  0  0
  -21.8824   -3.8137   23.4336 C   0  0  0  0  0  0
  -21.9197   -4.6957   22.3384 C   0  0  0  0  0  0
  -22.7830  -13.5239   21.1836 C   0  0  0  0  0  0
  -22.1668   -4.2137   21.0962 F   0  0  0  0  0  0
  -21.5608   -3.4530   25.7717 F   0  0  0  0  0  0
  -29.9895  -13.5436   20.4274 N   0  0  0  0  0  0
  -26.2958  -12.9434   20.3321 N   0  0  0  0  0  0
  -25.9345  -11.6567   20.5781 N   0  0  0  0  0  0
  -22.0479  -12.8248   22.0412 N   0  0  0  0  0  0
  -25.4227  -15.1945   20.4131 N   0  0  0  0  0  0
  -31.7385  -14.9226   20.0419 O   0  0  0  0  0  0
  -21.6660   -6.8885   21.4238 O   0  0  0  0  0  0
  -22.3502  -14.5513   20.6633 O   0  0  0  0  0  0
  -24.6351  -31.8504   23.1960 C   0  0  0  0  0  0
  -25.9161  -32.4723   23.8323 C   0  0  1  0  0  0
  -27.2276  -27.2196   20.1368 C   0  0  0  0  0  0
  -25.5927  -33.8528   24.2234 N   0  0  0  0  0  0
  -23.4360  -30.4728   21.5364 C   0  0  2  0  0  0
  -24.8871  -28.9127   20.1076 C   0  0  0  0  0  0
  -22.7525  -29.4575   22.4855 C   0  0  0  0  0  0
  -18.0298  -28.1396   22.8476 C   0  0  0  0  0  0
  -24.1485  -36.7285   23.2639 C   0  0  0  0  0  0
  -25.9852  -30.7488   21.3844 C   0  0  0  0  0  0
  -26.0584  -29.3685   20.7259 C   0  0  0  0  0  0
  -27.2270  -28.5339   20.7310 C   0  0  0  0  0  0
  -26.0347  -26.8492   19.4749 C   0  0  0  0  0  0
  -24.8833  -27.6627   19.4695 C   0  0  0  0  0  0
  -23.6605  -29.8076   20.1528 C   0  0  0  0  0  0
  -25.4109  -36.3049   24.0320 C   0  0  1  0  0  0
  -20.5898  -28.3709   23.1238 C   0  0  2  0  0  0
  -20.6778  -26.9420   22.5391 C   0  0  0  0  0  0
  -19.5751  -26.6373   21.5205 C   0  0  0  0  0  0
  -18.1941  -26.7929   22.1636 C   0  0  0  0  0  0
  -19.1552  -28.8869   23.2854 C   0  0  0  0  0  0
  -18.9473  -30.1462   23.8887 C   0  0  0  0  0  0
  -17.6470  -30.6591   24.0558 C   0  0  0  0  0  0
  -25.9061  -34.9420   23.5088 C   0  0  0  0  0  0
  -16.5361  -29.9091   23.6330 C   0  0  0  0  0  0
  -16.7280  -28.6509   23.0356 C   0  0  0  0  0  0
  -26.4496  -31.6573   25.0740 C   0  0  0  0  0  0
  -25.3715  -31.3781   26.1465 C   0  0  0  0  0  0
  -27.0333  -30.2972   24.6292 C   0  0  0  0  0  0
  -27.6052  -32.4316   25.7493 C   0  0  0  0  0  0
  -27.5579  -37.1785   24.8452 C   0  0  0  0  0  0
  -21.4218  -29.3057   22.3614 N   0  0  0  0  0  0
  -26.4277  -37.3760   23.9415 N   0  0  0  0  0  0
  -24.7040  -31.0429   22.0948 N   0  0  0  0  0  0
  -23.4189  -28.8102   23.2972 O   0  0  0  0  0  0
  -28.3170  -26.3038   20.2219 O   0  0  0  0  0  0
  -26.5643  -34.8898   22.4665 O   0  0  0  0  0  0
  -23.5481  -32.1337   23.7233 O   0  0  0  0  0  0
  -29.3548  -18.9980   18.5866 C   0  0  0  0  0  0
  -29.6069  -17.6618   19.0245 C   0  0  0  0  0  0
  -29.6906  -18.4720   21.2924 C   0  0  0  0  0  0
  -29.3799  -21.1919   21.5015 C   0  0  0  0  0  0
  -29.4670  -19.8571   20.8804 C   0  0  0  0  0  0
  -29.2690  -20.0866   19.4936 C   0  0  0  0  0  0
  -29.7695  -17.3321   20.3965 C   0  0  0  0  0  0
  -29.0833  -22.1870   20.5581 C   0  0  0  0  0  0
  -28.9632  -23.7329   20.7618 C   0  0  0  0  0  0
  -28.1617  -24.8218   19.8766 C   0  0  0  0  0  0
  -29.0129  -21.4744   19.3432 N   0  0  0  0  0  0
  -29.8212  -15.9003   20.8437 N   0  0  0  0  0  0
  -29.5095  -24.1855   21.7724 O   0  0  0  0  0  0
  -31.4768  -12.6132   19.1919 H   0  0  0  0  0  0
  -30.3903  -11.5027   19.9762 H   0  0  0  0  0  0
  -29.8035  -11.7444   17.5383 H   0  0  0  0  0  0
  -29.6485  -13.4732   17.7309 H   0  0  0  0  0  0
  -27.8881  -11.2974   18.8995 H   0  0  0  0  0  0
  -27.3917  -12.5581   17.7997 H   0  0  0  0  0  0
  -27.6383  -14.2634   19.4879 H   0  0  0  0  0  0
  -28.7270  -12.1689   21.4246 H   0  0  0  0  0  0
  -28.4091  -13.8367   21.8179 H   0  0  0  0  0  0
  -25.2781   -9.5685   22.4762 H   0  0  0  0  0  0
  -23.9990   -7.4648   22.7486 H   0  0  0  0  0  0
  -21.0821   -8.8818   19.8971 H   0  0  0  0  0  0
  -22.3697  -10.9708   19.6176 H   0  0  0  0  0  0
  -21.2061   -7.6157   23.9697 H   0  0  0  0  0  0
  -21.1457   -6.0525   25.9053 H   0  0  0  0  0  0
  -22.0607   -2.7601   23.2851 H   0  0  0  0  0  0
  -22.4098  -11.9940   22.4840 H   0  0  0  0  0  0
  -21.1102  -13.1299   22.2603 H   0  0  0  0  0  0
  -24.6598  -15.8565   20.5089 H   0  0  0  0  0  0
  -26.2777  -15.6267   20.0826 H   0  0  0  0  0  0
  -26.7233  -32.5353   23.1059 H   0  0  0  0  0  0
  -25.0023  -33.9648   25.0339 H   0  0  0  0  0  0
  -22.7355  -31.2960   21.3871 H   0  0  0  0  0  0
  -23.3741  -35.9625   23.3260 H   0  0  0  0  0  0
  -24.3593  -36.8961   22.2068 H   0  0  0  0  0  0
  -23.7236  -37.6470   23.6693 H   0  0  0  0  0  0
  -26.1354  -31.5088   20.6151 H   0  0  0  0  0  0
  -26.8577  -30.7954   22.0258 H   0  0  0  0  0  0
  -28.1175  -28.8768   21.2396 H   0  0  0  0  0  0
  -25.9572  -25.9027   18.9619 H   0  0  0  0  0  0
  -23.9908  -27.3125   18.9691 H   0  0  0  0  0  0
  -23.7944  -30.5862   19.4000 H   0  0  0  0  0  0
  -22.7763  -29.2484   19.8398 H   0  0  0  0  0  0
  -25.1289  -36.1891   25.0813 H   0  0  0  0  0  0
  -20.9998  -28.3307   24.1352 H   0  0  0  0  0  0
  -20.5680  -26.2328   23.3603 H   0  0  0  0  0  0
  -21.6643  -26.7432   22.1184 H   0  0  0  0  0  0
  -19.6905  -25.6275   21.1260 H   0  0  0  0  0  0
  -19.6679  -27.3160   20.6716 H   0  0  0  0  0  0
  -17.4184  -26.6629   21.4068 H   0  0  0  0  0  0
  -18.0378  -26.0086   22.9061 H   0  0  0  0  0  0
  -19.7949  -30.7283   24.2253 H   0  0  0  0  0  0
  -17.5029  -31.6279   24.5153 H   0  0  0  0  0  0
  -15.5370  -30.3000   23.7649 H   0  0  0  0  0  0
  -15.8677  -28.0831   22.7073 H   0  0  0  0  0  0
  -24.5732  -30.7336   25.7757 H   0  0  0  0  0  0
  -24.9103  -32.2996   26.5036 H   0  0  0  0  0  0
  -25.7972  -30.8761   27.0164 H   0  0  0  0  0  0
  -26.2933  -29.6711   24.1288 H   0  0  0  0  0  0
  -27.3931  -29.7260   25.4863 H   0  0  0  0  0  0
  -27.8854  -30.4205   23.9604 H   0  0  0  0  0  0
  -27.2657  -33.3599   26.2104 H   0  0  0  0  0  0
  -28.3830  -32.6918   25.0297 H   0  0  0  0  0  0
  -28.0757  -31.8433   26.5383 H   0  0  0  0  0  0
  -28.2554  -38.0124   24.7541 H   0  0  0  0  0  0
  -28.1110  -36.2653   24.6200 H   0  0  0  0  0  0
  -27.2311  -37.1350   25.8858 H   0  0  0  0  0  0
  -20.9387  -29.8824   21.6857 H   0  0  0  0  0  0
  -26.0143  -38.2822   24.1445 H   0  0  0  0  0  0
  -29.2154  -19.1852   17.5312 H   0  0  0  0  0  0
  -29.6246  -16.8737   18.2827 H   0  0  0  0  0  0
  -29.7999  -18.2944   22.3526 H   0  0  0  0  0  0
  -29.5245  -21.3732   22.5579 H   0  0  0  0  0  0
  -27.1177  -24.5310   19.9768 H   0  0  0  0  0  0
  -28.4251  -24.6806   18.8285 H   0  0  0  0  0  0
  -28.8310  -21.9320   18.4546 H   0  0  0  0  0  0
  -29.0250  -15.6210   21.4003 H   0  0  0  0  0  0
  1 25  1  0  0  0
  1 30  2  0  0  0
  1 82  1  0  0  0
  2  3  1  0  0  0
  2 25  1  0  0  0
  2 84  1  0  0  0
  2 85  1  0  0  0
  3  4  1  0  0  0
  3 86  1  0  0  0
  3 87  1  0  0  0
  4  5  1  0  0  0
  4 88  1  0  0  0
  4 89  1  0  0  0
  5  6  1  0  0  0
  5 26  1  0  0  0
  5 90  1  0  0  0
  6 25  1  0  0  0
  6 91  1  0  0  0
  6 92  1  0  0  0
  7  8  2  0  0  0
  7 26  1  0  0  0
  7 29  1  0  0  0
  8  9  1  0  0  0
  8 22  1  0  0  0
  9 10  1  0  0  0
  9 27  2  0  0  0
 10 11  2  0  0  0
 10 15  1  0  0  0
 11 12  1  0  0  0
 11 93  1  0  0  0
 12 13  2  0  0  0
 12 94  1  0  0  0
 13 14  1  0  0  0
 13 31  1  0  0  0
 14 15  2  0  0  0
 14 95  1  0  0  0
 15 96  1  0  0  0
 16 17  2  0  0  0
 16 21  1  0  0  0
 16 31  1  0  0  0
 17 18  1  0  0  0
 17 97  1  0  0  0
 18 19  2  0  0  0
 18 98  1  0  0  0
 19 20  1  0  0  0
 19 24  1  0  0  0
 20 21  2  0  0  0
 20 99  1  0  0  0
 21 23  1  0  0  0
 22 28  1  0  0  0
 22 32  2  0  0  0
 26 27  1  0  0  0
 28100  1  0  0  0
 28101  1  0  0  0
 29102  1  0  0  0
 29103  1  0  0  0
 33 34  1  0  0  0
 33 66  1  0  0  0
 33 70  2  0  0  0
 34 36  1  0  0  0
 34 59  1  0  0  0
 34104  1  0  0  0
 35 44  2  0  0  0
 35 45  1  0  0  0
 35 68  1  0  0  0
 36 56  1  0  0  0
 36105  1  0  0  0
 37 39  1  0  0  0
 37 47  1  0  0  0
 37 66  1  0  0  0
 37106  1  0  0  0
 38 43  2  0  0  0
 38 46  1  0  0  0
 38 47  1  0  0  0
 39 64  1  0  0  0
 39 67  2  0  0  0
 40 52  1  0  0  0
 40 53  2  0  0  0
 40 58  1  0  0  0
 41107  1  0  0  0
 41108  1  0  0  0
 41109  1  0  0  0
 41 48  1  0  0  0
 42 43  1  0  0  0
 42 66  1  0  0  0
 42110  1  0  0  0
 42111  1  0  0  0
 43 44  1  0  0  0
 44112  1  0  0  0
 45 46  2  0  0  0
 45113  1  0  0  0
 46114  1  0  0  0
 47115  1  0  0  0
 47116  1  0  0  0
 48 56  1  0  0  0
 48 65  1  0  0  0
 48117  1  0  0  0
 49 50  1  0  0  0
 49 53  1  0  0  0
 49 64  1  0  0  0
 49118  1  0  0  0
 50 51  1  0  0  0
 50119  1  0  0  0
 50120  1  0  0  0
 51 52  1  0  0  0
 51121  1  0  0  0
 51122  1  0  0  0
 52123  1  0  0  0
 52124  1  0  0  0
 53 54  1  0  0  0
 54 55  2  0  0  0
 54125  1  0  0  0
 55 57  1  0  0  0
 55126  1  0  0  0
 56 69  2  0  0  0
 57 58  2  0  0  0
 57127  1  0  0  0
 58128  1  0  0  0
 59 60  1  0  0  0
 59 61  1  0  0  0
 59 62  1  0  0  0
 60129  1  0  0  0
 60130  1  0  0  0
 60131  1  0  0  0
 61132  1  0  0  0
 61133  1  0  0  0
 61134  1  0  0  0
 62135  1  0  0  0
 62136  1  0  0  0
 62137  1  0  0  0
 63 65  1  0  0  0
 63138  1  0  0  0
 63139  1  0  0  0
 63140  1  0  0  0
 64141  1  0  0  0
 65142  1  0  0  0
 68 80  1  0  0  0
 71 72  2  0  0  0
 71 76  1  0  0  0
 71143  1  0  0  0
 72 77  1  0  0  0
 72144  1  0  0  0
 73 75  1  0  0  0
 73 77  2  0  0  0
 73145  1  0  0  0
 74 75  1  0  0  0
 74 78  2  0  0  0
 74146  1  0  0  0
 75 76  2  0  0  0
 76 81  1  0  0  0
 77 82  1  0  0  0
 78 79  1  0  0  0
 78 81  1  0  0  0
 79 80  1  0  0  0
 79 83  2  0  0  0
 80147  1  0  0  0
 80148  1  0  0  0
 81149  1  0  0  0
 82150  1  0  0  0
M  ISO  4   1 100  68 101  80 101  82 100
M  END
> <chiral flag>
0

> <version>
0

> <s_m_source_file>
/data/baiqing/PycharmProjects/Reinvent-master-3.2/result/LINK_invent/BTK/process_docking_weight1_custom_product_contain_oxygen_bond_distance_aromatic_linkinvent_7_9_3/rearranged_h_0082.sdf

> <i_m_source_file_index>
85

> <r_mmod_Potential_Energy-OPLS-2005>
248.223663330078

> <r_mmod_Stretch_Energy-OPLS-2005>
143.964859008789

> <r_mmod_Bend_Energy-OPLS-2005>
178.164855957031

> <r_mmod_Torsional_Energy-OPLS-2005>
242.626998901367

> <r_mmod_Improper_Torsional_Energy-OPLS-2005>
4.38290357589722

> <r_mmod_Van_der_Waal_Energy-OPLS-2005>
128.745697021484

> <r_mmod_Electrostatic_Energy-OPLS-2005>
-307.252838134766

> <r_mmod_Solvation_Energy-OPLS-2005>
-252.623336791992

> <b_mmod_Minimization_Converged-OPLS-2005>
0

> <r_mmod_RMS_Derivative-OPLS-2005>
3.04932689666748

$$$$
85
                    3D
 Structure written by MMmdl.
152161  0  0  1  0            999 V2000
  -30.6130  -14.6499   20.5056 C   0  0  0  0  0  0
  -30.4430  -12.3996   19.4520 C   0  0  0  0  0  0
  -29.5094  -12.5124   18.2252 C   0  0  0  0  0  0
  -28.0314  -12.3486   18.6349 C   0  0  0  0  0  0
  -27.6545  -13.2158   19.8655 C   0  0  2  0  0  0
  -28.6994  -13.0623   20.9935 C   0  0  0  0  0  0
  -25.2560  -13.8173   20.5692 C   0  0  0  0  0  0
  -24.1822  -13.0441   20.9192 C   0  0  0  0  0  0
  -24.6388  -11.6913   20.8747 C   0  0  0  0  0  0
  -23.9059  -10.4293   21.0407 C   0  0  0  0  0  0
  -24.3613   -9.4208   21.9180 C   0  0  0  0  0  0
  -23.6294   -8.2245   22.0746 C   0  0  0  0  0  0
  -22.4275   -8.0281   21.3541 C   0  0  0  0  0  0
  -21.9908   -9.0253   20.4641 C   0  0  0  0  0  0
  -22.7235  -10.2134   20.3052 C   0  0  0  0  0  0
  -21.6851   -6.0742   22.5285 C   0  0  0  0  0  0
  -21.4012   -6.5643   23.8220 C   0  0  0  0  0  0
  -21.3659   -5.6792   24.9181 C   0  0  0  0  0  0
  -21.6044   -4.3055   24.7226 C   0  0  0  0  0  0
  -21.8817   -3.8151   23.4345 C   0  0  0  0  0  0
  -21.9189   -4.6971   22.3406 C   0  0  0  0  0  0
  -22.7843  -13.5239   21.1856 C   0  0  0  0  0  0
  -22.1658   -4.2160   21.0981 F   0  0  0  0  0  0
  -21.5627   -3.4535   25.7735 F   0  0  0  0  0  0
  -30.0156  -13.4158   20.4357 N   0  0  0  0  0  0
  -26.2993  -12.9352   20.3326 N   0  0  0  0  0  0
  -25.9315  -11.6509   20.5756 N   0  0  0  0  0  0
  -22.0474  -12.8239   22.0411 N   0  0  0  0  0  0
  -25.4279  -15.1896   20.4115 N   0  0  0  0  0  0
  -31.7676  -14.8244   20.1043 O   0  0  0  0  0  0
  -21.6637   -6.8882   21.4244 O   0  0  0  0  0  0
  -22.3534  -14.5552   20.6710 O   0  0  0  0  0  0
  -24.6299  -31.8600   23.2056 C   0  0  0  0  0  0
  -25.9146  -32.4778   23.8379 C   0  0  1  0  0  0
  -27.2169  -27.2994   20.1109 C   0  0  0  0  0  0
  -25.5966  -33.8578   24.2312 N   0  0  0  0  0  0
  -23.4252  -30.4906   21.5456 C   0  0  2  0  0  0
  -24.8710  -28.9531   20.1073 C   0  0  0  0  0  0
  -22.7501  -29.4653   22.4886 C   0  0  0  0  0  0
  -18.0307  -28.1400   22.8487 C   0  0  0  0  0  0
  -24.1493  -36.7275   23.2635 C   0  0  0  0  0  0
  -25.9716  -30.7843   21.3838 C   0  0  0  0  0  0
  -26.0433  -29.4129   20.7207 C   0  0  0  0  0  0
  -27.2191  -28.5977   20.7168 C   0  0  0  0  0  0
  -26.0185  -26.9159   19.4563 C   0  0  0  0  0  0
  -24.8621  -27.7106   19.4652 C   0  0  0  0  0  0
  -23.6434  -29.8375   20.1575 C   0  0  0  0  0  0
  -25.4111  -36.3077   24.0341 C   0  0  1  0  0  0
  -20.5913  -28.3725   23.1253 C   0  0  2  0  0  0
  -20.6803  -26.9442   22.5393 C   0  0  0  0  0  0
  -19.5776  -26.6394   21.5210 C   0  0  0  0  0  0
  -18.1956  -26.7946   22.1622 C   0  0  0  0  0  0
  -19.1558  -28.8874   23.2873 C   0  0  0  0  0  0
  -18.9480  -30.1468   23.8903 C   0  0  0  0  0  0
  -17.6479  -30.6598   24.0574 C   0  0  0  0  0  0
  -25.9054  -34.9449   23.5116 C   0  0  0  0  0  0
  -16.5370  -29.9101   23.6331 C   0  0  0  0  0  0
  -16.7292  -28.6518   23.0353 C   0  0  0  0  0  0
  -26.4522  -31.6571   25.0735 C   0  0  0  0  0  0
  -25.3753  -31.3714   26.1456 C   0  0  0  0  0  0
  -27.0354  -30.2991   24.6186 C   0  0  0  0  0  0
  -27.6108  -32.4273   25.7488 C   0  0  0  0  0  0
  -27.5590  -37.1785   24.8463 C   0  0  0  0  0  0
  -21.4209  -29.3078   22.3633 N   0  0  0  0  0  0
  -26.4282  -37.3780   23.9433 N   0  0  0  0  0  0
  -24.6945  -31.0610   22.1017 N   0  0  0  0  0  0
  -23.4217  -28.8171   23.2956 O   0  0  0  0  0  0
  -28.3037  -26.3973   20.1762 O   0  0  0  0  0  0
  -26.5598  -34.8920   22.4667 O   0  0  0  0  0  0
  -23.5451  -32.1401   23.7367 O   0  0  0  0  0  0
  -30.8040  -19.3318   20.0734 C   0  0  0  0  0  0
  -28.6562  -19.3138   21.1394 C   0  0  0  0  0  0
  -30.8774  -17.9043   20.1691 C   0  0  0  0  0  0
  -28.7304  -17.8927   21.2391 C   0  0  0  0  0  0
  -29.6951  -20.0937   20.5589 C   0  0  0  0  0  0
  -29.8379  -17.1388   20.7641 C   0  0  0  0  0  0
  -30.2284  -23.7745   20.6108 C   0  0  0  0  0  0
  -28.9380  -23.7751   20.2762 C   0  0  0  0  0  0
  -30.6865  -22.4012   20.7552 C   0  0  0  0  0  0
  -28.5469  -22.3545   20.2089 C   0  0  0  0  0  0
  -27.9677  -24.9628   19.9418 C   0  0  0  0  0  0
  -29.6382  -21.5789   20.4974 N   0  0  0  0  0  0
  -29.7994  -15.6782   20.9094 N   0  0  0  0  0  0
  -31.8284  -22.0433   21.0673 O   0  0  0  0  0  0
  -27.4252  -21.9192   19.9225 O   0  0  0  0  0  0
  -31.4822  -12.5350   19.1474 H   0  0  0  0  0  0
  -30.3891  -11.4014   19.8893 H   0  0  0  0  0  0
  -29.7753  -11.7617   17.4796 H   0  0  0  0  0  0
  -29.6485  -13.4822   17.7448 H   0  0  0  0  0  0
  -27.8665  -11.2947   18.8608 H   0  0  0  0  0  0
  -27.3787  -12.5830   17.7931 H   0  0  0  0  0  0
  -27.6733  -14.2527   19.5298 H   0  0  0  0  0  0
  -28.7115  -12.0355   21.3621 H   0  0  0  0  0  0
  -28.4402  -13.6796   21.8545 H   0  0  0  0  0  0
  -25.2757   -9.5691   22.4757 H   0  0  0  0  0  0
  -24.0006   -7.4632   22.7459 H   0  0  0  0  0  0
  -21.0843   -8.8774   19.8942 H   0  0  0  0  0  0
  -22.3695  -10.9677   19.6166 H   0  0  0  0  0  0
  -21.2005   -7.6150   23.9733 H   0  0  0  0  0  0
  -21.1482   -6.0516   25.9086 H   0  0  0  0  0  0
  -22.0596   -2.7615   23.2838 H   0  0  0  0  0  0
  -22.4080  -11.9901   22.4815 H   0  0  0  0  0  0
  -21.1093  -13.1270   22.2603 H   0  0  0  0  0  0
  -24.6589  -15.8430   20.5148 H   0  0  0  0  0  0
  -26.2767  -15.6301   20.0809 H   0  0  0  0  0  0
  -26.7212  -32.5449   23.1125 H   0  0  0  0  0  0
  -25.0184  -33.9726   25.0507 H   0  0  0  0  0  0
  -22.7216  -31.3136   21.4046 H   0  0  0  0  0  0
  -23.3779  -35.9580   23.3250 H   0  0  0  0  0  0
  -24.3615  -36.8922   22.2061 H   0  0  0  0  0  0
  -23.7201  -37.6452   23.6666 H   0  0  0  0  0  0
  -26.1093  -31.5509   20.6201 H   0  0  0  0  0  0
  -26.8501  -30.8279   22.0155 H   0  0  0  0  0  0
  -28.1127  -28.9422   21.2188 H   0  0  0  0  0  0
  -25.9243  -25.9789   18.9308 H   0  0  0  0  0  0
  -23.9681  -27.3581   18.9691 H   0  0  0  0  0  0
  -23.7744  -30.6211   19.4100 H   0  0  0  0  0  0
  -22.7618  -29.2758   19.8437 H   0  0  0  0  0  0
  -25.1278  -36.1923   25.0830 H   0  0  0  0  0  0
  -21.0020  -28.3312   24.1368 H   0  0  0  0  0  0
  -20.5731  -26.2340   23.3602 H   0  0  0  0  0  0
  -21.6670  -26.7488   22.1168 H   0  0  0  0  0  0
  -19.6949  -25.6301   21.1252 H   0  0  0  0  0  0
  -19.6716  -27.3196   20.6736 H   0  0  0  0  0  0
  -17.4229  -26.6701   21.4017 H   0  0  0  0  0  0
  -18.0356  -26.0081   22.9012 H   0  0  0  0  0  0
  -19.7955  -30.7281   24.2277 H   0  0  0  0  0  0
  -17.5039  -31.6280   24.5172 H   0  0  0  0  0  0
  -15.5375  -30.3015   23.7647 H   0  0  0  0  0  0
  -15.8693  -28.0841   22.7063 H   0  0  0  0  0  0
  -24.5963  -30.7019   25.7789 H   0  0  0  0  0  0
  -24.8907  -32.2876   26.4839 H   0  0  0  0  0  0
  -25.8079  -30.8936   27.0253 H   0  0  0  0  0  0
  -26.2926  -29.6729   24.1230 H   0  0  0  0  0  0
  -27.4076  -29.7247   25.4678 H   0  0  0  0  0  0
  -27.8791  -30.4267   23.9402 H   0  0  0  0  0  0
  -27.2779  -33.3604   26.2041 H   0  0  0  0  0  0
  -28.3942  -32.6756   25.0315 H   0  0  0  0  0  0
  -28.0746  -31.8389   26.5413 H   0  0  0  0  0  0
  -28.2557  -38.0132   24.7572 H   0  0  0  0  0  0
  -28.1130  -36.2664   24.6189 H   0  0  0  0  0  0
  -27.2328  -37.1311   25.8868 H   0  0  0  0  0  0
  -20.9380  -29.8822   21.6862 H   0  0  0  0  0  0
  -26.0155  -38.2838   24.1486 H   0  0  0  0  0  0
  -31.6365  -19.8435   19.6110 H   0  0  0  0  0  0
  -27.7791  -19.8035   21.5391 H   0  0  0  0  0  0
  -31.7534  -17.4080   19.7761 H   0  0  0  0  0  0
  -27.9011  -17.3765   21.7024 H   0  0  0  0  0  0
  -30.8483  -24.6484   20.7322 H   0  0  0  0  0  0
  -27.0538  -24.7343   20.4940 H   0  0  0  0  0  0
  -27.7419  -24.8423   18.8815 H   0  0  0  0  0  0
  -28.9289  -15.3308   21.2808 H   0  0  0  0  0  0
  1 25  1  0  0  0
  1 30  2  0  0  0
  1 83  1  0  0  0
  2  3  1  0  0  0
  2 25  1  0  0  0
  2 86  1  0  0  0
  2 87  1  0  0  0
  3  4  1  0  0  0
  3 88  1  0  0  0
  3 89  1  0  0  0
  4  5  1  0  0  0
  4 90  1  0  0  0
  4 91  1  0  0  0
  5  6  1  0  0  0
  5 26  1  0  0  0
  5 92  1  0  0  0
  6 25  1  0  0  0
  6 93  1  0  0  0
  6 94  1  0  0  0
  7  8  2  0  0  0
  7 26  1  0  0  0
  7 29  1  0  0  0
  8  9  1  0  0  0
  8 22  1  0  0  0
  9 10  1  0  0  0
  9 27  2  0  0  0
 10 11  2  0  0  0
 10 15  1  0  0  0
 11 12  1  0  0  0
 11 95  1  0  0  0
 12 13  2  0  0  0
 12 96  1  0  0  0
 13 14  1  0  0  0
 13 31  1  0  0  0
 14 15  2  0  0  0
 14 97  1  0  0  0
 15 98  1  0  0  0
 16 17  2  0  0  0
 16 21  1  0  0  0
 16 31  1  0  0  0
 17 18  1  0  0  0
 17 99  1  0  0  0
 18 19  2  0  0  0
 18100  1  0  0  0
 19 20  1  0  0  0
 19 24  1  0  0  0
 20 21  2  0  0  0
 20101  1  0  0  0
 21 23  1  0  0  0
 22 28  1  0  0  0
 22 32  2  0  0  0
 26 27  1  0  0  0
 28102  1  0  0  0
 28103  1  0  0  0
 29104  1  0  0  0
 29105  1  0  0  0
 33 34  1  0  0  0
 33 66  1  0  0  0
 33 70  2  0  0  0
 34 36  1  0  0  0
 34 59  1  0  0  0
 34106  1  0  0  0
 35 44  2  0  0  0
 35 45  1  0  0  0
 35 68  1  0  0  0
 36 56  1  0  0  0
 36107  1  0  0  0
 37 39  1  0  0  0
 37 47  1  0  0  0
 37 66  1  0  0  0
 37108  1  0  0  0
 38 43  2  0  0  0
 38 46  1  0  0  0
 38 47  1  0  0  0
 39 64  1  0  0  0
 39 67  2  0  0  0
 40 52  1  0  0  0
 40 53  2  0  0  0
 40 58  1  0  0  0
 41109  1  0  0  0
 41110  1  0  0  0
 41111  1  0  0  0
 41 48  1  0  0  0
 42 43  1  0  0  0
 42 66  1  0  0  0
 42112  1  0  0  0
 42113  1  0  0  0
 43 44  1  0  0  0
 44114  1  0  0  0
 45 46  2  0  0  0
 45115  1  0  0  0
 46116  1  0  0  0
 47117  1  0  0  0
 47118  1  0  0  0
 48 56  1  0  0  0
 48 65  1  0  0  0
 48119  1  0  0  0
 49 50  1  0  0  0
 49 53  1  0  0  0
 49 64  1  0  0  0
 49120  1  0  0  0
 50 51  1  0  0  0
 50121  1  0  0  0
 50122  1  0  0  0
 51 52  1  0  0  0
 51123  1  0  0  0
 51124  1  0  0  0
 52125  1  0  0  0
 52126  1  0  0  0
 53 54  1  0  0  0
 54 55  2  0  0  0
 54127  1  0  0  0
 55 57  1  0  0  0
 55128  1  0  0  0
 56 69  2  0  0  0
 57 58  2  0  0  0
 57129  1  0  0  0
 58130  1  0  0  0
 59 60  1  0  0  0
 59 61  1  0  0  0
 59 62  1  0  0  0
 60131  1  0  0  0
 60132  1  0  0  0
 60133  1  0  0  0
 61134  1  0  0  0
 61135  1  0  0  0
 61136  1  0  0  0
 62137  1  0  0  0
 62138  1  0  0  0
 62139  1  0  0  0
 63 65  1  0  0  0
 63140  1  0  0  0
 63141  1  0  0  0
 63142  1  0  0  0
 64143  1  0  0  0
 65144  1  0  0  0
 68 81  1  0  0  0
 71 73  2  0  0  0
 71 75  1  0  0  0
 71145  1  0  0  0
 72 74  1  0  0  0
 72 75  2  0  0  0
 72146  1  0  0  0
 73 76  1  0  0  0
 73147  1  0  0  0
 74 76  2  0  0  0
 74148  1  0  0  0
 75 82  1  0  0  0
 76 83  1  0  0  0
 77 78  2  0  0  0
 77 79  1  0  0  0
 77149  1  0  0  0
 78 80  1  0  0  0
 78 81  1  0  0  0
 79 82  1  0  0  0
 79 84  2  0  0  0
 80 82  1  0  0  0
 80 85  2  0  0  0
 81150  1  0  0  0
 81151  1  0  0  0
 83152  1  0  0  0
M  ISO  4   1 100  68 101  81 101  83 100
M  END
> <chiral flag>
0

> <version>
0

> <s_m_source_file>
/data/baiqing/PycharmProjects/Reinvent-master-3.2/result/LINK_invent/BTK/process_docking_weight1_custom_product_contain_oxygen_bond_distance_aromatic_linkinvent_7_9_3/rearranged_h_0082.sdf

> <i_m_source_file_index>
86

> <r_mmod_Potential_Energy-OPLS-2005>
82.7786254882812

> <r_mmod_Stretch_Energy-OPLS-2005>
87.6945190429688

> <r_mmod_Bend_Energy-OPLS-2005>
189.800857543945

> <r_mmod_Torsional_Energy-OPLS-2005>
235.467269897461

> <r_mmod_Improper_Torsional_Energy-OPLS-2005>
3.68464469909668

> <r_mmod_Van_der_Waal_Energy-OPLS-2005>
148.999633789062

> <r_mmod_Electrostatic_Energy-OPLS-2005>
-403.608795166016

> <r_mmod_Solvation_Energy-OPLS-2005>
-237.189315795898

> <b_mmod_Minimization_Converged-OPLS-2005>
0

> <r_mmod_RMS_Derivative-OPLS-2005>
1.06836152076721

$$$$
86
                    3D
 Structure written by MMmdl.
150159  0  0  1  0            999 V2000
  -30.5590  -14.8807   20.3801 C   0  0  0  0  0  0
  -30.4303  -12.5339   19.4850 C   0  0  0  0  0  0
  -29.5126  -12.5183   18.2417 C   0  0  0  0  0  0
  -28.0414  -12.3232   18.6548 C   0  0  0  0  0  0
  -27.6300  -13.2443   19.8341 C   0  0  2  0  0  0
  -28.6736  -13.2470   20.9712 C   0  0  0  0  0  0
  -25.2489  -13.8227   20.5710 C   0  0  0  0  0  0
  -24.1801  -13.0456   20.9233 C   0  0  0  0  0  0
  -24.6404  -11.6935   20.8769 C   0  0  0  0  0  0
  -23.9084  -10.4300   21.0415 C   0  0  0  0  0  0
  -24.3636   -9.4208   21.9185 C   0  0  0  0  0  0
  -23.6315   -8.2241   22.0749 C   0  0  0  0  0  0
  -22.4300   -8.0282   21.3535 C   0  0  0  0  0  0
  -21.9935   -9.0261   20.4644 C   0  0  0  0  0  0
  -22.7260  -10.2142   20.3059 C   0  0  0  0  0  0
  -21.6860   -6.0746   22.5282 C   0  0  0  0  0  0
  -21.4016   -6.5646   23.8218 C   0  0  0  0  0  0
  -21.3659   -5.6794   24.9175 C   0  0  0  0  0  0
  -21.6046   -4.3055   24.7224 C   0  0  0  0  0  0
  -21.8821   -3.8152   23.4342 C   0  0  0  0  0  0
  -21.9202   -4.6973   22.3403 C   0  0  0  0  0  0
  -22.7823  -13.5221   21.1889 C   0  0  0  0  0  0
  -22.1664   -4.2155   21.0982 F   0  0  0  0  0  0
  -21.5626   -3.4534   25.7729 F   0  0  0  0  0  0
  -29.9591  -13.6286   20.3751 N   0  0  0  0  0  0
  -26.2890  -12.9439   20.3226 N   0  0  0  0  0  0
  -25.9327  -11.6577   20.5745 N   0  0  0  0  0  0
  -22.0475  -12.8191   22.0435 N   0  0  0  0  0  0
  -25.4193  -15.1956   20.4126 N   0  0  0  0  0  0
  -31.7714  -14.9281   20.1486 O   0  0  0  0  0  0
  -21.6648   -6.8886   21.4241 O   0  0  0  0  0  0
  -22.3498  -14.5530   20.6743 O   0  0  0  0  0  0
  -24.6393  -31.8484   23.1908 C   0  0  0  0  0  0
  -25.9186  -32.4713   23.8291 C   0  0  1  0  0  0
  -27.2173  -27.1784   20.1434 C   0  0  0  0  0  0
  -25.5943  -33.8514   24.2212 N   0  0  0  0  0  0
  -23.4413  -30.4698   21.5346 C   0  0  2  0  0  0
  -24.8925  -28.9016   20.1105 C   0  0  0  0  0  0
  -22.7546  -29.4577   22.4854 C   0  0  0  0  0  0
  -18.0301  -28.1382   22.8483 C   0  0  0  0  0  0
  -24.1495  -36.7272   23.2638 C   0  0  0  0  0  0
  -25.9953  -30.7333   21.3865 C   0  0  0  0  0  0
  -26.0684  -29.3471   20.7301 C   0  0  0  0  0  0
  -27.2347  -28.4990   20.7352 C   0  0  0  0  0  0
  -26.0213  -26.8263   19.4849 C   0  0  0  0  0  0
  -24.8785  -27.6520   19.4736 C   0  0  0  0  0  0
  -23.6677  -29.8002   20.1535 C   0  0  0  0  0  0
  -25.4119  -36.3051   24.0325 C   0  0  1  0  0  0
  -20.5917  -28.3719   23.1226 C   0  0  2  0  0  0
  -20.6788  -26.9424   22.5396 C   0  0  0  0  0  0
  -19.5761  -26.6372   21.5209 C   0  0  0  0  0  0
  -18.1943  -26.7916   22.1624 C   0  0  0  0  0  0
  -19.1559  -28.8865   23.2850 C   0  0  0  0  0  0
  -18.9474  -30.1458   23.8889 C   0  0  0  0  0  0
  -17.6473  -30.6585   24.0565 C   0  0  0  0  0  0
  -25.9061  -34.9422   23.5078 C   0  0  0  0  0  0
  -16.5363  -29.9092   23.6320 C   0  0  0  0  0  0
  -16.7288  -28.6498   23.0359 C   0  0  0  0  0  0
  -26.4518  -31.6544   25.0704 C   0  0  0  0  0  0
  -25.3709  -31.3743   26.1405 C   0  0  0  0  0  0
  -27.0368  -30.2935   24.6253 C   0  0  0  0  0  0
  -27.6058  -32.4296   25.7488 C   0  0  0  0  0  0
  -27.5577  -37.1793   24.8458 C   0  0  0  0  0  0
  -21.4240  -29.3064   22.3606 N   0  0  0  0  0  0
  -26.4293  -37.3754   23.9399 N   0  0  0  0  0  0
  -24.7110  -31.0374   22.0929 N   0  0  0  0  0  0
  -23.4208  -28.8118   23.2982 O   0  0  0  0  0  0
  -28.2571  -26.1941   20.1540 O   0  0  0  0  0  0
  -26.5653  -34.8916   22.4658 O   0  0  0  0  0  0
  -23.5516  -32.1344   23.7139 O   0  0  0  0  0  0
  -30.3910  -20.0400   18.6744 C   0  0  0  0  0  0
  -30.9287  -18.8517   18.1479 C   0  0  0  0  0  0
  -29.3812  -18.7489   20.4167 C   0  0  0  0  0  0
  -29.5597  -20.1051   19.8208 C   0  0  0  0  0  0
  -29.9685  -17.4675   19.9346 C   0  0  0  0  0  0
  -30.7115  -17.5970   18.7373 C   0  0  0  0  0  0
  -28.4719  -23.5462   20.3509 C   0  0  0  0  0  0
  -28.0955  -22.2302   20.9270 C   0  0  0  0  0  0
  -27.9627  -24.8447   20.6044 C   0  0  0  0  0  0
  -29.5139  -22.7861   19.4840 C   0  0  0  0  0  0
  -29.0573  -21.5141   20.1528 N   0  0  0  0  0  0
  -29.7815  -16.0587   20.4947 N   0  0  0  0  0  0
  -27.2461  -21.9425   21.7448 O   0  0  0  0  0  0
  -31.1882  -16.5113   18.0837 F   0  0  0  0  0  0
  -31.4662  -12.6749   19.1738 H   0  0  0  0  0  0
  -30.4003  -11.5747   20.0047 H   0  0  0  0  0  0
  -29.8147  -11.7268   17.5540 H   0  0  0  0  0  0
  -29.6204  -13.4576   17.6954 H   0  0  0  0  0  0
  -27.9167  -11.2789   18.9392 H   0  0  0  0  0  0
  -27.3838  -12.4824   17.7996 H   0  0  0  0  0  0
  -27.6000  -14.2520   19.4206 H   0  0  0  0  0  0
  -28.7392  -12.2676   21.4481 H   0  0  0  0  0  0
  -28.3870  -13.9529   21.7530 H   0  0  0  0  0  0
  -25.2784   -9.5684   22.4755 H   0  0  0  0  0  0
  -24.0022   -7.4630   22.7469 H   0  0  0  0  0  0
  -21.0865   -8.8792   19.8956 H   0  0  0  0  0  0
  -22.3726  -10.9684   19.6172 H   0  0  0  0  0  0
  -21.2001   -7.6157   23.9727 H   0  0  0  0  0  0
  -21.1476   -6.0520   25.9079 H   0  0  0  0  0  0
  -22.0603   -2.7615   23.2848 H   0  0  0  0  0  0
  -22.4096  -11.9852   22.4808 H   0  0  0  0  0  0
  -21.1099  -13.1216   22.2664 H   0  0  0  0  0  0
  -24.6582  -15.8552   20.5296 H   0  0  0  0  0  0
  -26.2651  -15.6281   20.0639 H   0  0  0  0  0  0
  -26.7247  -32.5340   23.1022 H   0  0  0  0  0  0
  -25.0074  -33.9629   25.0350 H   0  0  0  0  0  0
  -22.7419  -31.2951   21.3812 H   0  0  0  0  0  0
  -23.3761  -35.9602   23.3297 H   0  0  0  0  0  0
  -24.3580  -36.8899   22.2049 H   0  0  0  0  0  0
  -23.7248  -37.6470   23.6672 H   0  0  0  0  0  0
  -26.1460  -31.4910   20.6164 H   0  0  0  0  0  0
  -26.8673  -30.7842   22.0267 H   0  0  0  0  0  0
  -28.1320  -28.8349   21.2364 H   0  0  0  0  0  0
  -25.9584  -25.8684   18.9889 H   0  0  0  0  0  0
  -23.9839  -27.3091   18.9727 H   0  0  0  0  0  0
  -23.8019  -30.5767   19.3994 H   0  0  0  0  0  0
  -22.7831  -29.2416   19.8415 H   0  0  0  0  0  0
  -25.1301  -36.1901   25.0820 H   0  0  0  0  0  0
  -21.0008  -28.3327   24.1347 H   0  0  0  0  0  0
  -20.5665  -26.2353   23.3627 H   0  0  0  0  0  0
  -21.6657  -26.7426   22.1208 H   0  0  0  0  0  0
  -19.6935  -25.6279   21.1249 H   0  0  0  0  0  0
  -19.6685  -27.3176   20.6735 H   0  0  0  0  0  0
  -17.4206  -26.6662   21.4037 H   0  0  0  0  0  0
  -18.0360  -26.0058   22.9020 H   0  0  0  0  0  0
  -19.7953  -30.7269   24.2265 H   0  0  0  0  0  0
  -17.5030  -31.6262   24.5172 H   0  0  0  0  0  0
  -15.5364  -30.2998   23.7625 H   0  0  0  0  0  0
  -15.8690  -28.0804   22.7086 H   0  0  0  0  0  0
  -24.5898  -30.7076   25.7727 H   0  0  0  0  0  0
  -24.8893  -32.2935   26.4748 H   0  0  0  0  0  0
  -25.7995  -30.8965   27.0225 H   0  0  0  0  0  0
  -26.2973  -29.6664   24.1256 H   0  0  0  0  0  0
  -27.3982  -29.7212   25.4805 H   0  0  0  0  0  0
  -27.8889  -30.4155   23.9569 H   0  0  0  0  0  0
  -27.2654  -33.3609   26.2030 H   0  0  0  0  0  0
  -28.3901  -32.6824   25.0340 H   0  0  0  0  0  0
  -28.0703  -31.8443   26.5434 H   0  0  0  0  0  0
  -28.2590  -38.0092   24.7497 H   0  0  0  0  0  0
  -28.1085  -36.2619   24.6308 H   0  0  0  0  0  0
  -27.2293  -37.1461   25.8862 H   0  0  0  0  0  0
  -20.9438  -29.8802   21.6814 H   0  0  0  0  0  0
  -26.0173  -38.2837   24.1375 H   0  0  0  0  0  0
  -30.6254  -20.9353   18.1198 H   0  0  0  0  0  0
  -31.5117  -18.9013   17.2397 H   0  0  0  0  0  0
  -28.7575  -18.6893   21.2972 H   0  0  0  0  0  0
  -27.1707  -24.9002   21.3388 H   0  0  0  0  0  0
  -30.5669  -22.9922   19.6782 H   0  0  0  0  0  0
  -29.3254  -22.7778   18.4094 H   0  0  0  0  0  0
  -28.8664  -15.8942   20.8834 H   0  0  0  0  0  0
  1 25  1  0  0  0
  1 30  2  0  0  0
  1 82  1  0  0  0
  2  3  1  0  0  0
  2 25  1  0  0  0
  2 85  1  0  0  0
  2 86  1  0  0  0
  3  4  1  0  0  0
  3 87  1  0  0  0
  3 88  1  0  0  0
  4  5  1  0  0  0
  4 89  1  0  0  0
  4 90  1  0  0  0
  5  6  1  0  0  0
  5 26  1  0  0  0
  5 91  1  0  0  0
  6 25  1  0  0  0
  6 92  1  0  0  0
  6 93  1  0  0  0
  7  8  2  0  0  0
  7 26  1  0  0  0
  7 29  1  0  0  0
  8  9  1  0  0  0
  8 22  1  0  0  0
  9 10  1  0  0  0
  9 27  2  0  0  0
 10 11  2  0  0  0
 10 15  1  0  0  0
 11 12  1  0  0  0
 11 94  1  0  0  0
 12 13  2  0  0  0
 12 95  1  0  0  0
 13 14  1  0  0  0
 13 31  1  0  0  0
 14 15  2  0  0  0
 14 96  1  0  0  0
 15 97  1  0  0  0
 16 17  2  0  0  0
 16 21  1  0  0  0
 16 31  1  0  0  0
 17 18  1  0  0  0
 17 98  1  0  0  0
 18 19  2  0  0  0
 18 99  1  0  0  0
 19 20  1  0  0  0
 19 24  1  0  0  0
 20 21  2  0  0  0
 20100  1  0  0  0
 21 23  1  0  0  0
 22 28  1  0  0  0
 22 32  2  0  0  0
 26 27  1  0  0  0
 28101  1  0  0  0
 28102  1  0  0  0
 29103  1  0  0  0
 29104  1  0  0  0
 33 34  1  0  0  0
 33 66  1  0  0  0
 33 70  2  0  0  0
 34 36  1  0  0  0
 34 59  1  0  0  0
 34105  1  0  0  0
 35 44  2  0  0  0
 35 45  1  0  0  0
 35 68  1  0  0  0
 36 56  1  0  0  0
 36106  1  0  0  0
 37 39  1  0  0  0
 37 47  1  0  0  0
 37 66  1  0  0  0
 37107  1  0  0  0
 38 43  2  0  0  0
 38 46  1  0  0  0
 38 47  1  0  0  0
 39 64  1  0  0  0
 39 67  2  0  0  0
 40 52  1  0  0  0
 40 53  2  0  0  0
 40 58  1  0  0  0
 41108  1  0  0  0
 41109  1  0  0  0
 41110  1  0  0  0
 41 48  1  0  0  0
 42 43  1  0  0  0
 42 66  1  0  0  0
 42111  1  0  0  0
 42112  1  0  0  0
 43 44  1  0  0  0
 44113  1  0  0  0
 45 46  2  0  0  0
 45114  1  0  0  0
 46115  1  0  0  0
 47116  1  0  0  0
 47117  1  0  0  0
 48 56  1  0  0  0
 48 65  1  0  0  0
 48118  1  0  0  0
 49 50  1  0  0  0
 49 53  1  0  0  0
 49 64  1  0  0  0
 49119  1  0  0  0
 50 51  1  0  0  0
 50120  1  0  0  0
 50121  1  0  0  0
 51 52  1  0  0  0
 51122  1  0  0  0
 51123  1  0  0  0
 52124  1  0  0  0
 52125  1  0  0  0
 53 54  1  0  0  0
 54 55  2  0  0  0
 54126  1  0  0  0
 55 57  1  0  0  0
 55127  1  0  0  0
 56 69  2  0  0  0
 57 58  2  0  0  0
 57128  1  0  0  0
 58129  1  0  0  0
 59 60  1  0  0  0
 59 61  1  0  0  0
 59 62  1  0  0  0
 60130  1  0  0  0
 60131  1  0  0  0
 60132  1  0  0  0
 61133  1  0  0  0
 61134  1  0  0  0
 61135  1  0  0  0
 62136  1  0  0  0
 62137  1  0  0  0
 62138  1  0  0  0
 63 65  1  0  0  0
 63139  1  0  0  0
 63140  1  0  0  0
 63141  1  0  0  0
 64142  1  0  0  0
 65143  1  0  0  0
 68 79  1  0  0  0
 71 72  2  0  0  0
 71 74  1  0  0  0
 71144  1  0  0  0
 72 76  1  0  0  0
 72145  1  0  0  0
 73 74  2  0  0  0
 73 75  1  0  0  0
 73146  1  0  0  0
 74 81  1  0  0  0
 75 76  2  0  0  0
 75 82  1  0  0  0
 76 84  1  0  0  0
 77 78  1  0  0  0
 77 79  2  0  0  0
 77 80  1  0  0  0
 78 81  1  0  0  0
 78 83  2  0  0  0
 79147  1  0  0  0
 80 81  1  0  0  0
 80148  1  0  0  0
 80149  1  0  0  0
 82150  1  0  0  0
M  ISO  4   1 100  68 101  79 101  82 100
M  END
> <chiral flag>
0

> <version>
0

> <s_m_source_file>
/data/baiqing/PycharmProjects/Reinvent-master-3.2/result/LINK_invent/BTK/process_docking_weight1_custom_product_contain_oxygen_bond_distance_aromatic_linkinvent_7_9_3/rearranged_h_0082.sdf

> <i_m_source_file_index>
87

> <r_mmod_Potential_Energy-OPLS-2005>
394.800140380859

> <r_mmod_Stretch_Energy-OPLS-2005>
190.914184570312

> <r_mmod_Bend_Energy-OPLS-2005>
287.24951171875

> <r_mmod_Torsional_Energy-OPLS-2005>
239.973739624023

> <r_mmod_Improper_Torsional_Energy-OPLS-2005>
4.04099130630493

> <r_mmod_Van_der_Waal_Energy-OPLS-2005>
137.345153808594

> <r_mmod_Electrostatic_Energy-OPLS-2005>
-393.162384033203

> <r_mmod_Solvation_Energy-OPLS-2005>
-226.341339111328

> <b_mmod_Minimization_Converged-OPLS-2005>
0

> <r_mmod_RMS_Derivative-OPLS-2005>
2.09190702438354

$$$$
87
                    3D
 Structure written by MMmdl.
150159  0  0  1  0            999 V2000
  -30.4853  -15.1100   20.3378 C   0  0  0  0  0  0
  -30.4419  -12.6869   19.5078 C   0  0  0  0  0  0
  -29.5312  -12.5261   18.2659 C   0  0  0  0  0  0
  -28.0623  -12.2997   18.6755 C   0  0  0  0  0  0
  -27.6096  -13.2656   19.7992 C   0  0  2  0  0  0
  -28.6456  -13.3979   20.9281 C   0  0  0  0  0  0
  -25.2446  -13.8283   20.5675 C   0  0  0  0  0  0
  -24.1796  -13.0486   20.9217 C   0  0  0  0  0  0
  -24.6401  -11.6962   20.8702 C   0  0  0  0  0  0
  -23.9116  -10.4317   21.0394 C   0  0  0  0  0  0
  -24.3685   -9.4257   21.9178 C   0  0  0  0  0  0
  -23.6350   -8.2297   22.0769 C   0  0  0  0  0  0
  -22.4316   -8.0325   21.3564 C   0  0  0  0  0  0
  -21.9942   -9.0289   20.4650 C   0  0  0  0  0  0
  -22.7288  -10.2161   20.3049 C   0  0  0  0  0  0
  -21.6864   -6.0758   22.5278 C   0  0  0  0  0  0
  -21.4012   -6.5662   23.8216 C   0  0  0  0  0  0
  -21.3674   -5.6808   24.9179 C   0  0  0  0  0  0
  -21.6075   -4.3072   24.7208 C   0  0  0  0  0  0
  -21.8833   -3.8161   23.4322 C   0  0  0  0  0  0
  -21.9212   -4.6987   22.3380 C   0  0  0  0  0  0
  -22.7814  -13.5271   21.1893 C   0  0  0  0  0  0
  -22.1690   -4.2197   21.0951 F   0  0  0  0  0  0
  -21.5621   -3.4550   25.7709 F   0  0  0  0  0  0
  -29.9081  -13.8277   20.3169 N   0  0  0  0  0  0
  -26.2815  -12.9506   20.3062 N   0  0  0  0  0  0
  -25.9336  -11.6637   20.5632 N   0  0  0  0  0  0
  -22.0483  -12.8202   22.0429 N   0  0  0  0  0  0
  -25.4200  -15.2002   20.4130 N   0  0  0  0  0  0
  -31.7204  -15.1083   20.2639 O   0  0  0  0  0  0
  -21.6698   -6.8909   21.4237 O   0  0  0  0  0  0
  -22.3505  -14.5585   20.6765 O   0  0  0  0  0  0
  -24.6531  -31.8341   23.1850 C   0  0  0  0  0  0
  -25.9273  -32.4650   23.8238 C   0  0  1  0  0  0
  -27.2213  -27.0545   20.2001 C   0  0  0  0  0  0
  -25.5986  -33.8446   24.2149 N   0  0  0  0  0  0
  -23.4611  -30.4491   21.5323 C   0  0  2  0  0  0
  -24.9106  -28.8476   20.1272 C   0  0  0  0  0  0
  -22.7596  -29.4528   22.4906 C   0  0  0  0  0  0
  -18.0303  -28.1389   22.8459 C   0  0  0  0  0  0
  -24.1508  -36.7274   23.2635 C   0  0  0  0  0  0
  -26.0174  -30.6839   21.3911 C   0  0  0  0  0  0
  -26.0906  -29.2782   20.7500 C   0  0  0  0  0  0
  -27.2495  -28.4049   20.7607 C   0  0  0  0  0  0
  -26.0167  -26.7370   19.5378 C   0  0  0  0  0  0
  -24.8872  -27.5909   19.5006 C   0  0  0  0  0  0
  -23.6923  -29.7607   20.1590 C   0  0  0  0  0  0
  -25.4135  -36.3016   24.0292 C   0  0  1  0  0  0
  -20.5925  -28.3725   23.1239 C   0  0  2  0  0  0
  -20.6816  -26.9441   22.5388 C   0  0  0  0  0  0
  -19.5798  -26.6387   21.5208 C   0  0  0  0  0  0
  -18.1965  -26.7946   22.1601 C   0  0  0  0  0  0
  -19.1563  -28.8883   23.2836 C   0  0  0  0  0  0
  -18.9456  -30.1481   23.8878 C   0  0  0  0  0  0
  -17.6442  -30.6597   24.0561 C   0  0  0  0  0  0
  -25.9069  -34.9381   23.5034 C   0  0  0  0  0  0
  -16.5339  -29.9065   23.6337 C   0  0  0  0  0  0
  -16.7280  -28.6475   23.0370 C   0  0  0  0  0  0
  -26.4532  -31.6562   25.0726 C   0  0  0  0  0  0
  -25.3674  -31.3733   26.1398 C   0  0  0  0  0  0
  -27.0399  -30.2969   24.6330 C   0  0  0  0  0  0
  -27.6083  -32.4318   25.7488 C   0  0  0  0  0  0
  -27.5608  -37.1787   24.8434 C   0  0  0  0  0  0
  -21.4297  -29.3062   22.3639 N   0  0  0  0  0  0
  -26.4301  -37.3748   23.9392 N   0  0  0  0  0  0
  -24.7313  -31.0097   22.0939 N   0  0  0  0  0  0
  -23.4155  -28.8088   23.3131 O   0  0  0  0  0  0
  -28.2778  -26.0601   20.0984 O   0  0  0  0  0  0
  -26.5630  -34.8907   22.4593 O   0  0  0  0  0  0
  -23.5635  -32.1295   23.6993 O   0  0  0  0  0  0
  -28.7259  -17.7351   18.0138 C   0  0  0  0  0  0
  -29.2011  -16.5583   18.6364 C   0  0  0  0  0  0
  -28.7166  -18.9962   18.6476 C   0  0  0  0  0  0
  -29.7061  -17.9068   20.5893 C   0  0  0  0  0  0
  -29.7437  -16.5275   19.9429 C   0  0  0  0  0  0
  -29.1618  -19.1947   19.9764 C   0  0  0  0  0  0
  -27.4096  -22.3270   21.2245 C   0  0  0  0  0  0
  -28.3347  -23.0847   20.6076 C   0  0  0  0  0  0
  -27.6725  -20.8828   21.1583 C   0  0  0  0  0  0
  -29.2838  -21.9562   20.1509 C   0  0  0  0  0  0
  -28.4726  -24.7387   20.9446 C   0  0  0  0  0  0
  -28.8411  -20.6472   20.5126 N   0  0  0  0  0  0
  -26.9533  -20.0029   21.6429 O   0  0  0  0  0  0
  -30.3469  -22.1455   19.5465 O   0  0  0  0  0  0
  -31.4667  -12.8749   19.1858 H   0  0  0  0  0  0
  -30.4827  -11.7684   20.1008 H   0  0  0  0  0  0
  -29.8742  -11.7015   17.6402 H   0  0  0  0  0  0
  -29.6052  -13.4192   17.6473 H   0  0  0  0  0  0
  -27.9727  -11.2658   19.0179 H   0  0  0  0  0  0
  -27.4124  -12.4054   17.8051 H   0  0  0  0  0  0
  -27.5350  -14.2403   19.3170 H   0  0  0  0  0  0
  -28.7648  -12.4614   21.4742 H   0  0  0  0  0  0
  -28.3194  -14.1462   21.6508 H   0  0  0  0  0  0
  -25.2851   -9.5759   22.4736 H   0  0  0  0  0  0
  -24.0105   -7.4688   22.7472 H   0  0  0  0  0  0
  -21.0898   -8.8821   19.8898 H   0  0  0  0  0  0
  -22.3795  -10.9717   19.6150 H   0  0  0  0  0  0
  -21.1977   -7.6161   23.9714 H   0  0  0  0  0  0
  -21.1492   -6.0537   25.9095 H   0  0  0  0  0  0
  -22.0579   -2.7628   23.2795 H   0  0  0  0  0  0
  -22.4188  -11.9876   22.4766 H   0  0  0  0  0  0
  -21.1062  -13.1154   22.2628 H   0  0  0  0  0  0
  -24.6752  -15.8744   20.5530 H   0  0  0  0  0  0
  -26.2893  -15.6264   20.1120 H   0  0  0  0  0  0
  -26.7335  -32.5215   23.0953 H   0  0  0  0  0  0
  -25.0139  -33.9482   25.0314 H   0  0  0  0  0  0
  -22.7736  -31.2811   21.3673 H   0  0  0  0  0  0
  -23.3791  -35.9588   23.3223 H   0  0  0  0  0  0
  -24.3620  -36.8972   22.2068 H   0  0  0  0  0  0
  -23.7241  -37.6441   23.6712 H   0  0  0  0  0  0
  -26.1690  -31.4285   20.6086 H   0  0  0  0  0  0
  -26.8914  -30.7454   22.0250 H   0  0  0  0  0  0
  -28.1576  -28.7460   21.2420 H   0  0  0  0  0  0
  -25.9385  -25.7787   19.0442 H   0  0  0  0  0  0
  -23.9910  -27.2521   18.9975 H   0  0  0  0  0  0
  -23.8317  -30.5282   19.3982 H   0  0  0  0  0  0
  -22.8073  -29.2005   19.8525 H   0  0  0  0  0  0
  -25.1358  -36.1838   25.0796 H   0  0  0  0  0  0
  -20.9968  -28.3289   24.1379 H   0  0  0  0  0  0
  -20.5735  -26.2322   23.3579 H   0  0  0  0  0  0
  -21.6667  -26.7481   22.1179 H   0  0  0  0  0  0
  -19.6971  -25.6287   21.1263 H   0  0  0  0  0  0
  -19.6763  -27.3167   20.6719 H   0  0  0  0  0  0
  -17.4256  -26.6678   21.4000 H   0  0  0  0  0  0
  -18.0382  -26.0076   22.8988 H   0  0  0  0  0  0
  -19.7910  -30.7315   24.2258 H   0  0  0  0  0  0
  -17.4970  -31.6280   24.5160 H   0  0  0  0  0  0
  -15.5338  -30.2943   23.7701 H   0  0  0  0  0  0
  -15.8670  -28.0771   22.7127 H   0  0  0  0  0  0
  -24.5864  -30.7087   25.7694 H   0  0  0  0  0  0
  -24.8831  -32.2872   26.4848 H   0  0  0  0  0  0
  -25.7916  -30.8876   27.0186 H   0  0  0  0  0  0
  -26.3003  -29.6686   24.1357 H   0  0  0  0  0  0
  -27.4037  -29.7318   25.4921 H   0  0  0  0  0  0
  -27.8914  -30.4264   23.9642 H   0  0  0  0  0  0
  -27.2744  -33.3664   26.2018 H   0  0  0  0  0  0
  -28.3910  -32.6795   25.0301 H   0  0  0  0  0  0
  -28.0742  -31.8453   26.5418 H   0  0  0  0  0  0
  -28.2577  -38.0150   24.7590 H   0  0  0  0  0  0
  -28.1158  -36.2679   24.6138 H   0  0  0  0  0  0
  -27.2301  -37.1292   25.8825 H   0  0  0  0  0  0
  -20.9543  -29.8700   21.6736 H   0  0  0  0  0  0
  -26.0173  -38.2810   24.1420 H   0  0  0  0  0  0
  -28.3587  -17.6732   16.9964 H   0  0  0  0  0  0
  -29.1962  -15.6527   18.0440 H   0  0  0  0  0  0
  -28.3106  -19.8302   18.0871 H   0  0  0  0  0  0
  -30.1009  -17.9724   21.5951 H   0  0  0  0  0  0
  -26.6135  -22.7314   21.8329 H   0  0  0  0  0  0
  -29.4775  -24.8472   21.3557 H   0  0  0  0  0  0
  -27.8248  -24.8872   21.8086 H   0  0  0  0  0  0
  1 25  1  0  0  0
  1 30  2  0  0  0
  1 75  1  0  0  0
  2  3  1  0  0  0
  2 25  1  0  0  0
  2 85  1  0  0  0
  2 86  1  0  0  0
  3  4  1  0  0  0
  3 87  1  0  0  0
  3 88  1  0  0  0
  4  5  1  0  0  0
  4 89  1  0  0  0
  4 90  1  0  0  0
  5  6  1  0  0  0
  5 26  1  0  0  0
  5 91  1  0  0  0
  6 25  1  0  0  0
  6 92  1  0  0  0
  6 93  1  0  0  0
  7  8  2  0  0  0
  7 26  1  0  0  0
  7 29  1  0  0  0
  8  9  1  0  0  0
  8 22  1  0  0  0
  9 10  1  0  0  0
  9 27  2  0  0  0
 10 11  2  0  0  0
 10 15  1  0  0  0
 11 12  1  0  0  0
 11 94  1  0  0  0
 12 13  2  0  0  0
 12 95  1  0  0  0
 13 14  1  0  0  0
 13 31  1  0  0  0
 14 15  2  0  0  0
 14 96  1  0  0  0
 15 97  1  0  0  0
 16 17  2  0  0  0
 16 21  1  0  0  0
 16 31  1  0  0  0
 17 18  1  0  0  0
 17 98  1  0  0  0
 18 19  2  0  0  0
 18 99  1  0  0  0
 19 20  1  0  0  0
 19 24  1  0  0  0
 20 21  2  0  0  0
 20100  1  0  0  0
 21 23  1  0  0  0
 22 28  1  0  0  0
 22 32  2  0  0  0
 26 27  1  0  0  0
 28101  1  0  0  0
 28102  1  0  0  0
 29103  1  0  0  0
 29104  1  0  0  0
 33 34  1  0  0  0
 33 66  1  0  0  0
 33 70  2  0  0  0
 34 36  1  0  0  0
 34 59  1  0  0  0
 34105  1  0  0  0
 35 44  2  0  0  0
 35 45  1  0  0  0
 35 68  1  0  0  0
 36 56  1  0  0  0
 36106  1  0  0  0
 37 39  1  0  0  0
 37 47  1  0  0  0
 37 66  1  0  0  0
 37107  1  0  0  0
 38 43  2  0  0  0
 38 46  1  0  0  0
 38 47  1  0  0  0
 39 64  1  0  0  0
 39 67  2  0  0  0
 40 52  1  0  0  0
 40 53  2  0  0  0
 40 58  1  0  0  0
 41108  1  0  0  0
 41109  1  0  0  0
 41110  1  0  0  0
 41 48  1  0  0  0
 42 43  1  0  0  0
 42 66  1  0  0  0
 42111  1  0  0  0
 42112  1  0  0  0
 43 44  1  0  0  0
 44113  1  0  0  0
 45 46  2  0  0  0
 45114  1  0  0  0
 46115  1  0  0  0
 47116  1  0  0  0
 47117  1  0  0  0
 48 56  1  0  0  0
 48 65  1  0  0  0
 48118  1  0  0  0
 49 50  1  0  0  0
 49 53  1  0  0  0
 49 64  1  0  0  0
 49119  1  0  0  0
 50 51  1  0  0  0
 50120  1  0  0  0
 50121  1  0  0  0
 51 52  1  0  0  0
 51122  1  0  0  0
 51123  1  0  0  0
 52124  1  0  0  0
 52125  1  0  0  0
 53 54  1  0  0  0
 54 55  2  0  0  0
 54126  1  0  0  0
 55 57  1  0  0  0
 55127  1  0  0  0
 56 69  2  0  0  0
 57 58  2  0  0  0
 57128  1  0  0  0
 58129  1  0  0  0
 59 60  1  0  0  0
 59 61  1  0  0  0
 59 62  1  0  0  0
 60130  1  0  0  0
 60131  1  0  0  0
 60132  1  0  0  0
 61133  1  0  0  0
 61134  1  0  0  0
 61135  1  0  0  0
 62136  1  0  0  0
 62137  1  0  0  0
 62138  1  0  0  0
 63 65  1  0  0  0
 63139  1  0  0  0
 63140  1  0  0  0
 63141  1  0  0  0
 64142  1  0  0  0
 65143  1  0  0  0
 68 81  1  0  0  0
 71 72  2  0  0  0
 71 73  1  0  0  0
 71144  1  0  0  0
 72 75  1  0  0  0
 72145  1  0  0  0
 73 76  2  0  0  0
 73146  1  0  0  0
 74 75  2  0  0  0
 74 76  1  0  0  0
 74147  1  0  0  0
 76 82  1  0  0  0
 77 78  2  0  0  0
 77 79  1  0  0  0
 77148  1  0  0  0
 78 80  1  0  0  0
 78 81  1  0  0  0
 79 82  1  0  0  0
 79 83  2  0  0  0
 80 82  1  0  0  0
 80 84  2  0  0  0
 81149  1  0  0  0
 81150  1  0  0  0
M  ISO  4   1 100  68 101  75 100  81 101
M  END
> <chiral flag>
0

> <version>
0

> <s_m_source_file>
/data/baiqing/PycharmProjects/Reinvent-master-3.2/result/LINK_invent/BTK/process_docking_weight1_custom_product_contain_oxygen_bond_distance_aromatic_linkinvent_7_9_3/rearranged_h_0082.sdf

> <i_m_source_file_index>
88

> <r_mmod_Potential_Energy-OPLS-2005>
941.966796875

> <r_mmod_Stretch_Energy-OPLS-2005>
347.507446289062

> <r_mmod_Bend_Energy-OPLS-2005>
399.341949462891

> <r_mmod_Torsional_Energy-OPLS-2005>
308.945739746094

> <r_mmod_Improper_Torsional_Energy-OPLS-2005>
19.973840713501

> <r_mmod_Van_der_Waal_Energy-OPLS-2005>
112.304725646973

> <r_mmod_Electrostatic_Energy-OPLS-2005>
-313.886627197266

> <r_mmod_Solvation_Energy-OPLS-2005>
-231.48649597168

> <b_mmod_Minimization_Converged-OPLS-2005>
0

> <r_mmod_RMS_Derivative-OPLS-2005>
5.90151214599609

$$$$
